MODEL 1
REMARK VINA RESULT:      -9.9      0.000      0.000
REMARK SMILES C[C@H]1OCC[C@H]1c1nnnn1CC(=O)OCCOCCOCCOC(=O)c1ccc(-c2c3nc(c(-c4cccc(S(=O)(=O)[O-])c4F)c4ccc([nH]4)c(-c4cccc(S(=O)(=O)[O-])c4F)c4nc(c(-c5cccc(S(=O)(=O)[O-])c5F)c5ccc2[nH]5)C=C4)C=C3)cc1
REMARK SMILES IDX 20 1 19 2 18 3 17 4 16 5 15 6 13 7 14 8 12 9 11 10 7 11 8 12
REMARK SMILES IDX 9 13 10 14 6 15 1 16 2 17 3 18 4 19 5 20 21 21 22 22 23 23
REMARK SMILES IDX 24 24 25 25 26 26 27 27 28 28 89 29 29 30 88 31 30 32 31 33
REMARK SMILES IDX 32 34 82 35 33 36 87 37 81 38 83 39 34 40 86 41 80 42 79 43
REMARK SMILES IDX 35 45 67 46 47 47 66 48 48 49 51 50 65 51 84 52 49 53 50 54
REMARK SMILES IDX 64 56 85 57 52 58 36 59 37 60 45 61 38 62 40 63 46 64 39 65
REMARK SMILES IDX 41 66 42 67 43 68 44 69 68 70 69 71 77 72 70 73 72 74 78 75
REMARK SMILES IDX 71 76 73 77 74 78 75 79 76 80 53 81 54 82 62 83 55 84 57 85
REMARK SMILES IDX 63 86 56 87 58 88 59 89 60 90 61 91
REMARK H PARENT 83 44 51 55
REMARK Flexibility Score: inf
ROOT
ATOM      1  C   UNL A   1      34.189  33.738  27.950  1.00  0.00     0.188 C 
ENDROOT
BRANCH   1   2
ATOM      2  C   UNL A   1      35.132  32.531  28.007  1.00  0.00     0.188 C 
BRANCH   2   3
ATOM      3  O   UNL A   1      34.505  31.248  28.124  1.00  0.00    -0.376 OA
BRANCH   3   4
ATOM      4  C   UNL A   1      33.350  31.018  27.320  1.00  0.00     0.202 C 
BRANCH   4   5
ATOM      5  C   UNL A   1      33.418  29.792  26.389  1.00  0.00     0.261 C 
BRANCH   5   6
ATOM      6  O   UNL A   1      32.166  29.087  26.237  1.00  0.00    -0.462 OA
BRANCH   6   7
ATOM      7  C   UNL A   1      32.016  27.973  26.978  1.00  0.00     0.327 C 
ATOM      8  O   UNL A   1      31.355  27.918  28.014  1.00  0.00    -0.250 OA
BRANCH   7   9
ATOM      9  C   UNL A   1      32.657  26.731  26.445  1.00  0.00     0.270 C 
BRANCH   9  10
ATOM     10  N   UNL A   1      31.837  25.629  25.984  1.00  0.00    -0.218 N 
ATOM     11  C   UNL A   1      32.036  24.852  24.859  1.00  0.00     0.157 A 
ATOM     12  N   UNL A   1      31.337  23.744  25.000  1.00  0.00    -0.113 NA
ATOM     13  N   UNL A   1      30.773  23.801  26.245  1.00  0.00    -0.024 NA
ATOM     14  N   UNL A   1      31.126  24.912  26.874  1.00  0.00    -0.044 NA
BRANCH  11  15
ATOM     15  C   UNL A   1      32.945  25.202  23.731  1.00  0.00     0.090 C 
ATOM     16  C   UNL A   1      34.806  23.923  25.124  1.00  0.00     0.039 C 
ATOM     17  C   UNL A   1      34.395  24.670  23.856  1.00  0.00     0.126 C 
ATOM     18  O   UNL A   1      34.613  23.765  22.754  1.00  0.00    -0.378 OA
ATOM     19  C   UNL A   1      33.328  23.366  22.274  1.00  0.00     0.161 C 
ATOM     20  C   UNL A   1      32.482  24.609  22.403  1.00  0.00     0.043 C 
ENDBRANCH  11  15
ENDBRANCH   9  10
ENDBRANCH   7   9
ENDBRANCH   6   7
ENDBRANCH   5   6
ENDBRANCH   4   5
ENDBRANCH   3   4
ENDBRANCH   2   3
ENDBRANCH   1   2
BRANCH   1  21
ATOM     21  O   UNL A   1      33.607  34.002  29.222  1.00  0.00    -0.376 OA
BRANCH  21  22
ATOM     22  C   UNL A   1      34.375  34.482  30.319  1.00  0.00     0.202 C 
BRANCH  22  23
ATOM     23  C   UNL A   1      34.523  33.633  31.581  1.00  0.00     0.261 C 
BRANCH  23  24
ATOM     24  O   UNL A   1      34.869  32.282  31.350  1.00  0.00    -0.460 OA
BRANCH  24  25
ATOM     25  C   UNL A   1      35.899  31.754  32.045  1.00  0.00     0.338 C 
ATOM     26  O   UNL A   1      36.097  31.808  33.236  1.00  0.00    -0.246 OA
BRANCH  25  27
ATOM     27  C   UNL A   1      36.745  31.082  31.042  1.00  0.00     0.060 A 
ATOM     28  C   UNL A   1      36.595  29.706  30.912  1.00  0.00     0.016 A 
ATOM     29  C   UNL A   1      37.807  31.784  30.434  1.00  0.00     0.016 A 
ATOM     30  C   UNL A   1      37.684  29.000  30.467  1.00  0.00     0.010 A 
ATOM     31  C   UNL A   1      38.894  31.083  30.002  1.00  0.00     0.010 A 
ATOM     32  C   UNL A   1      38.852  29.707  30.158  1.00  0.00    -0.014 A 
BRANCH  32  33
ATOM     33  C   UNL A   1      40.081  28.967  30.079  1.00  0.00     0.031 A 
ATOM     34  C   UNL A   1      40.728  28.783  31.381  1.00  0.00     0.074 A 
ATOM     35  C   UNL A   1      40.532  28.485  28.908  1.00  0.00     0.049 A 
ATOM     36  N   UNL A   1      41.730  29.448  31.846  1.00  0.00    -0.248 NA
ATOM     37  C   UNL A   1      40.056  27.917  32.357  1.00  0.00     0.031 C 
ATOM     38  C   UNL A   1      39.812  28.358  27.635  1.00  0.00     0.029 A 
ATOM     39  N   UNL A   1      41.720  27.882  28.653  1.00  0.00    -0.354 N 
ATOM     40  C   UNL A   1      41.978  28.880  33.086  1.00  0.00     0.074 A 
ATOM     41  C   UNL A   1      40.789  28.152  33.445  1.00  0.00     0.031 C 
ATOM     42  C   UNL A   1      40.489  27.505  26.831  1.00  0.00     0.029 A 
ATOM     43  C   UNL A   1      41.740  27.145  27.478  1.00  0.00     0.049 A 
ATOM     44  H   UNL A   1      42.498  27.961  29.249  1.00  0.00     0.167 HD
ATOM     45  C   UNL A   1      43.248  28.789  33.562  1.00  0.00     0.034 A 
ATOM     46  C   UNL A   1      42.685  26.237  27.133  1.00  0.00     0.034 A 
ATOM     47  C   UNL A   1      44.147  29.652  32.836  1.00  0.00     0.049 A 
ATOM     48  C   UNL A   1      43.891  26.528  27.948  1.00  0.00     0.074 A 
ATOM     49  C   UNL A   1      44.206  31.008  32.574  1.00  0.00     0.029 A 
ATOM     50  N   UNL A   1      44.976  29.051  31.918  1.00  0.00    -0.354 N 
ATOM     51  N   UNL A   1      44.614  27.604  27.809  1.00  0.00    -0.248 NA
ATOM     52  C   UNL A   1      44.046  25.834  29.218  1.00  0.00     0.031 C 
ATOM     53  C   UNL A   1      44.708  31.108  31.244  1.00  0.00     0.029 A 
ATOM     54  C   UNL A   1      44.976  29.818  30.783  1.00  0.00     0.049 A 
ATOM     55  H   UNL A   1      45.479  28.216  32.053  1.00  0.00     0.167 HD
ATOM     56  C   UNL A   1      44.950  27.969  29.107  1.00  0.00     0.074 A 
ATOM     57  C   UNL A   1      44.677  26.783  29.916  1.00  0.00     0.031 C 
ATOM     58  C   UNL A   1      45.129  29.280  29.447  1.00  0.00     0.034 A 
BRANCH  45  59
ATOM     59  C   UNL A   1      43.755  27.641  34.399  1.00  0.00     0.023 A 
ATOM     60  C   UNL A   1      44.488  27.973  35.558  1.00  0.00     0.012 A 
ATOM     61  C   UNL A   1      43.792  26.290  33.981  1.00  0.00     0.148 A 
ATOM     62  C   UNL A   1      45.261  27.022  36.231  1.00  0.00     0.002 A 
ATOM     63  C   UNL A   1      44.487  25.331  34.704  1.00  0.00     0.091 A 
ATOM     64  F   UNL A   1      43.281  25.930  32.802  1.00  0.00    -0.205 F 
ATOM     65  C   UNL A   1      45.253  25.697  35.810  1.00  0.00     0.022 A 
BRANCH  63  66
ATOM     66  S   UNL A   1      44.457  23.598  34.228  1.00  0.00     0.127 S 
ATOM     67  O   UNL A   1      43.027  23.371  34.048  1.00  0.00    -0.237 OA
ATOM     68  O   UNL A   1      45.245  23.614  32.995  1.00  0.00    -0.237 OA
ATOM     69  O   UNL A   1      45.090  22.881  35.328  1.00  0.00    -0.744 OA
ENDBRANCH  63  66
ENDBRANCH  45  59
BRANCH  46  70
ATOM     70  C   UNL A   1      42.538  24.975  26.374  1.00  0.00     0.023 A 
ATOM     71  C   UNL A   1      43.381  24.728  25.272  1.00  0.00     0.012 A 
ATOM     72  C   UNL A   1      41.779  23.900  26.889  1.00  0.00     0.148 A 
ATOM     73  C   UNL A   1      43.490  23.445  24.724  1.00  0.00     0.002 A 
ATOM     74  C   UNL A   1      41.884  22.629  26.335  1.00  0.00     0.091 A 
ATOM     75  F   UNL A   1      41.027  24.103  27.979  1.00  0.00    -0.205 F 
ATOM     76  C   UNL A   1      42.750  22.394  25.260  1.00  0.00     0.022 A 
BRANCH  74  77
ATOM     77  S   UNL A   1      40.980  21.219  26.990  1.00  0.00     0.127 S 
ATOM     78  O   UNL A   1      40.778  21.613  28.386  1.00  0.00    -0.237 OA
ATOM     79  O   UNL A   1      39.771  21.228  26.172  1.00  0.00    -0.237 OA
ATOM     80  O   UNL A   1      41.854  20.067  26.815  1.00  0.00    -0.744 OA
ENDBRANCH  74  77
ENDBRANCH  46  70
BRANCH  58  81
ATOM     81  C   UNL A   1      45.229  30.293  28.331  1.00  0.00     0.023 A 
ATOM     82  C   UNL A   1      44.089  30.832  27.699  1.00  0.00     0.012 A 
ATOM     83  C   UNL A   1      46.490  30.840  28.038  1.00  0.00     0.148 A 
ATOM     84  C   UNL A   1      44.206  31.876  26.777  1.00  0.00     0.002 A 
ATOM     85  C   UNL A   1      46.598  31.911  27.158  1.00  0.00     0.091 A 
ATOM     86  F   UNL A   1      47.564  30.321  28.651  1.00  0.00    -0.205 F 
ATOM     87  C   UNL A   1      45.460  32.425  26.517  1.00  0.00     0.022 A 
BRANCH  85  88
ATOM     88  S   UNL A   1      48.164  32.742  26.881  1.00  0.00     0.127 S 
ATOM     89  O   UNL A   1      47.823  33.697  25.830  1.00  0.00    -0.237 OA
ATOM     90  O   UNL A   1      48.436  33.344  28.188  1.00  0.00    -0.237 OA
ATOM     91  O   UNL A   1      49.109  31.698  26.501  1.00  0.00    -0.744 OA
ENDBRANCH  85  88
ENDBRANCH  58  81
ENDBRANCH  32  33
ENDBRANCH  25  27
ENDBRANCH  24  25
ENDBRANCH  23  24
ENDBRANCH  22  23
ENDBRANCH  21  22
ENDBRANCH   1  21
TORSDOF 22
ENDMDL
MODEL 2
REMARK VINA RESULT:      -9.8      3.024      9.313
REMARK SMILES C[C@H]1OCC[C@H]1c1nnnn1CC(=O)OCCOCCOCCOC(=O)c1ccc(-c2c3nc(c(-c4cccc(S(=O)(=O)[O-])c4F)c4ccc([nH]4)c(-c4cccc(S(=O)(=O)[O-])c4F)c4nc(c(-c5cccc(S(=O)(=O)[O-])c5F)c5ccc2[nH]5)C=C4)C=C3)cc1
REMARK SMILES IDX 20 1 19 2 18 3 17 4 16 5 15 6 13 7 14 8 12 9 11 10 7 11 8 12
REMARK SMILES IDX 9 13 10 14 6 15 1 16 2 17 3 18 4 19 5 20 21 21 22 22 23 23
REMARK SMILES IDX 24 24 25 25 26 26 27 27 28 28 89 29 29 30 88 31 30 32 31 33
REMARK SMILES IDX 32 34 82 35 33 36 87 37 81 38 83 39 34 40 86 41 80 42 79 43
REMARK SMILES IDX 35 45 67 46 47 47 66 48 48 49 51 50 65 51 84 52 49 53 50 54
REMARK SMILES IDX 64 56 85 57 52 58 36 59 37 60 45 61 38 62 40 63 46 64 39 65
REMARK SMILES IDX 41 66 42 67 43 68 44 69 68 70 69 71 77 72 70 73 72 74 78 75
REMARK SMILES IDX 71 76 73 77 74 78 75 79 76 80 53 81 54 82 62 83 55 84 57 85
REMARK SMILES IDX 63 86 56 87 58 88 59 89 60 90 61 91
REMARK H PARENT 83 44 51 55
REMARK Flexibility Score: inf
ROOT
ATOM      1  C   UNL A   1      39.855  21.852  26.830  1.00  0.00     0.188 C 
ENDROOT
BRANCH   1   2
ATOM      2  C   UNL A   1      38.915  21.310  25.747  1.00  0.00     0.188 C 
BRANCH   2   3
ATOM      3  O   UNL A   1      38.052  22.269  25.124  1.00  0.00    -0.376 OA
BRANCH   3   4
ATOM      4  C   UNL A   1      36.867  21.769  24.509  1.00  0.00     0.202 C 
BRANCH   4   5
ATOM      5  C   UNL A   1      36.084  22.778  23.648  1.00  0.00     0.261 C 
BRANCH   5   6
ATOM      6  O   UNL A   1      34.996  23.434  24.336  1.00  0.00    -0.462 OA
BRANCH   6   7
ATOM      7  C   UNL A   1      33.757  23.171  23.880  1.00  0.00     0.327 C 
ATOM      8  O   UNL A   1      33.410  22.087  23.414  1.00  0.00    -0.250 OA
BRANCH   7   9
ATOM      9  C   UNL A   1      32.753  24.271  24.021  1.00  0.00     0.270 C 
BRANCH   9  10
ATOM     10  N   UNL A   1      32.141  24.538  25.307  1.00  0.00    -0.218 N 
ATOM     11  C   UNL A   1      31.978  25.767  25.916  1.00  0.00     0.157 A 
ATOM     12  N   UNL A   1      31.056  25.641  26.849  1.00  0.00    -0.113 NA
ATOM     13  N   UNL A   1      30.592  24.357  26.759  1.00  0.00    -0.024 NA
ATOM     14  N   UNL A   1      31.199  23.702  25.781  1.00  0.00    -0.044 NA
BRANCH  11  15
ATOM     15  C   UNL A   1      32.688  27.016  25.519  1.00  0.00     0.090 C 
ATOM     16  C   UNL A   1      30.548  27.494  24.025  1.00  0.00     0.039 C 
ATOM     17  C   UNL A   1      31.908  27.945  24.556  1.00  0.00     0.126 C 
ATOM     18  O   UNL A   1      31.689  29.191  25.249  1.00  0.00    -0.378 OA
ATOM     19  C   UNL A   1      31.848  28.932  26.645  1.00  0.00     0.161 C 
ATOM     20  C   UNL A   1      32.974  27.928  26.709  1.00  0.00     0.043 C 
ENDBRANCH  11  15
ENDBRANCH   9  10
ENDBRANCH   7   9
ENDBRANCH   6   7
ENDBRANCH   5   6
ENDBRANCH   4   5
ENDBRANCH   3   4
ENDBRANCH   2   3
ENDBRANCH   1   2
BRANCH   1  21
ATOM     21  O   UNL A   1      40.910  20.939  27.107  1.00  0.00    -0.376 OA
BRANCH  21  22
ATOM     22  C   UNL A   1      41.898  20.611  26.139  1.00  0.00     0.202 C 
BRANCH  22  23
ATOM     23  C   UNL A   1      43.184  21.431  26.046  1.00  0.00     0.261 C 
BRANCH  23  24
ATOM     24  O   UNL A   1      43.212  22.585  26.863  1.00  0.00    -0.460 OA
BRANCH  24  25
ATOM     25  C   UNL A   1      42.921  23.778  26.304  1.00  0.00     0.338 C 
ATOM     26  O   UNL A   1      43.148  24.144  25.173  1.00  0.00    -0.246 OA
BRANCH  25  27
ATOM     27  C   UNL A   1      42.255  24.556  27.364  1.00  0.00     0.060 A 
ATOM     28  C   UNL A   1      41.028  25.128  27.048  1.00  0.00     0.016 A 
ATOM     29  C   UNL A   1      42.959  24.886  28.540  1.00  0.00     0.016 A 
ATOM     30  C   UNL A   1      40.677  26.265  27.729  1.00  0.00     0.010 A 
ATOM     31  C   UNL A   1      42.617  26.024  29.211  1.00  0.00     0.010 A 
ATOM     32  C   UNL A   1      41.558  26.757  28.699  1.00  0.00    -0.014 A 
BRANCH  32  33
ATOM     33  C   UNL A   1      41.397  28.120  29.121  1.00  0.00     0.031 A 
ATOM     34  C   UNL A   1      42.366  29.032  28.507  1.00  0.00     0.074 A 
ATOM     35  C   UNL A   1      40.418  28.478  29.971  1.00  0.00     0.049 A 
ATOM     36  N   UNL A   1      43.434  29.505  29.053  1.00  0.00    -0.248 NA
ATOM     37  C   UNL A   1      42.253  29.272  27.064  1.00  0.00     0.031 C 
ATOM     38  C   UNL A   1      39.241  27.705  30.384  1.00  0.00     0.029 A 
ATOM     39  N   UNL A   1      40.215  29.686  30.552  1.00  0.00    -0.354 N 
ATOM     40  C   UNL A   1      43.984  30.330  28.084  1.00  0.00     0.074 A 
ATOM     41  C   UNL A   1      43.379  29.947  26.835  1.00  0.00     0.031 C 
ATOM     42  C   UNL A   1      38.338  28.545  30.942  1.00  0.00     0.029 A 
ATOM     43  C   UNL A   1      38.931  29.867  31.045  1.00  0.00     0.049 A 
ATOM     44  H   UNL A   1      40.916  30.373  30.618  1.00  0.00     0.167 HD
ATOM     45  C   UNL A   1      44.644  31.464  28.436  1.00  0.00     0.034 A 
ATOM     46  C   UNL A   1      38.389  31.053  31.414  1.00  0.00     0.034 A 
ATOM     47  C   UNL A   1      44.997  31.458  29.834  1.00  0.00     0.049 A 
ATOM     48  C   UNL A   1      39.512  31.990  31.666  1.00  0.00     0.074 A 
ATOM     49  C   UNL A   1      45.731  30.623  30.655  1.00  0.00     0.029 A 
ATOM     50  N   UNL A   1      44.229  32.234  30.670  1.00  0.00    -0.354 N 
ATOM     51  N   UNL A   1      40.353  31.860  32.655  1.00  0.00    -0.248 NA
ATOM     52  C   UNL A   1      39.970  32.827  30.567  1.00  0.00     0.031 C 
ATOM     53  C   UNL A   1      45.044  30.631  31.904  1.00  0.00     0.029 A 
ATOM     54  C   UNL A   1      43.960  31.504  31.798  1.00  0.00     0.049 A 
ATOM     55  H   UNL A   1      43.926  33.154  30.490  1.00  0.00     0.167 HD
ATOM     56  C   UNL A   1      41.585  32.203  32.113  1.00  0.00     0.074 A 
ATOM     57  C   UNL A   1      41.270  32.901  30.868  1.00  0.00     0.031 C 
ATOM     58  C   UNL A   1      42.739  31.629  32.567  1.00  0.00     0.034 A 
BRANCH  45  59
ATOM     59  C   UNL A   1      44.614  32.741  27.632  1.00  0.00     0.023 A 
ATOM     60  C   UNL A   1      45.698  32.968  26.758  1.00  0.00     0.012 A 
ATOM     61  C   UNL A   1      43.749  33.833  27.880  1.00  0.00     0.148 A 
ATOM     62  C   UNL A   1      45.939  34.229  26.206  1.00  0.00     0.002 A 
ATOM     63  C   UNL A   1      43.941  35.058  27.258  1.00  0.00     0.091 A 
ATOM     64  F   UNL A   1      42.814  33.756  28.829  1.00  0.00    -0.205 F 
ATOM     65  C   UNL A   1      45.054  35.274  26.447  1.00  0.00     0.022 A 
BRANCH  63  66
ATOM     66  S   UNL A   1      42.789  36.417  27.497  1.00  0.00     0.127 S 
ATOM     67  O   UNL A   1      41.572  35.876  26.899  1.00  0.00    -0.237 OA
ATOM     68  O   UNL A   1      42.766  36.536  28.955  1.00  0.00    -0.237 OA
ATOM     69  O   UNL A   1      43.387  37.560  26.818  1.00  0.00    -0.744 OA
ENDBRANCH  63  66
ENDBRANCH  45  59
BRANCH  46  70
ATOM     70  C   UNL A   1      36.991  31.523  31.291  1.00  0.00     0.023 A 
ATOM     71  C   UNL A   1      36.316  31.997  32.433  1.00  0.00     0.012 A 
ATOM     72  C   UNL A   1      36.416  31.771  30.024  1.00  0.00     0.148 A 
ATOM     73  C   UNL A   1      35.127  32.725  32.315  1.00  0.00     0.002 A 
ATOM     74  C   UNL A   1      35.229  32.488  29.912  1.00  0.00     0.091 A 
ATOM     75  F   UNL A   1      37.080  31.388  28.925  1.00  0.00    -0.205 F 
ATOM     76  C   UNL A   1      34.588  32.979  31.056  1.00  0.00     0.022 A 
BRANCH  74  77
ATOM     77  S   UNL A   1      34.488  32.875  28.320  1.00  0.00     0.127 S 
ATOM     78  O   UNL A   1      35.607  33.499  27.611  1.00  0.00    -0.237 OA
ATOM     79  O   UNL A   1      34.116  31.552  27.829  1.00  0.00    -0.237 OA
ATOM     80  O   UNL A   1      33.381  33.779  28.603  1.00  0.00    -0.744 OA
ENDBRANCH  74  77
ENDBRANCH  46  70
BRANCH  58  81
ATOM     81  C   UNL A   1      42.677  30.831  33.847  1.00  0.00     0.023 A 
ATOM     82  C   UNL A   1      42.732  31.441  35.118  1.00  0.00     0.012 A 
ATOM     83  C   UNL A   1      42.377  29.460  33.765  1.00  0.00     0.148 A 
ATOM     84  C   UNL A   1      42.519  30.696  36.281  1.00  0.00     0.002 A 
ATOM     85  C   UNL A   1      42.118  28.732  34.921  1.00  0.00     0.091 A 
ATOM     86  F   UNL A   1      42.322  28.895  32.549  1.00  0.00    -0.205 F 
ATOM     87  C   UNL A   1      42.198  29.343  36.182  1.00  0.00     0.022 A 
BRANCH  85  88
ATOM     88  S   UNL A   1      41.574  27.023  34.849  1.00  0.00     0.127 S 
ATOM     89  O   UNL A   1      40.458  27.096  33.909  1.00  0.00    -0.237 OA
ATOM     90  O   UNL A   1      42.761  26.336  34.338  1.00  0.00    -0.237 OA
ATOM     91  O   UNL A   1      41.221  26.659  36.217  1.00  0.00    -0.744 OA
ENDBRANCH  85  88
ENDBRANCH  58  81
ENDBRANCH  32  33
ENDBRANCH  25  27
ENDBRANCH  24  25
ENDBRANCH  23  24
ENDBRANCH  22  23
ENDBRANCH  21  22
ENDBRANCH   1  21
TORSDOF 22
ENDMDL
MODEL 3
REMARK VINA RESULT:      -9.6      3.276      8.926
REMARK SMILES C[C@H]1OCC[C@H]1c1nnnn1CC(=O)OCCOCCOCCOC(=O)c1ccc(-c2c3nc(c(-c4cccc(S(=O)(=O)[O-])c4F)c4ccc([nH]4)c(-c4cccc(S(=O)(=O)[O-])c4F)c4nc(c(-c5cccc(S(=O)(=O)[O-])c5F)c5ccc2[nH]5)C=C4)C=C3)cc1
REMARK SMILES IDX 20 1 19 2 18 3 17 4 16 5 15 6 13 7 14 8 12 9 11 10 7 11 8 12
REMARK SMILES IDX 9 13 10 14 6 15 1 16 2 17 3 18 4 19 5 20 21 21 22 22 23 23
REMARK SMILES IDX 24 24 25 25 26 26 27 27 28 28 89 29 29 30 88 31 30 32 31 33
REMARK SMILES IDX 32 34 82 35 33 36 87 37 81 38 83 39 34 40 86 41 80 42 79 43
REMARK SMILES IDX 35 45 67 46 47 47 66 48 48 49 51 50 65 51 84 52 49 53 50 54
REMARK SMILES IDX 64 56 85 57 52 58 36 59 37 60 45 61 38 62 40 63 46 64 39 65
REMARK SMILES IDX 41 66 42 67 43 68 44 69 68 70 69 71 77 72 70 73 72 74 78 75
REMARK SMILES IDX 71 76 73 77 74 78 75 79 76 80 53 81 54 82 62 83 55 84 57 85
REMARK SMILES IDX 63 86 56 87 58 88 59 89 60 90 61 91
REMARK H PARENT 83 44 51 55
REMARK Flexibility Score: inf
ROOT
ATOM      1  C   UNL A   1      35.482  22.922  26.103  1.00  0.00     0.188 C 
ENDROOT
BRANCH   1   2
ATOM      2  C   UNL A   1      34.014  23.050  25.681  1.00  0.00     0.188 C 
BRANCH   2   3
ATOM      3  O   UNL A   1      33.767  23.096  24.270  1.00  0.00    -0.376 OA
BRANCH   3   4
ATOM      4  C   UNL A   1      32.746  22.238  23.764  1.00  0.00     0.202 C 
BRANCH   4   5
ATOM      5  C   UNL A   1      31.351  22.875  23.616  1.00  0.00     0.261 C 
BRANCH   5   6
ATOM      6  O   UNL A   1      31.296  23.988  22.696  1.00  0.00    -0.462 OA
BRANCH   6   7
ATOM      7  C   UNL A   1      30.692  25.104  23.145  1.00  0.00     0.327 C 
ATOM      8  O   UNL A   1      29.662  25.107  23.818  1.00  0.00    -0.250 OA
BRANCH   7   9
ATOM      9  C   UNL A   1      31.377  26.397  22.836  1.00  0.00     0.270 C 
BRANCH   9  10
ATOM     10  N   UNL A   1      30.763  27.654  23.215  1.00  0.00    -0.218 N 
ATOM     11  C   UNL A   1      31.123  28.476  24.266  1.00  0.00     0.157 A 
ATOM     12  N   UNL A   1      30.610  29.670  24.044  1.00  0.00    -0.113 NA
ATOM     13  N   UNL A   1      30.005  29.606  22.818  1.00  0.00    -0.024 NA
ATOM     14  N   UNL A   1      30.152  28.404  22.280  1.00  0.00    -0.044 NA
BRANCH  11  15
ATOM     15  C   UNL A   1      31.997  28.073  25.404  1.00  0.00     0.090 C 
ATOM     16  C   UNL A   1      34.008  28.735  23.804  1.00  0.00     0.039 C 
ATOM     17  C   UNL A   1      33.518  28.255  25.169  1.00  0.00     0.126 C 
ATOM     18  O   UNL A   1      33.986  29.215  26.138  1.00  0.00    -0.378 OA
ATOM     19  C   UNL A   1      32.846  29.941  26.600  1.00  0.00     0.161 C 
ATOM     20  C   UNL A   1      31.747  28.908  26.657  1.00  0.00     0.043 C 
ENDBRANCH  11  15
ENDBRANCH   9  10
ENDBRANCH   7   9
ENDBRANCH   6   7
ENDBRANCH   5   6
ENDBRANCH   4   5
ENDBRANCH   3   4
ENDBRANCH   2   3
ENDBRANCH   1   2
BRANCH   1  21
ATOM     21  O   UNL A   1      36.357  23.091  24.994  1.00  0.00    -0.376 OA
BRANCH  21  22
ATOM     22  C   UNL A   1      37.387  22.157  24.694  1.00  0.00     0.202 C 
BRANCH  22  23
ATOM     23  C   UNL A   1      38.435  21.805  25.749  1.00  0.00     0.261 C 
BRANCH  23  24
ATOM     24  O   UNL A   1      38.910  22.903  26.503  1.00  0.00    -0.460 OA
BRANCH  24  25
ATOM     25  C   UNL A   1      40.031  22.743  27.236  1.00  0.00     0.338 C 
ATOM     26  O   UNL A   1      40.418  21.742  27.795  1.00  0.00    -0.246 OA
BRANCH  25  27
ATOM     27  C   UNL A   1      40.705  24.054  27.215  1.00  0.00     0.060 A 
ATOM     28  C   UNL A   1      41.787  24.220  28.071  1.00  0.00     0.016 A 
ATOM     29  C   UNL A   1      40.113  25.136  26.531  1.00  0.00     0.016 A 
ATOM     30  C   UNL A   1      42.052  25.495  28.500  1.00  0.00     0.010 A 
ATOM     31  C   UNL A   1      40.368  26.404  26.966  1.00  0.00     0.010 A 
ATOM     32  C   UNL A   1      41.236  26.534  28.037  1.00  0.00    -0.014 A 
BRANCH  32  33
ATOM     33  C   UNL A   1      41.250  27.772  28.766  1.00  0.00     0.031 A 
ATOM     34  C   UNL A   1      42.334  28.670  28.356  1.00  0.00     0.074 A 
ATOM     35  C   UNL A   1      40.320  28.045  29.698  1.00  0.00     0.049 A 
ATOM     36  N   UNL A   1      43.450  28.863  28.971  1.00  0.00    -0.248 NA
ATOM     37  C   UNL A   1      42.263  29.251  27.010  1.00  0.00     0.031 C 
ATOM     38  C   UNL A   1      39.050  27.354  29.949  1.00  0.00     0.029 A 
ATOM     39  N   UNL A   1      40.271  29.101  30.547  1.00  0.00    -0.354 N 
ATOM     40  C   UNL A   1      44.109  29.813  28.206  1.00  0.00     0.074 A 
ATOM     41  C   UNL A   1      43.468  29.810  26.917  1.00  0.00     0.031 C 
ATOM     42  C   UNL A   1      38.260  28.150  30.707  1.00  0.00     0.029 A 
ATOM     43  C   UNL A   1      39.018  29.326  31.098  1.00  0.00     0.049 A 
ATOM     44  H   UNL A   1      41.055  29.659  30.753  1.00  0.00     0.167 HD
ATOM     45  C   UNL A   1      44.908  30.741  28.795  1.00  0.00     0.034 A 
ATOM     46  C   UNL A   1      38.632  30.453  31.743  1.00  0.00     0.034 A 
ATOM     47  C   UNL A   1      45.248  30.366  30.145  1.00  0.00     0.049 A 
ATOM     48  C   UNL A   1      39.866  31.155  32.179  1.00  0.00     0.074 A 
ATOM     49  C   UNL A   1      45.862  29.277  30.734  1.00  0.00     0.029 A 
ATOM     50  N   UNL A   1      44.581  31.019  31.156  1.00  0.00    -0.354 N 
ATOM     51  N   UNL A   1      40.675  30.692  33.091  1.00  0.00    -0.248 NA
ATOM     52  C   UNL A   1      40.435  32.158  31.292  1.00  0.00     0.031 C 
ATOM     53  C   UNL A   1      45.173  29.083  31.967  1.00  0.00     0.029 A 
ATOM     54  C   UNL A   1      44.212  30.088  32.090  1.00  0.00     0.049 A 
ATOM     55  H   UNL A   1      44.401  31.986  31.199  1.00  0.00     0.167 HD
ATOM     56  C   UNL A   1      41.945  30.991  32.613  1.00  0.00     0.074 A 
ATOM     57  C   UNL A   1      41.732  31.993  31.571  1.00  0.00     0.031 C 
ATOM     58  C   UNL A   1      43.012  30.185  32.895  1.00  0.00     0.034 A 
BRANCH  45  59
ATOM     59  C   UNL A   1      45.050  32.162  28.308  1.00  0.00     0.023 A 
ATOM     60  C   UNL A   1      46.357  32.612  28.029  1.00  0.00     0.012 A 
ATOM     61  C   UNL A   1      44.032  33.144  28.370  1.00  0.00     0.148 A 
ATOM     62  C   UNL A   1      46.645  33.971  27.877  1.00  0.00     0.002 A 
ATOM     63  C   UNL A   1      44.308  34.482  28.128  1.00  0.00     0.091 A 
ATOM     64  F   UNL A   1      42.811  32.829  28.806  1.00  0.00    -0.205 F 
ATOM     65  C   UNL A   1      45.619  34.907  27.916  1.00  0.00     0.022 A 
BRANCH  63  66
ATOM     66  S   UNL A   1      43.002  35.717  28.113  1.00  0.00     0.127 S 
ATOM     67  O   UNL A   1      43.767  36.948  27.947  1.00  0.00    -0.237 OA
ATOM     68  O   UNL A   1      42.220  35.309  26.945  1.00  0.00    -0.237 OA
ATOM     69  O   UNL A   1      42.301  35.559  29.381  1.00  0.00    -0.744 OA
ENDBRANCH  63  66
ENDBRANCH  45  59
BRANCH  46  70
ATOM     70  C   UNL A   1      37.307  31.113  31.764  1.00  0.00     0.023 A 
ATOM     71  C   UNL A   1      36.714  31.436  33.000  1.00  0.00     0.012 A 
ATOM     72  C   UNL A   1      36.756  31.677  30.591  1.00  0.00     0.148 A 
ATOM     73  C   UNL A   1      35.631  32.320  33.069  1.00  0.00     0.002 A 
ATOM     74  C   UNL A   1      35.674  32.548  30.664  1.00  0.00     0.091 A 
ATOM     75  F   UNL A   1      37.352  31.435  29.416  1.00  0.00    -0.205 F 
ATOM     76  C   UNL A   1      35.117  32.883  31.904  1.00  0.00     0.022 A 
BRANCH  74  77
ATOM     77  S   UNL A   1      34.975  33.332  29.204  1.00  0.00     0.127 S 
ATOM     78  O   UNL A   1      36.008  34.310  28.863  1.00  0.00    -0.237 OA
ATOM     79  O   UNL A   1      34.868  32.208  28.279  1.00  0.00    -0.237 OA
ATOM     80  O   UNL A   1      33.712  33.920  29.633  1.00  0.00    -0.744 OA
ENDBRANCH  74  77
ENDBRANCH  46  70
BRANCH  58  81
ATOM     81  C   UNL A   1      42.838  29.127  33.958  1.00  0.00     0.023 A 
ATOM     82  C   UNL A   1      42.106  27.942  33.729  1.00  0.00     0.012 A 
ATOM     83  C   UNL A   1      43.574  29.250  35.149  1.00  0.00     0.148 A 
ATOM     84  C   UNL A   1      42.089  26.915  34.676  1.00  0.00     0.002 A 
ATOM     85  C   UNL A   1      43.594  28.206  36.067  1.00  0.00     0.091 A 
ATOM     86  F   UNL A   1      44.270  30.379  35.351  1.00  0.00    -0.205 F 
ATOM     87  C   UNL A   1      42.845  27.041  35.840  1.00  0.00     0.022 A 
BRANCH  85  88
ATOM     88  S   UNL A   1      44.648  28.256  37.519  1.00  0.00     0.127 S 
ATOM     89  O   UNL A   1      44.238  27.051  38.236  1.00  0.00    -0.237 OA
ATOM     90  O   UNL A   1      45.989  28.194  36.937  1.00  0.00    -0.237 OA
ATOM     91  O   UNL A   1      44.349  29.518  38.187  1.00  0.00    -0.744 OA
ENDBRANCH  85  88
ENDBRANCH  58  81
ENDBRANCH  32  33
ENDBRANCH  25  27
ENDBRANCH  24  25
ENDBRANCH  23  24
ENDBRANCH  22  23
ENDBRANCH  21  22
ENDBRANCH   1  21
TORSDOF 22
ENDMDL
