MODEL 1
REMARK VINA RESULT:      -9.8      0.000      0.000
REMARK SMILES CC(C)(CNC(=O)[C@H]1CCC[C@H](C(=O)OCCOCCOCCOC(=O)c2ccc(-c3c4nc(c(-c5cccc(S(=O)(=O)[O-])c5F)c5ccc([nH]5)c(-c5cccc(S(=O)(=O)[O-])c5F)c5nc(c(-c6cccc(S(=O)(=O)[O-])c6F)c6ccc3[nH]6)C=C5)C=C4)cc2)C1)S(C)(=O)=O
REMARK SMILES IDX 19 1 18 2 17 3 16 4 15 5 13 6 14 7 12 8 8 9 9 10 90 11 10 12
REMARK SMILES IDX 11 13 6 14 5 15 7 17 4 18 2 19 1 20 3 21 91 22 92 23 93 24
REMARK SMILES IDX 94 25 20 26 21 27 22 28 23 29 24 30 25 31 26 32 27 33 28 34
REMARK SMILES IDX 89 35 29 36 88 37 30 38 31 39 32 40 82 41 33 42 87 43 81 44
REMARK SMILES IDX 83 45 34 46 86 47 80 48 79 49 35 51 67 52 47 53 66 54 48 55
REMARK SMILES IDX 51 56 65 57 84 58 49 59 50 60 64 62 85 63 52 64 36 65 37 66
REMARK SMILES IDX 45 67 38 68 40 69 46 70 39 71 41 72 42 73 43 74 44 75 68 76
REMARK SMILES IDX 69 77 77 78 70 79 72 80 78 81 71 82 73 83 74 84 75 85 76 86
REMARK SMILES IDX 53 87 54 88 62 89 55 90 57 91 63 92 56 93 58 94 59 95 60 96
REMARK SMILES IDX 61 97
REMARK H PARENT 5 16 83 50 51 61
REMARK Flexibility Score: inf
ROOT
ATOM      1  C   UNL A   1      31.734  28.845  25.967  1.00  0.00     0.188 C 
ENDROOT
BRANCH   1   2
ATOM      2  O   UNL A   1      32.837  27.977  25.725  1.00  0.00    -0.376 OA
BRANCH   2   3
ATOM      3  C   UNL A   1      32.850  27.275  24.485  1.00  0.00     0.202 C 
BRANCH   3   4
ATOM      4  C   UNL A   1      33.730  26.019  24.419  1.00  0.00     0.261 C 
BRANCH   4   5
ATOM      5  O   UNL A   1      33.090  24.903  23.773  1.00  0.00    -0.463 OA
BRANCH   5   6
ATOM      6  C   UNL A   1      33.928  23.996  23.205  1.00  0.00     0.309 C 
ATOM      7  O   UNL A   1      34.069  23.843  21.996  1.00  0.00    -0.252 OA
BRANCH   6   8
ATOM      8  C   UNL A   1      34.747  23.210  24.228  1.00  0.00     0.100 C 
ATOM      9  C   UNL A   1      37.056  22.083  24.438  1.00  0.00     0.079 C 
ATOM     10  C   UNL A   1      36.356  20.791  24.864  1.00  0.00     0.013 C 
ATOM     11  C   UNL A   1      36.122  22.951  23.596  1.00  0.00     0.028 C 
ATOM     12  C   UNL A   1      35.046  21.072  25.591  1.00  0.00     0.002 C 
ATOM     13  C   UNL A   1      34.098  21.918  24.742  1.00  0.00     0.015 C 
BRANCH   9  14
ATOM     14  C   UNL A   1      37.617  22.838  25.644  1.00  0.00     0.223 C 
ATOM     15  N   UNL A   1      38.818  22.460  26.172  1.00  0.00    -0.354 N 
ATOM     16  H   UNL A   1      39.134  22.994  26.937  1.00  0.00     0.163 HD
ATOM     17  O   UNL A   1      37.040  23.787  26.171  1.00  0.00    -0.275 OA
BRANCH  15  18
ATOM     18  C   UNL A   1      39.689  21.381  25.757  1.00  0.00     0.138 C 
BRANCH  18  19
ATOM     19  C   UNL A   1      41.076  21.350  26.422  1.00  0.00     0.084 C 
ATOM     20  C   UNL A   1      42.037  22.364  25.790  1.00  0.00     0.030 C 
ATOM     21  C   UNL A   1      40.861  21.735  27.904  1.00  0.00     0.030 C 
BRANCH  19  22
ATOM     22  S   UNL A   1      41.797  19.671  26.411  1.00  0.00     0.154 S 
ATOM     23  C   UNL A   1      43.340  19.732  25.519  1.00  0.00     0.158 C 
ATOM     24  O   UNL A   1      42.131  19.337  27.785  1.00  0.00    -0.229 OA
ATOM     25  O   UNL A   1      40.900  18.803  25.669  1.00  0.00    -0.229 OA
ENDBRANCH  19  22
ENDBRANCH  18  19
ENDBRANCH  15  18
ENDBRANCH   9  14
ENDBRANCH   6   8
ENDBRANCH   5   6
ENDBRANCH   4   5
ENDBRANCH   3   4
ENDBRANCH   2   3
ENDBRANCH   1   2
BRANCH   1  26
ATOM     26  C   UNL A   1      31.993  30.019  26.912  1.00  0.00     0.188 C 
BRANCH  26  27
ATOM     27  O   UNL A   1      33.264  30.647  26.770  1.00  0.00    -0.376 OA
BRANCH  27  28
ATOM     28  C   UNL A   1      33.568  31.670  27.725  1.00  0.00     0.202 C 
BRANCH  28  29
ATOM     29  C   UNL A   1      32.988  33.071  27.443  1.00  0.00     0.261 C 
BRANCH  29  30
ATOM     30  O   UNL A   1      32.599  33.818  28.615  1.00  0.00    -0.460 OA
BRANCH  30  31
ATOM     31  C   UNL A   1      33.449  34.768  29.071  1.00  0.00     0.338 C 
ATOM     32  O   UNL A   1      33.246  35.973  29.084  1.00  0.00    -0.246 OA
BRANCH  31  33
ATOM     33  C   UNL A   1      34.561  34.095  29.796  1.00  0.00     0.060 A 
ATOM     34  C   UNL A   1      35.877  34.359  29.386  1.00  0.00     0.016 A 
ATOM     35  C   UNL A   1      34.332  33.283  30.911  1.00  0.00     0.016 A 
ATOM     36  C   UNL A   1      36.958  33.777  30.058  1.00  0.00     0.010 A 
ATOM     37  C   UNL A   1      35.413  32.693  31.576  1.00  0.00     0.010 A 
ATOM     38  C   UNL A   1      36.730  32.907  31.131  1.00  0.00    -0.014 A 
BRANCH  38  39
ATOM     39  C   UNL A   1      37.829  32.055  31.654  1.00  0.00     0.031 A 
ATOM     40  C   UNL A   1      38.443  32.426  32.979  1.00  0.00     0.074 A 
ATOM     41  C   UNL A   1      38.301  30.991  30.977  1.00  0.00     0.049 A 
ATOM     42  N   UNL A   1      39.448  31.883  33.612  1.00  0.00    -0.248 NA
ATOM     43  C   UNL A   1      37.836  33.571  33.682  1.00  0.00     0.031 C 
ATOM     44  C   UNL A   1      37.797  30.508  29.694  1.00  0.00     0.029 A 
ATOM     45  N   UNL A   1      39.338  30.139  31.275  1.00  0.00    -0.354 N 
ATOM     46  C   UNL A   1      39.617  32.634  34.767  1.00  0.00     0.074 A 
ATOM     47  C   UNL A   1      38.615  33.677  34.747  1.00  0.00     0.031 C 
ATOM     48  C   UNL A   1      38.550  29.466  29.296  1.00  0.00     0.029 A 
ATOM     49  C   UNL A   1      39.603  29.223  30.283  1.00  0.00     0.049 A 
ATOM     50  H   UNL A   1      39.844  30.181  32.119  1.00  0.00     0.167 HD
ATOM     51  C   UNL A   1      40.514  32.467  35.767  1.00  0.00     0.034 A 
ATOM     52  C   UNL A   1      40.595  28.314  30.171  1.00  0.00     0.034 A 
ATOM     53  C   UNL A   1      41.502  31.426  35.807  1.00  0.00     0.049 A 
ATOM     54  C   UNL A   1      41.610  28.174  31.281  1.00  0.00     0.074 A 
ATOM     55  C   UNL A   1      42.422  31.154  36.803  1.00  0.00     0.029 A 
ATOM     56  N   UNL A   1      41.713  30.497  34.802  1.00  0.00    -0.354 N 
ATOM     57  N   UNL A   1      41.680  28.811  32.426  1.00  0.00    -0.248 NA
ATOM     58  C   UNL A   1      42.668  27.167  31.096  1.00  0.00     0.031 C 
ATOM     59  C   UNL A   1      43.210  30.076  36.388  1.00  0.00     0.029 A 
ATOM     60  C   UNL A   1      42.759  29.658  35.148  1.00  0.00     0.049 A 
ATOM     61  H   UNL A   1      41.195  30.440  33.966  1.00  0.00     0.167 HD
ATOM     62  C   UNL A   1      42.759  28.258  33.108  1.00  0.00     0.074 A 
ATOM     63  C   UNL A   1      43.307  27.223  32.258  1.00  0.00     0.031 C 
ATOM     64  C   UNL A   1      43.259  28.587  34.326  1.00  0.00     0.034 A 
BRANCH  51  65
ATOM     65  C   UNL A   1      40.454  33.432  36.920  1.00  0.00     0.023 A 
ATOM     66  C   UNL A   1      39.546  33.205  37.973  1.00  0.00     0.012 A 
ATOM     67  C   UNL A   1      41.331  34.532  36.985  1.00  0.00     0.148 A 
ATOM     68  C   UNL A   1      39.489  34.077  39.060  1.00  0.00     0.002 A 
ATOM     69  C   UNL A   1      41.300  35.370  38.092  1.00  0.00     0.091 A 
ATOM     70  F   UNL A   1      42.170  34.743  35.960  1.00  0.00    -0.205 F 
ATOM     71  C   UNL A   1      40.373  35.150  39.125  1.00  0.00     0.022 A 
BRANCH  69  72
ATOM     72  S   UNL A   1      42.448  36.735  38.304  1.00  0.00     0.127 S 
ATOM     73  O   UNL A   1      41.684  37.630  39.169  1.00  0.00    -0.237 OA
ATOM     74  O   UNL A   1      43.586  36.082  38.954  1.00  0.00    -0.237 OA
ATOM     75  O   UNL A   1      42.722  37.239  36.965  1.00  0.00    -0.744 OA
ENDBRANCH  69  72
ENDBRANCH  51  65
BRANCH  52  76
ATOM     76  C   UNL A   1      40.677  27.438  28.967  1.00  0.00     0.023 A 
ATOM     77  C   UNL A   1      39.808  26.336  28.847  1.00  0.00     0.012 A 
ATOM     78  C   UNL A   1      41.620  27.683  27.948  1.00  0.00     0.148 A 
ATOM     79  C   UNL A   1      39.894  25.478  27.750  1.00  0.00     0.002 A 
ATOM     80  C   UNL A   1      41.666  26.854  26.833  1.00  0.00     0.091 A 
ATOM     81  F   UNL A   1      42.455  28.722  28.094  1.00  0.00    -0.205 F 
ATOM     82  C   UNL A   1      40.816  25.742  26.739  1.00  0.00     0.022 A 
BRANCH  80  83
ATOM     83  S   UNL A   1      42.745  27.177  25.435  1.00  0.00     0.127 S 
ATOM     84  O   UNL A   1      44.042  27.332  26.087  1.00  0.00    -0.237 OA
ATOM     85  O   UNL A   1      42.592  25.953  24.649  1.00  0.00    -0.237 OA
ATOM     86  O   UNL A   1      42.213  28.374  24.796  1.00  0.00    -0.744 OA
ENDBRANCH  80  83
ENDBRANCH  52  76
BRANCH  64  87
ATOM     87  C   UNL A   1      44.432  27.799  34.855  1.00  0.00     0.023 A 
ATOM     88  C   UNL A   1      44.211  26.628  35.605  1.00  0.00     0.012 A 
ATOM     89  C   UNL A   1      45.751  28.165  34.516  1.00  0.00     0.148 A 
ATOM     90  C   UNL A   1      45.286  25.845  36.030  1.00  0.00     0.002 A 
ATOM     91  C   UNL A   1      46.813  27.354  34.901  1.00  0.00     0.091 A 
ATOM     92  F   UNL A   1      45.942  29.290  33.812  1.00  0.00    -0.205 F 
ATOM     93  C   UNL A   1      46.584  26.201  35.668  1.00  0.00     0.022 A 
BRANCH  91  94
ATOM     94  S   UNL A   1      48.507  27.678  34.397  1.00  0.00     0.127 S 
ATOM     95  O   UNL A   1      49.213  26.532  34.971  1.00  0.00    -0.237 OA
ATOM     96  O   UNL A   1      48.406  27.662  32.938  1.00  0.00    -0.237 OA
ATOM     97  O   UNL A   1      48.858  28.973  34.965  1.00  0.00    -0.744 OA
ENDBRANCH  91  94
ENDBRANCH  64  87
ENDBRANCH  38  39
ENDBRANCH  31  33
ENDBRANCH  30  31
ENDBRANCH  29  30
ENDBRANCH  28  29
ENDBRANCH  27  28
ENDBRANCH  26  27
ENDBRANCH   1  26
TORSDOF 24
ENDMDL
MODEL 2
REMARK VINA RESULT:      -9.7      2.990      8.388
REMARK SMILES CC(C)(CNC(=O)[C@H]1CCC[C@H](C(=O)OCCOCCOCCOC(=O)c2ccc(-c3c4nc(c(-c5cccc(S(=O)(=O)[O-])c5F)c5ccc([nH]5)c(-c5cccc(S(=O)(=O)[O-])c5F)c5nc(c(-c6cccc(S(=O)(=O)[O-])c6F)c6ccc3[nH]6)C=C5)C=C4)cc2)C1)S(C)(=O)=O
REMARK SMILES IDX 19 1 18 2 17 3 16 4 15 5 13 6 14 7 12 8 8 9 9 10 90 11 10 12
REMARK SMILES IDX 11 13 6 14 5 15 7 17 4 18 2 19 1 20 3 21 91 22 92 23 93 24
REMARK SMILES IDX 94 25 20 26 21 27 22 28 23 29 24 30 25 31 26 32 27 33 28 34
REMARK SMILES IDX 89 35 29 36 88 37 30 38 31 39 32 40 82 41 33 42 87 43 81 44
REMARK SMILES IDX 83 45 34 46 86 47 80 48 79 49 35 51 67 52 47 53 66 54 48 55
REMARK SMILES IDX 51 56 65 57 84 58 49 59 50 60 64 62 85 63 52 64 36 65 37 66
REMARK SMILES IDX 45 67 38 68 40 69 46 70 39 71 41 72 42 73 43 74 44 75 68 76
REMARK SMILES IDX 69 77 77 78 70 79 72 80 78 81 71 82 73 83 74 84 75 85 76 86
REMARK SMILES IDX 53 87 54 88 62 89 55 90 57 91 63 92 56 93 58 94 59 95 60 96
REMARK SMILES IDX 61 97
REMARK H PARENT 5 16 83 50 51 61
REMARK Flexibility Score: inf
ROOT
ATOM      1  C   UNL A   1      32.911  28.944  25.151  1.00  0.00     0.188 C 
ENDROOT
BRANCH   1   2
ATOM      2  O   UNL A   1      33.976  28.259  24.500  1.00  0.00    -0.376 OA
BRANCH   2   3
ATOM      3  C   UNL A   1      34.434  28.799  23.263  1.00  0.00     0.202 C 
BRANCH   3   4
ATOM      4  C   UNL A   1      33.935  28.107  21.987  1.00  0.00     0.261 C 
BRANCH   4   5
ATOM      5  O   UNL A   1      33.994  26.670  22.053  1.00  0.00    -0.463 OA
BRANCH   5   6
ATOM      6  C   UNL A   1      32.810  26.027  21.871  1.00  0.00     0.309 C 
ATOM      7  O   UNL A   1      32.576  25.249  20.951  1.00  0.00    -0.252 OA
BRANCH   6   8
ATOM      8  C   UNL A   1      31.793  26.314  22.975  1.00  0.00     0.100 C 
ATOM      9  C   UNL A   1      30.166  25.041  24.517  1.00  0.00     0.079 C 
ATOM     10  C   UNL A   1      29.038  25.954  24.037  1.00  0.00     0.013 C 
ATOM     11  C   UNL A   1      31.277  24.956  23.471  1.00  0.00     0.028 C 
ATOM     12  C   UNL A   1      29.555  27.337  23.655  1.00  0.00     0.002 C 
ATOM     13  C   UNL A   1      30.646  27.259  22.589  1.00  0.00     0.015 C 
BRANCH   9  14
ATOM     14  C   UNL A   1      30.694  25.477  25.886  1.00  0.00     0.223 C 
ATOM     15  N   UNL A   1      31.433  24.602  26.628  1.00  0.00    -0.354 N 
ATOM     16  H   UNL A   1      31.758  24.945  27.492  1.00  0.00     0.163 HD
ATOM     17  O   UNL A   1      30.490  26.591  26.360  1.00  0.00    -0.275 OA
BRANCH  15  18
ATOM     18  C   UNL A   1      31.806  23.239  26.314  1.00  0.00     0.138 C 
BRANCH  18  19
ATOM     19  C   UNL A   1      33.316  22.972  26.187  1.00  0.00     0.084 C 
ATOM     20  C   UNL A   1      34.097  24.247  25.848  1.00  0.00     0.030 C 
ATOM     21  C   UNL A   1      33.789  22.458  27.567  1.00  0.00     0.030 C 
BRANCH  19  22
ATOM     22  S   UNL A   1      33.671  21.647  24.980  1.00  0.00     0.154 S 
ATOM     23  C   UNL A   1      32.200  20.656  24.789  1.00  0.00     0.158 C 
ATOM     24  O   UNL A   1      33.903  22.286  23.695  1.00  0.00    -0.229 OA
ATOM     25  O   UNL A   1      34.701  20.792  25.542  1.00  0.00    -0.229 OA
ENDBRANCH  19  22
ENDBRANCH  18  19
ENDBRANCH  15  18
ENDBRANCH   9  14
ENDBRANCH   6   8
ENDBRANCH   5   6
ENDBRANCH   4   5
ENDBRANCH   3   4
ENDBRANCH   2   3
ENDBRANCH   1   2
BRANCH   1  26
ATOM     26  C   UNL A   1      33.315  30.000  26.180  1.00  0.00     0.188 C 
BRANCH  26  27
ATOM     27  O   UNL A   1      32.281  30.413  27.069  1.00  0.00    -0.376 OA
BRANCH  27  28
ATOM     28  C   UNL A   1      31.850  31.772  26.941  1.00  0.00     0.202 C 
BRANCH  28  29
ATOM     29  C   UNL A   1      32.830  32.855  27.436  1.00  0.00     0.261 C 
BRANCH  29  30
ATOM     30  O   UNL A   1      32.214  34.091  27.857  1.00  0.00    -0.460 OA
BRANCH  30  31
ATOM     31  C   UNL A   1      32.953  34.945  28.602  1.00  0.00     0.338 C 
ATOM     32  O   UNL A   1      32.611  36.054  28.982  1.00  0.00    -0.246 OA
BRANCH  31  33
ATOM     33  C   UNL A   1      34.146  34.214  29.109  1.00  0.00     0.060 A 
ATOM     34  C   UNL A   1      33.949  33.196  30.056  1.00  0.00     0.016 A 
ATOM     35  C   UNL A   1      35.430  34.457  28.611  1.00  0.00     0.016 A 
ATOM     36  C   UNL A   1      35.036  32.457  30.537  1.00  0.00     0.010 A 
ATOM     37  C   UNL A   1      36.517  33.725  29.101  1.00  0.00     0.010 A 
ATOM     38  C   UNL A   1      36.332  32.745  30.093  1.00  0.00    -0.014 A 
BRANCH  38  39
ATOM     39  C   UNL A   1      37.511  32.189  30.806  1.00  0.00     0.031 A 
ATOM     40  C   UNL A   1      38.320  31.125  30.110  1.00  0.00     0.074 A 
ATOM     41  C   UNL A   1      37.858  32.587  32.044  1.00  0.00     0.049 A 
ATOM     42  N   UNL A   1      39.347  30.445  30.545  1.00  0.00    -0.248 NA
ATOM     43  C   UNL A   1      37.908  30.784  28.737  1.00  0.00     0.031 C 
ATOM     44  C   UNL A   1      37.178  33.612  32.830  1.00  0.00     0.029 A 
ATOM     45  N   UNL A   1      38.867  32.143  32.868  1.00  0.00    -0.354 N 
ATOM     46  C   UNL A   1      39.685  29.574  29.517  1.00  0.00     0.074 A 
ATOM     47  C   UNL A   1      38.750  29.807  28.438  1.00  0.00     0.031 C 
ATOM     48  C   UNL A   1      37.766  33.696  34.038  1.00  0.00     0.029 A 
ATOM     49  C   UNL A   1      38.848  32.714  34.119  1.00  0.00     0.049 A 
ATOM     50  H   UNL A   1      39.538  31.480  32.587  1.00  0.00     0.167 HD
ATOM     51  C   UNL A   1      40.691  28.670  29.463  1.00  0.00     0.034 A 
ATOM     52  C   UNL A   1      39.598  32.454  35.212  1.00  0.00     0.034 A 
ATOM     53  C   UNL A   1      41.636  28.443  30.520  1.00  0.00     0.049 A 
ATOM     54  C   UNL A   1      40.688  31.412  35.141  1.00  0.00     0.074 A 
ATOM     55  C   UNL A   1      42.716  27.578  30.533  1.00  0.00     0.029 A 
ATOM     56  N   UNL A   1      41.606  29.066  31.756  1.00  0.00    -0.354 N 
ATOM     57  N   UNL A   1      41.074  30.684  34.120  1.00  0.00    -0.248 NA
ATOM     58  C   UNL A   1      41.467  31.174  36.368  1.00  0.00     0.031 C 
ATOM     59  C   UNL A   1      43.324  27.659  31.790  1.00  0.00     0.029 A 
ATOM     60  C   UNL A   1      42.640  28.596  32.546  1.00  0.00     0.049 A 
ATOM     61  H   UNL A   1      40.947  29.745  32.031  1.00  0.00     0.167 HD
ATOM     62  C   UNL A   1      42.159  29.936  34.569  1.00  0.00     0.074 A 
ATOM     63  C   UNL A   1      42.381  30.307  35.950  1.00  0.00     0.031 C 
ATOM     64  C   UNL A   1      42.897  29.016  33.900  1.00  0.00     0.034 A 
BRANCH  51  65
ATOM     65  C   UNL A   1      40.833  27.865  28.199  1.00  0.00     0.023 A 
ATOM     66  C   UNL A   1      41.476  28.432  27.081  1.00  0.00     0.012 A 
ATOM     67  C   UNL A   1      40.376  26.535  28.138  1.00  0.00     0.148 A 
ATOM     68  C   UNL A   1      41.636  27.694  25.908  1.00  0.00     0.002 A 
ATOM     69  C   UNL A   1      40.578  25.793  26.982  1.00  0.00     0.091 A 
ATOM     70  F   UNL A   1      39.743  26.026  29.205  1.00  0.00    -0.205 F 
ATOM     71  C   UNL A   1      41.198  26.374  25.863  1.00  0.00     0.022 A 
BRANCH  69  72
ATOM     72  S   UNL A   1      40.117  24.062  26.851  1.00  0.00     0.127 S 
ATOM     73  O   UNL A   1      38.761  24.158  26.315  1.00  0.00    -0.237 OA
ATOM     74  O   UNL A   1      41.112  23.549  25.908  1.00  0.00    -0.237 OA
ATOM     75  O   UNL A   1      40.222  23.517  28.198  1.00  0.00    -0.744 OA
ENDBRANCH  69  72
ENDBRANCH  51  65
BRANCH  52  76
ATOM     76  C   UNL A   1      39.364  33.208  36.478  1.00  0.00     0.023 A 
ATOM     77  C   UNL A   1      39.888  34.507  36.622  1.00  0.00     0.012 A 
ATOM     78  C   UNL A   1      38.637  32.639  37.543  1.00  0.00     0.148 A 
ATOM     79  C   UNL A   1      39.719  35.215  37.812  1.00  0.00     0.002 A 
ATOM     80  C   UNL A   1      38.428  33.370  38.707  1.00  0.00     0.091 A 
ATOM     81  F   UNL A   1      38.169  31.392  37.396  1.00  0.00    -0.205 F 
ATOM     82  C   UNL A   1      38.982  34.651  38.850  1.00  0.00     0.022 A 
BRANCH  80  83
ATOM     83  S   UNL A   1      37.403  32.768  40.053  1.00  0.00     0.127 S 
ATOM     84  O   UNL A   1      37.861  31.387  40.184  1.00  0.00    -0.237 OA
ATOM     85  O   UNL A   1      37.796  33.654  41.149  1.00  0.00    -0.237 OA
ATOM     86  O   UNL A   1      36.027  32.937  39.606  1.00  0.00    -0.744 OA
ENDBRANCH  80  83
ENDBRANCH  52  76
BRANCH  64  87
ATOM     87  C   UNL A   1      44.052  28.365  34.618  1.00  0.00     0.023 A 
ATOM     88  C   UNL A   1      45.317  28.985  34.622  1.00  0.00     0.012 A 
ATOM     89  C   UNL A   1      43.854  27.193  35.378  1.00  0.00     0.148 A 
ATOM     90  C   UNL A   1      46.373  28.436  35.352  1.00  0.00     0.002 A 
ATOM     91  C   UNL A   1      44.898  26.679  36.140  1.00  0.00     0.091 A 
ATOM     92  F   UNL A   1      42.647  26.610  35.351  1.00  0.00    -0.205 F 
ATOM     93  C   UNL A   1      46.161  27.293  36.120  1.00  0.00     0.022 A 
BRANCH  91  94
ATOM     94  S   UNL A   1      44.691  25.270  37.236  1.00  0.00     0.127 S 
ATOM     95  O   UNL A   1      46.047  25.097  37.758  1.00  0.00    -0.237 OA
ATOM     96  O   UNL A   1      43.723  25.774  38.211  1.00  0.00    -0.237 OA
ATOM     97  O   UNL A   1      44.199  24.180  36.405  1.00  0.00    -0.744 OA
ENDBRANCH  91  94
ENDBRANCH  64  87
ENDBRANCH  38  39
ENDBRANCH  31  33
ENDBRANCH  30  31
ENDBRANCH  29  30
ENDBRANCH  28  29
ENDBRANCH  27  28
ENDBRANCH  26  27
ENDBRANCH   1  26
TORSDOF 24
ENDMDL
MODEL 3
REMARK VINA RESULT:      -9.1      3.418      8.747
REMARK SMILES CC(C)(CNC(=O)[C@H]1CCC[C@H](C(=O)OCCOCCOCCOC(=O)c2ccc(-c3c4nc(c(-c5cccc(S(=O)(=O)[O-])c5F)c5ccc([nH]5)c(-c5cccc(S(=O)(=O)[O-])c5F)c5nc(c(-c6cccc(S(=O)(=O)[O-])c6F)c6ccc3[nH]6)C=C5)C=C4)cc2)C1)S(C)(=O)=O
REMARK SMILES IDX 19 1 18 2 17 3 16 4 15 5 13 6 14 7 12 8 8 9 9 10 90 11 10 12
REMARK SMILES IDX 11 13 6 14 5 15 7 17 4 18 2 19 1 20 3 21 91 22 92 23 93 24
REMARK SMILES IDX 94 25 20 26 21 27 22 28 23 29 24 30 25 31 26 32 27 33 28 34
REMARK SMILES IDX 89 35 29 36 88 37 30 38 31 39 32 40 82 41 33 42 87 43 81 44
REMARK SMILES IDX 83 45 34 46 86 47 80 48 79 49 35 51 67 52 47 53 66 54 48 55
REMARK SMILES IDX 51 56 65 57 84 58 49 59 50 60 64 62 85 63 52 64 36 65 37 66
REMARK SMILES IDX 45 67 38 68 40 69 46 70 39 71 41 72 42 73 43 74 44 75 68 76
REMARK SMILES IDX 69 77 77 78 70 79 72 80 78 81 71 82 73 83 74 84 75 85 76 86
REMARK SMILES IDX 53 87 54 88 62 89 55 90 57 91 63 92 56 93 58 94 59 95 60 96
REMARK SMILES IDX 61 97
REMARK H PARENT 5 16 83 50 51 61
REMARK Flexibility Score: inf
ROOT
ATOM      1  C   UNL A   1      35.673  31.465  28.954  1.00  0.00     0.188 C 
ENDROOT
BRANCH   1   2
ATOM      2  O   UNL A   1      35.635  30.967  27.621  1.00  0.00    -0.376 OA
BRANCH   2   3
ATOM      3  C   UNL A   1      34.727  29.903  27.352  1.00  0.00     0.202 C 
BRANCH   3   4
ATOM      4  C   UNL A   1      33.233  30.249  27.395  1.00  0.00     0.261 C 
BRANCH   4   5
ATOM      5  O   UNL A   1      32.391  29.232  26.823  1.00  0.00    -0.463 OA
BRANCH   5   6
ATOM      6  C   UNL A   1      31.605  29.635  25.789  1.00  0.00     0.309 C 
ATOM      7  O   UNL A   1      31.404  30.807  25.486  1.00  0.00    -0.252 OA
BRANCH   6   8
ATOM      8  C   UNL A   1      31.034  28.473  24.979  1.00  0.00     0.100 C 
ATOM      9  C   UNL A   1      31.783  26.201  24.019  1.00  0.00     0.079 C 
ATOM     10  C   UNL A   1      31.287  26.648  22.644  1.00  0.00     0.013 C 
ATOM     11  C   UNL A   1      32.136  27.408  24.886  1.00  0.00     0.028 C 
ATOM     12  C   UNL A   1      30.117  27.619  22.754  1.00  0.00     0.002 C 
ATOM     13  C   UNL A   1      30.474  28.842  23.598  1.00  0.00     0.015 C 
BRANCH   9  14
ATOM     14  C   UNL A   1      30.776  25.273  24.702  1.00  0.00     0.223 C 
ATOM     15  N   UNL A   1      30.627  23.995  24.246  1.00  0.00    -0.354 N 
ATOM     16  H   UNL A   1      29.976  23.441  24.736  1.00  0.00     0.163 HD
ATOM     17  O   UNL A   1      30.085  25.618  25.657  1.00  0.00    -0.275 OA
BRANCH  15  18
ATOM     18  C   UNL A   1      31.299  23.344  23.142  1.00  0.00     0.138 C 
BRANCH  18  19
ATOM     19  C   UNL A   1      32.346  22.285  23.528  1.00  0.00     0.084 C 
ATOM     20  C   UNL A   1      32.150  20.974  22.758  1.00  0.00     0.030 C 
ATOM     21  C   UNL A   1      33.726  22.874  23.151  1.00  0.00     0.030 C 
BRANCH  19  22
ATOM     22  S   UNL A   1      32.375  21.986  25.331  1.00  0.00     0.154 S 
ATOM     23  C   UNL A   1      33.401  20.562  25.644  1.00  0.00     0.158 C 
ATOM     24  O   UNL A   1      33.048  23.118  25.944  1.00  0.00    -0.229 OA
ATOM     25  O   UNL A   1      31.026  21.651  25.751  1.00  0.00    -0.229 OA
ENDBRANCH  19  22
ENDBRANCH  18  19
ENDBRANCH  15  18
ENDBRANCH   9  14
ENDBRANCH   6   8
ENDBRANCH   5   6
ENDBRANCH   4   5
ENDBRANCH   3   4
ENDBRANCH   2   3
ENDBRANCH   1   2
BRANCH   1  26
ATOM     26  C   UNL A   1      34.898  32.757  29.216  1.00  0.00     0.188 C 
BRANCH  26  27
ATOM     27  O   UNL A   1      35.105  33.796  28.264  1.00  0.00    -0.376 OA
BRANCH  27  28
ATOM     28  C   UNL A   1      34.383  35.011  28.494  1.00  0.00     0.202 C 
BRANCH  28  29
ATOM     29  C   UNL A   1      33.272  34.961  29.563  1.00  0.00     0.261 C 
BRANCH  29  30
ATOM     30  O   UNL A   1      33.504  35.787  30.724  1.00  0.00    -0.460 OA
BRANCH  30  31
ATOM     31  C   UNL A   1      33.172  35.284  31.936  1.00  0.00     0.338 C 
ATOM     32  O   UNL A   1      32.041  35.115  32.362  1.00  0.00    -0.246 OA
BRANCH  31  33
ATOM     33  C   UNL A   1      34.400  34.723  32.563  1.00  0.00     0.060 A 
ATOM     34  C   UNL A   1      35.629  35.341  32.285  1.00  0.00     0.016 A 
ATOM     35  C   UNL A   1      34.347  33.661  33.472  1.00  0.00     0.016 A 
ATOM     36  C   UNL A   1      36.807  34.871  32.878  1.00  0.00     0.010 A 
ATOM     37  C   UNL A   1      35.527  33.186  34.055  1.00  0.00     0.010 A 
ATOM     38  C   UNL A   1      36.768  33.764  33.734  1.00  0.00    -0.014 A 
BRANCH  38  39
ATOM     39  C   UNL A   1      38.024  33.073  34.125  1.00  0.00     0.031 A 
ATOM     40  C   UNL A   1      38.482  31.909  33.285  1.00  0.00     0.074 A 
ATOM     41  C   UNL A   1      38.741  33.437  35.204  1.00  0.00     0.049 A 
ATOM     42  N   UNL A   1      39.502  31.111  33.455  1.00  0.00    -0.248 NA
ATOM     43  C   UNL A   1      37.672  31.607  32.091  1.00  0.00     0.031 C 
ATOM     44  C   UNL A   1      38.427  34.548  36.099  1.00  0.00     0.029 A 
ATOM     45  N   UNL A   1      39.878  32.881  35.743  1.00  0.00    -0.354 N 
ATOM     46  C   UNL A   1      39.440  30.194  32.413  1.00  0.00     0.074 A 
ATOM     47  C   UNL A   1      38.280  30.530  31.619  1.00  0.00     0.031 C 
ATOM     48  C   UNL A   1      39.329  34.571  37.098  1.00  0.00     0.029 A 
ATOM     49  C   UNL A   1      40.270  33.462  36.927  1.00  0.00     0.049 A 
ATOM     50  H   UNL A   1      40.365  32.136  35.322  1.00  0.00     0.167 HD
ATOM     51  C   UNL A   1      40.281  29.171  32.129  1.00  0.00     0.034 A 
ATOM     52  C   UNL A   1      41.254  33.123  37.786  1.00  0.00     0.034 A 
ATOM     53  C   UNL A   1      41.446  28.839  32.900  1.00  0.00     0.049 A 
ATOM     54  C   UNL A   1      42.154  31.952  37.469  1.00  0.00     0.074 A 
ATOM     55  C   UNL A   1      42.379  27.847  32.659  1.00  0.00     0.029 A 
ATOM     56  N   UNL A   1      41.828  29.475  34.070  1.00  0.00    -0.354 N 
ATOM     57  N   UNL A   1      42.157  31.172  36.415  1.00  0.00    -0.248 NA
ATOM     58  C   UNL A   1      43.205  31.632  38.449  1.00  0.00     0.031 C 
ATOM     59  C   UNL A   1      43.313  27.865  33.700  1.00  0.00     0.029 A 
ATOM     60  C   UNL A   1      42.978  28.888  34.570  1.00  0.00     0.049 A 
ATOM     61  H   UNL A   1      41.354  30.233  34.482  1.00  0.00     0.167 HD
ATOM     62  C   UNL A   1      43.229  30.299  36.587  1.00  0.00     0.074 A 
ATOM     63  C   UNL A   1      43.862  30.654  37.838  1.00  0.00     0.031 C 
ATOM     64  C   UNL A   1      43.642  29.287  35.784  1.00  0.00     0.034 A 
BRANCH  51  65
ATOM     65  C   UNL A   1      39.976  28.342  30.911  1.00  0.00     0.023 A 
ATOM     66  C   UNL A   1      39.052  27.283  31.002  1.00  0.00     0.012 A 
ATOM     67  C   UNL A   1      40.567  28.643  29.669  1.00  0.00     0.148 A 
ATOM     68  C   UNL A   1      38.741  26.516  29.880  1.00  0.00     0.002 A 
ATOM     69  C   UNL A   1      40.219  27.904  28.547  1.00  0.00     0.091 A 
ATOM     70  F   UNL A   1      41.464  29.638  29.612  1.00  0.00    -0.205 F 
ATOM     71  C   UNL A   1      39.315  26.833  28.652  1.00  0.00     0.022 A 
BRANCH  69  72
ATOM     72  S   UNL A   1      40.847  28.282  26.907  1.00  0.00     0.127 S 
ATOM     73  O   UNL A   1      39.918  29.323  26.470  1.00  0.00    -0.237 OA
ATOM     74  O   UNL A   1      42.201  28.756  27.198  1.00  0.00    -0.237 OA
ATOM     75  O   UNL A   1      40.788  27.034  26.158  1.00  0.00    -0.744 OA
ENDBRANCH  69  72
ENDBRANCH  51  65
BRANCH  52  76
ATOM     76  C   UNL A   1      41.466  33.913  39.034  1.00  0.00     0.023 A 
ATOM     77  C   UNL A   1      42.400  34.967  39.040  1.00  0.00     0.012 A 
ATOM     78  C   UNL A   1      40.757  33.617  40.215  1.00  0.00     0.148 A 
ATOM     79  C   UNL A   1      42.646  35.693  40.206  1.00  0.00     0.002 A 
ATOM     80  C   UNL A   1      40.969  34.378  41.359  1.00  0.00     0.091 A 
ATOM     81  F   UNL A   1      39.891  32.594  40.195  1.00  0.00    -0.205 F 
ATOM     82  C   UNL A   1      41.925  35.405  41.362  1.00  0.00     0.022 A 
BRANCH  80  83
ATOM     83  S   UNL A   1      40.011  34.150  42.861  1.00  0.00     0.127 S 
ATOM     84  O   UNL A   1      40.346  35.355  43.616  1.00  0.00    -0.237 OA
ATOM     85  O   UNL A   1      38.644  34.108  42.342  1.00  0.00    -0.237 OA
ATOM     86  O   UNL A   1      40.476  32.895  43.437  1.00  0.00    -0.744 OA
ENDBRANCH  80  83
ENDBRANCH  52  76
BRANCH  64  87
ATOM     87  C   UNL A   1      44.866  28.505  36.191  1.00  0.00     0.023 A 
ATOM     88  C   UNL A   1      46.147  28.958  35.818  1.00  0.00     0.012 A 
ATOM     89  C   UNL A   1      44.750  27.380  37.035  1.00  0.00     0.148 A 
ATOM     90  C   UNL A   1      47.290  28.290  36.258  1.00  0.00     0.002 A 
ATOM     91  C   UNL A   1      45.895  26.750  37.507  1.00  0.00     0.091 A 
ATOM     92  F   UNL A   1      43.522  26.957  37.369  1.00  0.00    -0.205 F 
ATOM     93  C   UNL A   1      47.166  27.196  37.111  1.00  0.00     0.022 A 
BRANCH  91  94
ATOM     94  S   UNL A   1      45.835  25.397  38.688  1.00  0.00     0.127 S 
ATOM     95  O   UNL A   1      44.698  24.620  38.194  1.00  0.00    -0.237 OA
ATOM     96  O   UNL A   1      47.137  24.759  38.498  1.00  0.00    -0.237 OA
ATOM     97  O   UNL A   1      45.648  26.010  39.996  1.00  0.00    -0.744 OA
ENDBRANCH  91  94
ENDBRANCH  64  87
ENDBRANCH  38  39
ENDBRANCH  31  33
ENDBRANCH  30  31
ENDBRANCH  29  30
ENDBRANCH  28  29
ENDBRANCH  27  28
ENDBRANCH  26  27
ENDBRANCH   1  26
TORSDOF 24
ENDMDL
