MODEL 1
REMARK VINA RESULT:     -10.0      0.000      0.000
REMARK SMILES Cc1ccc(S(=O)(=O)n2cc(C(=O)C(=O)N[C@@H](Cc3c[nH]c4ccccc34)C(=O)NCC(=O)OCCOCCOCCOC(=O)c3ccc(-c4c5nc(c(-c6cccc(S(=O)(=O)[O-])c6F)c6ccc([nH]6)c(-c6cccc(S(=O)(=O)[O-])c6F)c6nc(c(-c7cccc(S(=O)(=O)[O-])c7F)c7ccc4[nH]7)C=C6)C=C5)cc3)c3ccccc32)cc1
REMARK SMILES IDX 36 1 35 2 34 3 32 4 33 5 31 6 30 7 28 8 29 9 17 11 16 12
REMARK SMILES IDX 14 13 15 14 12 16 13 17 11 18 9 19 10 20 114 21 109 22
REMARK SMILES IDX 113 23 110 24 112 25 111 26 6 27 7 28 8 29 5 30 1 31 2 32
REMARK SMILES IDX 3 33 116 34 4 35 115 36 18 37 19 38 20 39 27 40 21 41 22 42
REMARK SMILES IDX 26 43 23 45 25 46 24 47 37 48 38 49 39 50 40 51 41 52 42 53
REMARK SMILES IDX 43 54 44 55 45 56 46 57 47 58 108 59 48 60 107 61 49 62
REMARK SMILES IDX 50 63 51 64 101 65 52 66 106 67 100 68 102 69 53 70 105 71
REMARK SMILES IDX 99 72 98 73 54 75 86 76 66 77 85 78 67 79 70 80 84 81 103 82
REMARK SMILES IDX 68 83 69 84 83 86 104 87 71 88 55 89 56 90 64 91 57 92 59 93
REMARK SMILES IDX 65 94 58 95 60 96 61 97 62 98 63 99 87 100 88 101 96 102
REMARK SMILES IDX 89 103 91 104 97 105 90 106 92 107 93 108 94 109 95 110
REMARK SMILES IDX 72 111 73 112 81 113 74 114 76 115 82 116 75 117 77 118
REMARK SMILES IDX 78 119 79 120 80 121
REMARK H PARENT 30 10 16 15 21 44 102 74 70 85
REMARK Flexibility Score: inf
ROOT
ATOM      1  C   UNL A   1      39.284  22.234  26.380  1.00  0.00     0.202 C 
ENDROOT
BRANCH   1   2
ATOM      2  C   UNL A   1      38.439  23.536  26.404  1.00  0.00     0.261 C 
BRANCH   2   3
ATOM      3  O   UNL A   1      37.495  23.626  25.305  1.00  0.00    -0.462 OA
BRANCH   3   4
ATOM      4  C   UNL A   1      36.135  23.567  25.485  1.00  0.00     0.325 C 
ATOM      5  O   UNL A   1      35.554  22.782  26.219  1.00  0.00    -0.250 OA
BRANCH   4   6
ATOM      6  C   UNL A   1      35.437  24.572  24.507  1.00  0.00     0.238 C 
BRANCH   6   7
ATOM      7  N   UNL A   1      34.534  24.140  23.432  1.00  0.00    -0.343 N 
ATOM      8  C   UNL A   1      34.013  24.930  22.424  1.00  0.00     0.243 C 
ATOM      9  O   UNL A   1      33.560  24.387  21.415  1.00  0.00    -0.273 OA
ATOM     10  H   UNL A   1      34.272  23.191  23.430  1.00  0.00     0.164 HD
BRANCH   8  11
ATOM     11  C   UNL A   1      33.991  26.470  22.622  1.00  0.00     0.176 C 
BRANCH  11  12
ATOM     12  N   UNL A   1      32.801  26.814  21.776  1.00  0.00    -0.337 N 
ATOM     13  C   UNL A   1      31.504  26.337  21.597  1.00  0.00     0.293 C 
ATOM     14  O   UNL A   1      31.060  26.203  20.524  1.00  0.00    -0.265 OA
ATOM     15  H   UNL A   1      32.985  27.583  21.190  1.00  0.00     0.164 HD
BRANCH  13  16
ATOM     16  C   UNL A   1      30.616  26.313  22.825  1.00  0.00     0.252 C 
ATOM     17  O   UNL A   1      29.531  26.888  22.747  1.00  0.00    -0.283 OA
BRANCH  16  18
ATOM     18  C   UNL A   1      30.898  25.293  23.826  1.00  0.00     0.054 A 
ATOM     19  N   UNL A   1      31.844  23.581  24.892  1.00  0.00    -0.240 N 
ATOM     20  C   UNL A   1      31.157  23.931  23.736  1.00  0.00     0.117 A 
ATOM     21  C   UNL A   1      31.926  24.726  25.686  1.00  0.00     0.065 A 
ATOM     22  C   UNL A   1      30.940  25.576  25.207  1.00  0.00     0.012 A 
ATOM     23  C   UNL A   1      32.673  25.071  26.815  1.00  0.00     0.028 A 
ATOM     24  C   UNL A   1      30.400  26.569  26.039  1.00  0.00     0.011 A 
ATOM     25  C   UNL A   1      32.184  26.119  27.601  1.00  0.00     0.002 A 
ATOM     26  C   UNL A   1      31.004  26.788  27.273  1.00  0.00     0.001 A 
BRANCH  19  27
ATOM     27  S   UNL A   1      31.642  22.054  25.705  1.00  0.00     0.268 S 
ATOM     28  O   UNL A   1      30.208  21.828  25.784  1.00  0.00    -0.201 OA
ATOM     29  O   UNL A   1      32.396  22.208  26.946  1.00  0.00    -0.201 OA
BRANCH  27  30
ATOM     30  C   UNL A   1      32.372  20.620  24.933  1.00  0.00     0.088 A 
ATOM     31  C   UNL A   1      33.295  16.608  23.570  1.00  0.00     0.044 C 
ATOM     32  C   UNL A   1      32.989  18.011  24.012  1.00  0.00    -0.051 A 
ATOM     33  C   UNL A   1      33.108  18.323  25.364  1.00  0.00     0.005 A 
ATOM     34  C   UNL A   1      32.579  19.021  23.124  1.00  0.00     0.005 A 
ATOM     35  C   UNL A   1      32.804  19.608  25.815  1.00  0.00     0.022 A 
ATOM     36  C   UNL A   1      32.255  20.320  23.579  1.00  0.00     0.022 A 
ENDBRANCH  27  30
ENDBRANCH  19  27
ENDBRANCH  16  18
ENDBRANCH  13  16
ENDBRANCH  11  12
BRANCH  11  37
ATOM     37  C   UNL A   1      34.157  26.951  24.105  1.00  0.00     0.072 C 
BRANCH  37  38
ATOM     38  C   UNL A   1      33.391  28.164  24.652  1.00  0.00    -0.020 A 
ATOM     39  C   UNL A   1      32.309  28.854  24.124  1.00  0.00     0.087 A 
ATOM     40  C   UNL A   1      33.668  28.830  25.910  1.00  0.00     0.003 A 
ATOM     41  N   UNL A   1      32.126  30.023  24.831  1.00  0.00    -0.361 N 
ATOM     42  C   UNL A   1      33.017  30.064  25.872  1.00  0.00     0.046 A 
ATOM     43  C   UNL A   1      34.540  28.585  26.993  1.00  0.00     0.010 A 
ATOM     44  H   UNL A   1      31.461  30.717  24.622  1.00  0.00     0.166 HD
ATOM     45  C   UNL A   1      33.322  31.119  26.733  1.00  0.00     0.026 A 
ATOM     46  C   UNL A   1      34.852  29.631  27.873  1.00  0.00     0.001 A 
ATOM     47  C   UNL A   1      34.298  30.895  27.696  1.00  0.00     0.002 A 
ENDBRANCH  37  38
ENDBRANCH  11  37
ENDBRANCH   8  11
ENDBRANCH   6   7
ENDBRANCH   4   6
ENDBRANCH   3   4
ENDBRANCH   2   3
ENDBRANCH   1   2
BRANCH   1  48
ATOM     48  O   UNL A   1      40.054  22.000  27.578  1.00  0.00    -0.376 OA
BRANCH  48  49
ATOM     49  C   UNL A   1      40.904  20.865  27.458  1.00  0.00     0.188 C 
BRANCH  49  50
ATOM     50  C   UNL A   1      41.323  20.666  25.995  1.00  0.00     0.188 C 
BRANCH  50  51
ATOM     51  O   UNL A   1      42.349  21.522  25.477  1.00  0.00    -0.376 OA
BRANCH  51  52
ATOM     52  C   UNL A   1      43.699  21.144  25.727  1.00  0.00     0.202 C 
BRANCH  52  53
ATOM     53  C   UNL A   1      44.725  22.263  26.029  1.00  0.00     0.261 C 
BRANCH  53  54
ATOM     54  O   UNL A   1      44.501  22.893  27.298  1.00  0.00    -0.460 OA
BRANCH  54  55
ATOM     55  C   UNL A   1      44.713  24.239  27.426  1.00  0.00     0.338 C 
ATOM     56  O   UNL A   1      45.706  24.766  27.889  1.00  0.00    -0.246 OA
BRANCH  55  57
ATOM     57  C   UNL A   1      43.383  24.887  27.160  1.00  0.00     0.060 A 
ATOM     58  C   UNL A   1      43.287  26.156  26.607  1.00  0.00     0.016 A 
ATOM     59  C   UNL A   1      42.295  24.437  27.861  1.00  0.00     0.016 A 
ATOM     60  C   UNL A   1      42.259  27.044  27.039  1.00  0.00     0.010 A 
ATOM     61  C   UNL A   1      41.500  25.417  28.467  1.00  0.00     0.010 A 
ATOM     62  C   UNL A   1      41.501  26.787  28.185  1.00  0.00    -0.014 A 
BRANCH  62  63
ATOM     63  C   UNL A   1      41.121  27.877  29.238  1.00  0.00     0.031 A 
ATOM     64  C   UNL A   1      39.982  28.957  29.238  1.00  0.00     0.074 A 
ATOM     65  C   UNL A   1      41.875  27.938  30.373  1.00  0.00     0.049 A 
ATOM     66  N   UNL A   1      39.363  29.469  30.277  1.00  0.00    -0.248 NA
ATOM     67  C   UNL A   1      39.474  29.585  28.027  1.00  0.00     0.031 C 
ATOM     68  C   UNL A   1      41.649  28.755  31.567  1.00  0.00     0.029 A 
ATOM     69  N   UNL A   1      43.173  27.473  30.592  1.00  0.00    -0.354 N 
ATOM     70  C   UNL A   1      38.458  30.450  29.864  1.00  0.00     0.074 A 
ATOM     71  C   UNL A   1      38.469  30.381  28.426  1.00  0.00     0.031 C 
ATOM     72  C   UNL A   1      42.832  29.056  32.115  1.00  0.00     0.029 A 
ATOM     73  C   UNL A   1      43.845  28.512  31.244  1.00  0.00     0.049 A 
ATOM     74  H   UNL A   1      43.539  26.595  30.342  1.00  0.00     0.167 HD
ATOM     75  C   UNL A   1      38.172  31.596  30.557  1.00  0.00     0.034 A 
ATOM     76  C   UNL A   1      44.916  29.170  30.716  1.00  0.00     0.034 A 
ATOM     77  C   UNL A   1      39.335  32.056  31.293  1.00  0.00     0.049 A 
ATOM     78  C   UNL A   1      44.739  30.681  30.691  1.00  0.00     0.074 A 
ATOM     79  C   UNL A   1      39.874  31.826  32.538  1.00  0.00     0.029 A 
ATOM     80  N   UNL A   1      40.229  32.869  30.613  1.00  0.00    -0.354 N 
ATOM     81  N   UNL A   1      43.689  31.328  31.129  1.00  0.00    -0.248 NA
ATOM     82  C   UNL A   1      45.734  31.583  30.116  1.00  0.00     0.031 C 
ATOM     83  C   UNL A   1      41.195  32.358  32.523  1.00  0.00     0.029 A 
ATOM     84  C   UNL A   1      41.442  32.923  31.277  1.00  0.00     0.049 A 
ATOM     85  H   UNL A   1      40.030  33.341  29.772  1.00  0.00     0.167 HD
ATOM     86  C   UNL A   1      43.748  32.632  30.694  1.00  0.00     0.074 A 
ATOM     87  C   UNL A   1      45.109  32.767  30.208  1.00  0.00     0.031 C 
ATOM     88  C   UNL A   1      42.640  33.443  30.608  1.00  0.00     0.034 A 
BRANCH  75  89
ATOM     89  C   UNL A   1      36.906  32.460  30.478  1.00  0.00     0.023 A 
ATOM     90  C   UNL A   1      36.636  33.087  29.229  1.00  0.00     0.012 A 
ATOM     91  C   UNL A   1      36.052  32.834  31.543  1.00  0.00     0.148 A 
ATOM     92  C   UNL A   1      35.605  34.019  29.040  1.00  0.00     0.002 A 
ATOM     93  C   UNL A   1      35.006  33.764  31.340  1.00  0.00     0.091 A 
ATOM     94  F   UNL A   1      36.267  32.339  32.771  1.00  0.00    -0.205 F 
ATOM     95  C   UNL A   1      34.784  34.358  30.097  1.00  0.00     0.022 A 
BRANCH  93  96
ATOM     96  S   UNL A   1      33.925  34.254  32.684  1.00  0.00     0.127 S 
ATOM     97  O   UNL A   1      33.005  35.183  32.031  1.00  0.00    -0.237 OA
ATOM     98  O   UNL A   1      33.280  33.016  33.123  1.00  0.00    -0.237 OA
ATOM     99  O   UNL A   1      34.828  34.832  33.670  1.00  0.00    -0.744 OA
ENDBRANCH  93  96
ENDBRANCH  75  89
BRANCH  76 100
ATOM    100  C   UNL A   1      45.750  28.345  29.777  1.00  0.00     0.023 A 
ATOM    101  C   UNL A   1      45.510  28.545  28.392  1.00  0.00     0.012 A 
ATOM    102  C   UNL A   1      46.924  27.664  30.149  1.00  0.00     0.148 A 
ATOM    103  C   UNL A   1      46.450  28.187  27.424  1.00  0.00     0.002 A 
ATOM    104  C   UNL A   1      47.871  27.317  29.175  1.00  0.00     0.091 A 
ATOM    105  F   UNL A   1      47.163  27.442  31.447  1.00  0.00    -0.205 F 
ATOM    106  C   UNL A   1      47.637  27.586  27.817  1.00  0.00     0.022 A 
BRANCH 104 107
ATOM    107  S   UNL A   1      49.532  26.766  29.640  1.00  0.00     0.127 S 
ATOM    108  O   UNL A   1      50.056  26.228  28.384  1.00  0.00    -0.237 OA
ATOM    109  O   UNL A   1      50.211  27.980  30.079  1.00  0.00    -0.237 OA
ATOM    110  O   UNL A   1      49.239  25.772  30.665  1.00  0.00    -0.744 OA
ENDBRANCH 104 107
ENDBRANCH  76 100
BRANCH  88 111
ATOM    111  C   UNL A   1      42.608  34.706  29.735  1.00  0.00     0.023 A 
ATOM    112  C   UNL A   1      41.652  34.866  28.703  1.00  0.00     0.012 A 
ATOM    113  C   UNL A   1      43.400  35.846  30.008  1.00  0.00     0.148 A 
ATOM    114  C   UNL A   1      41.552  36.020  27.919  1.00  0.00     0.002 A 
ATOM    115  C   UNL A   1      43.226  37.040  29.291  1.00  0.00     0.091 A 
ATOM    116  F   UNL A   1      44.318  35.796  30.985  1.00  0.00    -0.205 F 
ATOM    117  C   UNL A   1      42.336  37.116  28.218  1.00  0.00     0.022 A 
BRANCH 115 118
ATOM    118  S   UNL A   1      44.005  38.560  29.858  1.00  0.00     0.127 S 
ATOM    119  O   UNL A   1      43.333  39.576  29.053  1.00  0.00    -0.237 OA
ATOM    120  O   UNL A   1      43.670  38.596  31.283  1.00  0.00    -0.237 OA
ATOM    121  O   UNL A   1      45.418  38.330  29.580  1.00  0.00    -0.744 OA
ENDBRANCH 115 118
ENDBRANCH  88 111
ENDBRANCH  62  63
ENDBRANCH  55  57
ENDBRANCH  54  55
ENDBRANCH  53  54
ENDBRANCH  52  53
ENDBRANCH  51  52
ENDBRANCH  50  51
ENDBRANCH  49  50
ENDBRANCH  48  49
ENDBRANCH   1  48
TORSDOF 29
ENDMDL
MODEL 2
REMARK VINA RESULT:      -9.2      3.351      7.173
REMARK SMILES Cc1ccc(S(=O)(=O)n2cc(C(=O)C(=O)N[C@@H](Cc3c[nH]c4ccccc34)C(=O)NCC(=O)OCCOCCOCCOC(=O)c3ccc(-c4c5nc(c(-c6cccc(S(=O)(=O)[O-])c6F)c6ccc([nH]6)c(-c6cccc(S(=O)(=O)[O-])c6F)c6nc(c(-c7cccc(S(=O)(=O)[O-])c7F)c7ccc4[nH]7)C=C6)C=C5)cc3)c3ccccc32)cc1
REMARK SMILES IDX 36 1 35 2 34 3 32 4 33 5 31 6 30 7 28 8 29 9 17 11 16 12
REMARK SMILES IDX 14 13 15 14 12 16 13 17 11 18 9 19 10 20 114 21 109 22
REMARK SMILES IDX 113 23 110 24 112 25 111 26 6 27 7 28 8 29 5 30 1 31 2 32
REMARK SMILES IDX 3 33 116 34 4 35 115 36 18 37 19 38 20 39 27 40 21 41 22 42
REMARK SMILES IDX 26 43 23 45 25 46 24 47 37 48 38 49 39 50 40 51 41 52 42 53
REMARK SMILES IDX 43 54 44 55 45 56 46 57 47 58 108 59 48 60 107 61 49 62
REMARK SMILES IDX 50 63 51 64 101 65 52 66 106 67 100 68 102 69 53 70 105 71
REMARK SMILES IDX 99 72 98 73 54 75 86 76 66 77 85 78 67 79 70 80 84 81 103 82
REMARK SMILES IDX 68 83 69 84 83 86 104 87 71 88 55 89 56 90 64 91 57 92 59 93
REMARK SMILES IDX 65 94 58 95 60 96 61 97 62 98 63 99 87 100 88 101 96 102
REMARK SMILES IDX 89 103 91 104 97 105 90 106 92 107 93 108 94 109 95 110
REMARK SMILES IDX 72 111 73 112 81 113 74 114 76 115 82 116 75 117 77 118
REMARK SMILES IDX 78 119 79 120 80 121
REMARK H PARENT 30 10 16 15 21 44 102 74 70 85
REMARK Flexibility Score: inf
ROOT
ATOM      1  C   UNL A   1      34.722  30.665  27.782  1.00  0.00     0.202 C 
ENDROOT
BRANCH   1   2
ATOM      2  C   UNL A   1      34.537  29.421  26.870  1.00  0.00     0.261 C 
BRANCH   2   3
ATOM      3  O   UNL A   1      33.579  28.464  27.392  1.00  0.00    -0.462 OA
BRANCH   3   4
ATOM      4  C   UNL A   1      32.243  28.503  27.081  1.00  0.00     0.325 C 
ATOM      5  O   UNL A   1      31.534  29.496  27.134  1.00  0.00    -0.250 OA
BRANCH   4   6
ATOM      6  C   UNL A   1      31.739  27.052  26.773  1.00  0.00     0.238 C 
BRANCH   6   7
ATOM      7  N   UNL A   1      32.558  26.057  26.069  1.00  0.00    -0.343 N 
ATOM      8  C   UNL A   1      32.202  25.343  24.940  1.00  0.00     0.243 C 
ATOM      9  O   UNL A   1      33.086  24.810  24.267  1.00  0.00    -0.273 OA
ATOM     10  H   UNL A   1      33.453  25.879  26.440  1.00  0.00     0.164 HD
BRANCH   8  11
ATOM     11  C   UNL A   1      30.696  25.215  24.586  1.00  0.00     0.176 C 
BRANCH  11  12
ATOM     12  N   UNL A   1      30.314  24.100  25.515  1.00  0.00    -0.337 N 
ATOM     13  C   UNL A   1      30.894  22.925  25.990  1.00  0.00     0.293 C 
ATOM     14  O   UNL A   1      30.277  21.934  26.042  1.00  0.00    -0.265 OA
ATOM     15  H   UNL A   1      29.414  24.233  25.888  1.00  0.00     0.164 HD
BRANCH  13  16
ATOM     16  C   UNL A   1      32.217  23.069  26.715  1.00  0.00     0.252 C 
ATOM     17  O   UNL A   1      32.175  23.353  27.912  1.00  0.00    -0.283 OA
BRANCH  16  18
ATOM     18  C   UNL A   1      33.385  22.466  26.088  1.00  0.00     0.054 A 
ATOM     19  N   UNL A   1      35.344  21.443  25.810  1.00  0.00    -0.240 N 
ATOM     20  C   UNL A   1      34.750  22.589  26.323  1.00  0.00     0.117 A 
ATOM     21  C   UNL A   1      34.335  20.684  25.216  1.00  0.00     0.065 A 
ATOM     22  C   UNL A   1      33.287  21.569  25.005  1.00  0.00     0.012 A 
ATOM     23  C   UNL A   1      34.255  19.368  24.757  1.00  0.00     0.028 A 
ATOM     24  C   UNL A   1      32.333  21.307  24.009  1.00  0.00     0.011 A 
ATOM     25  C   UNL A   1      33.249  19.082  23.828  1.00  0.00     0.002 A 
ATOM     26  C   UNL A   1      32.368  20.066  23.381  1.00  0.00     0.001 A 
BRANCH  19  27
ATOM     27  S   UNL A   1      36.910  21.433  25.047  1.00  0.00     0.268 S 
ATOM     28  O   UNL A   1      36.749  22.147  23.791  1.00  0.00    -0.201 OA
ATOM     29  O   UNL A   1      37.278  20.020  25.007  1.00  0.00    -0.201 OA
BRANCH  27  30
ATOM     30  C   UNL A   1      38.252  22.202  25.937  1.00  0.00     0.088 A 
ATOM     31  C   UNL A   1      42.042  23.950  27.114  1.00  0.00     0.044 C 
ATOM     32  C   UNL A   1      40.713  23.366  26.729  1.00  0.00    -0.051 A 
ATOM     33  C   UNL A   1      40.646  22.008  26.425  1.00  0.00     0.005 A 
ATOM     34  C   UNL A   1      39.535  24.130  26.653  1.00  0.00     0.005 A 
ATOM     35  C   UNL A   1      39.433  21.438  26.037  1.00  0.00     0.022 A 
ATOM     36  C   UNL A   1      38.307  23.559  26.243  1.00  0.00     0.022 A 
ENDBRANCH  27  30
ENDBRANCH  19  27
ENDBRANCH  16  18
ENDBRANCH  13  16
ENDBRANCH  11  12
BRANCH  11  37
ATOM     37  C   UNL A   1      29.914  26.572  24.510  1.00  0.00     0.072 C 
BRANCH  37  38
ATOM     38  C   UNL A   1      30.179  27.597  23.398  1.00  0.00    -0.020 A 
ATOM     39  C   UNL A   1      31.323  27.830  22.647  1.00  0.00     0.087 A 
ATOM     40  C   UNL A   1      29.209  28.546  22.886  1.00  0.00     0.003 A 
ATOM     41  N   UNL A   1      31.178  29.012  21.952  1.00  0.00    -0.361 N 
ATOM     42  C   UNL A   1      29.919  29.509  22.167  1.00  0.00     0.046 A 
ATOM     43  C   UNL A   1      27.834  28.777  23.107  1.00  0.00     0.010 A 
ATOM     44  H   UNL A   1      31.869  29.431  21.391  1.00  0.00     0.166 HD
ATOM     45  C   UNL A   1      29.390  30.754  21.824  1.00  0.00     0.026 A 
ATOM     46  C   UNL A   1      27.283  30.020  22.761  1.00  0.00     0.001 A 
ATOM     47  C   UNL A   1      28.075  31.012  22.191  1.00  0.00     0.002 A 
ENDBRANCH  37  38
ENDBRANCH  11  37
ENDBRANCH   8  11
ENDBRANCH   6   7
ENDBRANCH   4   6
ENDBRANCH   3   4
ENDBRANCH   2   3
ENDBRANCH   1   2
BRANCH   1  48
ATOM     48  O   UNL A   1      35.970  30.695  28.505  1.00  0.00    -0.376 OA
BRANCH  48  49
ATOM     49  C   UNL A   1      36.466  29.388  28.775  1.00  0.00     0.188 C 
BRANCH  49  50
ATOM     50  C   UNL A   1      37.725  29.467  29.650  1.00  0.00     0.188 C 
BRANCH  50  51
ATOM     51  O   UNL A   1      38.573  30.611  29.488  1.00  0.00    -0.376 OA
BRANCH  51  52
ATOM     52  C   UNL A   1      39.554  30.839  30.494  1.00  0.00     0.202 C 
BRANCH  52  53
ATOM     53  C   UNL A   1      39.267  30.318  31.924  1.00  0.00     0.261 C 
BRANCH  53  54
ATOM     54  O   UNL A   1      40.461  30.123  32.693  1.00  0.00    -0.460 OA
BRANCH  54  55
ATOM     55  C   UNL A   1      40.811  28.858  33.082  1.00  0.00     0.338 C 
ATOM     56  O   UNL A   1      40.139  28.108  33.764  1.00  0.00    -0.246 OA
BRANCH  55  57
ATOM     57  C   UNL A   1      42.270  28.719  32.750  1.00  0.00     0.060 A 
ATOM     58  C   UNL A   1      43.260  28.953  33.694  1.00  0.00     0.016 A 
ATOM     59  C   UNL A   1      42.642  28.806  31.434  1.00  0.00     0.016 A 
ATOM     60  C   UNL A   1      44.482  29.573  33.305  1.00  0.00     0.010 A 
ATOM     61  C   UNL A   1      43.709  29.666  31.147  1.00  0.00     0.010 A 
ATOM     62  C   UNL A   1      44.626  30.194  32.061  1.00  0.00    -0.014 A 
BRANCH  62  63
ATOM     63  C   UNL A   1      45.348  31.565  31.852  1.00  0.00     0.031 A 
ATOM     64  C   UNL A   1      45.006  33.000  32.387  1.00  0.00     0.074 A 
ATOM     65  C   UNL A   1      46.477  31.565  31.088  1.00  0.00     0.049 A 
ATOM     66  N   UNL A   1      45.843  33.977  32.651  1.00  0.00    -0.248 NA
ATOM     67  C   UNL A   1      43.647  33.462  32.627  1.00  0.00     0.031 C 
ATOM     68  C   UNL A   1      47.413  32.668  30.856  1.00  0.00     0.029 A 
ATOM     69  N   UNL A   1      46.888  30.642  30.125  1.00  0.00    -0.354 N 
ATOM     70  C   UNL A   1      45.142  35.120  33.044  1.00  0.00     0.074 A 
ATOM     71  C   UNL A   1      43.770  34.695  33.146  1.00  0.00     0.031 C 
ATOM     72  C   UNL A   1      47.943  32.535  29.635  1.00  0.00     0.029 A 
ATOM     73  C   UNL A   1      47.301  31.397  29.023  1.00  0.00     0.049 A 
ATOM     74  H   UNL A   1      46.887  29.661  30.205  1.00  0.00     0.167 HD
ATOM     75  C   UNL A   1      45.508  36.406  32.747  1.00  0.00     0.034 A 
ATOM     76  C   UNL A   1      46.695  31.352  27.803  1.00  0.00     0.034 A 
ATOM     77  C   UNL A   1      46.178  36.467  31.461  1.00  0.00     0.049 A 
ATOM     78  C   UNL A   1      46.283  32.723  27.287  1.00  0.00     0.074 A 
ATOM     79  C   UNL A   1      47.473  36.341  31.012  1.00  0.00     0.029 A 
ATOM     80  N   UNL A   1      45.375  36.595  30.338  1.00  0.00    -0.354 N 
ATOM     81  N   UNL A   1      46.479  33.857  27.910  1.00  0.00    -0.248 NA
ATOM     82  C   UNL A   1      45.566  32.910  26.028  1.00  0.00     0.031 C 
ATOM     83  C   UNL A   1      47.410  36.205  29.596  1.00  0.00     0.029 A 
ATOM     84  C   UNL A   1      46.081  36.267  29.194  1.00  0.00     0.049 A 
ATOM     85  H   UNL A   1      44.433  36.879  30.353  1.00  0.00     0.167 HD
ATOM     86  C   UNL A   1      45.737  34.842  27.298  1.00  0.00     0.074 A 
ATOM     87  C   UNL A   1      45.319  34.229  26.050  1.00  0.00     0.031 C 
ATOM     88  C   UNL A   1      45.380  36.011  27.930  1.00  0.00     0.034 A 
BRANCH  75  89
ATOM     89  C   UNL A   1      45.136  37.694  33.495  1.00  0.00     0.023 A 
ATOM     90  C   UNL A   1      44.995  37.596  34.907  1.00  0.00     0.012 A 
ATOM     91  C   UNL A   1      44.766  38.938  32.932  1.00  0.00     0.148 A 
ATOM     92  C   UNL A   1      44.518  38.642  35.710  1.00  0.00     0.002 A 
ATOM     93  C   UNL A   1      44.300  39.994  33.750  1.00  0.00     0.091 A 
ATOM     94  F   UNL A   1      44.810  39.104  31.602  1.00  0.00    -0.205 F 
ATOM     95  C   UNL A   1      44.172  39.848  35.132  1.00  0.00     0.022 A 
BRANCH  93  96
ATOM     96  S   UNL A   1      43.817  41.571  33.047  1.00  0.00     0.127 S 
ATOM     97  O   UNL A   1      43.221  41.182  31.771  1.00  0.00    -0.237 OA
ATOM     98  O   UNL A   1      42.848  42.126  33.992  1.00  0.00    -0.237 OA
ATOM     99  O   UNL A   1      45.064  42.320  32.971  1.00  0.00    -0.744 OA
ENDBRANCH  93  96
ENDBRANCH  75  89
BRANCH  76 100
ATOM    100  C   UNL A   1      46.046  30.036  27.480  1.00  0.00     0.023 A 
ATOM    101  C   UNL A   1      44.636  29.981  27.641  1.00  0.00     0.012 A 
ATOM    102  C   UNL A   1      46.666  29.004  26.751  1.00  0.00     0.148 A 
ATOM    103  C   UNL A   1      43.863  29.008  27.007  1.00  0.00     0.002 A 
ATOM    104  C   UNL A   1      45.883  28.035  26.106  1.00  0.00     0.091 A 
ATOM    105  F   UNL A   1      47.996  29.020  26.605  1.00  0.00    -0.205 F 
ATOM    106  C   UNL A   1      44.485  28.043  26.228  1.00  0.00     0.022 A 
BRANCH 104 107
ATOM    107  S   UNL A   1      46.606  26.912  24.883  1.00  0.00     0.127 S 
ATOM    108  O   UNL A   1      45.583  25.876  24.754  1.00  0.00    -0.237 OA
ATOM    109  O   UNL A   1      46.760  27.728  23.684  1.00  0.00    -0.237 OA
ATOM    110  O   UNL A   1      47.831  26.494  25.552  1.00  0.00    -0.744 OA
ENDBRANCH 104 107
ENDBRANCH  76 100
BRANCH  88 111
ATOM    111  C   UNL A   1      44.220  36.892  27.443  1.00  0.00     0.023 A 
ATOM    112  C   UNL A   1      42.873  36.484  27.591  1.00  0.00     0.012 A 
ATOM    113  C   UNL A   1      44.405  38.217  26.983  1.00  0.00     0.148 A 
ATOM    114  C   UNL A   1      41.783  37.276  27.210  1.00  0.00     0.002 A 
ATOM    115  C   UNL A   1      43.309  39.047  26.702  1.00  0.00     0.091 A 
ATOM    116  F   UNL A   1      45.649  38.698  26.833  1.00  0.00    -0.205 F 
ATOM    117  C   UNL A   1      42.000  38.567  26.771  1.00  0.00     0.022 A 
BRANCH 115 118
ATOM    118  S   UNL A   1      43.553  40.810  26.431  1.00  0.00     0.127 S 
ATOM    119  O   UNL A   1      44.135  41.244  27.697  1.00  0.00    -0.237 OA
ATOM    120  O   UNL A   1      44.476  40.848  25.295  1.00  0.00    -0.237 OA
ATOM    121  O   UNL A   1      42.209  41.286  26.127  1.00  0.00    -0.744 OA
ENDBRANCH 115 118
ENDBRANCH  88 111
ENDBRANCH  62  63
ENDBRANCH  55  57
ENDBRANCH  54  55
ENDBRANCH  53  54
ENDBRANCH  52  53
ENDBRANCH  51  52
ENDBRANCH  50  51
ENDBRANCH  49  50
ENDBRANCH  48  49
ENDBRANCH   1  48
TORSDOF 29
ENDMDL
MODEL 3
REMARK VINA RESULT:      -9.2      1.560      2.098
REMARK SMILES Cc1ccc(S(=O)(=O)n2cc(C(=O)C(=O)N[C@@H](Cc3c[nH]c4ccccc34)C(=O)NCC(=O)OCCOCCOCCOC(=O)c3ccc(-c4c5nc(c(-c6cccc(S(=O)(=O)[O-])c6F)c6ccc([nH]6)c(-c6cccc(S(=O)(=O)[O-])c6F)c6nc(c(-c7cccc(S(=O)(=O)[O-])c7F)c7ccc4[nH]7)C=C6)C=C5)cc3)c3ccccc32)cc1
REMARK SMILES IDX 36 1 35 2 34 3 32 4 33 5 31 6 30 7 28 8 29 9 17 11 16 12
REMARK SMILES IDX 14 13 15 14 12 16 13 17 11 18 9 19 10 20 114 21 109 22
REMARK SMILES IDX 113 23 110 24 112 25 111 26 6 27 7 28 8 29 5 30 1 31 2 32
REMARK SMILES IDX 3 33 116 34 4 35 115 36 18 37 19 38 20 39 27 40 21 41 22 42
REMARK SMILES IDX 26 43 23 45 25 46 24 47 37 48 38 49 39 50 40 51 41 52 42 53
REMARK SMILES IDX 43 54 44 55 45 56 46 57 47 58 108 59 48 60 107 61 49 62
REMARK SMILES IDX 50 63 51 64 101 65 52 66 106 67 100 68 102 69 53 70 105 71
REMARK SMILES IDX 99 72 98 73 54 75 86 76 66 77 85 78 67 79 70 80 84 81 103 82
REMARK SMILES IDX 68 83 69 84 83 86 104 87 71 88 55 89 56 90 64 91 57 92 59 93
REMARK SMILES IDX 65 94 58 95 60 96 61 97 62 98 63 99 87 100 88 101 96 102
REMARK SMILES IDX 89 103 91 104 97 105 90 106 92 107 93 108 94 109 95 110
REMARK SMILES IDX 72 111 73 112 81 113 74 114 76 115 82 116 75 117 77 118
REMARK SMILES IDX 78 119 79 120 80 121
REMARK H PARENT 30 10 16 15 21 44 102 74 70 85
REMARK Flexibility Score: inf
ROOT
ATOM      1  C   UNL A   1      39.395  22.389  26.431  1.00  0.00     0.202 C 
ENDROOT
BRANCH   1   2
ATOM      2  C   UNL A   1      38.540  23.685  26.395  1.00  0.00     0.261 C 
BRANCH   2   3
ATOM      3  O   UNL A   1      37.557  23.693  25.327  1.00  0.00    -0.462 OA
BRANCH   3   4
ATOM      4  C   UNL A   1      36.206  23.620  25.557  1.00  0.00     0.325 C 
ATOM      5  O   UNL A   1      35.660  22.829  26.311  1.00  0.00    -0.250 OA
BRANCH   4   6
ATOM      6  C   UNL A   1      35.462  24.620  24.609  1.00  0.00     0.238 C 
BRANCH   6   7
ATOM      7  N   UNL A   1      34.625  24.180  23.486  1.00  0.00    -0.343 N 
ATOM      8  C   UNL A   1      34.103  24.976  22.482  1.00  0.00     0.243 C 
ATOM      9  O   UNL A   1      33.718  24.444  21.439  1.00  0.00    -0.273 OA
ATOM     10  H   UNL A   1      34.412  23.219  23.443  1.00  0.00     0.164 HD
BRANCH   8  11
ATOM     11  C   UNL A   1      33.995  26.505  22.727  1.00  0.00     0.176 C 
BRANCH  11  12
ATOM     12  N   UNL A   1      32.840  26.822  21.824  1.00  0.00    -0.337 N 
ATOM     13  C   UNL A   1      31.580  26.290  21.553  1.00  0.00     0.293 C 
ATOM     14  O   UNL A   1      31.207  26.172  20.452  1.00  0.00    -0.265 OA
ATOM     15  H   UNL A   1      33.019  27.619  21.275  1.00  0.00     0.164 HD
BRANCH  13  16
ATOM     16  C   UNL A   1      30.626  26.179  22.726  1.00  0.00     0.252 C 
ATOM     17  O   UNL A   1      29.512  26.685  22.594  1.00  0.00    -0.283 OA
BRANCH  16  18
ATOM     18  C   UNL A   1      30.916  25.157  23.722  1.00  0.00     0.054 A 
ATOM     19  N   UNL A   1      31.894  23.468  24.795  1.00  0.00    -0.240 N 
ATOM     20  C   UNL A   1      31.231  23.807  23.622  1.00  0.00     0.117 A 
ATOM     21  C   UNL A   1      31.905  24.603  25.607  1.00  0.00     0.065 A 
ATOM     22  C   UNL A   1      30.902  25.420  25.106  1.00  0.00     0.012 A 
ATOM     23  C   UNL A   1      32.601  24.960  26.763  1.00  0.00     0.028 A 
ATOM     24  C   UNL A   1      30.296  26.379  25.933  1.00  0.00     0.011 A 
ATOM     25  C   UNL A   1      32.045  25.976  27.547  1.00  0.00     0.002 A 
ATOM     26  C   UNL A   1      30.852  26.603  27.189  1.00  0.00     0.001 A 
BRANCH  19  27
ATOM     27  S   UNL A   1      31.726  21.922  25.580  1.00  0.00     0.268 S 
ATOM     28  O   UNL A   1      30.298  21.685  25.699  1.00  0.00    -0.201 OA
ATOM     29  O   UNL A   1      32.519  22.053  26.799  1.00  0.00    -0.201 OA
BRANCH  27  30
ATOM     30  C   UNL A   1      32.439  20.510  24.753  1.00  0.00     0.088 A 
ATOM     31  C   UNL A   1      33.568  16.512  23.507  1.00  0.00     0.044 C 
ATOM     32  C   UNL A   1      33.181  17.908  23.905  1.00  0.00    -0.051 A 
ATOM     33  C   UNL A   1      33.593  18.384  25.148  1.00  0.00     0.005 A 
ATOM     34  C   UNL A   1      32.414  18.752  23.084  1.00  0.00     0.005 A 
ATOM     35  C   UNL A   1      33.228  19.665  25.562  1.00  0.00     0.022 A 
ATOM     36  C   UNL A   1      32.027  20.046  23.508  1.00  0.00     0.022 A 
ENDBRANCH  27  30
ENDBRANCH  19  27
ENDBRANCH  16  18
ENDBRANCH  13  16
ENDBRANCH  11  12
BRANCH  11  37
ATOM     37  C   UNL A   1      34.053  26.943  24.232  1.00  0.00     0.072 C 
BRANCH  37  38
ATOM     38  C   UNL A   1      33.281  28.166  24.748  1.00  0.00    -0.020 A 
ATOM     39  C   UNL A   1      32.179  28.821  24.216  1.00  0.00     0.087 A 
ATOM     40  C   UNL A   1      33.572  28.881  25.975  1.00  0.00     0.003 A 
ATOM     41  N   UNL A   1      31.994  30.013  24.883  1.00  0.00    -0.361 N 
ATOM     42  C   UNL A   1      32.904  30.105  25.903  1.00  0.00     0.046 A 
ATOM     43  C   UNL A   1      34.469  28.688  27.049  1.00  0.00     0.010 A 
ATOM     44  H   UNL A   1      31.316  30.691  24.661  1.00  0.00     0.166 HD
ATOM     45  C   UNL A   1      33.212  31.195  26.718  1.00  0.00     0.026 A 
ATOM     46  C   UNL A   1      34.783  29.771  27.883  1.00  0.00     0.001 A 
ATOM     47  C   UNL A   1      34.209  31.020  27.670  1.00  0.00     0.002 A 
ENDBRANCH  37  38
ENDBRANCH  11  37
ENDBRANCH   8  11
ENDBRANCH   6   7
ENDBRANCH   4   6
ENDBRANCH   3   4
ENDBRANCH   2   3
ENDBRANCH   1   2
BRANCH   1  48
ATOM     48  O   UNL A   1      40.275  22.286  27.570  1.00  0.00    -0.376 OA
BRANCH  48  49
ATOM     49  C   UNL A   1      40.985  21.053  27.591  1.00  0.00     0.188 C 
BRANCH  49  50
ATOM     50  C   UNL A   1      41.178  20.525  26.163  1.00  0.00     0.188 C 
BRANCH  50  51
ATOM     51  O   UNL A   1      42.305  21.013  25.423  1.00  0.00    -0.376 OA
BRANCH  51  52
ATOM     52  C   UNL A   1      43.533  20.305  25.568  1.00  0.00     0.202 C 
BRANCH  52  53
ATOM     53  C   UNL A   1      44.852  21.078  25.321  1.00  0.00     0.261 C 
BRANCH  53  54
ATOM     54  O   UNL A   1      45.194  21.951  26.406  1.00  0.00    -0.460 OA
BRANCH  54  55
ATOM     55  C   UNL A   1      45.618  23.224  26.137  1.00  0.00     0.338 C 
ATOM     56  O   UNL A   1      46.767  23.619  26.181  1.00  0.00    -0.246 OA
BRANCH  55  57
ATOM     57  C   UNL A   1      44.373  24.062  26.071  1.00  0.00     0.060 A 
ATOM     58  C   UNL A   1      44.376  25.334  25.514  1.00  0.00     0.016 A 
ATOM     59  C   UNL A   1      43.357  23.777  26.946  1.00  0.00     0.016 A 
ATOM     60  C   UNL A   1      43.572  26.363  26.085  1.00  0.00     0.010 A 
ATOM     61  C   UNL A   1      42.821  24.862  27.650  1.00  0.00     0.010 A 
ATOM     62  C   UNL A   1      42.978  26.217  27.342  1.00  0.00    -0.014 A 
BRANCH  62  63
ATOM     63  C   UNL A   1      42.935  27.349  28.419  1.00  0.00     0.031 A 
ATOM     64  C   UNL A   1      41.861  28.455  28.709  1.00  0.00     0.074 A 
ATOM     65  C   UNL A   1      43.987  27.427  29.284  1.00  0.00     0.049 A 
ATOM     66  N   UNL A   1      41.577  29.014  29.864  1.00  0.00    -0.248 NA
ATOM     67  C   UNL A   1      41.032  29.057  27.675  1.00  0.00     0.031 C 
ATOM     68  C   UNL A   1      44.130  28.286  30.461  1.00  0.00     0.029 A 
ATOM     69  N   UNL A   1      45.286  26.938  29.135  1.00  0.00    -0.354 N 
ATOM     70  C   UNL A   1      40.605  30.003  29.694  1.00  0.00     0.074 A 
ATOM     71  C   UNL A   1      40.197  29.890  28.318  1.00  0.00     0.031 C 
ATOM     72  C   UNL A   1      45.425  28.575  30.631  1.00  0.00     0.029 A 
ATOM     73  C   UNL A   1      46.134  27.980  29.525  1.00  0.00     0.049 A 
ATOM     74  H   UNL A   1      45.552  26.044  28.821  1.00  0.00     0.167 HD
ATOM     75  C   UNL A   1      40.549  31.177  30.398  1.00  0.00     0.034 A 
ATOM     76  C   UNL A   1      47.014  28.595  28.685  1.00  0.00     0.034 A 
ATOM     77  C   UNL A   1      41.882  31.632  30.748  1.00  0.00     0.049 A 
ATOM     78  C   UNL A   1      46.858  30.108  28.657  1.00  0.00     0.074 A 
ATOM     79  C   UNL A   1      42.756  31.427  31.791  1.00  0.00     0.029 A 
ATOM     80  N   UNL A   1      42.551  32.401  29.808  1.00  0.00    -0.354 N 
ATOM     81  N   UNL A   1      45.990  30.794  29.357  1.00  0.00    -0.248 NA
ATOM     82  C   UNL A   1      47.656  30.968  27.786  1.00  0.00     0.031 C 
ATOM     83  C   UNL A   1      44.023  31.927  31.374  1.00  0.00     0.029 A 
ATOM     84  C   UNL A   1      43.905  32.446  30.090  1.00  0.00     0.049 A 
ATOM     85  H   UNL A   1      42.123  32.851  29.044  1.00  0.00     0.167 HD
ATOM     86  C   UNL A   1      45.939  32.082  28.875  1.00  0.00     0.074 A 
ATOM     87  C   UNL A   1      47.102  32.169  28.010  1.00  0.00     0.031 C 
ATOM     88  C   UNL A   1      44.864  32.916  29.083  1.00  0.00     0.034 A 
BRANCH  75  89
ATOM     89  C   UNL A   1      39.327  32.069  30.657  1.00  0.00     0.023 A 
ATOM     90  C   UNL A   1      39.299  33.325  29.990  1.00  0.00     0.012 A 
ATOM     91  C   UNL A   1      38.293  31.858  31.599  1.00  0.00     0.148 A 
ATOM     92  C   UNL A   1      38.329  34.308  30.236  1.00  0.00     0.002 A 
ATOM     93  C   UNL A   1      37.310  32.848  31.830  1.00  0.00     0.091 A 
ATOM     94  F   UNL A   1      38.272  30.726  32.318  1.00  0.00    -0.205 F 
ATOM     95  C   UNL A   1      37.328  34.069  31.156  1.00  0.00     0.022 A 
BRANCH  93  96
ATOM     96  S   UNL A   1      36.002  32.597  33.030  1.00  0.00     0.127 S 
ATOM     97  O   UNL A   1      35.360  33.909  33.083  1.00  0.00    -0.237 OA
ATOM     98  O   UNL A   1      35.148  31.560  32.450  1.00  0.00    -0.237 OA
ATOM     99  O   UNL A   1      36.704  32.178  34.235  1.00  0.00    -0.744 OA
ENDBRANCH  93  96
ENDBRANCH  75  89
BRANCH  76 100
ATOM    100  C   UNL A   1      47.528  27.721  27.576  1.00  0.00     0.023 A 
ATOM    101  C   UNL A   1      46.907  27.892  26.311  1.00  0.00     0.012 A 
ATOM    102  C   UNL A   1      48.745  27.015  27.622  1.00  0.00     0.148 A 
ATOM    103  C   UNL A   1      47.524  27.482  25.128  1.00  0.00     0.002 A 
ATOM    104  C   UNL A   1      49.367  26.615  26.430  1.00  0.00     0.091 A 
ATOM    105  F   UNL A   1      49.339  26.821  28.805  1.00  0.00    -0.205 F 
ATOM    106  C   UNL A   1      48.761  26.855  25.187  1.00  0.00     0.022 A 
BRANCH 104 107
ATOM    107  S   UNL A   1      51.079  26.026  26.422  1.00  0.00     0.127 S 
ATOM    108  O   UNL A   1      51.779  27.064  27.177  1.00  0.00    -0.237 OA
ATOM    109  O   UNL A   1      51.027  24.742  27.111  1.00  0.00    -0.237 OA
ATOM    110  O   UNL A   1      51.374  25.992  24.995  1.00  0.00    -0.744 OA
ENDBRANCH 104 107
ENDBRANCH  76 100
BRANCH  88 111
ATOM    111  C   UNL A   1      44.598  34.152  28.211  1.00  0.00     0.023 A 
ATOM    112  C   UNL A   1      43.451  34.239  27.387  1.00  0.00     0.012 A 
ATOM    113  C   UNL A   1      45.371  35.334  28.301  1.00  0.00     0.148 A 
ATOM    114  C   UNL A   1      43.141  35.366  26.617  1.00  0.00     0.002 A 
ATOM    115  C   UNL A   1      45.000  36.498  27.611  1.00  0.00     0.091 A 
ATOM    116  F   UNL A   1      46.465  35.352  29.077  1.00  0.00    -0.205 F 
ATOM    117  C   UNL A   1      43.913  36.504  26.735  1.00  0.00     0.022 A 
BRANCH 115 118
ATOM    118  S   UNL A   1      45.799  38.067  27.984  1.00  0.00     0.127 S 
ATOM    119  O   UNL A   1      45.258  38.389  29.301  1.00  0.00    -0.237 OA
ATOM    120  O   UNL A   1      47.223  37.725  27.980  1.00  0.00    -0.237 OA
ATOM    121  O   UNL A   1      45.384  38.920  26.876  1.00  0.00    -0.744 OA
ENDBRANCH 115 118
ENDBRANCH  88 111
ENDBRANCH  62  63
ENDBRANCH  55  57
ENDBRANCH  54  55
ENDBRANCH  53  54
ENDBRANCH  52  53
ENDBRANCH  51  52
ENDBRANCH  50  51
ENDBRANCH  49  50
ENDBRANCH  48  49
ENDBRANCH   1  48
TORSDOF 29
ENDMDL
