MODEL 1
REMARK VINA RESULT:      -9.4      0.000      0.000
REMARK SMILES Cc1nc2scc(C)n2c1CNc1ccc(C(=O)OCCOCCOCCOC(=O)c2ccc(-c3c4nc(c(-c5cccc(S(=O)(=O)[O-])c5F)c5ccc([nH]5)c(-c5cccc(S(=O)(=O)[O-])c5F)c5nc(c(-c6cccc(S(=O)(=O)[O-])c6F)c6ccc3[nH]6)C=C5)C=C4)cc2)cc1
REMARK SMILES IDX 23 1 22 2 21 3 20 4 19 5 17 6 18 7 16 8 13 9 14 10 95 11
REMARK SMILES IDX 15 12 94 13 12 14 11 16 10 17 1 18 2 19 3 20 4 21 9 22 5 23
REMARK SMILES IDX 7 24 6 25 8 26 24 27 25 28 26 29 27 30 28 31 29 32 30 33
REMARK SMILES IDX 31 34 32 35 93 36 33 37 92 38 34 39 35 40 36 41 86 42 37 43
REMARK SMILES IDX 91 44 85 45 87 46 38 47 90 48 84 49 83 50 39 52 71 53 51 54
REMARK SMILES IDX 70 55 52 56 55 57 69 58 88 59 53 60 54 61 68 63 89 64 56 65
REMARK SMILES IDX 40 66 41 67 49 68 42 69 44 70 50 71 43 72 45 73 46 74 47 75
REMARK SMILES IDX 48 76 72 77 73 78 81 79 74 80 76 81 82 82 75 83 77 84 78 85
REMARK SMILES IDX 79 86 80 87 57 88 58 89 66 90 59 91 61 92 67 93 60 94 62 95
REMARK SMILES IDX 63 96 64 97 65 98
REMARK H PARENT 12 15 87 51 55 62
REMARK Flexibility Score: inf
ROOT
ATOM      1  C   UNL A   1      46.426  34.924  25.836  1.00  0.00     0.188 C 
ENDROOT
BRANCH   1   2
ATOM      2  O   UNL A   1      45.442  34.245  25.065  1.00  0.00    -0.376 OA
BRANCH   2   3
ATOM      3  C   UNL A   1      44.136  34.069  25.597  1.00  0.00     0.202 C 
BRANCH   3   4
ATOM      4  C   UNL A   1      43.147  35.254  25.614  1.00  0.00     0.261 C 
BRANCH   4   5
ATOM      5  O   UNL A   1      43.484  36.321  26.517  1.00  0.00    -0.460 OA
BRANCH   5   6
ATOM      6  C   UNL A   1      42.451  37.032  27.016  1.00  0.00     0.338 C 
ATOM      7  O   UNL A   1      41.534  36.614  27.714  1.00  0.00    -0.246 OA
BRANCH   6   8
ATOM      8  C   UNL A   1      42.650  38.474  26.758  1.00  0.00     0.060 A 
ATOM      9  C   UNL A   1      42.896  41.186  26.059  1.00  0.00     0.034 A 
ATOM     10  C   UNL A   1      41.635  40.616  26.256  1.00  0.00     0.026 A 
ATOM     11  C   UNL A   1      44.029  40.412  26.354  1.00  0.00     0.026 A 
ATOM     12  C   UNL A   1      41.510  39.262  26.564  1.00  0.00     0.018 A 
ATOM     13  C   UNL A   1      43.914  39.064  26.715  1.00  0.00     0.018 A 
BRANCH   9  14
ATOM     14  N   UNL A   1      42.979  42.407  25.408  1.00  0.00    -0.379 N 
ATOM     15  H   UNL A   1      42.996  43.242  25.930  1.00  0.00     0.160 HD
BRANCH  14  16
ATOM     16  C   UNL A   1      43.044  42.459  23.960  1.00  0.00     0.169 C 
BRANCH  16  17
ATOM     17  C   UNL A   1      43.890  43.554  23.416  1.00  0.00     0.066 A 
ATOM     18  C   UNL A   1      45.123  44.493  25.514  1.00  0.00     0.069 C 
ATOM     19  C   UNL A   1      44.783  44.406  24.073  1.00  0.00     0.062 A 
ATOM     20  N   UNL A   1      45.429  45.245  23.189  1.00  0.00    -0.224 NA
ATOM     21  C   UNL A   1      44.938  44.903  22.034  1.00  0.00     0.194 A 
ATOM     22  N   UNL A   1      44.017  43.891  22.082  1.00  0.00    -0.290 N 
ATOM     23  S   UNL A   1      45.247  45.438  20.414  1.00  0.00    -0.105 S 
ATOM     24  C   UNL A   1      43.532  43.512  20.831  1.00  0.00     0.032 A 
ATOM     25  C   UNL A   1      44.093  44.241  19.844  1.00  0.00     0.090 A 
ATOM     26  C   UNL A   1      42.537  42.441  20.580  1.00  0.00     0.066 C 
ENDBRANCH  16  17
ENDBRANCH  14  16
ENDBRANCH   9  14
ENDBRANCH   6   8
ENDBRANCH   5   6
ENDBRANCH   4   5
ENDBRANCH   3   4
ENDBRANCH   2   3
ENDBRANCH   1   2
BRANCH   1  27
ATOM     27  C   UNL A   1      47.907  34.954  25.378  1.00  0.00     0.188 C 
BRANCH  27  28
ATOM     28  O   UNL A   1      48.774  35.693  26.223  1.00  0.00    -0.376 OA
BRANCH  28  29
ATOM     29  C   UNL A   1      48.231  36.380  27.343  1.00  0.00     0.202 C 
BRANCH  29  30
ATOM     30  C   UNL A   1      48.712  36.033  28.753  1.00  0.00     0.261 C 
BRANCH  30  31
ATOM     31  O   UNL A   1      47.791  36.359  29.774  1.00  0.00    -0.460 OA
BRANCH  31  32
ATOM     32  C   UNL A   1      47.312  35.321  30.474  1.00  0.00     0.338 C 
ATOM     33  O   UNL A   1      47.966  34.433  31.018  1.00  0.00    -0.246 OA
BRANCH  32  34
ATOM     34  C   UNL A   1      45.850  35.407  30.477  1.00  0.00     0.060 A 
ATOM     35  C   UNL A   1      45.220  35.256  31.714  1.00  0.00     0.016 A 
ATOM     36  C   UNL A   1      45.178  35.246  29.258  1.00  0.00     0.016 A 
ATOM     37  C   UNL A   1      44.016  34.598  31.730  1.00  0.00     0.010 A 
ATOM     38  C   UNL A   1      43.999  34.557  29.275  1.00  0.00     0.010 A 
ATOM     39  C   UNL A   1      43.516  34.136  30.512  1.00  0.00    -0.014 A 
BRANCH  39  40
ATOM     40  C   UNL A   1      42.576  33.042  30.548  1.00  0.00     0.031 A 
ATOM     41  C   UNL A   1      41.210  33.433  30.909  1.00  0.00     0.074 A 
ATOM     42  C   UNL A   1      42.956  31.810  30.155  1.00  0.00     0.049 A 
ATOM     43  N   UNL A   1      40.559  33.126  31.979  1.00  0.00    -0.248 NA
ATOM     44  C   UNL A   1      40.545  34.415  30.042  1.00  0.00     0.031 C 
ATOM     45  C   UNL A   1      44.212  31.446  29.483  1.00  0.00     0.029 A 
ATOM     46  N   UNL A   1      42.241  30.653  30.133  1.00  0.00    -0.354 N 
ATOM     47  C   UNL A   1      39.304  33.687  31.790  1.00  0.00     0.074 A 
ATOM     48  C   UNL A   1      39.427  34.648  30.726  1.00  0.00     0.031 C 
ATOM     49  C   UNL A   1      44.067  30.233  28.909  1.00  0.00     0.029 A 
ATOM     50  C   UNL A   1      42.772  29.694  29.280  1.00  0.00     0.049 A 
ATOM     51  H   UNL A   1      41.428  30.510  30.669  1.00  0.00     0.167 HD
ATOM     52  C   UNL A   1      38.187  33.099  32.286  1.00  0.00     0.034 A 
ATOM     53  C   UNL A   1      42.149  28.576  28.843  1.00  0.00     0.034 A 
ATOM     54  C   UNL A   1      38.489  32.086  33.258  1.00  0.00     0.049 A 
ATOM     55  C   UNL A   1      41.018  28.299  29.756  1.00  0.00     0.074 A 
ATOM     56  C   UNL A   1      38.994  32.057  34.538  1.00  0.00     0.029 A 
ATOM     57  N   UNL A   1      38.569  30.814  32.753  1.00  0.00    -0.354 N 
ATOM     58  N   UNL A   1      41.165  27.937  31.000  1.00  0.00    -0.248 NA
ATOM     59  C   UNL A   1      39.677  28.739  29.391  1.00  0.00     0.031 C 
ATOM     60  C   UNL A   1      39.600  30.777  34.688  1.00  0.00     0.029 A 
ATOM     61  C   UNL A   1      39.455  30.074  33.491  1.00  0.00     0.049 A 
ATOM     62  H   UNL A   1      38.065  30.481  31.976  1.00  0.00     0.167 HD
ATOM     63  C   UNL A   1      40.083  28.505  31.653  1.00  0.00     0.074 A 
ATOM     64  C   UNL A   1      39.122  28.812  30.604  1.00  0.00     0.031 C 
ATOM     65  C   UNL A   1      40.202  28.961  32.934  1.00  0.00     0.034 A 
BRANCH  52  66
ATOM     66  C   UNL A   1      36.850  33.144  31.598  1.00  0.00     0.023 A 
ATOM     67  C   UNL A   1      36.686  32.357  30.442  1.00  0.00     0.012 A 
ATOM     68  C   UNL A   1      35.845  34.099  31.877  1.00  0.00     0.148 A 
ATOM     69  C   UNL A   1      35.577  32.514  29.607  1.00  0.00     0.002 A 
ATOM     70  C   UNL A   1      34.697  34.180  31.102  1.00  0.00     0.091 A 
ATOM     71  F   UNL A   1      36.049  35.041  32.806  1.00  0.00    -0.205 F 
ATOM     72  C   UNL A   1      34.568  33.408  29.948  1.00  0.00     0.022 A 
BRANCH  70  73
ATOM     73  S   UNL A   1      33.350  35.266  31.580  1.00  0.00     0.127 S 
ATOM     74  O   UNL A   1      34.037  36.543  31.735  1.00  0.00    -0.237 OA
ATOM     75  O   UNL A   1      32.456  35.178  30.425  1.00  0.00    -0.237 OA
ATOM     76  O   UNL A   1      32.806  34.666  32.794  1.00  0.00    -0.744 OA
ENDBRANCH  70  73
ENDBRANCH  52  66
BRANCH  53  77
ATOM     77  C   UNL A   1      42.347  27.835  27.581  1.00  0.00     0.023 A 
ATOM     78  C   UNL A   1      42.027  28.446  26.355  1.00  0.00     0.012 A 
ATOM     79  C   UNL A   1      43.069  26.620  27.559  1.00  0.00     0.148 A 
ATOM     80  C   UNL A   1      42.437  27.879  25.143  1.00  0.00     0.002 A 
ATOM     81  C   UNL A   1      43.466  26.055  26.352  1.00  0.00     0.091 A 
ATOM     82  F   UNL A   1      43.436  26.068  28.723  1.00  0.00    -0.205 F 
ATOM     83  C   UNL A   1      43.162  26.689  25.141  1.00  0.00     0.022 A 
BRANCH  81  84
ATOM     84  S   UNL A   1      44.419  24.533  26.267  1.00  0.00     0.127 S 
ATOM     85  O   UNL A   1      44.553  24.341  24.823  1.00  0.00    -0.237 OA
ATOM     86  O   UNL A   1      45.651  24.910  26.952  1.00  0.00    -0.237 OA
ATOM     87  O   UNL A   1      43.611  23.519  26.934  1.00  0.00    -0.744 OA
ENDBRANCH  81  84
ENDBRANCH  53  77
BRANCH  65  88
ATOM     88  C   UNL A   1      41.373  28.463  33.737  1.00  0.00     0.023 A 
ATOM     89  C   UNL A   1      42.548  29.228  33.888  1.00  0.00     0.012 A 
ATOM     90  C   UNL A   1      41.240  27.269  34.465  1.00  0.00     0.148 A 
ATOM     91  C   UNL A   1      43.579  28.797  34.725  1.00  0.00     0.002 A 
ATOM     92  C   UNL A   1      42.248  26.867  35.333  1.00  0.00     0.091 A 
ATOM     93  F   UNL A   1      40.111  26.557  34.314  1.00  0.00    -0.205 F 
ATOM     94  C   UNL A   1      43.424  27.623  35.457  1.00  0.00     0.022 A 
BRANCH  92  95
ATOM     95  S   UNL A   1      42.056  25.438  36.400  1.00  0.00     0.127 S 
ATOM     96  O   UNL A   1      40.743  25.672  36.996  1.00  0.00    -0.237 OA
ATOM     97  O   UNL A   1      42.107  24.325  35.451  1.00  0.00    -0.237 OA
ATOM     98  O   UNL A   1      43.183  25.477  37.325  1.00  0.00    -0.744 OA
ENDBRANCH  92  95
ENDBRANCH  65  88
ENDBRANCH  39  40
ENDBRANCH  32  34
ENDBRANCH  31  32
ENDBRANCH  30  31
ENDBRANCH  29  30
ENDBRANCH  28  29
ENDBRANCH  27  28
ENDBRANCH   1  27
TORSDOF 23
ENDMDL
MODEL 2
REMARK VINA RESULT:      -9.0      5.221     13.414
REMARK SMILES Cc1nc2scc(C)n2c1CNc1ccc(C(=O)OCCOCCOCCOC(=O)c2ccc(-c3c4nc(c(-c5cccc(S(=O)(=O)[O-])c5F)c5ccc([nH]5)c(-c5cccc(S(=O)(=O)[O-])c5F)c5nc(c(-c6cccc(S(=O)(=O)[O-])c6F)c6ccc3[nH]6)C=C5)C=C4)cc2)cc1
REMARK SMILES IDX 23 1 22 2 21 3 20 4 19 5 17 6 18 7 16 8 13 9 14 10 95 11
REMARK SMILES IDX 15 12 94 13 12 14 11 16 10 17 1 18 2 19 3 20 4 21 9 22 5 23
REMARK SMILES IDX 7 24 6 25 8 26 24 27 25 28 26 29 27 30 28 31 29 32 30 33
REMARK SMILES IDX 31 34 32 35 93 36 33 37 92 38 34 39 35 40 36 41 86 42 37 43
REMARK SMILES IDX 91 44 85 45 87 46 38 47 90 48 84 49 83 50 39 52 71 53 51 54
REMARK SMILES IDX 70 55 52 56 55 57 69 58 88 59 53 60 54 61 68 63 89 64 56 65
REMARK SMILES IDX 40 66 41 67 49 68 42 69 44 70 50 71 43 72 45 73 46 74 47 75
REMARK SMILES IDX 48 76 72 77 73 78 81 79 74 80 76 81 82 82 75 83 77 84 78 85
REMARK SMILES IDX 79 86 80 87 57 88 58 89 66 90 59 91 61 92 67 93 60 94 62 95
REMARK SMILES IDX 63 96 64 97 65 98
REMARK H PARENT 12 15 87 51 55 62
REMARK Flexibility Score: inf
ROOT
ATOM      1  C   UNL A   1      37.507  33.352  33.662  1.00  0.00     0.188 C 
ENDROOT
BRANCH   1   2
ATOM      2  O   UNL A   1      36.947  32.431  34.589  1.00  0.00    -0.376 OA
BRANCH   2   3
ATOM      3  C   UNL A   1      37.804  31.560  35.315  1.00  0.00     0.202 C 
BRANCH   3   4
ATOM      4  C   UNL A   1      37.704  31.489  36.853  1.00  0.00     0.261 C 
BRANCH   4   5
ATOM      5  O   UNL A   1      38.832  32.026  37.567  1.00  0.00    -0.460 OA
BRANCH   5   6
ATOM      6  C   UNL A   1      38.616  33.162  38.263  1.00  0.00     0.338 C 
ATOM      7  O   UNL A   1      38.366  34.272  37.808  1.00  0.00    -0.246 OA
BRANCH   6   8
ATOM      8  C   UNL A   1      38.541  32.868  39.710  1.00  0.00     0.060 A 
ATOM      9  C   UNL A   1      38.622  32.205  42.441  1.00  0.00     0.034 A 
ATOM     10  C   UNL A   1      39.597  33.039  41.884  1.00  0.00     0.026 A 
ATOM     11  C   UNL A   1      37.535  31.827  41.639  1.00  0.00     0.026 A 
ATOM     12  C   UNL A   1      39.580  33.336  40.522  1.00  0.00     0.018 A 
ATOM     13  C   UNL A   1      37.481  32.163  40.281  1.00  0.00     0.018 A 
BRANCH   9  14
ATOM     14  N   UNL A   1      38.864  31.639  43.683  1.00  0.00    -0.379 N 
ATOM     15  H   UNL A   1      39.266  30.742  43.745  1.00  0.00     0.160 HD
BRANCH  14  16
ATOM     16  C   UNL A   1      38.527  32.364  44.893  1.00  0.00     0.169 C 
BRANCH  16  17
ATOM     17  C   UNL A   1      37.426  33.352  44.738  1.00  0.00     0.066 A 
ATOM     18  C   UNL A   1      38.663  35.633  44.474  1.00  0.00     0.069 C 
ATOM     19  C   UNL A   1      37.485  34.735  44.544  1.00  0.00     0.062 A 
ATOM     20  N   UNL A   1      36.228  35.278  44.374  1.00  0.00    -0.224 NA
ATOM     21  C   UNL A   1      35.439  34.248  44.461  1.00  0.00     0.194 A 
ATOM     22  N   UNL A   1      36.078  33.055  44.668  1.00  0.00    -0.290 N 
ATOM     23  S   UNL A   1      33.722  34.061  44.317  1.00  0.00    -0.105 S 
ATOM     24  C   UNL A   1      35.219  31.958  44.719  1.00  0.00     0.032 A 
ATOM     25  C   UNL A   1      33.934  32.331  44.546  1.00  0.00     0.090 A 
ATOM     26  C   UNL A   1      35.632  30.548  44.922  1.00  0.00     0.066 C 
ENDBRANCH  16  17
ENDBRANCH  14  16
ENDBRANCH   9  14
ENDBRANCH   6   8
ENDBRANCH   5   6
ENDBRANCH   4   5
ENDBRANCH   3   4
ENDBRANCH   2   3
ENDBRANCH   1   2
BRANCH   1  27
ATOM     27  C   UNL A   1      36.728  34.625  33.245  1.00  0.00     0.188 C 
BRANCH  27  28
ATOM     28  O   UNL A   1      35.802  35.097  34.210  1.00  0.00    -0.376 OA
BRANCH  28  29
ATOM     29  C   UNL A   1      34.462  35.363  33.815  1.00  0.00     0.202 C 
BRANCH  29  30
ATOM     30  C   UNL A   1      34.156  35.718  32.358  1.00  0.00     0.261 C 
BRANCH  30  31
ATOM     31  O   UNL A   1      33.454  34.714  31.655  1.00  0.00    -0.460 OA
BRANCH  31  32
ATOM     32  C   UNL A   1      33.598  34.734  30.321  1.00  0.00     0.338 C 
ATOM     33  O   UNL A   1      33.186  35.597  29.548  1.00  0.00    -0.246 OA
BRANCH  32  34
ATOM     34  C   UNL A   1      34.330  33.531  29.922  1.00  0.00     0.060 A 
ATOM     35  C   UNL A   1      34.707  32.661  30.947  1.00  0.00     0.016 A 
ATOM     36  C   UNL A   1      34.928  33.514  28.654  1.00  0.00     0.016 A 
ATOM     37  C   UNL A   1      35.914  32.024  30.819  1.00  0.00     0.010 A 
ATOM     38  C   UNL A   1      36.149  32.912  28.541  1.00  0.00     0.010 A 
ATOM     39  C   UNL A   1      36.668  32.291  29.675  1.00  0.00    -0.014 A 
BRANCH  39  40
ATOM     40  C   UNL A   1      38.092  32.071  29.748  1.00  0.00     0.031 A 
ATOM     41  C   UNL A   1      38.501  30.685  29.496  1.00  0.00     0.074 A 
ATOM     42  C   UNL A   1      38.931  33.112  29.915  1.00  0.00     0.049 A 
ATOM     43  N   UNL A   1      39.022  29.853  30.332  1.00  0.00    -0.248 NA
ATOM     44  C   UNL A   1      38.140  30.108  28.194  1.00  0.00     0.031 C 
ATOM     45  C   UNL A   1      38.590  34.541  29.846  1.00  0.00     0.029 A 
ATOM     46  N   UNL A   1      40.286  33.118  30.030  1.00  0.00    -0.354 N 
ATOM     47  C   UNL A   1      39.277  28.719  29.573  1.00  0.00     0.074 A 
ATOM     48  C   UNL A   1      38.511  28.841  28.362  1.00  0.00     0.031 C 
ATOM     49  C   UNL A   1      39.723  35.255  29.674  1.00  0.00     0.029 A 
ATOM     50  C   UNL A   1      40.857  34.353  29.751  1.00  0.00     0.049 A 
ATOM     51  H   UNL A   1      40.811  32.325  30.285  1.00  0.00     0.167 HD
ATOM     52  C   UNL A   1      40.342  27.921  29.836  1.00  0.00     0.034 A 
ATOM     53  C   UNL A   1      42.166  34.598  29.514  1.00  0.00     0.034 A 
ATOM     54  C   UNL A   1      40.921  28.189  31.122  1.00  0.00     0.049 A 
ATOM     55  C   UNL A   1      42.945  33.456  30.043  1.00  0.00     0.074 A 
ATOM     56  C   UNL A   1      40.549  28.013  32.435  1.00  0.00     0.029 A 
ATOM     57  N   UNL A   1      41.971  29.071  31.104  1.00  0.00    -0.354 N 
ATOM     58  N   UNL A   1      43.050  33.180  31.313  1.00  0.00    -0.248 NA
ATOM     59  C   UNL A   1      43.363  32.392  29.139  1.00  0.00     0.031 C 
ATOM     60  C   UNL A   1      41.253  29.006  33.176  1.00  0.00     0.029 A 
ATOM     61  C   UNL A   1      42.020  29.761  32.287  1.00  0.00     0.049 A 
ATOM     62  H   UNL A   1      42.596  29.191  30.354  1.00  0.00     0.167 HD
ATOM     63  C   UNL A   1      43.128  31.796  31.358  1.00  0.00     0.074 A 
ATOM     64  C   UNL A   1      43.505  31.391  30.012  1.00  0.00     0.031 C 
ATOM     65  C   UNL A   1      42.571  31.099  32.390  1.00  0.00     0.034 A 
BRANCH  52  66
ATOM     66  C   UNL A   1      41.113  27.190  28.771  1.00  0.00     0.023 A 
ATOM     67  C   UNL A   1      41.968  27.949  27.949  1.00  0.00     0.012 A 
ATOM     68  C   UNL A   1      40.853  25.857  28.376  1.00  0.00     0.148 A 
ATOM     69  C   UNL A   1      42.535  27.407  26.792  1.00  0.00     0.002 A 
ATOM     70  C   UNL A   1      41.498  25.293  27.284  1.00  0.00     0.091 A 
ATOM     71  F   UNL A   1      39.870  25.160  28.959  1.00  0.00    -0.205 F 
ATOM     72  C   UNL A   1      42.321  26.072  26.471  1.00  0.00     0.022 A 
BRANCH  70  73
ATOM     73  S   UNL A   1      41.301  23.549  26.910  1.00  0.00     0.127 S 
ATOM     74  O   UNL A   1      39.895  23.484  26.525  1.00  0.00    -0.237 OA
ATOM     75  O   UNL A   1      42.254  23.356  25.817  1.00  0.00    -0.237 OA
ATOM     76  O   UNL A   1      41.671  22.864  28.144  1.00  0.00    -0.744 OA
ENDBRANCH  70  73
ENDBRANCH  52  66
BRANCH  53  77
ATOM     77  C   UNL A   1      42.780  35.660  28.693  1.00  0.00     0.023 A 
ATOM     78  C   UNL A   1      42.576  35.672  27.300  1.00  0.00     0.012 A 
ATOM     79  C   UNL A   1      43.366  36.795  29.296  1.00  0.00     0.148 A 
ATOM     80  C   UNL A   1      42.922  36.792  26.535  1.00  0.00     0.002 A 
ATOM     81  C   UNL A   1      43.717  37.902  28.530  1.00  0.00     0.091 A 
ATOM     82  F   UNL A   1      43.500  36.819  30.629  1.00  0.00    -0.205 F 
ATOM     83  C   UNL A   1      43.485  37.908  27.149  1.00  0.00     0.022 A 
BRANCH  81  84
ATOM     84  S   UNL A   1      44.431  39.386  29.251  1.00  0.00     0.127 S 
ATOM     85  O   UNL A   1      44.678  40.209  28.066  1.00  0.00    -0.237 OA
ATOM     86  O   UNL A   1      43.348  39.856  30.108  1.00  0.00    -0.237 OA
ATOM     87  O   UNL A   1      45.640  38.953  29.941  1.00  0.00    -0.744 OA
ENDBRANCH  81  84
ENDBRANCH  53  77
BRANCH  65  88
ATOM     88  C   UNL A   1      42.256  31.865  33.648  1.00  0.00     0.023 A 
ATOM     89  C   UNL A   1      41.163  32.754  33.721  1.00  0.00     0.012 A 
ATOM     90  C   UNL A   1      42.985  31.584  34.815  1.00  0.00     0.148 A 
ATOM     91  C   UNL A   1      40.823  33.371  34.926  1.00  0.00     0.002 A 
ATOM     92  C   UNL A   1      42.614  32.164  36.023  1.00  0.00     0.091 A 
ATOM     93  F   UNL A   1      44.017  30.730  34.729  1.00  0.00    -0.205 F 
ATOM     94  C   UNL A   1      41.541  33.066  36.080  1.00  0.00     0.022 A 
BRANCH  92  95
ATOM     95  S   UNL A   1      43.411  31.714  37.566  1.00  0.00     0.127 S 
ATOM     96  O   UNL A   1      44.769  32.219  37.371  1.00  0.00    -0.237 OA
ATOM     97  O   UNL A   1      42.622  32.451  38.555  1.00  0.00    -0.237 OA
ATOM     98  O   UNL A   1      43.287  30.265  37.672  1.00  0.00    -0.744 OA
ENDBRANCH  92  95
ENDBRANCH  65  88
ENDBRANCH  39  40
ENDBRANCH  32  34
ENDBRANCH  31  32
ENDBRANCH  30  31
ENDBRANCH  29  30
ENDBRANCH  28  29
ENDBRANCH  27  28
ENDBRANCH   1  27
TORSDOF 23
ENDMDL
MODEL 3
REMARK VINA RESULT:      -9.0      5.117     11.616
REMARK SMILES Cc1nc2scc(C)n2c1CNc1ccc(C(=O)OCCOCCOCCOC(=O)c2ccc(-c3c4nc(c(-c5cccc(S(=O)(=O)[O-])c5F)c5ccc([nH]5)c(-c5cccc(S(=O)(=O)[O-])c5F)c5nc(c(-c6cccc(S(=O)(=O)[O-])c6F)c6ccc3[nH]6)C=C5)C=C4)cc2)cc1
REMARK SMILES IDX 23 1 22 2 21 3 20 4 19 5 17 6 18 7 16 8 13 9 14 10 95 11
REMARK SMILES IDX 15 12 94 13 12 14 11 16 10 17 1 18 2 19 3 20 4 21 9 22 5 23
REMARK SMILES IDX 7 24 6 25 8 26 24 27 25 28 26 29 27 30 28 31 29 32 30 33
REMARK SMILES IDX 31 34 32 35 93 36 33 37 92 38 34 39 35 40 36 41 86 42 37 43
REMARK SMILES IDX 91 44 85 45 87 46 38 47 90 48 84 49 83 50 39 52 71 53 51 54
REMARK SMILES IDX 70 55 52 56 55 57 69 58 88 59 53 60 54 61 68 63 89 64 56 65
REMARK SMILES IDX 40 66 41 67 49 68 42 69 44 70 50 71 43 72 45 73 46 74 47 75
REMARK SMILES IDX 48 76 72 77 73 78 81 79 74 80 76 81 82 82 75 83 77 84 78 85
REMARK SMILES IDX 79 86 80 87 57 88 58 89 66 90 59 91 61 92 67 93 60 94 62 95
REMARK SMILES IDX 63 96 64 97 65 98
REMARK H PARENT 12 15 87 51 55 62
REMARK Flexibility Score: inf
ROOT
ATOM      1  C   UNL A   1      37.502  32.423  33.939  1.00  0.00     0.188 C 
ENDROOT
BRANCH   1   2
ATOM      2  O   UNL A   1      36.988  31.847  35.134  1.00  0.00    -0.376 OA
BRANCH   2   3
ATOM      3  C   UNL A   1      37.781  31.859  36.314  1.00  0.00     0.202 C 
BRANCH   3   4
ATOM      4  C   UNL A   1      37.741  33.082  37.253  1.00  0.00     0.261 C 
BRANCH   4   5
ATOM      5  O   UNL A   1      37.252  32.821  38.580  1.00  0.00    -0.460 OA
BRANCH   5   6
ATOM      6  C   UNL A   1      38.160  32.879  39.577  1.00  0.00     0.338 C 
ATOM      7  O   UNL A   1      38.691  31.934  40.149  1.00  0.00    -0.246 OA
BRANCH   6   8
ATOM      8  C   UNL A   1      38.592  34.276  39.795  1.00  0.00     0.060 A 
ATOM      9  C   UNL A   1      39.188  36.975  40.306  1.00  0.00     0.034 A 
ATOM     10  C   UNL A   1      38.832  36.117  41.351  1.00  0.00     0.026 A 
ATOM     11  C   UNL A   1      39.374  36.425  39.029  1.00  0.00     0.026 A 
ATOM     12  C   UNL A   1      38.498  34.788  41.094  1.00  0.00     0.018 A 
ATOM     13  C   UNL A   1      39.091  35.079  38.769  1.00  0.00     0.018 A 
BRANCH   9  14
ATOM     14  N   UNL A   1      39.155  38.343  40.529  1.00  0.00    -0.379 N 
ATOM     15  H   UNL A   1      38.507  38.904  40.045  1.00  0.00     0.160 HD
BRANCH  14  16
ATOM     16  C   UNL A   1      40.072  38.950  41.476  1.00  0.00     0.169 C 
BRANCH  16  17
ATOM     17  C   UNL A   1      41.412  39.274  40.920  1.00  0.00     0.066 A 
ATOM     18  C   UNL A   1      42.760  37.058  41.203  1.00  0.00     0.069 C 
ATOM     19  C   UNL A   1      42.547  38.467  40.790  1.00  0.00     0.062 A 
ATOM     20  N   UNL A   1      43.573  39.131  40.151  1.00  0.00    -0.224 NA
ATOM     21  C   UNL A   1      43.066  40.303  39.903  1.00  0.00     0.194 A 
ATOM     22  N   UNL A   1      41.773  40.466  40.322  1.00  0.00    -0.290 N 
ATOM     23  S   UNL A   1      43.681  41.708  39.095  1.00  0.00    -0.105 S 
ATOM     24  C   UNL A   1      41.234  41.715  40.012  1.00  0.00     0.032 A 
ATOM     25  C   UNL A   1      42.126  42.486  39.357  1.00  0.00     0.090 A 
ATOM     26  C   UNL A   1      39.858  42.164  40.334  1.00  0.00     0.066 C 
ENDBRANCH  16  17
ENDBRANCH  14  16
ENDBRANCH   9  14
ENDBRANCH   6   8
ENDBRANCH   5   6
ENDBRANCH   4   5
ENDBRANCH   3   4
ENDBRANCH   2   3
ENDBRANCH   1   2
BRANCH   1  27
ATOM     27  C   UNL A   1      36.874  33.711  33.349  1.00  0.00     0.188 C 
BRANCH  27  28
ATOM     28  O   UNL A   1      36.288  34.578  34.308  1.00  0.00    -0.376 OA
BRANCH  28  29
ATOM     29  C   UNL A   1      34.959  35.041  34.103  1.00  0.00     0.202 C 
BRANCH  29  30
ATOM     30  C   UNL A   1      34.539  35.560  32.726  1.00  0.00     0.261 C 
BRANCH  30  31
ATOM     31  O   UNL A   1      33.637  34.715  32.041  1.00  0.00    -0.460 OA
BRANCH  31  32
ATOM     32  C   UNL A   1      33.564  34.901  30.715  1.00  0.00     0.338 C 
ATOM     33  O   UNL A   1      33.009  35.829  30.129  1.00  0.00    -0.246 OA
BRANCH  32  34
ATOM     34  C   UNL A   1      34.257  33.791  30.059  1.00  0.00     0.060 A 
ATOM     35  C   UNL A   1      34.541  32.677  30.851  1.00  0.00     0.016 A 
ATOM     36  C   UNL A   1      34.916  34.049  28.848  1.00  0.00     0.016 A 
ATOM     37  C   UNL A   1      35.722  32.021  30.615  1.00  0.00     0.010 A 
ATOM     38  C   UNL A   1      36.111  33.422  28.636  1.00  0.00     0.010 A 
ATOM     39  C   UNL A   1      36.543  32.515  29.601  1.00  0.00    -0.014 A 
BRANCH  39  40
ATOM     40  C   UNL A   1      37.950  32.200  29.669  1.00  0.00     0.031 A 
ATOM     41  C   UNL A   1      38.268  30.798  29.383  1.00  0.00     0.074 A 
ATOM     42  C   UNL A   1      38.854  33.180  29.862  1.00  0.00     0.049 A 
ATOM     43  N   UNL A   1      38.732  29.913  30.199  1.00  0.00    -0.248 NA
ATOM     44  C   UNL A   1      37.873  30.278  28.067  1.00  0.00     0.031 C 
ATOM     45  C   UNL A   1      38.607  34.629  29.827  1.00  0.00     0.029 A 
ATOM     46  N   UNL A   1      40.206  33.096  29.978  1.00  0.00    -0.354 N 
ATOM     47  C   UNL A   1      38.915  28.784  29.412  1.00  0.00     0.074 A 
ATOM     48  C   UNL A   1      38.161  28.985  28.204  1.00  0.00     0.031 C 
ATOM     49  C   UNL A   1      39.783  35.273  29.674  1.00  0.00     0.029 A 
ATOM     50  C   UNL A   1      40.857  34.297  29.729  1.00  0.00     0.049 A 
ATOM     51  H   UNL A   1      40.678  32.265  30.213  1.00  0.00     0.167 HD
ATOM     52  C   UNL A   1      39.925  27.912  29.656  1.00  0.00     0.034 A 
ATOM     53  C   UNL A   1      42.179  34.462  29.500  1.00  0.00     0.034 A 
ATOM     54  C   UNL A   1      40.518  28.110  30.948  1.00  0.00     0.049 A 
ATOM     55  C   UNL A   1      42.881  33.260  30.000  1.00  0.00     0.074 A 
ATOM     56  C   UNL A   1      40.132  27.927  32.257  1.00  0.00     0.029 A 
ATOM     57  N   UNL A   1      41.623  28.922  30.953  1.00  0.00    -0.354 N 
ATOM     58  N   UNL A   1      42.966  32.946  31.263  1.00  0.00    -0.248 NA
ATOM     59  C   UNL A   1      43.232  32.194  29.071  1.00  0.00     0.031 C 
ATOM     60  C   UNL A   1      40.897  28.853  33.022  1.00  0.00     0.029 A 
ATOM     61  C   UNL A   1      41.714  29.579  32.152  1.00  0.00     0.049 A 
ATOM     62  H   UNL A   1      42.256  29.020  30.206  1.00  0.00     0.167 HD
ATOM     63  C   UNL A   1      42.953  31.560  31.275  1.00  0.00     0.074 A 
ATOM     64  C   UNL A   1      43.307  31.165  29.920  1.00  0.00     0.031 C 
ATOM     65  C   UNL A   1      42.350  30.876  32.289  1.00  0.00     0.034 A 
BRANCH  52  66
ATOM     66  C   UNL A   1      40.649  27.159  28.574  1.00  0.00     0.023 A 
ATOM     67  C   UNL A   1      41.371  27.912  27.627  1.00  0.00     0.012 A 
ATOM     68  C   UNL A   1      40.453  25.787  28.293  1.00  0.00     0.148 A 
ATOM     69  C   UNL A   1      41.870  27.327  26.460  1.00  0.00     0.002 A 
ATOM     70  C   UNL A   1      41.038  25.190  27.185  1.00  0.00     0.091 A 
ATOM     71  F   UNL A   1      39.579  25.070  29.010  1.00  0.00    -0.205 F 
ATOM     72  C   UNL A   1      41.726  25.960  26.249  1.00  0.00     0.022 A 
BRANCH  70  73
ATOM     73  S   UNL A   1      40.934  23.414  26.946  1.00  0.00     0.127 S 
ATOM     74  O   UNL A   1      39.518  23.235  26.647  1.00  0.00    -0.237 OA
ATOM     75  O   UNL A   1      41.839  23.200  25.817  1.00  0.00    -0.237 OA
ATOM     76  O   UNL A   1      41.413  22.845  28.202  1.00  0.00    -0.744 OA
ENDBRANCH  70  73
ENDBRANCH  52  66
BRANCH  53  77
ATOM     77  C   UNL A   1      42.862  35.503  28.705  1.00  0.00     0.023 A 
ATOM     78  C   UNL A   1      42.676  35.552  27.311  1.00  0.00     0.012 A 
ATOM     79  C   UNL A   1      43.506  36.591  29.336  1.00  0.00     0.148 A 
ATOM     80  C   UNL A   1      43.094  36.663  26.571  1.00  0.00     0.002 A 
ATOM     81  C   UNL A   1      43.929  37.689  28.595  1.00  0.00     0.091 A 
ATOM     82  F   UNL A   1      43.626  36.582  30.670  1.00  0.00    -0.205 F 
ATOM     83  C   UNL A   1      43.714  37.734  27.212  1.00  0.00     0.022 A 
BRANCH  81  84
ATOM     84  S   UNL A   1      44.719  39.116  29.351  1.00  0.00     0.127 S 
ATOM     85  O   UNL A   1      45.054  39.930  28.182  1.00  0.00    -0.237 OA
ATOM     86  O   UNL A   1      43.644  39.650  30.182  1.00  0.00    -0.237 OA
ATOM     87  O   UNL A   1      45.876  38.597  30.071  1.00  0.00    -0.744 OA
ENDBRANCH  81  84
ENDBRANCH  53  77
BRANCH  65  88
ATOM     88  C   UNL A   1      42.082  31.629  33.565  1.00  0.00     0.023 A 
ATOM     89  C   UNL A   1      41.086  32.624  33.643  1.00  0.00     0.012 A 
ATOM     90  C   UNL A   1      42.747  31.236  34.739  1.00  0.00     0.148 A 
ATOM     91  C   UNL A   1      40.780  33.234  34.862  1.00  0.00     0.002 A 
ATOM     92  C   UNL A   1      42.406  31.812  35.957  1.00  0.00     0.091 A 
ATOM     93  F   UNL A   1      43.687  30.282  34.646  1.00  0.00    -0.205 F 
ATOM     94  C   UNL A   1      41.431  32.819  36.020  1.00  0.00     0.022 A 
BRANCH  92  95
ATOM     95  S   UNL A   1      43.111  31.232  37.502  1.00  0.00     0.127 S 
ATOM     96  O   UNL A   1      44.390  31.939  37.542  1.00  0.00    -0.237 OA
ATOM     97  O   UNL A   1      42.129  31.688  38.487  1.00  0.00    -0.237 OA
ATOM     98  O   UNL A   1      43.197  29.781  37.381  1.00  0.00    -0.744 OA
ENDBRANCH  92  95
ENDBRANCH  65  88
ENDBRANCH  39  40
ENDBRANCH  32  34
ENDBRANCH  31  32
ENDBRANCH  30  31
ENDBRANCH  29  30
ENDBRANCH  28  29
ENDBRANCH  27  28
ENDBRANCH   1  27
TORSDOF 23
ENDMDL
