MODEL 1
REMARK VINA RESULT:     -12.0      0.000      0.000
REMARK SMILES CCc1cccc(C)c1Nc1ccccc1CC(=O)OCCOCCOCCOC(=O)c1ccc(-c2c3nc(c(-c4cccc(S(=O)(=O)[O-])c4F)c4ccc([nH]4)c(-c4cccc(S(=O)(=O)[O-])c4F)c4nc(c(-c5cccc(S(=O)(=O)[O-])c5F)c5ccc2[nH]5)C=C4)C=C3)cc1
REMARK SMILES IDX 24 1 23 2 22 3 21 4 20 5 18 6 19 7 17 8 16 9 11 10 12 11
REMARK SMILES IDX 13 12 15 13 14 14 10 15 9 17 3 18 4 19 5 20 7 21 6 22 8 23
REMARK SMILES IDX 2 24 1 25 25 26 26 27 27 28 28 29 29 30 30 31 31 32 32 33
REMARK SMILES IDX 33 34 94 35 34 36 93 37 35 38 36 39 37 40 87 41 38 42 92 43
REMARK SMILES IDX 86 44 88 45 39 46 91 47 85 48 84 49 40 51 72 52 52 53 71 54
REMARK SMILES IDX 53 55 56 56 70 57 89 58 54 59 55 60 69 62 90 63 57 64 41 65
REMARK SMILES IDX 42 66 50 67 43 68 45 69 51 70 44 71 46 72 47 73 48 74 49 75
REMARK SMILES IDX 73 76 74 77 82 78 75 79 77 80 83 81 76 82 78 83 79 84 80 85
REMARK SMILES IDX 81 86 58 87 59 88 67 89 60 90 62 91 68 92 61 93 63 94 64 95
REMARK SMILES IDX 65 96 66 97
REMARK H PARENT 10 16 88 50 56 61
REMARK Flexibility Score: inf
ROOT
ATOM      1  C   UNL A   1      43.131  22.520  25.817  1.00  0.00     0.188 C 
ENDROOT
BRANCH   1   2
ATOM      2  O   UNL A   1      43.189  23.508  27.026  1.00  0.00    -0.376 OA
BRANCH   2   3
ATOM      3  C   UNL A   1      42.171  24.566  27.725  1.00  0.00     0.202 C 
BRANCH   3   4
ATOM      4  C   UNL A   1      40.310  24.962  27.874  1.00  0.00     0.261 C 
BRANCH   4   5
ATOM      5  O   UNL A   1      38.837  24.647  26.752  1.00  0.00    -0.463 OA
BRANCH   5   6
ATOM      6  C   UNL A   1      37.705  23.458  26.125  1.00  0.00     0.310 C 
ATOM      7  O   UNL A   1      38.199  22.485  25.526  1.00  0.00    -0.252 OA
BRANCH   6   8
ATOM      8  C   UNL A   1      35.800  23.616  26.005  1.00  0.00     0.160 C 
BRANCH   8   9
ATOM      9  C   UNL A   1      34.215  22.736  25.535  1.00  0.00    -0.013 A 
ATOM     10  C   UNL A   1      32.510  23.043  25.667  1.00  0.00     0.042 A 
ATOM     11  C   UNL A   1      31.693  21.832  25.324  1.00  0.00     0.026 A 
ATOM     12  C   UNL A   1      32.231  20.679  24.746  1.00  0.00     0.002 A 
ATOM     13  C   UNL A   1      34.563  21.445  25.029  1.00  0.00     0.006 A 
ATOM     14  C   UNL A   1      33.602  20.510  24.581  1.00  0.00     0.000 A 
BRANCH  10  15
ATOM     15  N   UNL A   1      31.687  24.869  25.887  1.00  0.00    -0.355 N 
ATOM     16  H   UNL A   1      31.096  24.858  26.675  1.00  0.00     0.167 HD
BRANCH  15  17
ATOM     17  C   UNL A   1      31.648  26.453  25.182  1.00  0.00     0.045 A 
ATOM     18  C   UNL A   1      32.470  28.052  25.648  1.00  0.00    -0.024 A 
ATOM     19  C   UNL A   1      32.601  29.317  24.235  1.00  0.00     0.006 A 
ATOM     20  C   UNL A   1      31.565  28.633  22.624  1.00  0.00     0.001 A 
ATOM     21  C   UNL A   1      30.748  26.156  23.723  1.00  0.00    -0.027 A 
ATOM     22  C   UNL A   1      30.566  27.226  22.635  1.00  0.00     0.005 A 
ATOM     23  C   UNL A   1      30.162  24.784  23.494  1.00  0.00     0.046 C 
BRANCH  18  24
ATOM     24  C   UNL A   1      32.425  28.742  26.992  1.00  0.00     0.034 C 
ATOM     25  C   UNL A   1      33.677  29.083  27.750  1.00  0.00     0.009 C 
ENDBRANCH  18  24
ENDBRANCH  15  17
ENDBRANCH  10  15
ENDBRANCH   8   9
ENDBRANCH   6   8
ENDBRANCH   5   6
ENDBRANCH   4   5
ENDBRANCH   3   4
ENDBRANCH   2   3
ENDBRANCH   1   2
BRANCH   1  26
ATOM     26  C   UNL A   1      43.767  21.032  25.762  1.00  0.00     0.188 C 
BRANCH  26  27
ATOM     27  O   UNL A   1      44.794  21.002  24.778  1.00  0.00    -0.376 OA
BRANCH  27  28
ATOM     28  C   UNL A   1      45.014  22.256  24.207  1.00  0.00     0.202 C 
BRANCH  28  29
ATOM     29  C   UNL A   1      46.534  22.558  24.007  1.00  0.00     0.261 C 
BRANCH  29  30
ATOM     30  O   UNL A   1      46.827  24.036  24.074  1.00  0.00    -0.460 OA
BRANCH  30  31
ATOM     31  C   UNL A   1      47.186  24.791  25.205  1.00  0.00     0.338 C 
ATOM     32  O   UNL A   1      47.287  24.292  26.314  1.00  0.00    -0.246 OA
BRANCH  31  33
ATOM     33  C   UNL A   1      47.188  26.469  24.916  1.00  0.00     0.060 A 
ATOM     34  C   UNL A   1      48.632  27.559  25.398  1.00  0.00     0.016 A 
ATOM     35  C   UNL A   1      45.639  26.837  25.674  1.00  0.00     0.016 A 
ATOM     36  C   UNL A   1      48.539  28.684  26.911  1.00  0.00     0.010 A 
ATOM     37  C   UNL A   1      45.488  27.930  27.047  1.00  0.00     0.010 A 
ATOM     38  C   UNL A   1      46.933  28.720  27.904  1.00  0.00    -0.014 A 
BRANCH  38  39
ATOM     39  C   UNL A   1      46.311  29.169  29.316  1.00  0.00     0.031 A 
ATOM     40  C   UNL A   1      46.069  27.461  30.166  1.00  0.00     0.074 A 
ATOM     41  C   UNL A   1      45.973  30.608  29.972  1.00  0.00     0.049 A 
ATOM     42  N   UNL A   1      44.939  27.196  30.827  1.00  0.00    -0.248 NA
ATOM     43  C   UNL A   1      46.691  26.106  30.159  1.00  0.00     0.031 C 
ATOM     44  C   UNL A   1      45.771  31.284  31.535  1.00  0.00     0.029 A 
ATOM     45  N   UNL A   1      45.804  31.893  29.536  1.00  0.00    -0.354 N 
ATOM     46  C   UNL A   1      45.039  26.256  31.752  1.00  0.00     0.074 A 
ATOM     47  C   UNL A   1      45.947  25.402  31.047  1.00  0.00     0.031 C 
ATOM     48  C   UNL A   1      45.688  32.635  31.649  1.00  0.00     0.029 A 
ATOM     49  C   UNL A   1      45.583  33.112  30.310  1.00  0.00     0.049 A 
ATOM     50  H   UNL A   1      45.834  32.015  28.559  1.00  0.00     0.167 HD
ATOM     51  C   UNL A   1      44.406  26.465  32.954  1.00  0.00     0.034 A 
ATOM     52  C   UNL A   1      44.996  34.244  29.788  1.00  0.00     0.034 A 
ATOM     53  C   UNL A   1      43.896  27.913  33.224  1.00  0.00     0.049 A 
ATOM     54  C   UNL A   1      43.512  33.566  30.190  1.00  0.00     0.074 A 
ATOM     55  C   UNL A   1      44.331  28.891  34.124  1.00  0.00     0.029 A 
ATOM     56  N   UNL A   1      42.937  28.617  32.438  1.00  0.00    -0.354 N 
ATOM     57  N   UNL A   1      43.400  32.411  30.847  1.00  0.00    -0.248 NA
ATOM     58  C   UNL A   1      42.207  34.206  30.158  1.00  0.00     0.031 C 
ATOM     59  C   UNL A   1      43.737  30.167  33.803  1.00  0.00     0.029 A 
ATOM     60  C   UNL A   1      42.894  30.032  32.703  1.00  0.00     0.049 A 
ATOM     61  H   UNL A   1      42.359  28.175  31.774  1.00  0.00     0.167 HD
ATOM     62  C   UNL A   1      42.179  32.120  31.334  1.00  0.00     0.074 A 
ATOM     63  C   UNL A   1      41.454  33.326  30.872  1.00  0.00     0.031 C 
ATOM     64  C   UNL A   1      41.871  30.966  32.063  1.00  0.00     0.034 A 
BRANCH  51  65
ATOM     65  C   UNL A   1      44.483  25.427  34.072  1.00  0.00     0.023 A 
ATOM     66  C   UNL A   1      43.293  25.045  34.727  1.00  0.00     0.012 A 
ATOM     67  C   UNL A   1      45.655  24.755  34.500  1.00  0.00     0.148 A 
ATOM     68  C   UNL A   1      43.279  24.093  35.758  1.00  0.00     0.002 A 
ATOM     69  C   UNL A   1      45.642  23.781  35.495  1.00  0.00     0.091 A 
ATOM     70  F   UNL A   1      46.833  25.049  33.965  1.00  0.00    -0.205 F 
ATOM     71  C   UNL A   1      44.453  23.453  36.139  1.00  0.00     0.022 A 
BRANCH  69  72
ATOM     72  S   UNL A   1      47.136  22.886  35.970  1.00  0.00     0.127 S 
ATOM     73  O   UNL A   1      46.675  22.118  37.126  1.00  0.00    -0.237 OA
ATOM     74  O   UNL A   1      47.415  22.087  34.778  1.00  0.00    -0.237 OA
ATOM     75  O   UNL A   1      48.151  23.888  36.275  1.00  0.00    -0.744 OA
ENDBRANCH  69  72
ENDBRANCH  51  65
BRANCH  52  76
ATOM     76  C   UNL A   1      45.686  34.660  28.167  1.00  0.00     0.023 A 
ATOM     77  C   UNL A   1      45.659  33.586  26.683  1.00  0.00     0.012 A 
ATOM     78  C   UNL A   1      44.837  35.997  28.135  1.00  0.00     0.148 A 
ATOM     79  C   UNL A   1      44.427  33.652  25.325  1.00  0.00     0.002 A 
ATOM     80  C   UNL A   1      43.430  36.264  27.041  1.00  0.00     0.091 A 
ATOM     81  F   UNL A   1      45.017  36.804  29.211  1.00  0.00    -0.205 F 
ATOM     82  C   UNL A   1      43.142  34.962  25.461  1.00  0.00     0.022 A 
BRANCH  80  83
ATOM     83  S   UNL A   1      44.452  38.281  27.131  1.00  0.00     0.127 S 
ATOM     84  O   UNL A   1      44.480  38.791  28.501  1.00  0.00    -0.237 OA
ATOM     85  O   UNL A   1      45.763  37.921  26.586  1.00  0.00    -0.237 OA
ATOM     86  O   UNL A   1      43.651  39.189  26.295  1.00  0.00    -0.744 OA
ENDBRANCH  80  83
ENDBRANCH  52  76
BRANCH  64  87
ATOM     87  C   UNL A   1      40.424  30.625  32.344  1.00  0.00     0.023 A 
ATOM     88  C   UNL A   1      39.899  30.719  33.644  1.00  0.00     0.012 A 
ATOM     89  C   UNL A   1      39.513  30.309  31.306  1.00  0.00     0.148 A 
ATOM     90  C   UNL A   1      38.599  30.330  33.942  1.00  0.00     0.002 A 
ATOM     91  C   UNL A   1      38.173  30.100  31.586  1.00  0.00     0.091 A 
ATOM     92  F   UNL A   1      39.931  30.179  30.041  1.00  0.00    -0.205 F 
ATOM     93  C   UNL A   1      37.727  30.037  32.908  1.00  0.00     0.022 A 
BRANCH  91  94
ATOM     94  S   UNL A   1      36.930  30.026  30.296  1.00  0.00     0.127 S 
ATOM     95  O   UNL A   1      35.813  29.398  31.001  1.00  0.00    -0.237 OA
ATOM     96  O   UNL A   1      36.736  31.444  29.986  1.00  0.00    -0.237 OA
ATOM     97  O   UNL A   1      37.505  29.243  29.211  1.00  0.00    -0.744 OA
ENDBRANCH  91  94
ENDBRANCH  64  87
ENDBRANCH  38  39
ENDBRANCH  31  33
ENDBRANCH  30  31
ENDBRANCH  29  30
ENDBRANCH  28  29
ENDBRANCH  27  28
ENDBRANCH  26  27
ENDBRANCH   1  26
TORSDOF 24
ENDMDL
MODEL 2
REMARK VINA RESULT:     -11.1      4.019     10.688
REMARK SMILES CCc1cccc(C)c1Nc1ccccc1CC(=O)OCCOCCOCCOC(=O)c1ccc(-c2c3nc(c(-c4cccc(S(=O)(=O)[O-])c4F)c4ccc([nH]4)c(-c4cccc(S(=O)(=O)[O-])c4F)c4nc(c(-c5cccc(S(=O)(=O)[O-])c5F)c5ccc2[nH]5)C=C4)C=C3)cc1
REMARK SMILES IDX 24 1 23 2 22 3 21 4 20 5 18 6 19 7 17 8 16 9 11 10 12 11
REMARK SMILES IDX 13 12 15 13 14 14 10 15 9 17 3 18 4 19 5 20 7 21 6 22 8 23
REMARK SMILES IDX 2 24 1 25 25 26 26 27 27 28 28 29 29 30 30 31 31 32 32 33
REMARK SMILES IDX 33 34 94 35 34 36 93 37 35 38 36 39 37 40 87 41 38 42 92 43
REMARK SMILES IDX 86 44 88 45 39 46 91 47 85 48 84 49 40 51 72 52 52 53 71 54
REMARK SMILES IDX 53 55 56 56 70 57 89 58 54 59 55 60 69 62 90 63 57 64 41 65
REMARK SMILES IDX 42 66 50 67 43 68 45 69 51 70 44 71 46 72 47 73 48 74 49 75
REMARK SMILES IDX 73 76 74 77 82 78 75 79 77 80 83 81 76 82 78 83 79 84 80 85
REMARK SMILES IDX 81 86 58 87 59 88 67 89 60 90 62 91 68 92 61 93 63 94 64 95
REMARK SMILES IDX 65 96 66 97
REMARK H PARENT 10 16 88 50 56 61
REMARK Flexibility Score: inf
ROOT
ATOM      1  C   UNL A   1      44.553  25.124  24.941  1.00  0.00     0.188 C 
ENDROOT
BRANCH   1   2
ATOM      2  O   UNL A   1      43.420  24.057  25.069  1.00  0.00    -0.376 OA
BRANCH   2   3
ATOM      3  C   UNL A   1      42.101  23.853  26.000  1.00  0.00     0.202 C 
BRANCH   3   4
ATOM      4  C   UNL A   1      41.196  22.522  27.025  1.00  0.00     0.261 C 
BRANCH   4   5
ATOM      5  O   UNL A   1      39.526  21.680  26.848  1.00  0.00    -0.463 OA
BRANCH   5   6
ATOM      6  C   UNL A   1      38.442  20.792  25.788  1.00  0.00     0.310 C 
ATOM      7  O   UNL A   1      38.939  19.842  25.157  1.00  0.00    -0.252 OA
BRANCH   6   8
ATOM      8  C   UNL A   1      36.662  21.279  25.273  1.00  0.00     0.160 C 
BRANCH   8   9
ATOM      9  C   UNL A   1      34.990  20.631  24.734  1.00  0.00    -0.013 A 
ATOM     10  C   UNL A   1      33.423  21.299  24.392  1.00  0.00     0.042 A 
ATOM     11  C   UNL A   1      32.380  20.232  24.236  1.00  0.00     0.026 A 
ATOM     12  C   UNL A   1      32.678  18.870  24.144  1.00  0.00     0.002 A 
ATOM     13  C   UNL A   1      35.062  19.203  24.707  1.00  0.00     0.006 A 
ATOM     14  C   UNL A   1      33.967  18.385  24.343  1.00  0.00     0.000 A 
BRANCH  10  15
ATOM     15  N   UNL A   1      33.081  23.221  23.893  1.00  0.00    -0.355 N 
ATOM     16  H   UNL A   1      33.597  23.435  23.082  1.00  0.00     0.167 HD
BRANCH  15  17
ATOM     17  C   UNL A   1      32.202  24.633  24.385  1.00  0.00     0.045 A 
ATOM     18  C   UNL A   1      31.381  25.104  25.984  1.00  0.00    -0.024 A 
ATOM     19  C   UNL A   1      31.099  26.970  26.209  1.00  0.00     0.006 A 
ATOM     20  C   UNL A   1      31.577  27.934  24.484  1.00  0.00     0.001 A 
ATOM     21  C   UNL A   1      32.430  25.674  23.010  1.00  0.00    -0.027 A 
ATOM     22  C   UNL A   1      31.976  27.142  23.004  1.00  0.00     0.005 A 
ATOM     23  C   UNL A   1      33.140  25.131  21.794  1.00  0.00     0.046 C 
BRANCH  18  24
ATOM     24  C   UNL A   1      30.356  24.302  26.753  1.00  0.00     0.034 C 
ATOM     25  C   UNL A   1      30.249  22.810  26.611  1.00  0.00     0.009 C 
ENDBRANCH  18  24
ENDBRANCH  15  17
ENDBRANCH  10  15
ENDBRANCH   8   9
ENDBRANCH   6   8
ENDBRANCH   5   6
ENDBRANCH   4   5
ENDBRANCH   3   4
ENDBRANCH   2   3
ENDBRANCH   1   2
BRANCH   1  26
ATOM     26  C   UNL A   1      44.555  26.605  25.597  1.00  0.00     0.188 C 
BRANCH  26  27
ATOM     27  O   UNL A   1      45.622  26.696  26.533  1.00  0.00    -0.376 OA
BRANCH  27  28
ATOM     28  C   UNL A   1      45.242  26.274  27.808  1.00  0.00     0.202 C 
BRANCH  28  29
ATOM     29  C   UNL A   1      45.988  27.056  28.937  1.00  0.00     0.261 C 
BRANCH  29  30
ATOM     30  O   UNL A   1      47.276  27.665  28.442  1.00  0.00    -0.460 OA
BRANCH  30  31
ATOM     31  C   UNL A   1      47.814  28.922  28.774  1.00  0.00     0.338 C 
ATOM     32  O   UNL A   1      47.791  29.359  29.913  1.00  0.00    -0.246 OA
BRANCH  31  33
ATOM     33  C   UNL A   1      48.233  29.850  27.409  1.00  0.00     0.060 A 
ATOM     34  C   UNL A   1      49.521  31.207  27.487  1.00  0.00     0.016 A 
ATOM     35  C   UNL A   1      46.601  30.340  26.953  1.00  0.00     0.016 A 
ATOM     36  C   UNL A   1      49.016  33.026  27.506  1.00  0.00     0.010 A 
ATOM     37  C   UNL A   1      46.098  32.027  26.892  1.00  0.00     0.010 A 
ATOM     38  C   UNL A   1      47.178  33.449  27.398  1.00  0.00    -0.014 A 
BRANCH  38  39
ATOM     39  C   UNL A   1      46.122  34.637  27.631  1.00  0.00     0.031 A 
ATOM     40  C   UNL A   1      46.899  36.029  26.553  1.00  0.00     0.074 A 
ATOM     41  C   UNL A   1      44.745  34.749  28.470  1.00  0.00     0.049 A 
ATOM     42  N   UNL A   1      46.971  37.277  27.022  1.00  0.00    -0.248 NA
ATOM     43  C   UNL A   1      47.732  36.163  25.325  1.00  0.00     0.031 C 
ATOM     44  C   UNL A   1      43.318  35.700  28.463  1.00  0.00     0.029 A 
ATOM     45  N   UNL A   1      44.123  34.058  29.472  1.00  0.00    -0.354 N 
ATOM     46  C   UNL A   1      47.049  38.219  26.097  1.00  0.00     0.074 A 
ATOM     47  C   UNL A   1      47.882  37.502  25.178  1.00  0.00     0.031 C 
ATOM     48  C   UNL A   1      42.280  35.314  29.249  1.00  0.00     0.029 A 
ATOM     49  C   UNL A   1      42.801  34.264  30.059  1.00  0.00     0.049 A 
ATOM     50  H   UNL A   1      44.642  33.314  29.856  1.00  0.00     0.167 HD
ATOM     51  C   UNL A   1      46.305  39.360  26.274  1.00  0.00     0.034 A 
ATOM     52  C   UNL A   1      42.456  33.826  31.319  1.00  0.00     0.034 A 
ATOM     53  C   UNL A   1      45.208  39.305  27.381  1.00  0.00     0.049 A 
ATOM     54  C   UNL A   1      43.085  35.267  31.909  1.00  0.00     0.074 A 
ATOM     55  C   UNL A   1      43.812  39.292  27.296  1.00  0.00     0.029 A 
ATOM     56  N   UNL A   1      45.439  39.072  28.769  1.00  0.00    -0.354 N 
ATOM     57  N   UNL A   1      43.545  36.234  31.114  1.00  0.00    -0.248 NA
ATOM     58  C   UNL A   1      42.978  35.795  33.260  1.00  0.00     0.031 C 
ATOM     59  C   UNL A   1      43.236  38.942  28.573  1.00  0.00     0.029 A 
ATOM     60  C   UNL A   1      44.248  38.742  29.509  1.00  0.00     0.049 A 
ATOM     61  H   UNL A   1      46.330  39.131  29.182  1.00  0.00     0.167 HD
ATOM     62  C   UNL A   1      43.770  37.427  31.696  1.00  0.00     0.074 A 
ATOM     63  C   UNL A   1      43.368  37.086  33.081  1.00  0.00     0.031 C 
ATOM     64  C   UNL A   1      44.235  38.563  31.024  1.00  0.00     0.034 A 
BRANCH  51  65
ATOM     65  C   UNL A   1      46.339  40.487  25.244  1.00  0.00     0.023 A 
ATOM     66  C   UNL A   1      47.039  40.282  24.036  1.00  0.00     0.012 A 
ATOM     67  C   UNL A   1      45.683  41.737  25.361  1.00  0.00     0.148 A 
ATOM     68  C   UNL A   1      47.112  41.265  23.038  1.00  0.00     0.002 A 
ATOM     69  C   UNL A   1      45.719  42.702  24.357  1.00  0.00     0.091 A 
ATOM     70  F   UNL A   1      45.011  42.044  26.464  1.00  0.00    -0.205 F 
ATOM     71  C   UNL A   1      46.445  42.475  23.193  1.00  0.00     0.022 A 
BRANCH  69  72
ATOM     72  S   UNL A   1      44.813  44.257  24.500  1.00  0.00     0.127 S 
ATOM     73  O   UNL A   1      43.423  43.803  24.450  1.00  0.00    -0.237 OA
ATOM     74  O   UNL A   1      45.246  44.755  25.804  1.00  0.00    -0.237 OA
ATOM     75  O   UNL A   1      45.219  45.088  23.372  1.00  0.00    -0.744 OA
ENDBRANCH  69  72
ENDBRANCH  51  65
BRANCH  52  76
ATOM     76  C   UNL A   1      42.993  32.119  31.597  1.00  0.00     0.023 A 
ATOM     77  C   UNL A   1      44.346  31.591  32.712  1.00  0.00     0.012 A 
ATOM     78  C   UNL A   1      41.511  31.701  31.972  1.00  0.00     0.148 A 
ATOM     79  C   UNL A   1      44.155  31.004  34.440  1.00  0.00     0.002 A 
ATOM     80  C   UNL A   1      40.985  31.272  33.642  1.00  0.00     0.091 A 
ATOM     81  F   UNL A   1      40.584  32.009  31.030  1.00  0.00    -0.205 F 
ATOM     82  C   UNL A   1      42.430  30.893  35.070  1.00  0.00     0.022 A 
BRANCH  80  83
ATOM     83  S   UNL A   1      39.812  29.867  32.311  1.00  0.00     0.127 S 
ATOM     84  O   UNL A   1      38.820  30.598  31.525  1.00  0.00    -0.237 OA
ATOM     85  O   UNL A   1      40.908  29.290  31.529  1.00  0.00    -0.237 OA
ATOM     86  O   UNL A   1      39.118  28.929  33.208  1.00  0.00    -0.744 OA
ENDBRANCH  80  83
ENDBRANCH  52  76
BRANCH  64  87
ATOM     87  C   UNL A   1      44.685  39.769  31.819  1.00  0.00     0.023 A 
ATOM     88  C   UNL A   1      45.951  39.803  32.426  1.00  0.00     0.012 A 
ATOM     89  C   UNL A   1      43.907  40.950  31.892  1.00  0.00     0.148 A 
ATOM     90  C   UNL A   1      46.352  40.862  33.231  1.00  0.00     0.002 A 
ATOM     91  C   UNL A   1      44.391  42.072  32.544  1.00  0.00     0.091 A 
ATOM     92  F   UNL A   1      42.680  40.999  31.359  1.00  0.00    -0.205 F 
ATOM     93  C   UNL A   1      45.578  42.008  33.276  1.00  0.00     0.022 A 
BRANCH  91  94
ATOM     94  S   UNL A   1      43.608  43.678  32.388  1.00  0.00     0.127 S 
ATOM     95  O   UNL A   1      44.568  44.540  33.075  1.00  0.00    -0.237 OA
ATOM     96  O   UNL A   1      43.565  43.848  30.934  1.00  0.00    -0.237 OA
ATOM     97  O   UNL A   1      42.302  43.566  33.022  1.00  0.00    -0.744 OA
ENDBRANCH  91  94
ENDBRANCH  64  87
ENDBRANCH  38  39
ENDBRANCH  31  33
ENDBRANCH  30  31
ENDBRANCH  29  30
ENDBRANCH  28  29
ENDBRANCH  27  28
ENDBRANCH  26  27
ENDBRANCH   1  26
TORSDOF 24
ENDMDL
MODEL 3
REMARK VINA RESULT:     -11.0      3.573      8.909
REMARK SMILES CCc1cccc(C)c1Nc1ccccc1CC(=O)OCCOCCOCCOC(=O)c1ccc(-c2c3nc(c(-c4cccc(S(=O)(=O)[O-])c4F)c4ccc([nH]4)c(-c4cccc(S(=O)(=O)[O-])c4F)c4nc(c(-c5cccc(S(=O)(=O)[O-])c5F)c5ccc2[nH]5)C=C4)C=C3)cc1
REMARK SMILES IDX 24 1 23 2 22 3 21 4 20 5 18 6 19 7 17 8 16 9 11 10 12 11
REMARK SMILES IDX 13 12 15 13 14 14 10 15 9 17 3 18 4 19 5 20 7 21 6 22 8 23
REMARK SMILES IDX 2 24 1 25 25 26 26 27 27 28 28 29 29 30 30 31 31 32 32 33
REMARK SMILES IDX 33 34 94 35 34 36 93 37 35 38 36 39 37 40 87 41 38 42 92 43
REMARK SMILES IDX 86 44 88 45 39 46 91 47 85 48 84 49 40 51 72 52 52 53 71 54
REMARK SMILES IDX 53 55 56 56 70 57 89 58 54 59 55 60 69 62 90 63 57 64 41 65
REMARK SMILES IDX 42 66 50 67 43 68 45 69 51 70 44 71 46 72 47 73 48 74 49 75
REMARK SMILES IDX 73 76 74 77 82 78 75 79 77 80 83 81 76 82 78 83 79 84 80 85
REMARK SMILES IDX 81 86 58 87 59 88 67 89 60 90 62 91 68 92 61 93 63 94 64 95
REMARK SMILES IDX 65 96 66 97
REMARK H PARENT 10 16 88 50 56 61
REMARK Flexibility Score: inf
ROOT
ATOM      1  C   UNL A   1      34.872  32.469  28.571  1.00  0.00     0.188 C 
ENDROOT
BRANCH   1   2
ATOM      2  O   UNL A   1      34.481  31.482  27.425  1.00  0.00    -0.376 OA
BRANCH   2   3
ATOM      3  C   UNL A   1      33.155  30.636  27.006  1.00  0.00     0.202 C 
BRANCH   3   4
ATOM      4  C   UNL A   1      32.632  29.062  26.065  1.00  0.00     0.261 C 
BRANCH   4   5
ATOM      5  O   UNL A   1      33.589  27.596  25.383  1.00  0.00    -0.463 OA
BRANCH   5   6
ATOM      6  C   UNL A   1      33.545  25.891  24.959  1.00  0.00     0.310 C 
ATOM      7  O   UNL A   1      32.563  25.509  24.298  1.00  0.00    -0.252 OA
BRANCH   6   8
ATOM      8  C   UNL A   1      34.679  24.498  25.625  1.00  0.00     0.160 C 
BRANCH   8   9
ATOM      9  C   UNL A   1      35.225  22.722  25.392  1.00  0.00    -0.013 A 
ATOM     10  C   UNL A   1      36.706  21.890  25.028  1.00  0.00     0.042 A 
ATOM     11  C   UNL A   1      36.475  20.441  24.718  1.00  0.00     0.026 A 
ATOM     12  C   UNL A   1      35.255  19.794  24.927  1.00  0.00     0.002 A 
ATOM     13  C   UNL A   1      34.060  21.895  25.445  1.00  0.00     0.006 A 
ATOM     14  C   UNL A   1      34.108  20.488  25.302  1.00  0.00     0.000 A 
BRANCH  10  15
ATOM     15  N   UNL A   1      38.550  22.645  25.333  1.00  0.00    -0.355 N 
ATOM     16  H   UNL A   1      38.683  23.411  24.727  1.00  0.00     0.167 HD
BRANCH  15  17
ATOM     17  C   UNL A   1      39.986  22.426  26.280  1.00  0.00     0.045 A 
ATOM     18  C   UNL A   1      41.359  21.177  26.203  1.00  0.00    -0.024 A 
ATOM     19  C   UNL A   1      42.975  21.724  27.040  1.00  0.00     0.006 A 
ATOM     20  C   UNL A   1      42.665  23.481  28.016  1.00  0.00     0.001 A 
ATOM     21  C   UNL A   1      39.956  23.849  27.280  1.00  0.00    -0.027 A 
ATOM     22  C   UNL A   1      41.121  24.228  28.209  1.00  0.00     0.005 A 
ATOM     23  C   UNL A   1      38.764  24.772  27.201  1.00  0.00     0.046 C 
BRANCH  18  24
ATOM     24  C   UNL A   1      41.223  19.671  26.216  1.00  0.00     0.034 C 
ATOM     25  C   UNL A   1      42.408  18.771  26.414  1.00  0.00     0.009 C 
ENDBRANCH  18  24
ENDBRANCH  15  17
ENDBRANCH  10  15
ENDBRANCH   8   9
ENDBRANCH   6   8
ENDBRANCH   5   6
ENDBRANCH   4   5
ENDBRANCH   3   4
ENDBRANCH   2   3
ENDBRANCH   1   2
BRANCH   1  26
ATOM     26  C   UNL A   1      34.344  33.989  28.749  1.00  0.00     0.188 C 
BRANCH  26  27
ATOM     27  O   UNL A   1      34.208  34.273  30.136  1.00  0.00    -0.376 OA
BRANCH  27  28
ATOM     28  C   UNL A   1      34.905  33.363  30.932  1.00  0.00     0.202 C 
BRANCH  28  29
ATOM     29  C   UNL A   1      36.076  34.037  31.716  1.00  0.00     0.261 C 
BRANCH  29  30
ATOM     30  O   UNL A   1      36.385  33.309  33.000  1.00  0.00    -0.460 OA
BRANCH  30  31
ATOM     31  C   UNL A   1      37.651  32.995  33.526  1.00  0.00     0.338 C 
ATOM     32  O   UNL A   1      38.657  33.609  33.210  1.00  0.00    -0.246 OA
BRANCH  31  33
ATOM     33  C   UNL A   1      37.666  31.538  34.406  1.00  0.00     0.060 A 
ATOM     34  C   UNL A   1      38.730  31.307  35.930  1.00  0.00     0.016 A 
ATOM     35  C   UNL A   1      37.988  30.453  33.052  1.00  0.00     0.016 A 
ATOM     36  C   UNL A   1      40.318  30.288  35.863  1.00  0.00     0.010 A 
ATOM     37  C   UNL A   1      39.422  29.433  32.971  1.00  0.00     0.010 A 
ATOM     38  C   UNL A   1      40.787  29.465  34.228  1.00  0.00    -0.014 A 
BRANCH  38  39
ATOM     39  C   UNL A   1      42.009  28.771  33.449  1.00  0.00     0.031 A 
ATOM     40  C   UNL A   1      42.351  27.257  34.584  1.00  0.00     0.074 A 
ATOM     41  C   UNL A   1      42.791  29.121  32.078  1.00  0.00     0.049 A 
ATOM     42  N   UNL A   1      43.605  26.927  34.900  1.00  0.00    -0.248 NA
ATOM     43  C   UNL A   1      41.604  26.355  35.506  1.00  0.00     0.031 C 
ATOM     44  C   UNL A   1      43.734  28.305  30.901  1.00  0.00     0.029 A 
ATOM     45  N   UNL A   1      42.934  30.203  31.254  1.00  0.00    -0.354 N 
ATOM     46  C   UNL A   1      43.782  25.663  35.246  1.00  0.00     0.074 A 
ATOM     47  C   UNL A   1      42.550  25.496  35.958  1.00  0.00     0.031 C 
ATOM     48  C   UNL A   1      44.045  28.961  29.753  1.00  0.00     0.029 A 
ATOM     49  C   UNL A   1      43.632  30.307  29.974  1.00  0.00     0.049 A 
ATOM     50  H   UNL A   1      42.506  31.032  31.568  1.00  0.00     0.167 HD
ATOM     51  C   UNL A   1      44.890  25.010  34.762  1.00  0.00     0.034 A 
ATOM     52  C   UNL A   1      44.090  31.499  29.457  1.00  0.00     0.034 A 
ATOM     53  C   UNL A   1      45.663  25.721  33.610  1.00  0.00     0.049 A 
ATOM     54  C   UNL A   1      45.493  31.258  30.350  1.00  0.00     0.074 A 
ATOM     55  C   UNL A   1      45.795  25.402  32.255  1.00  0.00     0.029 A 
ATOM     56  N   UNL A   1      46.280  27.004  33.691  1.00  0.00    -0.354 N 
ATOM     57  N   UNL A   1      45.714  30.154  31.065  1.00  0.00    -0.248 NA
ATOM     58  C   UNL A   1      46.735  32.012  30.273  1.00  0.00     0.031 C 
ATOM     59  C   UNL A   1      46.366  26.515  31.532  1.00  0.00     0.029 A 
ATOM     60  C   UNL A   1      46.630  27.563  32.410  1.00  0.00     0.049 A 
ATOM     61  H   UNL A   1      46.451  27.464  34.544  1.00  0.00     0.167 HD
ATOM     62  C   UNL A   1      46.972  29.973  31.508  1.00  0.00     0.074 A 
ATOM     63  C   UNL A   1      47.590  31.199  30.950  1.00  0.00     0.031 C 
ATOM     64  C   UNL A   1      47.399  28.872  32.258  1.00  0.00     0.034 A 
BRANCH  51  65
ATOM     65  C   UNL A   1      45.155  23.548  35.114  1.00  0.00     0.023 A 
ATOM     66  C   UNL A   1      44.602  22.541  34.296  1.00  0.00     0.012 A 
ATOM     67  C   UNL A   1      45.962  23.086  36.184  1.00  0.00     0.148 A 
ATOM     68  C   UNL A   1      44.805  21.176  34.548  1.00  0.00     0.002 A 
ATOM     69  C   UNL A   1      46.200  21.733  36.416  1.00  0.00     0.091 A 
ATOM     70  F   UNL A   1      46.517  23.946  37.028  1.00  0.00    -0.205 F 
ATOM     71  C   UNL A   1      45.612  20.769  35.605  1.00  0.00     0.022 A 
BRANCH  69  72
ATOM     72  S   UNL A   1      47.293  21.174  37.739  1.00  0.00     0.127 S 
ATOM     73  O   UNL A   1      47.547  19.785  37.356  1.00  0.00    -0.237 OA
ATOM     74  O   UNL A   1      48.441  22.067  37.598  1.00  0.00    -0.237 OA
ATOM     75  O   UNL A   1      46.558  21.331  38.990  1.00  0.00    -0.744 OA
ENDBRANCH  69  72
ENDBRANCH  51  65
BRANCH  52  76
ATOM     76  C   UNL A   1      42.839  32.800  29.583  1.00  0.00     0.023 A 
ATOM     77  C   UNL A   1      42.235  33.559  31.138  1.00  0.00     0.012 A 
ATOM     78  C   UNL A   1      43.665  33.709  28.582  1.00  0.00     0.148 A 
ATOM     79  C   UNL A   1      42.836  35.125  31.880  1.00  0.00     0.002 A 
ATOM     80  C   UNL A   1      44.540  35.205  29.078  1.00  0.00     0.091 A 
ATOM     81  F   UNL A   1      43.956  33.118  27.396  1.00  0.00    -0.205 F 
ATOM     82  C   UNL A   1      44.127  36.027  30.929  1.00  0.00     0.022 A 
BRANCH  80  83
ATOM     83  S   UNL A   1      43.724  35.694  27.024  1.00  0.00     0.127 S 
ATOM     84  O   UNL A   1      42.301  35.368  26.936  1.00  0.00    -0.237 OA
ATOM     85  O   UNL A   1      44.028  37.125  26.969  1.00  0.00    -0.237 OA
ATOM     86  O   UNL A   1      44.469  34.856  26.071  1.00  0.00    -0.744 OA
ENDBRANCH  80  83
ENDBRANCH  52  76
BRANCH  64  87
ATOM     87  C   UNL A   1      48.764  28.895  32.909  1.00  0.00     0.023 A 
ATOM     88  C   UNL A   1      49.003  29.668  34.058  1.00  0.00     0.012 A 
ATOM     89  C   UNL A   1      49.821  28.063  32.466  1.00  0.00     0.148 A 
ATOM     90  C   UNL A   1      50.268  29.773  34.624  1.00  0.00     0.002 A 
ATOM     91  C   UNL A   1      51.027  28.035  33.146  1.00  0.00     0.091 A 
ATOM     92  F   UNL A   1      49.687  27.309  31.367  1.00  0.00    -0.205 F 
ATOM     93  C   UNL A   1      51.279  28.940  34.178  1.00  0.00     0.022 A 
BRANCH  91  94
ATOM     94  S   UNL A   1      52.267  26.777  32.835  1.00  0.00     0.127 S 
ATOM     95  O   UNL A   1      51.436  25.626  32.483  1.00  0.00    -0.237 OA
ATOM     96  O   UNL A   1      53.008  27.359  31.716  1.00  0.00    -0.237 OA
ATOM     97  O   UNL A   1      53.036  26.640  34.064  1.00  0.00    -0.744 OA
ENDBRANCH  91  94
ENDBRANCH  64  87
ENDBRANCH  38  39
ENDBRANCH  31  33
ENDBRANCH  30  31
ENDBRANCH  29  30
ENDBRANCH  28  29
ENDBRANCH  27  28
ENDBRANCH  26  27
ENDBRANCH   1  26
TORSDOF 24
ENDMDL
