MODEL 1
REMARK VINA RESULT:     -11.4      0.000      0.000
REMARK SMILES O=C(C[C@@H](NS(=O)(=O)c1ccc2c(c1)OCCO2)c1ccccc1)OCCOCCOCCOC(=O)c1ccc(-c2c3nc(c(-c4cccc(S(=O)(=O)[O-])c4F)c4ccc([nH]4)c(-c4cccc(S(=O)(=O)[O-])c4F)c4nc(c(-c5cccc(S(=O)(=O)[O-])c5F)c5ccc2[nH]5)C=C4)C=C3)cc1
REMARK SMILES IDX 29 1 28 2 27 3 26 4 25 5 2 6 1 7 3 8 4 9 5 10 6 12 7 13 8 14
REMARK SMILES IDX 9 15 10 16 14 17 11 18 13 19 12 20 15 21 18 22 16 23 17 24
REMARK SMILES IDX 19 25 20 26 24 27 21 28 23 29 22 30 30 31 31 32 32 33 33 34
REMARK SMILES IDX 34 35 35 36 36 37 37 38 38 39 99 40 39 41 98 42 40 43 41 44
REMARK SMILES IDX 42 45 92 46 43 47 97 48 91 49 93 50 44 51 96 52 90 53 89 54
REMARK SMILES IDX 45 56 77 57 57 58 76 59 58 60 61 61 75 62 94 63 59 64 60 65
REMARK SMILES IDX 74 67 95 68 62 69 46 70 47 71 55 72 48 73 50 74 56 75 49 76
REMARK SMILES IDX 51 77 52 78 53 79 54 80 78 81 79 82 87 83 80 84 82 85 88 86
REMARK SMILES IDX 81 87 83 88 84 89 85 90 86 91 63 92 64 93 72 94 65 95 67 96
REMARK SMILES IDX 73 97 66 98 68 99 69 100 70 101 71 102
REMARK H PARENT 5 11 93 55 61 66
REMARK Flexibility Score: inf
ROOT
ATOM      1  C   UNL A   1      29.983  28.019  23.994  1.00  0.00     0.188 C 
ENDROOT
BRANCH   1   2
ATOM      2  O   UNL A   1      29.497  26.845  24.614  1.00  0.00    -0.376 OA
BRANCH   2   3
ATOM      3  C   UNL A   1      30.342  25.703  24.698  1.00  0.00     0.202 C 
BRANCH   3   4
ATOM      4  C   UNL A   1      30.392  24.917  26.009  1.00  0.00     0.261 C 
BRANCH   4   5
ATOM      5  O   UNL A   1      30.824  23.513  26.018  1.00  0.00    -0.463 OA
BRANCH   5   6
ATOM      6  C   UNL A   1      31.199  22.713  24.990  1.00  0.00     0.307 C 
ATOM      7  O   UNL A   1      31.067  23.088  23.829  1.00  0.00    -0.252 OA
BRANCH   6   8
ATOM      8  C   UNL A   1      31.877  21.414  25.326  1.00  0.00     0.147 C 
BRANCH   8   9
ATOM      9  C   UNL A   1      33.254  21.216  24.665  1.00  0.00     0.111 C 
BRANCH   9  10
ATOM     10  N   UNL A   1      34.321  21.583  25.630  1.00  0.00    -0.203 NA
ATOM     11  H   UNL A   1      34.761  20.707  25.913  1.00  0.00     0.142 HD
BRANCH  10  12
ATOM     12  S   UNL A   1      35.569  22.623  25.232  1.00  0.00     0.241 S 
ATOM     13  O   UNL A   1      36.068  23.163  26.482  1.00  0.00    -0.207 OA
ATOM     14  O   UNL A   1      36.432  21.864  24.360  1.00  0.00    -0.207 OA
BRANCH  12  15
ATOM     15  C   UNL A   1      34.809  23.888  24.288  1.00  0.00     0.086 A 
ATOM     16  C   UNL A   1      34.541  25.115  24.897  1.00  0.00     0.026 A 
ATOM     17  C   UNL A   1      34.426  23.625  22.969  1.00  0.00     0.072 A 
ATOM     18  C   UNL A   1      33.832  26.081  24.193  1.00  0.00     0.052 A 
ATOM     19  C   UNL A   1      33.707  24.593  22.276  1.00  0.00     0.162 A 
ATOM     20  C   UNL A   1      33.394  25.810  22.897  1.00  0.00     0.161 A 
ATOM     21  O   UNL A   1      33.298  24.266  21.009  1.00  0.00    -0.486 OA
ATOM     22  O   UNL A   1      32.645  26.786  22.294  1.00  0.00    -0.486 OA
ATOM     23  C   UNL A   1      32.745  25.394  20.319  1.00  0.00     0.271 C 
ATOM     24  C   UNL A   1      31.865  26.234  21.230  1.00  0.00     0.271 C 
ENDBRANCH  12  15
ENDBRANCH  10  12
ENDBRANCH   9  10
BRANCH   9  25
ATOM     25  C   UNL A   1      33.312  19.764  24.202  1.00  0.00    -0.029 A 
ATOM     26  C   UNL A   1      34.378  18.943  24.594  1.00  0.00     0.005 A 
ATOM     27  C   UNL A   1      32.346  19.217  23.332  1.00  0.00     0.005 A 
ATOM     28  C   UNL A   1      34.465  17.621  24.145  1.00  0.00     0.000 A 
ATOM     29  C   UNL A   1      32.436  17.899  22.879  1.00  0.00     0.000 A 
ATOM     30  C   UNL A   1      33.497  17.102  23.288  1.00  0.00     0.000 A 
ENDBRANCH   9  25
ENDBRANCH   8   9
ENDBRANCH   6   8
ENDBRANCH   5   6
ENDBRANCH   4   5
ENDBRANCH   3   4
ENDBRANCH   2   3
ENDBRANCH   1   2
BRANCH   1  31
ATOM     31  C   UNL A   1      31.173  28.681  24.694  1.00  0.00     0.188 C 
BRANCH  31  32
ATOM     32  O   UNL A   1      31.053  30.046  25.060  1.00  0.00    -0.376 OA
BRANCH  32  33
ATOM     33  C   UNL A   1      31.712  30.486  26.247  1.00  0.00     0.202 C 
BRANCH  33  34
ATOM     34  C   UNL A   1      31.440  31.891  26.818  1.00  0.00     0.261 C 
BRANCH  34  35
ATOM     35  O   UNL A   1      32.493  32.860  26.630  1.00  0.00    -0.460 OA
BRANCH  35  36
ATOM     36  C   UNL A   1      33.094  33.291  27.764  1.00  0.00     0.338 C 
ATOM     37  O   UNL A   1      32.607  34.013  28.620  1.00  0.00    -0.246 OA
BRANCH  36  38
ATOM     38  C   UNL A   1      34.415  32.659  27.954  1.00  0.00     0.060 A 
ATOM     39  C   UNL A   1      34.461  31.289  28.246  1.00  0.00     0.016 A 
ATOM     40  C   UNL A   1      35.563  33.443  28.070  1.00  0.00     0.016 A 
ATOM     41  C   UNL A   1      35.639  30.711  28.723  1.00  0.00     0.010 A 
ATOM     42  C   UNL A   1      36.742  32.864  28.560  1.00  0.00     0.010 A 
ATOM     43  C   UNL A   1      36.767  31.510  28.947  1.00  0.00    -0.014 A 
BRANCH  43  44
ATOM     44  C   UNL A   1      37.876  30.981  29.784  1.00  0.00     0.031 A 
ATOM     45  C   UNL A   1      38.845  30.000  29.171  1.00  0.00     0.074 A 
ATOM     46  C   UNL A   1      38.050  31.384  31.056  1.00  0.00     0.049 A 
ATOM     47  N   UNL A   1      39.887  29.416  29.705  1.00  0.00    -0.248 NA
ATOM     48  C   UNL A   1      38.602  29.622  27.769  1.00  0.00     0.031 C 
ATOM     49  C   UNL A   1      37.201  32.338  31.764  1.00  0.00     0.029 A 
ATOM     50  N   UNL A   1      38.999  31.021  31.982  1.00  0.00    -0.354 N 
ATOM     51  C   UNL A   1      40.399  28.575  28.722  1.00  0.00     0.074 A 
ATOM     52  C   UNL A   1      39.547  28.717  27.562  1.00  0.00     0.031 C 
ATOM     53  C   UNL A   1      37.658  32.476  33.022  1.00  0.00     0.029 A 
ATOM     54  C   UNL A   1      38.813  31.600  33.214  1.00  0.00     0.049 A 
ATOM     55  H   UNL A   1      39.741  30.406  31.781  1.00  0.00     0.167 HD
ATOM     56  C   UNL A   1      41.485  27.766  28.772  1.00  0.00     0.034 A 
ATOM     57  C   UNL A   1      39.488  31.430  34.370  1.00  0.00     0.034 A 
ATOM     58  C   UNL A   1      42.348  27.640  29.915  1.00  0.00     0.049 A 
ATOM     59  C   UNL A   1      40.682  30.508  34.404  1.00  0.00     0.074 A 
ATOM     60  C   UNL A   1      43.506  26.891  30.041  1.00  0.00     0.029 A 
ATOM     61  N   UNL A   1      42.142  28.263  31.136  1.00  0.00    -0.354 N 
ATOM     62  N   UNL A   1      41.219  29.809  33.434  1.00  0.00    -0.248 NA
ATOM     63  C   UNL A   1      41.386  30.383  35.690  1.00  0.00     0.031 C 
ATOM     64  C   UNL A   1      43.972  27.023  31.352  1.00  0.00     0.029 A 
ATOM     65  C   UNL A   1      43.138  27.899  32.027  1.00  0.00     0.049 A 
ATOM     66  H   UNL A   1      41.398  28.873  31.340  1.00  0.00     0.167 HD
ATOM     67  C   UNL A   1      42.348  29.203  33.977  1.00  0.00     0.074 A 
ATOM     68  C   UNL A   1      42.425  29.629  35.358  1.00  0.00     0.031 C 
ATOM     69  C   UNL A   1      43.238  28.366  33.387  1.00  0.00     0.034 A 
BRANCH  56  70
ATOM     70  C   UNL A   1      41.803  26.942  27.549  1.00  0.00     0.023 A 
ATOM     71  C   UNL A   1      42.344  27.558  26.401  1.00  0.00     0.012 A 
ATOM     72  C   UNL A   1      41.612  25.547  27.559  1.00  0.00     0.148 A 
ATOM     73  C   UNL A   1      42.650  26.802  25.269  1.00  0.00     0.002 A 
ATOM     74  C   UNL A   1      41.969  24.794  26.446  1.00  0.00     0.091 A 
ATOM     75  F   UNL A   1      41.079  24.981  28.651  1.00  0.00    -0.205 F 
ATOM     76  C   UNL A   1      42.474  25.421  25.296  1.00  0.00     0.022 A 
BRANCH  74  77
ATOM     77  S   UNL A   1      41.860  23.002  26.414  1.00  0.00     0.127 S 
ATOM     78  O   UNL A   1      42.358  22.699  25.073  1.00  0.00    -0.237 OA
ATOM     79  O   UNL A   1      42.761  22.620  27.502  1.00  0.00    -0.237 OA
ATOM     80  O   UNL A   1      40.459  22.680  26.645  1.00  0.00    -0.744 OA
ENDBRANCH  74  77
ENDBRANCH  56  70
BRANCH  57  81
ATOM     81  C   UNL A   1      39.079  32.180  35.592  1.00  0.00     0.023 A 
ATOM     82  C   UNL A   1      39.412  33.543  35.718  1.00  0.00     0.012 A 
ATOM     83  C   UNL A   1      38.364  31.550  36.629  1.00  0.00     0.148 A 
ATOM     84  C   UNL A   1      39.076  34.255  36.869  1.00  0.00     0.002 A 
ATOM     85  C   UNL A   1      37.978  32.280  37.746  1.00  0.00     0.091 A 
ATOM     86  F   UNL A   1      38.070  30.249  36.497  1.00  0.00    -0.205 F 
ATOM     87  C   UNL A   1      38.351  33.627  37.879  1.00  0.00     0.022 A 
BRANCH  85  88
ATOM     88  S   UNL A   1      36.933  31.590  39.035  1.00  0.00     0.127 S 
ATOM     89  O   UNL A   1      37.732  31.838  40.233  1.00  0.00    -0.237 OA
ATOM     90  O   UNL A   1      35.728  32.411  38.914  1.00  0.00    -0.237 OA
ATOM     91  O   UNL A   1      36.742  30.190  38.684  1.00  0.00    -0.744 OA
ENDBRANCH  85  88
ENDBRANCH  57  81
BRANCH  69  92
ATOM     92  C   UNL A   1      44.418  27.900  34.205  1.00  0.00     0.023 A 
ATOM     93  C   UNL A   1      45.539  28.735  34.381  1.00  0.00     0.012 A 
ATOM     94  C   UNL A   1      44.388  26.645  34.847  1.00  0.00     0.148 A 
ATOM     95  C   UNL A   1      46.628  28.311  35.143  1.00  0.00     0.002 A 
ATOM     96  C   UNL A   1      45.451  26.253  35.651  1.00  0.00     0.091 A 
ATOM     97  F   UNL A   1      43.321  25.855  34.657  1.00  0.00    -0.205 F 
ATOM     98  C   UNL A   1      46.580  27.076  35.786  1.00  0.00     0.022 A 
BRANCH  96  99
ATOM     99  S   UNL A   1      45.430  24.726  36.598  1.00  0.00     0.127 S 
ATOM    100  O   UNL A   1      45.544  23.719  35.543  1.00  0.00    -0.237 OA
ATOM    101  O   UNL A   1      46.620  24.866  37.438  1.00  0.00    -0.237 OA
ATOM    102  O   UNL A   1      44.171  24.725  37.330  1.00  0.00    -0.744 OA
ENDBRANCH  96  99
ENDBRANCH  69  92
ENDBRANCH  43  44
ENDBRANCH  36  38
ENDBRANCH  35  36
ENDBRANCH  34  35
ENDBRANCH  33  34
ENDBRANCH  32  33
ENDBRANCH  31  32
ENDBRANCH   1  31
TORSDOF 25
ENDMDL
MODEL 2
REMARK VINA RESULT:     -10.7      5.821      9.269
REMARK SMILES O=C(C[C@@H](NS(=O)(=O)c1ccc2c(c1)OCCO2)c1ccccc1)OCCOCCOCCOC(=O)c1ccc(-c2c3nc(c(-c4cccc(S(=O)(=O)[O-])c4F)c4ccc([nH]4)c(-c4cccc(S(=O)(=O)[O-])c4F)c4nc(c(-c5cccc(S(=O)(=O)[O-])c5F)c5ccc2[nH]5)C=C4)C=C3)cc1
REMARK SMILES IDX 29 1 28 2 27 3 26 4 25 5 2 6 1 7 3 8 4 9 5 10 6 12 7 13 8 14
REMARK SMILES IDX 9 15 10 16 14 17 11 18 13 19 12 20 15 21 18 22 16 23 17 24
REMARK SMILES IDX 19 25 20 26 24 27 21 28 23 29 22 30 30 31 31 32 32 33 33 34
REMARK SMILES IDX 34 35 35 36 36 37 37 38 38 39 99 40 39 41 98 42 40 43 41 44
REMARK SMILES IDX 42 45 92 46 43 47 97 48 91 49 93 50 44 51 96 52 90 53 89 54
REMARK SMILES IDX 45 56 77 57 57 58 76 59 58 60 61 61 75 62 94 63 59 64 60 65
REMARK SMILES IDX 74 67 95 68 62 69 46 70 47 71 55 72 48 73 50 74 56 75 49 76
REMARK SMILES IDX 51 77 52 78 53 79 54 80 78 81 79 82 87 83 80 84 82 85 88 86
REMARK SMILES IDX 81 87 83 88 84 89 85 90 86 91 63 92 64 93 72 94 65 95 67 96
REMARK SMILES IDX 73 97 66 98 68 99 69 100 70 101 71 102
REMARK H PARENT 5 11 93 55 61 66
REMARK Flexibility Score: inf
ROOT
ATOM      1  C   UNL A   1      40.737  22.446  26.644  1.00  0.00     0.188 C 
ENDROOT
BRANCH   1   2
ATOM      2  O   UNL A   1      39.767  23.138  27.405  1.00  0.00    -0.376 OA
BRANCH   2   3
ATOM      3  C   UNL A   1      38.701  23.801  26.734  1.00  0.00     0.202 C 
BRANCH   3   4
ATOM      4  C   UNL A   1      37.763  22.980  25.849  1.00  0.00     0.261 C 
BRANCH   4   5
ATOM      5  O   UNL A   1      36.344  23.342  25.734  1.00  0.00    -0.463 OA
BRANCH   5   6
ATOM      6  C   UNL A   1      35.246  22.735  26.249  1.00  0.00     0.307 C 
ATOM      7  O   UNL A   1      34.480  23.353  26.982  1.00  0.00    -0.252 OA
BRANCH   6   8
ATOM      8  C   UNL A   1      34.949  21.331  25.804  1.00  0.00     0.147 C 
BRANCH   8   9
ATOM      9  C   UNL A   1      33.515  21.108  25.290  1.00  0.00     0.111 C 
BRANCH   9  10
ATOM     10  N   UNL A   1      33.094  22.277  24.477  1.00  0.00    -0.203 NA
ATOM     11  H   UNL A   1      33.326  22.049  23.511  1.00  0.00     0.142 HD
BRANCH  10  12
ATOM     12  S   UNL A   1      31.517  22.833  24.460  1.00  0.00     0.241 S 
ATOM     13  O   UNL A   1      30.982  22.509  23.151  1.00  0.00    -0.207 OA
ATOM     14  O   UNL A   1      30.912  22.300  25.657  1.00  0.00    -0.207 OA
BRANCH  12  15
ATOM     15  C   UNL A   1      31.656  24.570  24.642  1.00  0.00     0.086 A 
ATOM     16  C   UNL A   1      31.889  25.098  25.914  1.00  0.00     0.026 A 
ATOM     17  C   UNL A   1      31.468  25.396  23.530  1.00  0.00     0.072 A 
ATOM     18  C   UNL A   1      31.882  26.476  26.087  1.00  0.00     0.052 A 
ATOM     19  C   UNL A   1      31.452  26.774  23.715  1.00  0.00     0.162 A 
ATOM     20  C   UNL A   1      31.638  27.309  24.996  1.00  0.00     0.161 A 
ATOM     21  O   UNL A   1      31.200  27.540  22.606  1.00  0.00    -0.486 OA
ATOM     22  O   UNL A   1      31.582  28.653  25.260  1.00  0.00    -0.486 OA
ATOM     23  C   UNL A   1      31.401  28.936  22.865  1.00  0.00     0.271 C 
ATOM     24  C   UNL A   1      30.865  29.337  24.229  1.00  0.00     0.271 C 
ENDBRANCH  12  15
ENDBRANCH  10  12
ENDBRANCH   9  10
BRANCH   9  25
ATOM     25  C   UNL A   1      33.527  19.792  24.518  1.00  0.00    -0.029 A 
ATOM     26  C   UNL A   1      32.498  19.498  23.613  1.00  0.00     0.005 A 
ATOM     27  C   UNL A   1      34.523  18.814  24.722  1.00  0.00     0.005 A 
ATOM     28  C   UNL A   1      32.475  18.278  22.929  1.00  0.00     0.000 A 
ATOM     29  C   UNL A   1      34.497  17.594  24.043  1.00  0.00     0.000 A 
ATOM     30  C   UNL A   1      33.471  17.329  23.145  1.00  0.00     0.000 A 
ENDBRANCH   9  25
ENDBRANCH   8   9
ENDBRANCH   6   8
ENDBRANCH   5   6
ENDBRANCH   4   5
ENDBRANCH   3   4
ENDBRANCH   2   3
ENDBRANCH   1   2
BRANCH   1  31
ATOM     31  C   UNL A   1      40.810  20.937  26.899  1.00  0.00     0.188 C 
BRANCH  31  32
ATOM     32  O   UNL A   1      41.358  20.118  25.880  1.00  0.00    -0.376 OA
BRANCH  32  33
ATOM     33  C   UNL A   1      42.159  19.003  26.269  1.00  0.00     0.202 C 
BRANCH  33  34
ATOM     34  C   UNL A   1      43.437  18.644  25.486  1.00  0.00     0.261 C 
BRANCH  34  35
ATOM     35  O   UNL A   1      43.757  19.510  24.377  1.00  0.00    -0.460 OA
BRANCH  35  36
ATOM     36  C   UNL A   1      44.800  20.350  24.581  1.00  0.00     0.338 C 
ATOM     37  O   UNL A   1      45.948  20.195  24.194  1.00  0.00    -0.246 OA
BRANCH  36  38
ATOM     38  C   UNL A   1      44.371  21.605  25.228  1.00  0.00     0.060 A 
ATOM     39  C   UNL A   1      44.033  22.693  24.410  1.00  0.00     0.016 A 
ATOM     40  C   UNL A   1      44.521  21.779  26.604  1.00  0.00     0.016 A 
ATOM     41  C   UNL A   1      43.912  23.972  24.955  1.00  0.00     0.010 A 
ATOM     42  C   UNL A   1      44.411  23.066  27.148  1.00  0.00     0.010 A 
ATOM     43  C   UNL A   1      44.167  24.176  26.317  1.00  0.00    -0.014 A 
BRANCH  43  44
ATOM     44  C   UNL A   1      44.398  25.559  26.812  1.00  0.00     0.031 A 
ATOM     45  C   UNL A   1      45.787  26.142  26.724  1.00  0.00     0.074 A 
ATOM     46  C   UNL A   1      43.392  26.307  27.300  1.00  0.00     0.049 A 
ATOM     47  N   UNL A   1      46.219  27.323  27.082  1.00  0.00    -0.248 NA
ATOM     48  C   UNL A   1      46.832  25.271  26.158  1.00  0.00     0.031 C 
ATOM     49  C   UNL A   1      42.001  25.877  27.424  1.00  0.00     0.029 A 
ATOM     50  N   UNL A   1      43.396  27.588  27.798  1.00  0.00    -0.354 N 
ATOM     51  C   UNL A   1      47.586  27.325  26.826  1.00  0.00     0.074 A 
ATOM     52  C   UNL A   1      47.915  26.023  26.290  1.00  0.00     0.031 C 
ATOM     53  C   UNL A   1      41.287  26.872  27.979  1.00  0.00     0.029 A 
ATOM     54  C   UNL A   1      42.173  27.998  28.273  1.00  0.00     0.049 A 
ATOM     55  H   UNL A   1      44.198  28.158  27.812  1.00  0.00     0.167 HD
ATOM     56  C   UNL A   1      48.488  28.320  27.008  1.00  0.00     0.034 A 
ATOM     57  C   UNL A   1      41.814  29.142  28.889  1.00  0.00     0.034 A 
ATOM     58  C   UNL A   1      48.160  29.625  27.519  1.00  0.00     0.049 A 
ATOM     59  C   UNL A   1      42.841  30.228  29.097  1.00  0.00     0.074 A 
ATOM     60  C   UNL A   1      48.993  30.718  27.683  1.00  0.00     0.029 A 
ATOM     61  N   UNL A   1      46.905  30.009  27.964  1.00  0.00    -0.354 N 
ATOM     62  N   UNL A   1      44.103  30.254  28.746  1.00  0.00    -0.248 NA
ATOM     63  C   UNL A   1      42.379  31.459  29.757  1.00  0.00     0.031 C 
ATOM     64  C   UNL A   1      48.253  31.747  28.273  1.00  0.00     0.029 A 
ATOM     65  C   UNL A   1      46.946  31.315  28.423  1.00  0.00     0.049 A 
ATOM     66  H   UNL A   1      46.104  29.438  27.956  1.00  0.00     0.167 HD
ATOM     67  C   UNL A   1      44.572  31.518  29.094  1.00  0.00     0.074 A 
ATOM     68  C   UNL A   1      43.453  32.232  29.672  1.00  0.00     0.031 C 
ATOM     69  C   UNL A   1      45.817  32.038  28.952  1.00  0.00     0.034 A 
BRANCH  56  70
ATOM     70  C   UNL A   1      49.926  28.037  26.655  1.00  0.00     0.023 A 
ATOM     71  C   UNL A   1      50.841  27.661  27.660  1.00  0.00     0.012 A 
ATOM     72  C   UNL A   1      50.357  28.094  25.315  1.00  0.00     0.148 A 
ATOM     73  C   UNL A   1      52.171  27.387  27.341  1.00  0.00     0.002 A 
ATOM     74  C   UNL A   1      51.671  27.769  25.000  1.00  0.00     0.091 A 
ATOM     75  F   UNL A   1      49.479  28.472  24.377  1.00  0.00    -0.205 F 
ATOM     76  C   UNL A   1      52.583  27.429  26.011  1.00  0.00     0.022 A 
BRANCH  74  77
ATOM     77  S   UNL A   1      52.274  27.712  23.308  1.00  0.00     0.127 S 
ATOM     78  O   UNL A   1      52.199  29.120  22.921  1.00  0.00    -0.237 OA
ATOM     79  O   UNL A   1      53.632  27.198  23.485  1.00  0.00    -0.237 OA
ATOM     80  O   UNL A   1      51.375  26.819  22.590  1.00  0.00    -0.744 OA
ENDBRANCH  74  77
ENDBRANCH  56  70
BRANCH  57  81
ATOM     81  C   UNL A   1      40.402  29.346  29.324  1.00  0.00     0.023 A 
ATOM     82  C   UNL A   1      39.449  29.817  28.399  1.00  0.00     0.012 A 
ATOM     83  C   UNL A   1      40.001  29.079  30.646  1.00  0.00     0.148 A 
ATOM     84  C   UNL A   1      38.132  30.054  28.793  1.00  0.00     0.002 A 
ATOM     85  C   UNL A   1      38.674  29.258  31.017  1.00  0.00     0.091 A 
ATOM     86  F   UNL A   1      40.925  28.647  31.515  1.00  0.00    -0.205 F 
ATOM     87  C   UNL A   1      37.741  29.766  30.098  1.00  0.00     0.022 A 
BRANCH  85  88
ATOM     88  S   UNL A   1      38.053  28.792  32.637  1.00  0.00     0.127 S 
ATOM     89  O   UNL A   1      36.667  29.248  32.570  1.00  0.00    -0.237 OA
ATOM     90  O   UNL A   1      38.228  27.339  32.618  1.00  0.00    -0.237 OA
ATOM     91  O   UNL A   1      38.898  29.484  33.600  1.00  0.00    -0.744 OA
ENDBRANCH  85  88
ENDBRANCH  57  81
BRANCH  69  92
ATOM     92  C   UNL A   1      46.033  33.473  29.365  1.00  0.00     0.023 A 
ATOM     93  C   UNL A   1      46.530  33.780  30.648  1.00  0.00     0.012 A 
ATOM     94  C   UNL A   1      45.793  34.522  28.453  1.00  0.00     0.148 A 
ATOM     95  C   UNL A   1      46.740  35.105  31.031  1.00  0.00     0.002 A 
ATOM     96  C   UNL A   1      46.057  35.835  28.821  1.00  0.00     0.091 A 
ATOM     97  F   UNL A   1      45.305  34.216  27.242  1.00  0.00    -0.205 F 
ATOM     98  C   UNL A   1      46.513  36.131  30.115  1.00  0.00     0.022 A 
BRANCH  96  99
ATOM     99  S   UNL A   1      45.893  37.208  27.674  1.00  0.00     0.127 S 
ATOM    100  O   UNL A   1      46.360  38.332  28.485  1.00  0.00    -0.237 OA
ATOM    101  O   UNL A   1      46.799  36.818  26.593  1.00  0.00    -0.237 OA
ATOM    102  O   UNL A   1      44.487  37.250  27.297  1.00  0.00    -0.744 OA
ENDBRANCH  96  99
ENDBRANCH  69  92
ENDBRANCH  43  44
ENDBRANCH  36  38
ENDBRANCH  35  36
ENDBRANCH  34  35
ENDBRANCH  33  34
ENDBRANCH  32  33
ENDBRANCH  31  32
ENDBRANCH   1  31
TORSDOF 25
ENDMDL
MODEL 3
REMARK VINA RESULT:     -10.6      2.434      7.879
REMARK SMILES O=C(C[C@@H](NS(=O)(=O)c1ccc2c(c1)OCCO2)c1ccccc1)OCCOCCOCCOC(=O)c1ccc(-c2c3nc(c(-c4cccc(S(=O)(=O)[O-])c4F)c4ccc([nH]4)c(-c4cccc(S(=O)(=O)[O-])c4F)c4nc(c(-c5cccc(S(=O)(=O)[O-])c5F)c5ccc2[nH]5)C=C4)C=C3)cc1
REMARK SMILES IDX 29 1 28 2 27 3 26 4 25 5 2 6 1 7 3 8 4 9 5 10 6 12 7 13 8 14
REMARK SMILES IDX 9 15 10 16 14 17 11 18 13 19 12 20 15 21 18 22 16 23 17 24
REMARK SMILES IDX 19 25 20 26 24 27 21 28 23 29 22 30 30 31 31 32 32 33 33 34
REMARK SMILES IDX 34 35 35 36 36 37 37 38 38 39 99 40 39 41 98 42 40 43 41 44
REMARK SMILES IDX 42 45 92 46 43 47 97 48 91 49 93 50 44 51 96 52 90 53 89 54
REMARK SMILES IDX 45 56 77 57 57 58 76 59 58 60 61 61 75 62 94 63 59 64 60 65
REMARK SMILES IDX 74 67 95 68 62 69 46 70 47 71 55 72 48 73 50 74 56 75 49 76
REMARK SMILES IDX 51 77 52 78 53 79 54 80 78 81 79 82 87 83 80 84 82 85 88 86
REMARK SMILES IDX 81 87 83 88 84 89 85 90 86 91 63 92 64 93 72 94 65 95 67 96
REMARK SMILES IDX 73 97 66 98 68 99 69 100 70 101 71 102
REMARK H PARENT 5 11 93 55 61 66
REMARK Flexibility Score: inf
ROOT
ATOM      1  C   UNL A   1      30.389  27.508  23.520  1.00  0.00     0.188 C 
ENDROOT
BRANCH   1   2
ATOM      2  O   UNL A   1      29.869  26.227  23.812  1.00  0.00    -0.376 OA
BRANCH   2   3
ATOM      3  C   UNL A   1      30.726  25.093  23.729  1.00  0.00     0.202 C 
BRANCH   3   4
ATOM      4  C   UNL A   1      31.271  24.485  25.022  1.00  0.00     0.261 C 
BRANCH   4   5
ATOM      5  O   UNL A   1      31.250  23.030  25.225  1.00  0.00    -0.463 OA
BRANCH   5   6
ATOM      6  C   UNL A   1      31.779  22.038  24.467  1.00  0.00     0.307 C 
ATOM      7  O   UNL A   1      31.920  22.188  23.257  1.00  0.00    -0.252 OA
BRANCH   6   8
ATOM      8  C   UNL A   1      32.283  20.811  25.173  1.00  0.00     0.147 C 
BRANCH   8   9
ATOM      9  C   UNL A   1      33.621  20.264  24.640  1.00  0.00     0.111 C 
BRANCH   9  10
ATOM     10  N   UNL A   1      34.740  20.864  25.409  1.00  0.00    -0.203 NA
ATOM     11  H   UNL A   1      35.538  20.241  25.281  1.00  0.00     0.142 HD
BRANCH  10  12
ATOM     12  S   UNL A   1      35.305  22.410  25.108  1.00  0.00     0.241 S 
ATOM     13  O   UNL A   1      35.271  22.586  23.669  1.00  0.00    -0.207 OA
ATOM     14  O   UNL A   1      34.536  23.270  25.975  1.00  0.00    -0.207 OA
BRANCH  12  15
ATOM     15  C   UNL A   1      36.961  22.396  25.677  1.00  0.00     0.086 A 
ATOM     16  C   UNL A   1      37.530  23.590  26.125  1.00  0.00     0.026 A 
ATOM     17  C   UNL A   1      37.701  21.212  25.611  1.00  0.00     0.072 A 
ATOM     18  C   UNL A   1      38.877  23.613  26.466  1.00  0.00     0.052 A 
ATOM     19  C   UNL A   1      39.051  21.247  25.942  1.00  0.00     0.162 A 
ATOM     20  C   UNL A   1      39.640  22.452  26.349  1.00  0.00     0.161 A 
ATOM     21  O   UNL A   1      39.750  20.076  25.801  1.00  0.00    -0.486 OA
ATOM     22  O   UNL A   1      40.974  22.571  26.640  1.00  0.00    -0.486 OA
ATOM     23  C   UNL A   1      41.070  20.172  26.353  1.00  0.00     0.271 C 
ATOM     24  C   UNL A   1      41.716  21.510  26.034  1.00  0.00     0.271 C 
ENDBRANCH  12  15
ENDBRANCH  10  12
ENDBRANCH   9  10
BRANCH   9  25
ATOM     25  C   UNL A   1      33.544  18.744  24.745  1.00  0.00    -0.029 A 
ATOM     26  C   UNL A   1      34.247  17.941  23.836  1.00  0.00     0.005 A 
ATOM     27  C   UNL A   1      32.735  18.100  25.703  1.00  0.00     0.005 A 
ATOM     28  C   UNL A   1      34.155  16.547  23.896  1.00  0.00     0.000 A 
ATOM     29  C   UNL A   1      32.639  16.708  25.759  1.00  0.00     0.000 A 
ATOM     30  C   UNL A   1      33.351  15.932  24.853  1.00  0.00     0.000 A 
ENDBRANCH   9  25
ENDBRANCH   8   9
ENDBRANCH   6   8
ENDBRANCH   5   6
ENDBRANCH   4   5
ENDBRANCH   3   4
ENDBRANCH   2   3
ENDBRANCH   1   2
BRANCH   1  31
ATOM     31  C   UNL A   1      31.521  27.977  24.438  1.00  0.00     0.188 C 
BRANCH  31  32
ATOM     32  O   UNL A   1      31.260  29.061  25.313  1.00  0.00    -0.376 OA
BRANCH  32  33
ATOM     33  C   UNL A   1      32.156  29.279  26.403  1.00  0.00     0.202 C 
BRANCH  33  34
ATOM     34  C   UNL A   1      32.259  30.666  27.067  1.00  0.00     0.261 C 
BRANCH  34  35
ATOM     35  O   UNL A   1      33.513  31.358  26.885  1.00  0.00    -0.460 OA
BRANCH  35  36
ATOM     36  C   UNL A   1      34.057  31.876  28.012  1.00  0.00     0.338 C 
ATOM     37  O   UNL A   1      33.498  32.585  28.834  1.00  0.00    -0.246 OA
BRANCH  36  38
ATOM     38  C   UNL A   1      35.422  31.363  28.243  1.00  0.00     0.060 A 
ATOM     39  C   UNL A   1      35.575  30.013  28.591  1.00  0.00     0.016 A 
ATOM     40  C   UNL A   1      36.500  32.242  28.343  1.00  0.00     0.016 A 
ATOM     41  C   UNL A   1      36.788  29.553  29.105  1.00  0.00     0.010 A 
ATOM     42  C   UNL A   1      37.714  31.781  28.871  1.00  0.00     0.010 A 
ATOM     43  C   UNL A   1      37.844  30.450  29.312  1.00  0.00    -0.014 A 
BRANCH  43  44
ATOM     44  C   UNL A   1      38.978  30.046  30.183  1.00  0.00     0.031 A 
ATOM     45  C   UNL A   1      39.059  30.610  31.580  1.00  0.00     0.074 A 
ATOM     46  C   UNL A   1      39.907  29.168  29.764  1.00  0.00     0.049 A 
ATOM     47  N   UNL A   1      39.948  30.394  32.515  1.00  0.00    -0.248 NA
ATOM     48  C   UNL A   1      37.995  31.549  31.975  1.00  0.00     0.031 C 
ATOM     49  C   UNL A   1      39.939  28.534  28.449  1.00  0.00     0.029 A 
ATOM     50  N   UNL A   1      41.016  28.671  30.407  1.00  0.00    -0.354 N 
ATOM     51  C   UNL A   1      39.576  31.196  33.589  1.00  0.00     0.074 A 
ATOM     52  C   UNL A   1      38.386  31.912  33.187  1.00  0.00     0.031 C 
ATOM     53  C   UNL A   1      41.024  27.742  28.375  1.00  0.00     0.029 A 
ATOM     54  C   UNL A   1      41.775  27.834  29.626  1.00  0.00     0.049 A 
ATOM     55  H   UNL A   1      41.243  28.894  31.339  1.00  0.00     0.167 HD
ATOM     56  C   UNL A   1      40.163  31.321  34.805  1.00  0.00     0.034 A 
ATOM     57  C   UNL A   1      42.951  27.225  29.885  1.00  0.00     0.034 A 
ATOM     58  C   UNL A   1      41.334  30.593  35.216  1.00  0.00     0.049 A 
ATOM     59  C   UNL A   1      43.593  27.395  31.239  1.00  0.00     0.074 A 
ATOM     60  C   UNL A   1      41.966  30.608  36.448  1.00  0.00     0.029 A 
ATOM     61  N   UNL A   1      42.059  29.734  34.405  1.00  0.00    -0.354 N 
ATOM     62  N   UNL A   1      43.168  28.068  32.280  1.00  0.00    -0.248 NA
ATOM     63  C   UNL A   1      44.864  26.688  31.463  1.00  0.00     0.031 C 
ATOM     64  C   UNL A   1      43.101  29.795  36.366  1.00  0.00     0.029 A 
ATOM     65  C   UNL A   1      43.144  29.229  35.102  1.00  0.00     0.049 A 
ATOM     66  H   UNL A   1      41.836  29.516  33.472  1.00  0.00     0.167 HD
ATOM     67  C   UNL A   1      44.089  27.825  33.296  1.00  0.00     0.074 A 
ATOM     68  C   UNL A   1      45.087  26.932  32.747  1.00  0.00     0.031 C 
ATOM     69  C   UNL A   1      44.108  28.302  34.566  1.00  0.00     0.034 A 
BRANCH  56  70
ATOM     70  C   UNL A   1      39.549  32.289  35.784  1.00  0.00     0.023 A 
ATOM     71  C   UNL A   1      38.487  31.878  36.616  1.00  0.00     0.012 A 
ATOM     72  C   UNL A   1      40.062  33.595  35.914  1.00  0.00     0.148 A 
ATOM     73  C   UNL A   1      37.920  32.764  37.532  1.00  0.00     0.002 A 
ATOM     74  C   UNL A   1      39.526  34.454  36.866  1.00  0.00     0.091 A 
ATOM     75  F   UNL A   1      41.058  33.975  35.103  1.00  0.00    -0.205 F 
ATOM     76  C   UNL A   1      38.446  34.046  37.665  1.00  0.00     0.022 A 
BRANCH  74  77
ATOM     77  S   UNL A   1      40.189  36.095  37.171  1.00  0.00     0.127 S 
ATOM     78  O   UNL A   1      40.294  36.629  35.813  1.00  0.00    -0.237 OA
ATOM     79  O   UNL A   1      39.139  36.704  37.987  1.00  0.00    -0.237 OA
ATOM     80  O   UNL A   1      41.456  35.895  37.861  1.00  0.00    -0.744 OA
ENDBRANCH  74  77
ENDBRANCH  56  70
BRANCH  57  81
ATOM     81  C   UNL A   1      43.587  26.358  28.851  1.00  0.00     0.023 A 
ATOM     82  C   UNL A   1      43.357  24.969  28.869  1.00  0.00     0.012 A 
ATOM     83  C   UNL A   1      44.419  26.904  27.855  1.00  0.00     0.148 A 
ATOM     84  C   UNL A   1      43.974  24.134  27.937  1.00  0.00     0.002 A 
ATOM     85  C   UNL A   1      44.982  26.074  26.892  1.00  0.00     0.091 A 
ATOM     86  F   UNL A   1      44.639  28.226  27.865  1.00  0.00    -0.205 F 
ATOM     87  C   UNL A   1      44.779  24.686  26.944  1.00  0.00     0.022 A 
BRANCH  85  88
ATOM     88  S   UNL A   1      45.924  26.711  25.502  1.00  0.00     0.127 S 
ATOM     89  O   UNL A   1      45.027  27.736  24.975  1.00  0.00    -0.237 OA
ATOM     90  O   UNL A   1      47.126  27.219  26.163  1.00  0.00    -0.237 OA
ATOM     91  O   UNL A   1      46.159  25.570  24.626  1.00  0.00    -0.744 OA
ENDBRANCH  85  88
ENDBRANCH  57  81
BRANCH  69  92
ATOM     92  C   UNL A   1      45.205  27.821  35.484  1.00  0.00     0.023 A 
ATOM     93  C   UNL A   1      46.404  28.550  35.607  1.00  0.00     0.012 A 
ATOM     94  C   UNL A   1      45.020  26.665  36.271  1.00  0.00     0.148 A 
ATOM     95  C   UNL A   1      47.418  28.113  36.461  1.00  0.00     0.002 A 
ATOM     96  C   UNL A   1      46.011  26.267  37.160  1.00  0.00     0.091 A 
ATOM     97  F   UNL A   1      43.881  25.972  36.130  1.00  0.00    -0.205 F 
ATOM     98  C   UNL A   1      47.217  26.979  37.244  1.00  0.00     0.022 A 
BRANCH  96  99
ATOM     99  S   UNL A   1      45.796  24.880  38.282  1.00  0.00     0.127 S 
ATOM    100  O   UNL A   1      44.940  23.991  37.497  1.00  0.00    -0.237 OA
ATOM    101  O   UNL A   1      47.170  24.406  38.455  1.00  0.00    -0.237 OA
ATOM    102  O   UNL A   1      45.190  25.428  39.487  1.00  0.00    -0.744 OA
ENDBRANCH  96  99
ENDBRANCH  69  92
ENDBRANCH  43  44
ENDBRANCH  36  38
ENDBRANCH  35  36
ENDBRANCH  34  35
ENDBRANCH  33  34
ENDBRANCH  32  33
ENDBRANCH  31  32
ENDBRANCH   1  31
TORSDOF 25
ENDMDL
