MODEL 1
REMARK VINA RESULT:     -10.6      0.000      0.000
REMARK SMILES CC1(C)[C@H](C(=O)N(Cc2ccccc2)Cc2ccccc2)CC[C@@]1(C)C(=O)OCCOCCOCCOC(=O)c1ccc(-c2c3nc(c(-c4cccc(S(=O)(=O)[O-])c4F)c4ccc([nH]4)c(-c4cccc(S(=O)(=O)[O-])c4F)c4nc(c(-c5cccc(S(=O)(=O)[O-])c5F)c5ccc2[nH]5)C=C4)C=C3)cc1
REMARK SMILES IDX 32 1 31 2 30 3 29 4 28 5 26 6 27 7 24 8 1 9 2 10 3 11 4 12
REMARK SMILES IDX 22 13 23 14 25 15 5 16 6 17 7 18 8 19 9 20 10 21 14 22 11 23
REMARK SMILES IDX 13 24 12 25 15 26 16 27 17 28 21 29 18 30 20 31 19 32 33 33
REMARK SMILES IDX 34 34 35 35 36 36 37 37 38 38 39 39 40 40 41 41 102 42 42 43
REMARK SMILES IDX 101 44 43 45 44 46 45 47 95 48 46 49 100 50 94 51 96 52
REMARK SMILES IDX 47 53 99 54 93 55 92 56 48 58 80 59 60 60 79 61 61 62 64 63
REMARK SMILES IDX 78 64 97 65 62 66 63 67 77 69 98 70 65 71 49 72 50 73 58 74
REMARK SMILES IDX 51 75 53 76 59 77 52 78 54 79 55 80 56 81 57 82 81 83 82 84
REMARK SMILES IDX 90 85 83 86 85 87 91 88 84 89 86 90 87 91 88 92 89 93 66 94
REMARK SMILES IDX 67 95 75 96 68 97 70 98 76 99 69 100 71 101 72 102 73 103
REMARK SMILES IDX 74 104
REMARK H PARENT 96 57 64 68
REMARK Flexibility Score: inf
ROOT
ATOM      1  C   UNL A   1      35.172  32.083  29.060  1.00  0.00     0.188 C 
ENDROOT
BRANCH   1   2
ATOM      2  O   UNL A   1      35.151  30.863  28.328  1.00  0.00    -0.376 OA
BRANCH   2   3
ATOM      3  C   UNL A   1      33.999  30.625  27.529  1.00  0.00     0.202 C 
BRANCH   3   4
ATOM      4  C   UNL A   1      34.140  29.653  26.341  1.00  0.00     0.261 C 
BRANCH   4   5
ATOM      5  O   UNL A   1      33.095  29.725  25.344  1.00  0.00    -0.463 OA
BRANCH   5   6
ATOM      6  C   UNL A   1      33.018  28.672  24.489  1.00  0.00     0.312 C 
ATOM      7  O   UNL A   1      33.999  28.220  23.904  1.00  0.00    -0.252 OA
BRANCH   6   8
ATOM      8  C   UNL A   1      31.628  27.977  24.406  1.00  0.00     0.071 C 
ATOM      9  C   UNL A   1      32.100  26.852  22.035  1.00  0.00     0.013 C 
ATOM     10  C   UNL A   1      31.359  26.794  23.380  1.00  0.00    -0.008 C 
ATOM     11  C   UNL A   1      29.875  26.760  22.997  1.00  0.00     0.013 C 
ATOM     12  C   UNL A   1      31.828  25.534  24.158  1.00  0.00     0.085 C 
ATOM     13  C   UNL A   1      31.533  25.775  25.628  1.00  0.00     0.015 C 
ATOM     14  C   UNL A   1      31.392  27.285  25.795  1.00  0.00     0.020 C 
ATOM     15  C   UNL A   1      30.611  29.142  24.280  1.00  0.00     0.024 C 
BRANCH  12  16
ATOM     16  C   UNL A   1      31.599  24.085  23.646  1.00  0.00     0.226 C 
ATOM     17  O   UNL A   1      30.422  23.692  23.711  1.00  0.00    -0.275 OA
ATOM     18  N   UNL A   1      32.565  23.247  23.091  1.00  0.00    -0.334 N 
BRANCH  18  19
ATOM     19  C   UNL A   1      33.895  23.650  22.621  1.00  0.00     0.155 C 
BRANCH  19  20
ATOM     20  C   UNL A   1      35.079  23.530  23.565  1.00  0.00    -0.029 A 
ATOM     21  C   UNL A   1      36.134  22.626  23.382  1.00  0.00     0.005 A 
ATOM     22  C   UNL A   1      35.041  24.247  24.775  1.00  0.00     0.005 A 
ATOM     23  C   UNL A   1      37.105  22.425  24.367  1.00  0.00     0.000 A 
ATOM     24  C   UNL A   1      36.012  24.050  25.762  1.00  0.00     0.000 A 
ATOM     25  C   UNL A   1      37.039  23.133  25.562  1.00  0.00     0.000 A 
ENDBRANCH  19  20
ENDBRANCH  18  19
BRANCH  18  26
ATOM     26  C   UNL A   1      32.104  21.924  22.614  1.00  0.00     0.155 C 
BRANCH  26  27
ATOM     27  C   UNL A   1      32.440  20.762  23.525  1.00  0.00    -0.029 A 
ATOM     28  C   UNL A   1      32.270  19.437  23.099  1.00  0.00     0.005 A 
ATOM     29  C   UNL A   1      32.920  20.984  24.826  1.00  0.00     0.005 A 
ATOM     30  C   UNL A   1      32.511  18.368  23.963  1.00  0.00     0.000 A 
ATOM     31  C   UNL A   1      33.144  19.916  25.697  1.00  0.00     0.000 A 
ATOM     32  C   UNL A   1      32.931  18.608  25.268  1.00  0.00     0.000 A 
ENDBRANCH  26  27
ENDBRANCH  18  26
ENDBRANCH  12  16
ENDBRANCH   6   8
ENDBRANCH   5   6
ENDBRANCH   4   5
ENDBRANCH   3   4
ENDBRANCH   2   3
ENDBRANCH   1   2
BRANCH   1  33
ATOM     33  C   UNL A   1      34.237  33.199  28.585  1.00  0.00     0.188 C 
BRANCH  33  34
ATOM     34  O   UNL A   1      34.157  34.311  29.476  1.00  0.00    -0.376 OA
BRANCH  34  35
ATOM     35  C   UNL A   1      33.356  35.417  29.055  1.00  0.00     0.202 C 
BRANCH  35  36
ATOM     36  C   UNL A   1      32.609  36.176  30.162  1.00  0.00     0.261 C 
BRANCH  36  37
ATOM     37  O   UNL A   1      32.410  35.397  31.357  1.00  0.00    -0.460 OA
BRANCH  37  38
ATOM     38  C   UNL A   1      32.941  35.883  32.505  1.00  0.00     0.338 C 
ATOM     39  O   UNL A   1      32.407  36.654  33.284  1.00  0.00    -0.246 OA
BRANCH  38  40
ATOM     40  C   UNL A   1      34.187  35.126  32.788  1.00  0.00     0.060 A 
ATOM     41  C   UNL A   1      34.082  33.856  33.372  1.00  0.00     0.016 A 
ATOM     42  C   UNL A   1      35.439  35.619  32.406  1.00  0.00     0.016 A 
ATOM     43  C   UNL A   1      35.232  33.100  33.615  1.00  0.00     0.010 A 
ATOM     44  C   UNL A   1      36.587  34.862  32.646  1.00  0.00     0.010 A 
ATOM     45  C   UNL A   1      36.493  33.615  33.285  1.00  0.00    -0.014 A 
BRANCH  45  46
ATOM     46  C   UNL A   1      37.729  32.943  33.760  1.00  0.00     0.031 A 
ATOM     47  C   UNL A   1      38.248  31.767  32.978  1.00  0.00     0.074 A 
ATOM     48  C   UNL A   1      38.364  33.341  34.877  1.00  0.00     0.049 A 
ATOM     49  N   UNL A   1      39.291  31.015  33.208  1.00  0.00    -0.248 NA
ATOM     50  C   UNL A   1      37.482  31.384  31.779  1.00  0.00     0.031 C 
ATOM     51  C   UNL A   1      37.957  34.448  35.739  1.00  0.00     0.029 A 
ATOM     52  N   UNL A   1      39.482  32.828  35.492  1.00  0.00    -0.354 N 
ATOM     53  C   UNL A   1      39.297  30.061  32.199  1.00  0.00     0.074 A 
ATOM     54  C   UNL A   1      38.143  30.313  31.366  1.00  0.00     0.031 C 
ATOM     55  C   UNL A   1      38.799  34.516  36.787  1.00  0.00     0.029 A 
ATOM     56  C   UNL A   1      39.794  33.449  36.678  1.00  0.00     0.049 A 
ATOM     57  H   UNL A   1      40.009  32.086  35.118  1.00  0.00     0.167 HD
ATOM     58  C   UNL A   1      40.194  29.073  31.969  1.00  0.00     0.034 A 
ATOM     59  C   UNL A   1      40.761  33.177  37.578  1.00  0.00     0.034 A 
ATOM     60  C   UNL A   1      41.352  28.824  32.781  1.00  0.00     0.049 A 
ATOM     61  C   UNL A   1      41.735  32.055  37.309  1.00  0.00     0.074 A 
ATOM     62  C   UNL A   1      42.348  27.883  32.589  1.00  0.00     0.029 A 
ATOM     63  N   UNL A   1      41.663  29.506  33.947  1.00  0.00    -0.354 N 
ATOM     64  N   UNL A   1      41.817  31.261  36.270  1.00  0.00    -0.248 NA
ATOM     65  C   UNL A   1      42.773  31.815  38.326  1.00  0.00     0.031 C 
ATOM     66  C   UNL A   1      43.249  27.979  33.655  1.00  0.00     0.029 A 
ATOM     67  C   UNL A   1      42.828  28.997  34.494  1.00  0.00     0.049 A 
ATOM     68  H   UNL A   1      41.134  30.243  34.327  1.00  0.00     0.167 HD
ATOM     69  C   UNL A   1      42.934  30.458  36.488  1.00  0.00     0.074 A 
ATOM     70  C   UNL A   1      43.507  30.872  37.751  1.00  0.00     0.031 C 
ATOM     71  C   UNL A   1      43.429  29.457  35.719  1.00  0.00     0.034 A 
BRANCH  58  72
ATOM     72  C   UNL A   1      39.975  28.206  30.760  1.00  0.00     0.023 A 
ATOM     73  C   UNL A   1      39.064  27.133  30.834  1.00  0.00     0.012 A 
ATOM     74  C   UNL A   1      40.625  28.482  29.543  1.00  0.00     0.148 A 
ATOM     75  C   UNL A   1      38.823  26.330  29.720  1.00  0.00     0.002 A 
ATOM     76  C   UNL A   1      40.348  27.704  28.426  1.00  0.00     0.091 A 
ATOM     77  F   UNL A   1      41.507  29.491  29.504  1.00  0.00    -0.205 F 
ATOM     78  C   UNL A   1      39.456  26.623  28.516  1.00  0.00     0.022 A 
BRANCH  76  79
ATOM     79  S   UNL A   1      41.055  28.046  26.811  1.00  0.00     0.127 S 
ATOM     80  O   UNL A   1      40.717  26.827  26.079  1.00  0.00    -0.237 OA
ATOM     81  O   UNL A   1      40.311  29.235  26.395  1.00  0.00    -0.237 OA
ATOM     82  O   UNL A   1      42.477  28.267  27.036  1.00  0.00    -0.744 OA
ENDBRANCH  76  79
ENDBRANCH  58  72
BRANCH  59  83
ATOM     83  C   UNL A   1      40.893  34.007  38.809  1.00  0.00     0.023 A 
ATOM     84  C   UNL A   1      41.843  35.047  38.846  1.00  0.00     0.012 A 
ATOM     85  C   UNL A   1      40.093  33.767  39.943  1.00  0.00     0.148 A 
ATOM     86  C   UNL A   1      42.016  35.811  40.000  1.00  0.00     0.002 A 
ATOM     87  C   UNL A   1      40.236  34.565  41.072  1.00  0.00     0.091 A 
ATOM     88  F   UNL A   1      39.211  32.759  39.895  1.00  0.00    -0.205 F 
ATOM     89  C   UNL A   1      41.207  35.578  41.108  1.00  0.00     0.022 A 
BRANCH  87  90
ATOM     90  S   UNL A   1      39.164  34.409  42.504  1.00  0.00     0.127 S 
ATOM     91  O   UNL A   1      40.130  34.232  43.583  1.00  0.00    -0.237 OA
ATOM     92  O   UNL A   1      38.469  35.697  42.503  1.00  0.00    -0.237 OA
ATOM     93  O   UNL A   1      38.306  33.264  42.227  1.00  0.00    -0.744 OA
ENDBRANCH  87  90
ENDBRANCH  59  83
BRANCH  71  94
ATOM     94  C   UNL A   1      44.680  28.754  36.184  1.00  0.00     0.023 A 
ATOM     95  C   UNL A   1      45.943  29.292  35.871  1.00  0.00     0.012 A 
ATOM     96  C   UNL A   1      44.598  27.618  37.014  1.00  0.00     0.148 A 
ATOM     97  C   UNL A   1      47.107  28.694  36.355  1.00  0.00     0.002 A 
ATOM     98  C   UNL A   1      45.761  27.055  37.532  1.00  0.00     0.091 A 
ATOM     99  F   UNL A   1      43.388  27.111  37.290  1.00  0.00    -0.205 F 
ATOM    100  C   UNL A   1      47.016  27.586  37.194  1.00  0.00     0.022 A 
BRANCH  98 101
ATOM    101  S   UNL A   1      45.734  25.688  38.697  1.00  0.00     0.127 S 
ATOM    102  O   UNL A   1      47.070  25.773  39.285  1.00  0.00    -0.237 OA
ATOM    103  O   UNL A   1      44.646  26.069  39.598  1.00  0.00    -0.237 OA
ATOM    104  O   UNL A   1      45.474  24.492  37.907  1.00  0.00    -0.744 OA
ENDBRANCH  98 101
ENDBRANCH  71  94
ENDBRANCH  45  46
ENDBRANCH  38  40
ENDBRANCH  37  38
ENDBRANCH  36  37
ENDBRANCH  35  36
ENDBRANCH  34  35
ENDBRANCH  33  34
ENDBRANCH   1  33
TORSDOF 25
ENDMDL
MODEL 2
REMARK VINA RESULT:     -10.5      1.291      7.437
REMARK SMILES CC1(C)[C@H](C(=O)N(Cc2ccccc2)Cc2ccccc2)CC[C@@]1(C)C(=O)OCCOCCOCCOC(=O)c1ccc(-c2c3nc(c(-c4cccc(S(=O)(=O)[O-])c4F)c4ccc([nH]4)c(-c4cccc(S(=O)(=O)[O-])c4F)c4nc(c(-c5cccc(S(=O)(=O)[O-])c5F)c5ccc2[nH]5)C=C4)C=C3)cc1
REMARK SMILES IDX 32 1 31 2 30 3 29 4 28 5 26 6 27 7 24 8 1 9 2 10 3 11 4 12
REMARK SMILES IDX 22 13 23 14 25 15 5 16 6 17 7 18 8 19 9 20 10 21 14 22 11 23
REMARK SMILES IDX 13 24 12 25 15 26 16 27 17 28 21 29 18 30 20 31 19 32 33 33
REMARK SMILES IDX 34 34 35 35 36 36 37 37 38 38 39 39 40 40 41 41 102 42 42 43
REMARK SMILES IDX 101 44 43 45 44 46 45 47 95 48 46 49 100 50 94 51 96 52
REMARK SMILES IDX 47 53 99 54 93 55 92 56 48 58 80 59 60 60 79 61 61 62 64 63
REMARK SMILES IDX 78 64 97 65 62 66 63 67 77 69 98 70 65 71 49 72 50 73 58 74
REMARK SMILES IDX 51 75 53 76 59 77 52 78 54 79 55 80 56 81 57 82 81 83 82 84
REMARK SMILES IDX 90 85 83 86 85 87 91 88 84 89 86 90 87 91 88 92 89 93 66 94
REMARK SMILES IDX 67 95 75 96 68 97 70 98 76 99 69 100 71 101 72 102 73 103
REMARK SMILES IDX 74 104
REMARK H PARENT 96 57 64 68
REMARK Flexibility Score: inf
ROOT
ATOM      1  C   UNL A   1      34.834  30.460  28.115  1.00  0.00     0.188 C 
ENDROOT
BRANCH   1   2
ATOM      2  O   UNL A   1      35.034  29.437  27.147  1.00  0.00    -0.376 OA
BRANCH   2   3
ATOM      3  C   UNL A   1      33.882  29.015  26.427  1.00  0.00     0.202 C 
BRANCH   3   4
ATOM      4  C   UNL A   1      34.049  28.704  24.927  1.00  0.00     0.261 C 
BRANCH   4   5
ATOM      5  O   UNL A   1      32.865  28.226  24.249  1.00  0.00    -0.463 OA
BRANCH   5   6
ATOM      6  C   UNL A   1      32.953  26.983  23.708  1.00  0.00     0.312 C 
ATOM      7  O   UNL A   1      33.977  26.563  23.174  1.00  0.00    -0.252 OA
BRANCH   6   8
ATOM      8  C   UNL A   1      31.717  26.065  23.932  1.00  0.00     0.071 C 
ATOM      9  C   UNL A   1      32.792  23.963  22.694  1.00  0.00     0.013 C 
ATOM     10  C   UNL A   1      31.819  24.489  23.762  1.00  0.00    -0.008 C 
ATOM     11  C   UNL A   1      30.458  23.915  23.353  1.00  0.00     0.013 C 
ATOM     12  C   UNL A   1      32.301  24.010  25.159  1.00  0.00     0.085 C 
ATOM     13  C   UNL A   1      31.695  24.946  26.190  1.00  0.00     0.015 C 
ATOM     14  C   UNL A   1      31.315  26.220  25.442  1.00  0.00     0.020 C 
ATOM     15  C   UNL A   1      30.590  26.703  23.076  1.00  0.00     0.024 C 
BRANCH  12  16
ATOM     16  C   UNL A   1      32.380  22.512  25.563  1.00  0.00     0.226 C 
ATOM     17  O   UNL A   1      31.330  22.046  26.036  1.00  0.00    -0.275 OA
ATOM     18  N   UNL A   1      33.479  21.671  25.391  1.00  0.00    -0.334 N 
BRANCH  18  19
ATOM     19  C   UNL A   1      34.652  21.940  24.553  1.00  0.00     0.155 C 
BRANCH  19  20
ATOM     20  C   UNL A   1      35.966  22.310  25.220  1.00  0.00    -0.029 A 
ATOM     21  C   UNL A   1      36.262  23.594  25.700  1.00  0.00     0.005 A 
ATOM     22  C   UNL A   1      37.006  21.363  25.214  1.00  0.00     0.005 A 
ATOM     23  C   UNL A   1      37.544  23.932  26.139  1.00  0.00     0.000 A 
ATOM     24  C   UNL A   1      38.290  21.697  25.656  1.00  0.00     0.000 A 
ATOM     25  C   UNL A   1      38.561  22.984  26.110  1.00  0.00     0.000 A 
ENDBRANCH  19  20
ENDBRANCH  18  19
BRANCH  18  26
ATOM     26  C   UNL A   1      33.306  20.258  25.796  1.00  0.00     0.155 C 
BRANCH  26  27
ATOM     27  C   UNL A   1      33.340  19.257  24.660  1.00  0.00    -0.029 A 
ATOM     28  C   UNL A   1      32.378  19.290  23.641  1.00  0.00     0.005 A 
ATOM     29  C   UNL A   1      34.330  18.264  24.607  1.00  0.00     0.005 A 
ATOM     30  C   UNL A   1      32.366  18.324  22.633  1.00  0.00     0.000 A 
ATOM     31  C   UNL A   1      34.308  17.285  23.611  1.00  0.00     0.000 A 
ATOM     32  C   UNL A   1      33.321  17.311  22.628  1.00  0.00     0.000 A 
ENDBRANCH  26  27
ENDBRANCH  18  26
ENDBRANCH  12  16
ENDBRANCH   6   8
ENDBRANCH   5   6
ENDBRANCH   4   5
ENDBRANCH   3   4
ENDBRANCH   2   3
ENDBRANCH   1   2
BRANCH   1  33
ATOM     33  C   UNL A   1      34.194  31.765  27.632  1.00  0.00     0.188 C 
BRANCH  33  34
ATOM     34  O   UNL A   1      34.421  32.879  28.494  1.00  0.00    -0.376 OA
BRANCH  34  35
ATOM     35  C   UNL A   1      34.238  34.179  27.928  1.00  0.00     0.202 C 
BRANCH  35  36
ATOM     36  C   UNL A   1      33.216  35.088  28.628  1.00  0.00     0.261 C 
BRANCH  36  37
ATOM     37  O   UNL A   1      32.776  34.581  29.901  1.00  0.00    -0.460 OA
BRANCH  37  38
ATOM     38  C   UNL A   1      33.211  35.231  31.008  1.00  0.00     0.338 C 
ATOM     39  O   UNL A   1      32.638  36.134  31.593  1.00  0.00    -0.246 OA
BRANCH  38  40
ATOM     40  C   UNL A   1      34.387  34.495  31.537  1.00  0.00     0.060 A 
ATOM     41  C   UNL A   1      35.664  35.038  31.337  1.00  0.00     0.016 A 
ATOM     42  C   UNL A   1      34.234  33.328  32.294  1.00  0.00     0.016 A 
ATOM     43  C   UNL A   1      36.789  34.392  31.855  1.00  0.00     0.010 A 
ATOM     44  C   UNL A   1      35.358  32.685  32.814  1.00  0.00     0.010 A 
ATOM     45  C   UNL A   1      36.644  33.192  32.567  1.00  0.00    -0.014 A 
BRANCH  45  46
ATOM     46  C   UNL A   1      37.831  32.368  32.904  1.00  0.00     0.031 A 
ATOM     47  C   UNL A   1      38.580  32.680  34.172  1.00  0.00     0.074 A 
ATOM     48  C   UNL A   1      38.261  31.384  32.094  1.00  0.00     0.049 A 
ATOM     49  N   UNL A   1      39.650  32.112  34.662  1.00  0.00    -0.248 NA
ATOM     50  C   UNL A   1      38.055  33.785  34.991  1.00  0.00     0.031 C 
ATOM     51  C   UNL A   1      37.645  30.993  30.829  1.00  0.00     0.029 A 
ATOM     52  N   UNL A   1      39.348  30.550  32.211  1.00  0.00    -0.354 N 
ATOM     53  C   UNL A   1      39.938  32.801  35.833  1.00  0.00     0.074 A 
ATOM     54  C   UNL A   1      38.945  33.842  35.971  1.00  0.00     0.031 C 
ATOM     55  C   UNL A   1      38.377  30.011  30.272  1.00  0.00     0.029 A 
ATOM     56  C   UNL A   1      39.522  29.715  31.133  1.00  0.00     0.049 A 
ATOM     57  H   UNL A   1      39.945  30.551  32.994  1.00  0.00     0.167 HD
ATOM     58  C   UNL A   1      40.928  32.577  36.729  1.00  0.00     0.034 A 
ATOM     59  C   UNL A   1      40.501  28.826  30.867  1.00  0.00     0.034 A 
ATOM     60  C   UNL A   1      41.909  31.535  36.610  1.00  0.00     0.049 A 
ATOM     61  C   UNL A   1      41.607  28.610  31.873  1.00  0.00     0.074 A 
ATOM     62  C   UNL A   1      42.913  31.197  37.500  1.00  0.00     0.029 A 
ATOM     63  N   UNL A   1      42.024  30.676  35.529  1.00  0.00    -0.354 N 
ATOM     64  N   UNL A   1      41.776  29.164  33.048  1.00  0.00    -0.248 NA
ATOM     65  C   UNL A   1      42.639  27.619  31.526  1.00  0.00     0.031 C 
ATOM     66  C   UNL A   1      43.652  30.147  36.944  1.00  0.00     0.029 A 
ATOM     67  C   UNL A   1      43.091  29.816  35.722  1.00  0.00     0.049 A 
ATOM     68  H   UNL A   1      41.434  30.677  34.742  1.00  0.00     0.167 HD
ATOM     69  C   UNL A   1      42.906  28.563  33.597  1.00  0.00     0.074 A 
ATOM     70  C   UNL A   1      43.371  27.589  32.632  1.00  0.00     0.031 C 
ATOM     71  C   UNL A   1      43.511  28.806  34.785  1.00  0.00     0.034 A 
BRANCH  58  72
ATOM     72  C   UNL A   1      40.973  33.459  37.947  1.00  0.00     0.023 A 
ATOM     73  C   UNL A   1      41.938  34.484  38.023  1.00  0.00     0.012 A 
ATOM     74  C   UNL A   1      40.034  33.310  38.984  1.00  0.00     0.148 A 
ATOM     75  C   UNL A   1      41.984  35.332  39.128  1.00  0.00     0.002 A 
ATOM     76  C   UNL A   1      40.060  34.185  40.063  1.00  0.00     0.091 A 
ATOM     77  F   UNL A   1      39.143  32.311  38.902  1.00  0.00    -0.205 F 
ATOM     78  C   UNL A   1      41.040  35.189  40.141  1.00  0.00     0.022 A 
BRANCH  76  79
ATOM     79  S   UNL A   1      38.842  34.131  41.381  1.00  0.00     0.127 S 
ATOM     80  O   UNL A   1      38.227  35.453  41.268  1.00  0.00    -0.237 OA
ATOM     81  O   UNL A   1      37.985  33.021  40.962  1.00  0.00    -0.237 OA
ATOM     82  O   UNL A   1      39.590  33.891  42.607  1.00  0.00    -0.744 OA
ENDBRANCH  76  79
ENDBRANCH  58  72
BRANCH  59  83
ATOM     83  C   UNL A   1      40.467  28.030  29.607  1.00  0.00     0.023 A 
ATOM     84  C   UNL A   1      39.542  26.976  29.477  1.00  0.00     0.012 A 
ATOM     85  C   UNL A   1      41.350  28.305  28.544  1.00  0.00     0.148 A 
ATOM     86  C   UNL A   1      39.518  26.189  28.325  1.00  0.00     0.002 A 
ATOM     87  C   UNL A   1      41.286  27.549  27.379  1.00  0.00     0.091 A 
ATOM     88  F   UNL A   1      42.237  29.298  28.697  1.00  0.00    -0.205 F 
ATOM     89  C   UNL A   1      40.381  26.481  27.273  1.00  0.00     0.022 A 
BRANCH  87  90
ATOM     90  S   UNL A   1      42.283  27.923  25.933  1.00  0.00     0.127 S 
ATOM     91  O   UNL A   1      42.002  26.777  25.072  1.00  0.00    -0.237 OA
ATOM     92  O   UNL A   1      41.701  29.188  25.484  1.00  0.00    -0.237 OA
ATOM     93  O   UNL A   1      43.652  28.030  26.419  1.00  0.00    -0.744 OA
ENDBRANCH  87  90
ENDBRANCH  59  83
BRANCH  71  94
ATOM     94  C   UNL A   1      44.724  27.986  35.147  1.00  0.00     0.023 A 
ATOM     95  C   UNL A   1      46.013  28.495  34.899  1.00  0.00     0.012 A 
ATOM     96  C   UNL A   1      44.585  26.756  35.822  1.00  0.00     0.148 A 
ATOM     97  C   UNL A   1      47.146  27.782  35.293  1.00  0.00     0.002 A 
ATOM     98  C   UNL A   1      45.717  26.073  36.253  1.00  0.00     0.091 A 
ATOM     99  F   UNL A   1      43.350  26.280  36.036  1.00  0.00    -0.205 F 
ATOM    100  C   UNL A   1      46.998  26.580  35.980  1.00  0.00     0.022 A 
BRANCH  98 101
ATOM    101  S   UNL A   1      45.621  24.568  37.230  1.00  0.00     0.127 S 
ATOM    102  O   UNL A   1      47.031  24.197  37.344  1.00  0.00    -0.237 OA
ATOM    103  O   UNL A   1      45.013  25.042  38.473  1.00  0.00    -0.237 OA
ATOM    104  O   UNL A   1      44.792  23.646  36.466  1.00  0.00    -0.744 OA
ENDBRANCH  98 101
ENDBRANCH  71  94
ENDBRANCH  45  46
ENDBRANCH  38  40
ENDBRANCH  37  38
ENDBRANCH  36  37
ENDBRANCH  35  36
ENDBRANCH  34  35
ENDBRANCH  33  34
ENDBRANCH   1  33
TORSDOF 25
ENDMDL
MODEL 3
REMARK VINA RESULT:     -10.0      1.857      7.322
REMARK SMILES CC1(C)[C@H](C(=O)N(Cc2ccccc2)Cc2ccccc2)CC[C@@]1(C)C(=O)OCCOCCOCCOC(=O)c1ccc(-c2c3nc(c(-c4cccc(S(=O)(=O)[O-])c4F)c4ccc([nH]4)c(-c4cccc(S(=O)(=O)[O-])c4F)c4nc(c(-c5cccc(S(=O)(=O)[O-])c5F)c5ccc2[nH]5)C=C4)C=C3)cc1
REMARK SMILES IDX 32 1 31 2 30 3 29 4 28 5 26 6 27 7 24 8 1 9 2 10 3 11 4 12
REMARK SMILES IDX 22 13 23 14 25 15 5 16 6 17 7 18 8 19 9 20 10 21 14 22 11 23
REMARK SMILES IDX 13 24 12 25 15 26 16 27 17 28 21 29 18 30 20 31 19 32 33 33
REMARK SMILES IDX 34 34 35 35 36 36 37 37 38 38 39 39 40 40 41 41 102 42 42 43
REMARK SMILES IDX 101 44 43 45 44 46 45 47 95 48 46 49 100 50 94 51 96 52
REMARK SMILES IDX 47 53 99 54 93 55 92 56 48 58 80 59 60 60 79 61 61 62 64 63
REMARK SMILES IDX 78 64 97 65 62 66 63 67 77 69 98 70 65 71 49 72 50 73 58 74
REMARK SMILES IDX 51 75 53 76 59 77 52 78 54 79 55 80 56 81 57 82 81 83 82 84
REMARK SMILES IDX 90 85 83 86 85 87 91 88 84 89 86 90 87 91 88 92 89 93 66 94
REMARK SMILES IDX 67 95 75 96 68 97 70 98 76 99 69 100 71 101 72 102 73 103
REMARK SMILES IDX 74 104
REMARK H PARENT 96 57 64 68
REMARK Flexibility Score: inf
ROOT
ATOM      1  C   UNL A   1      33.910  30.136  27.607  1.00  0.00     0.188 C 
ENDROOT
BRANCH   1   2
ATOM      2  O   UNL A   1      34.152  29.448  26.386  1.00  0.00    -0.376 OA
BRANCH   2   3
ATOM      3  C   UNL A   1      33.111  29.493  25.418  1.00  0.00     0.202 C 
BRANCH   3   4
ATOM      4  C   UNL A   1      33.494  29.274  23.942  1.00  0.00     0.261 C 
BRANCH   4   5
ATOM      5  O   UNL A   1      32.757  28.242  23.247  1.00  0.00    -0.463 OA
BRANCH   5   6
ATOM      6  C   UNL A   1      32.973  26.970  23.673  1.00  0.00     0.312 C 
ATOM      7  O   UNL A   1      34.094  26.542  23.939  1.00  0.00    -0.252 OA
BRANCH   6   8
ATOM      8  C   UNL A   1      31.694  26.127  23.942  1.00  0.00     0.071 C 
ATOM      9  C   UNL A   1      32.583  23.978  22.638  1.00  0.00     0.013 C 
ATOM     10  C   UNL A   1      31.692  24.550  23.753  1.00  0.00    -0.008 C 
ATOM     11  C   UNL A   1      30.281  24.065  23.399  1.00  0.00     0.013 C 
ATOM     12  C   UNL A   1      32.203  24.025  25.123  1.00  0.00     0.085 C 
ATOM     13  C   UNL A   1      31.701  24.983  26.188  1.00  0.00     0.015 C 
ATOM     14  C   UNL A   1      31.368  26.287  25.469  1.00  0.00     0.020 C 
ATOM     15  C   UNL A   1      30.573  26.843  23.143  1.00  0.00     0.024 C 
BRANCH  12  16
ATOM     16  C   UNL A   1      32.207  22.520  25.509  1.00  0.00     0.226 C 
ATOM     17  O   UNL A   1      31.139  22.105  25.990  1.00  0.00    -0.275 OA
ATOM     18  N   UNL A   1      33.257  21.624  25.313  1.00  0.00    -0.334 N 
BRANCH  18  19
ATOM     19  C   UNL A   1      34.432  21.840  24.463  1.00  0.00     0.155 C 
BRANCH  19  20
ATOM     20  C   UNL A   1      35.767  22.157  25.116  1.00  0.00    -0.029 A 
ATOM     21  C   UNL A   1      36.079  23.395  25.695  1.00  0.00     0.005 A 
ATOM     22  C   UNL A   1      36.807  21.217  24.996  1.00  0.00     0.005 A 
ATOM     23  C   UNL A   1      37.374  23.699  26.120  1.00  0.00     0.000 A 
ATOM     24  C   UNL A   1      38.104  21.516  25.423  1.00  0.00     0.000 A 
ATOM     25  C   UNL A   1      38.390  22.760  25.977  1.00  0.00     0.000 A 
ENDBRANCH  19  20
ENDBRANCH  18  19
BRANCH  18  26
ATOM     26  C   UNL A   1      33.014  20.217  25.704  1.00  0.00     0.155 C 
BRANCH  26  27
ATOM     27  C   UNL A   1      33.217  19.201  24.600  1.00  0.00    -0.029 A 
ATOM     28  C   UNL A   1      32.339  19.137  23.508  1.00  0.00     0.005 A 
ATOM     29  C   UNL A   1      34.283  18.290  24.649  1.00  0.00     0.005 A 
ATOM     30  C   UNL A   1      32.484  18.154  22.527  1.00  0.00     0.000 A 
ATOM     31  C   UNL A   1      34.418  17.294  23.678  1.00  0.00     0.000 A 
ATOM     32  C   UNL A   1      33.513  17.222  22.622  1.00  0.00     0.000 A 
ENDBRANCH  26  27
ENDBRANCH  18  26
ENDBRANCH  12  16
ENDBRANCH   6   8
ENDBRANCH   5   6
ENDBRANCH   4   5
ENDBRANCH   3   4
ENDBRANCH   2   3
ENDBRANCH   1   2
BRANCH   1  33
ATOM     33  C   UNL A   1      33.983  31.665  27.575  1.00  0.00     0.188 C 
BRANCH  33  34
ATOM     34  O   UNL A   1      34.795  32.231  28.603  1.00  0.00    -0.376 OA
BRANCH  34  35
ATOM     35  C   UNL A   1      35.253  33.570  28.398  1.00  0.00     0.202 C 
BRANCH  35  36
ATOM     36  C   UNL A   1      34.401  34.683  29.028  1.00  0.00     0.261 C 
BRANCH  36  37
ATOM     37  O   UNL A   1      33.392  34.192  29.930  1.00  0.00    -0.460 OA
BRANCH  37  38
ATOM     38  C   UNL A   1      33.373  34.717  31.179  1.00  0.00     0.338 C 
ATOM     39  O   UNL A   1      32.449  35.316  31.702  1.00  0.00    -0.246 OA
BRANCH  38  40
ATOM     40  C   UNL A   1      34.576  34.226  31.898  1.00  0.00     0.060 A 
ATOM     41  C   UNL A   1      35.558  35.154  32.273  1.00  0.00     0.016 A 
ATOM     42  C   UNL A   1      34.699  32.885  32.276  1.00  0.00     0.016 A 
ATOM     43  C   UNL A   1      36.684  34.732  32.987  1.00  0.00     0.010 A 
ATOM     44  C   UNL A   1      35.822  32.465  32.991  1.00  0.00     0.010 A 
ATOM     45  C   UNL A   1      36.838  33.379  33.318  1.00  0.00    -0.014 A 
BRANCH  45  46
ATOM     46  C   UNL A   1      38.130  32.875  33.847  1.00  0.00     0.031 A 
ATOM     47  C   UNL A   1      38.460  33.136  35.292  1.00  0.00     0.074 A 
ATOM     48  C   UNL A   1      39.011  32.229  33.062  1.00  0.00     0.049 A 
ATOM     49  N   UNL A   1      39.530  32.810  35.968  1.00  0.00    -0.248 NA
ATOM     50  C   UNL A   1      37.451  33.867  36.076  1.00  0.00     0.031 C 
ATOM     51  C   UNL A   1      38.829  31.931  31.643  1.00  0.00     0.029 A 
ATOM     52  N   UNL A   1      40.259  31.731  33.353  1.00  0.00    -0.354 N 
ATOM     53  C   UNL A   1      39.333  33.313  37.248  1.00  0.00     0.074 A 
ATOM     54  C   UNL A   1      38.052  33.983  37.251  1.00  0.00     0.031 C 
ATOM     55  C   UNL A   1      39.936  31.324  31.179  1.00  0.00     0.029 A 
ATOM     56  C   UNL A   1      40.911  31.203  32.263  1.00  0.00     0.049 A 
ATOM     57  H   UNL A   1      40.649  31.750  34.256  1.00  0.00     0.167 HD
ATOM     58  C   UNL A   1      40.134  33.210  38.334  1.00  0.00     0.034 A 
ATOM     59  C   UNL A   1      42.156  30.697  32.153  1.00  0.00     0.034 A 
ATOM     60  C   UNL A   1      41.400  32.532  38.346  1.00  0.00     0.049 A 
ATOM     61  C   UNL A   1      43.039  30.613  33.374  1.00  0.00     0.074 A 
ATOM     62  C   UNL A   1      42.253  32.326  39.416  1.00  0.00     0.029 A 
ATOM     63  N   UNL A   1      42.006  31.966  37.236  1.00  0.00    -0.354 N 
ATOM     64  N   UNL A   1      42.775  30.954  34.612  1.00  0.00    -0.248 NA
ATOM     65  C   UNL A   1      44.383  30.042  33.187  1.00  0.00     0.031 C 
ATOM     66  C   UNL A   1      43.388  31.657  38.946  1.00  0.00     0.029 A 
ATOM     67  C   UNL A   1      43.228  31.422  37.591  1.00  0.00     0.049 A 
ATOM     68  H   UNL A   1      41.623  31.952  36.330  1.00  0.00     0.167 HD
ATOM     69  C   UNL A   1      43.899  30.603  35.355  1.00  0.00     0.074 A 
ATOM     70  C   UNL A   1      44.841  30.007  34.432  1.00  0.00     0.031 C 
ATOM     71  C   UNL A   1      44.134  30.774  36.679  1.00  0.00     0.034 A 
BRANCH  58  72
ATOM     72  C   UNL A   1      39.642  33.815  39.619  1.00  0.00     0.023 A 
ATOM     73  C   UNL A   1      38.897  33.024  40.517  1.00  0.00     0.012 A 
ATOM     74  C   UNL A   1      39.958  35.143  39.962  1.00  0.00     0.148 A 
ATOM     75  C   UNL A   1      38.452  33.553  41.727  1.00  0.00     0.002 A 
ATOM     76  C   UNL A   1      39.547  35.651  41.188  1.00  0.00     0.091 A 
ATOM     77  F   UNL A   1      40.644  35.885  39.081  1.00  0.00    -0.205 F 
ATOM     78  C   UNL A   1      38.785  34.861  42.066  1.00  0.00     0.022 A 
BRANCH  76  79
ATOM     79  S   UNL A   1      39.989  37.298  41.749  1.00  0.00     0.127 S 
ATOM     80  O   UNL A   1      39.137  38.135  40.906  1.00  0.00    -0.237 OA
ATOM     81  O   UNL A   1      39.603  37.257  43.160  1.00  0.00    -0.237 OA
ATOM     82  O   UNL A   1      41.421  37.429  41.516  1.00  0.00    -0.744 OA
ENDBRANCH  76  79
ENDBRANCH  58  72
BRANCH  59  83
ATOM     83  C   UNL A   1      42.641  30.183  30.840  1.00  0.00     0.023 A 
ATOM     84  C   UNL A   1      43.335  31.048  29.970  1.00  0.00     0.012 A 
ATOM     85  C   UNL A   1      42.410  28.851  30.444  1.00  0.00     0.148 A 
ATOM     86  C   UNL A   1      43.762  30.604  28.718  1.00  0.00     0.002 A 
ATOM     87  C   UNL A   1      42.883  28.402  29.216  1.00  0.00     0.091 A 
ATOM     88  F   UNL A   1      41.729  28.052  31.276  1.00  0.00    -0.205 F 
ATOM     89  C   UNL A   1      43.545  29.282  28.345  1.00  0.00     0.022 A 
BRANCH  87  90
ATOM     90  S   UNL A   1      42.746  26.688  28.700  1.00  0.00     0.127 S 
ATOM     91  O   UNL A   1      43.427  25.993  29.788  1.00  0.00    -0.237 OA
ATOM     92  O   UNL A   1      41.295  26.499  28.659  1.00  0.00    -0.237 OA
ATOM     93  O   UNL A   1      43.398  26.620  27.398  1.00  0.00    -0.744 OA
ENDBRANCH  87  90
ENDBRANCH  59  83
BRANCH  71  94
ATOM     94  C   UNL A   1      45.444  30.277  37.238  1.00  0.00     0.023 A 
ATOM     95  C   UNL A   1      46.544  31.152  37.328  1.00  0.00     0.012 A 
ATOM     96  C   UNL A   1      45.552  28.974  37.765  1.00  0.00     0.148 A 
ATOM     97  C   UNL A   1      47.740  30.729  37.909  1.00  0.00     0.002 A 
ATOM     98  C   UNL A   1      46.732  28.575  38.385  1.00  0.00     0.091 A 
ATOM     99  F   UNL A   1      44.499  28.151  37.658  1.00  0.00    -0.205 F 
ATOM    100  C   UNL A   1      47.830  29.449  38.447  1.00  0.00     0.022 A 
BRANCH  98 101
ATOM    101  S   UNL A   1      46.905  26.980  39.193  1.00  0.00     0.127 S 
ATOM    102  O   UNL A   1      45.859  27.048  40.212  1.00  0.00    -0.237 OA
ATOM    103  O   UNL A   1      46.631  26.047  38.100  1.00  0.00    -0.237 OA
ATOM    104  O   UNL A   1      48.269  26.932  39.700  1.00  0.00    -0.744 OA
ENDBRANCH  98 101
ENDBRANCH  71  94
ENDBRANCH  45  46
ENDBRANCH  38  40
ENDBRANCH  37  38
ENDBRANCH  36  37
ENDBRANCH  35  36
ENDBRANCH  34  35
ENDBRANCH  33  34
ENDBRANCH   1  33
TORSDOF 25
ENDMDL
