MODEL 1
REMARK VINA RESULT:      -9.5      0.000      0.000
REMARK SMILES C[C@@H](Oc1ccc2c(c1)OCO2)C(=O)N1CCn2nc(C(=O)OCCOCCOCCOC(=O)c3ccc(-c4c5nc(c(-c6cccc(S(=O)(=O)[O-])c6F)c6ccc([nH]6)c(-c6cccc(S(=O)(=O)[O-])c6F)c6nc(c(-c7cccc(S(=O)(=O)[O-])c7F)c7ccc4[nH]7)C=C6)C=C5)cc3)cc2C1
REMARK SMILES IDX 27 1 26 2 25 3 24 4 23 5 21 6 22 7 20 8 15 9 16 10 100 11
REMARK SMILES IDX 17 12 99 13 18 14 98 15 19 16 13 17 14 18 2 19 1 20 3 21
REMARK SMILES IDX 4 22 5 23 9 24 6 25 8 26 7 27 10 28 12 29 11 30 28 31 29 32
REMARK SMILES IDX 30 33 31 34 32 35 33 36 34 37 35 38 36 39 97 40 37 41 96 42
REMARK SMILES IDX 38 43 39 44 40 45 90 46 41 47 95 48 89 49 91 50 42 51 94 52
REMARK SMILES IDX 88 53 87 54 43 56 75 57 55 58 74 59 56 60 59 61 73 62 92 63
REMARK SMILES IDX 57 64 58 65 72 67 93 68 60 69 44 70 45 71 53 72 46 73 48 74
REMARK SMILES IDX 54 75 47 76 49 77 50 78 51 79 52 80 76 81 77 82 85 83 78 84
REMARK SMILES IDX 80 85 86 86 79 87 81 88 82 89 83 90 84 91 61 92 62 93 70 94
REMARK SMILES IDX 63 95 65 96 71 97 64 98 66 99 67 100 68 101 69 102
REMARK H PARENT 91 55 59 66
REMARK Flexibility Score: inf
ROOT
ATOM      1  C   UNL A   1      33.624  36.923  29.654  1.00  0.00     0.188 C 
ENDROOT
BRANCH   1   2
ATOM      2  O   UNL A   1      32.906  37.643  30.645  1.00  0.00    -0.376 OA
BRANCH   2   3
ATOM      3  C   UNL A   1      33.285  37.588  32.010  1.00  0.00     0.202 C 
BRANCH   3   4
ATOM      4  C   UNL A   1      33.175  36.298  32.849  1.00  0.00     0.261 C 
BRANCH   4   5
ATOM      5  O   UNL A   1      34.398  35.782  33.393  1.00  0.00    -0.458 OA
BRANCH   5   6
ATOM      6  C   UNL A   1      34.523  34.423  33.407  1.00  0.00     0.358 C 
ATOM      7  O   UNL A   1      33.623  33.647  33.094  1.00  0.00    -0.244 OA
BRANCH   6   8
ATOM      8  C   UNL A   1      35.891  33.988  33.739  1.00  0.00     0.170 A 
ATOM      9  N   UNL A   1      40.251  32.836  34.728  1.00  0.00    -0.332 N 
ATOM     10  C   UNL A   1      39.531  31.690  35.292  1.00  0.00     0.143 C 
ATOM     11  C   UNL A   1      39.583  33.802  33.856  1.00  0.00     0.175 C 
ATOM     12  C   UNL A   1      38.009  31.684  35.276  1.00  0.00     0.166 C 
ATOM     13  C   UNL A   1      38.109  33.726  33.869  1.00  0.00     0.059 A 
ATOM     14  N   UNL A   1      37.432  32.803  34.590  1.00  0.00    -0.265 N 
ATOM     15  C   UNL A   1      37.132  34.455  33.216  1.00  0.00     0.063 A 
ATOM     16  N   UNL A   1      36.106  32.978  34.603  1.00  0.00    -0.165 NA
BRANCH   9  17
ATOM     17  C   UNL A   1      41.643  32.983  34.808  1.00  0.00     0.263 C 
ATOM     18  O   UNL A   1      42.331  32.159  35.424  1.00  0.00    -0.271 OA
BRANCH  17  19
ATOM     19  C   UNL A   1      42.342  34.214  34.179  1.00  0.00     0.259 C 
ATOM     20  C   UNL A   1      43.009  35.122  35.207  1.00  0.00     0.064 C 
BRANCH  19  21
ATOM     21  O   UNL A   1      43.265  33.713  33.200  1.00  0.00    -0.481 OA
BRANCH  21  22
ATOM     22  C   UNL A   1      43.005  34.130  31.924  1.00  0.00     0.124 A 
ATOM     23  C   UNL A   1      42.076  33.418  31.147  1.00  0.00     0.050 A 
ATOM     24  C   UNL A   1      43.528  35.348  31.483  1.00  0.00     0.097 A 
ATOM     25  C   UNL A   1      41.685  33.896  29.894  1.00  0.00     0.054 A 
ATOM     26  C   UNL A   1      43.108  35.805  30.248  1.00  0.00     0.169 A 
ATOM     27  C   UNL A   1      42.214  35.097  29.478  1.00  0.00     0.166 A 
ATOM     28  O   UNL A   1      43.473  36.978  29.661  1.00  0.00    -0.453 OA
ATOM     29  O   UNL A   1      41.911  35.729  28.313  1.00  0.00    -0.454 OA
ATOM     30  C   UNL A   1      42.647  36.959  28.476  1.00  0.00     0.468 C 
ENDBRANCH  21  22
ENDBRANCH  19  21
ENDBRANCH  17  19
ENDBRANCH   9  17
ENDBRANCH   6   8
ENDBRANCH   5   6
ENDBRANCH   4   5
ENDBRANCH   3   4
ENDBRANCH   2   3
ENDBRANCH   1   2
BRANCH   1  31
ATOM     31  C   UNL A   1      32.933  35.828  28.813  1.00  0.00     0.188 C 
BRANCH  31  32
ATOM     32  O   UNL A   1      33.192  34.499  29.216  1.00  0.00    -0.376 OA
BRANCH  32  33
ATOM     33  C   UNL A   1      33.359  33.453  28.272  1.00  0.00     0.202 C 
BRANCH  33  34
ATOM     34  C   UNL A   1      34.678  32.733  27.995  1.00  0.00     0.261 C 
BRANCH  34  35
ATOM     35  O   UNL A   1      34.885  31.509  28.664  1.00  0.00    -0.460 OA
BRANCH  35  36
ATOM     36  C   UNL A   1      35.723  31.608  29.715  1.00  0.00     0.338 C 
ATOM     37  O   UNL A   1      35.505  32.161  30.781  1.00  0.00    -0.246 OA
BRANCH  36  38
ATOM     38  C   UNL A   1      37.012  31.044  29.333  1.00  0.00     0.060 A 
ATOM     39  C   UNL A   1      37.032  29.689  29.000  1.00  0.00     0.016 A 
ATOM     40  C   UNL A   1      38.174  31.771  29.635  1.00  0.00     0.016 A 
ATOM     41  C   UNL A   1      38.210  29.005  29.174  1.00  0.00     0.010 A 
ATOM     42  C   UNL A   1      39.341  31.082  29.831  1.00  0.00     0.010 A 
ATOM     43  C   UNL A   1      39.317  29.698  29.676  1.00  0.00    -0.014 A 
BRANCH  43  44
ATOM     44  C   UNL A   1      40.512  28.939  29.952  1.00  0.00     0.031 A 
ATOM     45  C   UNL A   1      40.788  28.866  31.396  1.00  0.00     0.074 A 
ATOM     46  C   UNL A   1      41.201  28.314  28.978  1.00  0.00     0.049 A 
ATOM     47  N   UNL A   1      41.702  29.503  32.050  1.00  0.00    -0.248 NA
ATOM     48  C   UNL A   1      39.795  28.191  32.247  1.00  0.00     0.031 C 
ATOM     49  C   UNL A   1      40.765  28.119  27.590  1.00  0.00     0.029 A 
ATOM     50  N   UNL A   1      42.350  27.587  29.054  1.00  0.00    -0.354 N 
ATOM     51  C   UNL A   1      41.578  29.029  33.351  1.00  0.00     0.074 A 
ATOM     52  C   UNL A   1      40.251  28.491  33.463  1.00  0.00     0.031 C 
ATOM     53  C   UNL A   1      41.492  27.121  27.041  1.00  0.00     0.029 A 
ATOM     54  C   UNL A   1      42.516  26.710  27.986  1.00  0.00     0.049 A 
ATOM     55  H   UNL A   1      42.998  27.672  29.789  1.00  0.00     0.167 HD
ATOM     56  C   UNL A   1      42.696  28.729  34.064  1.00  0.00     0.034 A 
ATOM     57  C   UNL A   1      43.372  25.663  27.934  1.00  0.00     0.034 A 
ATOM     58  C   UNL A   1      43.866  29.311  33.454  1.00  0.00     0.049 A 
ATOM     59  C   UNL A   1      44.444  25.907  28.924  1.00  0.00     0.074 A 
ATOM     60  C   UNL A   1      44.409  30.564  33.295  1.00  0.00     0.029 A 
ATOM     61  N   UNL A   1      44.465  28.480  32.544  1.00  0.00    -0.354 N 
ATOM     62  N   UNL A   1      45.314  26.872  28.816  1.00  0.00    -0.248 NA
ATOM     63  C   UNL A   1      44.371  25.276  30.238  1.00  0.00     0.031 C 
ATOM     64  C   UNL A   1      45.281  30.480  32.169  1.00  0.00     0.029 A 
ATOM     65  C   UNL A   1      45.267  29.173  31.683  1.00  0.00     0.049 A 
ATOM     66  H   UNL A   1      44.334  27.506  32.515  1.00  0.00     0.167 HD
ATOM     67  C   UNL A   1      45.541  27.262  30.123  1.00  0.00     0.074 A 
ATOM     68  C   UNL A   1      45.109  26.138  30.942  1.00  0.00     0.031 C 
ATOM     69  C   UNL A   1      45.713  28.578  30.439  1.00  0.00     0.034 A 
BRANCH  56  70
ATOM     70  C   UNL A   1      42.848  27.507  34.955  1.00  0.00     0.023 A 
ATOM     71  C   UNL A   1      41.721  26.660  35.056  1.00  0.00     0.012 A 
ATOM     72  C   UNL A   1      43.872  27.315  35.913  1.00  0.00     0.148 A 
ATOM     73  C   UNL A   1      41.597  25.717  36.082  1.00  0.00     0.002 A 
ATOM     74  C   UNL A   1      43.779  26.325  36.885  1.00  0.00     0.091 A 
ATOM     75  F   UNL A   1      44.888  28.173  36.000  1.00  0.00    -0.205 F 
ATOM     76  C   UNL A   1      42.630  25.544  36.995  1.00  0.00     0.022 A 
BRANCH  74  77
ATOM     77  S   UNL A   1      45.102  26.048  38.073  1.00  0.00     0.127 S 
ATOM     78  O   UNL A   1      44.519  25.011  38.918  1.00  0.00    -0.237 OA
ATOM     79  O   UNL A   1      46.191  25.605  37.203  1.00  0.00    -0.237 OA
ATOM     80  O   UNL A   1      45.335  27.339  38.710  1.00  0.00    -0.744 OA
ENDBRANCH  74  77
ENDBRANCH  56  70
BRANCH  57  81
ATOM     81  C   UNL A   1      43.226  24.356  27.252  1.00  0.00     0.023 A 
ATOM     82  C   UNL A   1      41.954  23.756  27.174  1.00  0.00     0.012 A 
ATOM     83  C   UNL A   1      44.259  23.835  26.441  1.00  0.00     0.148 A 
ATOM     84  C   UNL A   1      41.704  22.706  26.284  1.00  0.00     0.002 A 
ATOM     85  C   UNL A   1      44.009  22.782  25.566  1.00  0.00     0.091 A 
ATOM     86  F   UNL A   1      45.459  24.428  26.456  1.00  0.00    -0.205 F 
ATOM     87  C   UNL A   1      42.728  22.226  25.473  1.00  0.00     0.022 A 
BRANCH  85  88
ATOM     88  S   UNL A   1      45.279  22.118  24.480  1.00  0.00     0.127 S 
ATOM     89  O   UNL A   1      44.522  21.147  23.688  1.00  0.00    -0.237 OA
ATOM     90  O   UNL A   1      45.704  23.307  23.748  1.00  0.00    -0.237 OA
ATOM     91  O   UNL A   1      46.280  21.521  25.356  1.00  0.00    -0.744 OA
ENDBRANCH  85  88
ENDBRANCH  57  81
BRANCH  69  92
ATOM     92  C   UNL A   1      46.228  29.493  29.369  1.00  0.00     0.023 A 
ATOM     93  C   UNL A   1      47.586  29.564  29.005  1.00  0.00     0.012 A 
ATOM     94  C   UNL A   1      45.284  30.242  28.649  1.00  0.00     0.148 A 
ATOM     95  C   UNL A   1      47.994  30.388  27.953  1.00  0.00     0.002 A 
ATOM     96  C   UNL A   1      45.687  31.022  27.575  1.00  0.00     0.091 A 
ATOM     97  F   UNL A   1      43.997  30.171  29.022  1.00  0.00    -0.205 F 
ATOM     98  C   UNL A   1      47.044  31.107  27.229  1.00  0.00     0.022 A 
BRANCH  96  99
ATOM     99  S   UNL A   1      44.490  31.870  26.542  1.00  0.00     0.127 S 
ATOM    100  O   UNL A   1      43.502  30.822  26.296  1.00  0.00    -0.237 OA
ATOM    101  O   UNL A   1      44.030  32.952  27.416  1.00  0.00    -0.237 OA
ATOM    102  O   UNL A   1      45.228  32.328  25.372  1.00  0.00    -0.744 OA
ENDBRANCH  96  99
ENDBRANCH  69  92
ENDBRANCH  43  44
ENDBRANCH  36  38
ENDBRANCH  35  36
ENDBRANCH  34  35
ENDBRANCH  33  34
ENDBRANCH  32  33
ENDBRANCH  31  32
ENDBRANCH   1  31
TORSDOF 24
ENDMDL
MODEL 2
REMARK VINA RESULT:      -9.4      4.732      8.737
REMARK SMILES C[C@@H](Oc1ccc2c(c1)OCO2)C(=O)N1CCn2nc(C(=O)OCCOCCOCCOC(=O)c3ccc(-c4c5nc(c(-c6cccc(S(=O)(=O)[O-])c6F)c6ccc([nH]6)c(-c6cccc(S(=O)(=O)[O-])c6F)c6nc(c(-c7cccc(S(=O)(=O)[O-])c7F)c7ccc4[nH]7)C=C6)C=C5)cc3)cc2C1
REMARK SMILES IDX 27 1 26 2 25 3 24 4 23 5 21 6 22 7 20 8 15 9 16 10 100 11
REMARK SMILES IDX 17 12 99 13 18 14 98 15 19 16 13 17 14 18 2 19 1 20 3 21
REMARK SMILES IDX 4 22 5 23 9 24 6 25 8 26 7 27 10 28 12 29 11 30 28 31 29 32
REMARK SMILES IDX 30 33 31 34 32 35 33 36 34 37 35 38 36 39 97 40 37 41 96 42
REMARK SMILES IDX 38 43 39 44 40 45 90 46 41 47 95 48 89 49 91 50 42 51 94 52
REMARK SMILES IDX 88 53 87 54 43 56 75 57 55 58 74 59 56 60 59 61 73 62 92 63
REMARK SMILES IDX 57 64 58 65 72 67 93 68 60 69 44 70 45 71 53 72 46 73 48 74
REMARK SMILES IDX 54 75 47 76 49 77 50 78 51 79 52 80 76 81 77 82 85 83 78 84
REMARK SMILES IDX 80 85 86 86 79 87 81 88 82 89 83 90 84 91 61 92 62 93 70 94
REMARK SMILES IDX 63 95 65 96 71 97 64 98 66 99 67 100 68 101 69 102
REMARK H PARENT 91 55 59 66
REMARK Flexibility Score: inf
ROOT
ATOM      1  C   UNL A   1      32.666  30.280  26.770  1.00  0.00     0.188 C 
ENDROOT
BRANCH   1   2
ATOM      2  O   UNL A   1      31.400  30.106  26.152  1.00  0.00    -0.376 OA
BRANCH   2   3
ATOM      3  C   UNL A   1      31.270  30.074  24.741  1.00  0.00     0.202 C 
BRANCH   3   4
ATOM      4  C   UNL A   1      30.882  28.792  23.974  1.00  0.00     0.261 C 
BRANCH   4   5
ATOM      5  O   UNL A   1      30.112  27.822  24.698  1.00  0.00    -0.458 OA
BRANCH   5   6
ATOM      6  C   UNL A   1      30.021  26.583  24.130  1.00  0.00     0.358 C 
ATOM      7  O   UNL A   1      29.002  26.144  23.601  1.00  0.00    -0.244 OA
BRANCH   6   8
ATOM      8  C   UNL A   1      31.309  25.870  24.127  1.00  0.00     0.170 A 
ATOM      9  N   UNL A   1      35.366  23.676  24.341  1.00  0.00    -0.332 N 
ATOM     10  C   UNL A   1      34.901  23.262  23.014  1.00  0.00     0.143 C 
ATOM     11  C   UNL A   1      34.703  24.750  25.080  1.00  0.00     0.175 C 
ATOM     12  C   UNL A   1      33.518  23.688  22.541  1.00  0.00     0.166 C 
ATOM     13  C   UNL A   1      33.377  25.131  24.555  1.00  0.00     0.059 A 
ATOM     14  N   UNL A   1      32.841  24.568  23.448  1.00  0.00    -0.265 N 
ATOM     15  C   UNL A   1      32.444  26.064  24.967  1.00  0.00     0.063 A 
ATOM     16  N   UNL A   1      31.574  24.923  23.207  1.00  0.00    -0.165 NA
BRANCH   9  17
ATOM     17  C   UNL A   1      36.570  23.232  24.905  1.00  0.00     0.263 C 
ATOM     18  O   UNL A   1      37.469  24.034  25.186  1.00  0.00    -0.271 OA
BRANCH  17  19
ATOM     19  C   UNL A   1      36.825  21.720  25.131  1.00  0.00     0.259 C 
ATOM     20  C   UNL A   1      38.263  21.401  25.525  1.00  0.00     0.064 C 
BRANCH  19  21
ATOM     21  O   UNL A   1      35.870  21.280  26.108  1.00  0.00    -0.481 OA
BRANCH  21  22
ATOM     22  C   UNL A   1      34.876  20.490  25.601  1.00  0.00     0.124 A 
ATOM     23  C   UNL A   1      33.555  20.968  25.600  1.00  0.00     0.050 A 
ATOM     24  C   UNL A   1      35.214  19.309  24.935  1.00  0.00     0.097 A 
ATOM     25  C   UNL A   1      32.541  20.248  24.965  1.00  0.00     0.054 A 
ATOM     26  C   UNL A   1      34.193  18.628  24.300  1.00  0.00     0.169 A 
ATOM     27  C   UNL A   1      32.895  19.085  24.318  1.00  0.00     0.166 A 
ATOM     28  O   UNL A   1      34.323  17.484  23.575  1.00  0.00    -0.453 OA
ATOM     29  O   UNL A   1      32.049  18.287  23.614  1.00  0.00    -0.454 OA
ATOM     30  C   UNL A   1      32.976  17.322  23.076  1.00  0.00     0.468 C 
ENDBRANCH  21  22
ENDBRANCH  19  21
ENDBRANCH  17  19
ENDBRANCH   9  17
ENDBRANCH   6   8
ENDBRANCH   5   6
ENDBRANCH   4   5
ENDBRANCH   3   4
ENDBRANCH   2   3
ENDBRANCH   1   2
BRANCH   1  31
ATOM     31  C   UNL A   1      33.017  31.591  27.505  1.00  0.00     0.188 C 
BRANCH  31  32
ATOM     32  O   UNL A   1      34.333  31.671  28.010  1.00  0.00    -0.376 OA
BRANCH  32  33
ATOM     33  C   UNL A   1      34.973  32.918  28.232  1.00  0.00     0.202 C 
BRANCH  33  34
ATOM     34  C   UNL A   1      36.375  33.085  28.816  1.00  0.00     0.261 C 
BRANCH  34  35
ATOM     35  O   UNL A   1      36.483  33.071  30.221  1.00  0.00    -0.460 OA
BRANCH  35  36
ATOM     36  C   UNL A   1      36.481  31.830  30.748  1.00  0.00     0.338 C 
ATOM     37  O   UNL A   1      35.721  31.391  31.595  1.00  0.00    -0.246 OA
BRANCH  36  38
ATOM     38  C   UNL A   1      37.636  31.107  30.228  1.00  0.00     0.060 A 
ATOM     39  C   UNL A   1      37.513  29.721  30.116  1.00  0.00     0.016 A 
ATOM     40  C   UNL A   1      38.874  31.766  30.190  1.00  0.00     0.016 A 
ATOM     41  C   UNL A   1      38.661  28.970  30.176  1.00  0.00     0.010 A 
ATOM     42  C   UNL A   1      40.016  31.015  30.274  1.00  0.00     0.010 A 
ATOM     43  C   UNL A   1      39.883  29.631  30.348  1.00  0.00    -0.014 A 
BRANCH  43  44
ATOM     44  C   UNL A   1      41.063  28.818  30.515  1.00  0.00     0.031 A 
ATOM     45  C   UNL A   1      41.512  28.794  31.917  1.00  0.00     0.074 A 
ATOM     46  C   UNL A   1      41.594  28.114  29.498  1.00  0.00     0.049 A 
ATOM     47  N   UNL A   1      42.530  29.407  32.422  1.00  0.00    -0.248 NA
ATOM     48  C   UNL A   1      40.598  28.214  32.915  1.00  0.00     0.031 C 
ATOM     49  C   UNL A   1      40.981  27.883  28.185  1.00  0.00     0.029 A 
ATOM     50  N   UNL A   1      42.706  27.328  29.470  1.00  0.00    -0.354 N 
ATOM     51  C   UNL A   1      42.544  28.998  33.751  1.00  0.00     0.074 A 
ATOM     52  C   UNL A   1      41.216  28.541  34.050  1.00  0.00     0.031 C 
ATOM     53  C   UNL A   1      41.583  26.822  27.602  1.00  0.00     0.029 A 
ATOM     54  C   UNL A   1      42.695  26.397  28.436  1.00  0.00     0.049 A 
ATOM     55  H   UNL A   1      43.443  27.408  30.116  1.00  0.00     0.167 HD
ATOM     56  C   UNL A   1      43.725  28.668  34.337  1.00  0.00     0.034 A 
ATOM     57  C   UNL A   1      43.484  25.302  28.334  1.00  0.00     0.034 A 
ATOM     58  C   UNL A   1      44.839  29.156  33.562  1.00  0.00     0.049 A 
ATOM     59  C   UNL A   1      44.681  25.529  29.173  1.00  0.00     0.074 A 
ATOM     60  C   UNL A   1      45.421  30.369  33.276  1.00  0.00     0.029 A 
ATOM     61  N   UNL A   1      45.279  28.254  32.629  1.00  0.00    -0.354 N 
ATOM     62  N   UNL A   1      45.579  26.439  28.912  1.00  0.00    -0.248 NA
ATOM     63  C   UNL A   1      44.739  24.962  30.516  1.00  0.00     0.031 C 
ATOM     64  C   UNL A   1      46.141  30.186  32.058  1.00  0.00     0.029 A 
ATOM     65  C   UNL A   1      46.001  28.862  31.643  1.00  0.00     0.049 A 
ATOM     66  H   UNL A   1      45.096  27.288  32.665  1.00  0.00     0.167 HD
ATOM     67  C   UNL A   1      45.984  26.872  30.161  1.00  0.00     0.074 A 
ATOM     68  C   UNL A   1      45.601  25.811  31.081  1.00  0.00     0.031 C 
ATOM     69  C   UNL A   1      46.259  28.189  30.387  1.00  0.00     0.034 A 
BRANCH  56  70
ATOM     70  C   UNL A   1      43.925  27.479  35.264  1.00  0.00     0.023 A 
ATOM     71  C   UNL A   1      44.499  27.757  36.525  1.00  0.00     0.012 A 
ATOM     72  C   UNL A   1      43.887  26.120  34.871  1.00  0.00     0.148 A 
ATOM     73  C   UNL A   1      45.050  26.748  37.322  1.00  0.00     0.002 A 
ATOM     74  C   UNL A   1      44.366  25.112  35.699  1.00  0.00     0.091 A 
ATOM     75  F   UNL A   1      43.522  25.782  33.635  1.00  0.00    -0.205 F 
ATOM     76  C   UNL A   1      44.979  25.422  36.913  1.00  0.00     0.022 A 
BRANCH  74  77
ATOM     77  S   UNL A   1      44.274  23.380  35.222  1.00  0.00     0.127 S 
ATOM     78  O   UNL A   1      42.840  23.215  35.007  1.00  0.00    -0.237 OA
ATOM     79  O   UNL A   1      45.092  23.365  34.009  1.00  0.00    -0.237 OA
ATOM     80  O   UNL A   1      44.845  22.633  36.336  1.00  0.00    -0.744 OA
ENDBRANCH  74  77
ENDBRANCH  56  70
BRANCH  57  81
ATOM     81  C   UNL A   1      43.189  23.976  27.741  1.00  0.00     0.023 A 
ATOM     82  C   UNL A   1      41.908  23.416  27.907  1.00  0.00     0.012 A 
ATOM     83  C   UNL A   1      44.053  23.393  26.787  1.00  0.00     0.148 A 
ATOM     84  C   UNL A   1      41.481  22.343  27.117  1.00  0.00     0.002 A 
ATOM     85  C   UNL A   1      43.630  22.318  26.013  1.00  0.00     0.091 A 
ATOM     86  F   UNL A   1      45.253  23.948  26.573  1.00  0.00    -0.205 F 
ATOM     87  C   UNL A   1      42.338  21.801  26.163  1.00  0.00     0.022 A 
BRANCH  85  88
ATOM     88  S   UNL A   1      44.677  21.575  24.753  1.00  0.00     0.127 S 
ATOM     89  O   UNL A   1      44.470  22.475  23.619  1.00  0.00    -0.237 OA
ATOM     90  O   UNL A   1      45.998  21.659  25.369  1.00  0.00    -0.237 OA
ATOM     91  O   UNL A   1      44.157  20.228  24.548  1.00  0.00    -0.744 OA
ENDBRANCH  85  88
ENDBRANCH  57  81
BRANCH  69  92
ATOM     92  C   UNL A   1      46.684  29.026  29.217  1.00  0.00     0.023 A 
ATOM     93  C   UNL A   1      47.968  28.954  28.645  1.00  0.00     0.012 A 
ATOM     94  C   UNL A   1      45.713  29.849  28.625  1.00  0.00     0.148 A 
ATOM     95  C   UNL A   1      48.281  29.712  27.513  1.00  0.00     0.002 A 
ATOM     96  C   UNL A   1      46.014  30.563  27.474  1.00  0.00     0.091 A 
ATOM     97  F   UNL A   1      44.500  29.913  29.195  1.00  0.00    -0.205 F 
ATOM     98  C   UNL A   1      47.301  30.506  26.920  1.00  0.00     0.022 A 
BRANCH  96  99
ATOM     99  S   UNL A   1      44.754  31.503  26.609  1.00  0.00     0.127 S 
ATOM    100  O   UNL A   1      44.426  32.543  27.582  1.00  0.00    -0.237 OA
ATOM    101  O   UNL A   1      45.472  31.976  25.424  1.00  0.00    -0.237 OA
ATOM    102  O   UNL A   1      43.685  30.556  26.313  1.00  0.00    -0.744 OA
ENDBRANCH  96  99
ENDBRANCH  69  92
ENDBRANCH  43  44
ENDBRANCH  36  38
ENDBRANCH  35  36
ENDBRANCH  34  35
ENDBRANCH  33  34
ENDBRANCH  32  33
ENDBRANCH  31  32
ENDBRANCH   1  31
TORSDOF 24
ENDMDL
MODEL 3
REMARK VINA RESULT:      -9.3      3.974      8.831
REMARK SMILES C[C@@H](Oc1ccc2c(c1)OCO2)C(=O)N1CCn2nc(C(=O)OCCOCCOCCOC(=O)c3ccc(-c4c5nc(c(-c6cccc(S(=O)(=O)[O-])c6F)c6ccc([nH]6)c(-c6cccc(S(=O)(=O)[O-])c6F)c6nc(c(-c7cccc(S(=O)(=O)[O-])c7F)c7ccc4[nH]7)C=C6)C=C5)cc3)cc2C1
REMARK SMILES IDX 27 1 26 2 25 3 24 4 23 5 21 6 22 7 20 8 15 9 16 10 100 11
REMARK SMILES IDX 17 12 99 13 18 14 98 15 19 16 13 17 14 18 2 19 1 20 3 21
REMARK SMILES IDX 4 22 5 23 9 24 6 25 8 26 7 27 10 28 12 29 11 30 28 31 29 32
REMARK SMILES IDX 30 33 31 34 32 35 33 36 34 37 35 38 36 39 97 40 37 41 96 42
REMARK SMILES IDX 38 43 39 44 40 45 90 46 41 47 95 48 89 49 91 50 42 51 94 52
REMARK SMILES IDX 88 53 87 54 43 56 75 57 55 58 74 59 56 60 59 61 73 62 92 63
REMARK SMILES IDX 57 64 58 65 72 67 93 68 60 69 44 70 45 71 53 72 46 73 48 74
REMARK SMILES IDX 54 75 47 76 49 77 50 78 51 79 52 80 76 81 77 82 85 83 78 84
REMARK SMILES IDX 80 85 86 86 79 87 81 88 82 89 83 90 84 91 61 92 62 93 70 94
REMARK SMILES IDX 63 95 65 96 71 97 64 98 66 99 67 100 68 101 69 102
REMARK H PARENT 91 55 59 66
REMARK Flexibility Score: inf
ROOT
ATOM      1  C   UNL A   1      35.052  24.442  25.195  1.00  0.00     0.188 C 
ENDROOT
BRANCH   1   2
ATOM      2  O   UNL A   1      34.500  25.521  24.456  1.00  0.00    -0.376 OA
BRANCH   2   3
ATOM      3  C   UNL A   1      33.721  25.292  23.294  1.00  0.00     0.202 C 
BRANCH   3   4
ATOM      4  C   UNL A   1      32.198  25.536  23.257  1.00  0.00     0.261 C 
BRANCH   4   5
ATOM      5  O   UNL A   1      31.768  26.904  23.223  1.00  0.00    -0.458 OA
BRANCH   5   6
ATOM      6  C   UNL A   1      30.979  27.312  24.259  1.00  0.00     0.358 C 
ATOM      7  O   UNL A   1      29.925  26.766  24.576  1.00  0.00    -0.244 OA
BRANCH   6   8
ATOM      8  C   UNL A   1      31.583  28.416  25.023  1.00  0.00     0.170 A 
ATOM      9  N   UNL A   1      33.680  31.778  27.396  1.00  0.00    -0.332 N 
ATOM     10  C   UNL A   1      32.369  32.388  27.156  1.00  0.00     0.143 C 
ATOM     11  C   UNL A   1      33.918  30.357  27.135  1.00  0.00     0.175 C 
ATOM     12  C   UNL A   1      31.346  31.651  26.305  1.00  0.00     0.166 C 
ATOM     13  C   UNL A   1      32.876  29.697  26.325  1.00  0.00     0.059 A 
ATOM     14  N   UNL A   1      31.766  30.341  25.899  1.00  0.00    -0.265 N 
ATOM     15  C   UNL A   1      32.740  28.404  25.856  1.00  0.00     0.063 A 
ATOM     16  N   UNL A   1      31.009  29.634  25.052  1.00  0.00    -0.165 NA
BRANCH   9  17
ATOM     17  C   UNL A   1      34.723  32.434  28.064  1.00  0.00     0.263 C 
ATOM     18  O   UNL A   1      35.901  32.111  27.867  1.00  0.00    -0.271 OA
BRANCH  17  19
ATOM     19  C   UNL A   1      34.418  33.533  29.112  1.00  0.00     0.259 C 
ATOM     20  C   UNL A   1      33.291  34.472  28.695  1.00  0.00     0.064 C 
BRANCH  19  21
ATOM     21  O   UNL A   1      34.150  32.862  30.353  1.00  0.00    -0.481 OA
BRANCH  21  22
ATOM     22  C   UNL A   1      34.942  33.269  31.390  1.00  0.00     0.124 A 
ATOM     23  C   UNL A   1      34.624  32.861  32.696  1.00  0.00     0.050 A 
ATOM     24  C   UNL A   1      36.144  33.927  31.115  1.00  0.00     0.097 A 
ATOM     25  C   UNL A   1      35.487  33.141  33.757  1.00  0.00     0.054 A 
ATOM     26  C   UNL A   1      36.987  34.174  32.182  1.00  0.00     0.169 A 
ATOM     27  C   UNL A   1      36.664  33.793  33.465  1.00  0.00     0.166 A 
ATOM     28  O   UNL A   1      38.209  34.770  32.116  1.00  0.00    -0.453 OA
ATOM     29  O   UNL A   1      37.636  34.104  34.363  1.00  0.00    -0.454 OA
ATOM     30  C   UNL A   1      38.647  34.645  33.488  1.00  0.00     0.468 C 
ENDBRANCH  21  22
ENDBRANCH  19  21
ENDBRANCH  17  19
ENDBRANCH   9  17
ENDBRANCH   6   8
ENDBRANCH   5   6
ENDBRANCH   4   5
ENDBRANCH   3   4
ENDBRANCH   2   3
ENDBRANCH   1   2
BRANCH   1  31
ATOM     31  C   UNL A   1      36.309  23.699  24.694  1.00  0.00     0.188 C 
BRANCH  31  32
ATOM     32  O   UNL A   1      37.487  23.930  25.438  1.00  0.00    -0.376 OA
BRANCH  32  33
ATOM     33  C   UNL A   1      38.103  22.900  26.198  1.00  0.00     0.202 C 
BRANCH  33  34
ATOM     34  C   UNL A   1      38.028  21.411  25.865  1.00  0.00     0.261 C 
BRANCH  34  35
ATOM     35  O   UNL A   1      38.995  20.912  24.969  1.00  0.00    -0.460 OA
BRANCH  35  36
ATOM     36  C   UNL A   1      39.892  20.090  25.550  1.00  0.00     0.338 C 
ATOM     37  O   UNL A   1      39.876  18.870  25.556  1.00  0.00    -0.246 OA
BRANCH  36  38
ATOM     38  C   UNL A   1      40.845  20.902  26.296  1.00  0.00     0.060 A 
ATOM     39  C   UNL A   1      40.783  20.826  27.688  1.00  0.00     0.016 A 
ATOM     40  C   UNL A   1      41.518  21.932  25.620  1.00  0.00     0.016 A 
ATOM     41  C   UNL A   1      41.225  21.909  28.409  1.00  0.00     0.010 A 
ATOM     42  C   UNL A   1      41.935  23.020  26.339  1.00  0.00     0.010 A 
ATOM     43  C   UNL A   1      41.705  23.023  27.712  1.00  0.00    -0.014 A 
BRANCH  43  44
ATOM     44  C   UNL A   1      42.064  24.189  28.483  1.00  0.00     0.031 A 
ATOM     45  C   UNL A   1      41.119  25.296  28.265  1.00  0.00     0.074 A 
ATOM     46  C   UNL A   1      43.091  24.181  29.352  1.00  0.00     0.049 A 
ATOM     47  N   UNL A   1      41.318  26.368  27.572  1.00  0.00    -0.248 NA
ATOM     48  C   UNL A   1      39.718  25.085  28.664  1.00  0.00     0.031 C 
ATOM     49  C   UNL A   1      43.839  23.002  29.808  1.00  0.00     0.029 A 
ATOM     50  N   UNL A   1      43.581  25.185  30.131  1.00  0.00    -0.354 N 
ATOM     51  C   UNL A   1      40.149  27.103  27.746  1.00  0.00     0.074 A 
ATOM     52  C   UNL A   1      39.136  26.166  28.145  1.00  0.00     0.031 C 
ATOM     53  C   UNL A   1      44.487  23.312  30.952  1.00  0.00     0.029 A 
ATOM     54  C   UNL A   1      44.307  24.727  31.227  1.00  0.00     0.049 A 
ATOM     55  H   UNL A   1      43.437  26.139  29.940  1.00  0.00     0.167 HD
ATOM     56  C   UNL A   1      40.227  28.441  27.969  1.00  0.00     0.034 A 
ATOM     57  C   UNL A   1      44.644  25.446  32.323  1.00  0.00     0.034 A 
ATOM     58  C   UNL A   1      41.533  28.946  27.622  1.00  0.00     0.049 A 
ATOM     59  C   UNL A   1      44.599  26.878  31.953  1.00  0.00     0.074 A 
ATOM     60  C   UNL A   1      42.256  29.184  26.477  1.00  0.00     0.029 A 
ATOM     61  N   UNL A   1      42.413  28.922  28.671  1.00  0.00    -0.354 N 
ATOM     62  N   UNL A   1      45.423  27.426  31.102  1.00  0.00    -0.248 NA
ATOM     63  C   UNL A   1      43.420  27.672  32.280  1.00  0.00     0.031 C 
ATOM     64  C   UNL A   1      43.629  29.186  26.867  1.00  0.00     0.029 A 
ATOM     65  C   UNL A   1      43.708  28.974  28.243  1.00  0.00     0.049 A 
ATOM     66  H   UNL A   1      42.145  28.872  29.617  1.00  0.00     0.167 HD
ATOM     67  C   UNL A   1      44.651  28.376  30.459  1.00  0.00     0.074 A 
ATOM     68  C   UNL A   1      43.522  28.620  31.345  1.00  0.00     0.031 C 
ATOM     69  C   UNL A   1      44.799  28.607  29.123  1.00  0.00     0.034 A 
BRANCH  56  70
ATOM     70  C   UNL A   1      39.379  29.197  28.979  1.00  0.00     0.023 A 
ATOM     71  C   UNL A   1      38.952  30.489  28.598  1.00  0.00     0.012 A 
ATOM     72  C   UNL A   1      39.250  28.866  30.349  1.00  0.00     0.148 A 
ATOM     73  C   UNL A   1      38.476  31.414  29.533  1.00  0.00     0.002 A 
ATOM     74  C   UNL A   1      38.706  29.761  31.263  1.00  0.00     0.091 A 
ATOM     75  F   UNL A   1      39.781  27.741  30.828  1.00  0.00    -0.205 F 
ATOM     76  C   UNL A   1      38.346  31.049  30.867  1.00  0.00     0.022 A 
BRANCH  74  77
ATOM     77  S   UNL A   1      38.496  29.324  32.996  1.00  0.00     0.127 S 
ATOM     78  O   UNL A   1      39.871  29.039  33.391  1.00  0.00    -0.237 OA
ATOM     79  O   UNL A   1      37.933  30.559  33.544  1.00  0.00    -0.237 OA
ATOM     80  O   UNL A   1      37.577  28.193  33.008  1.00  0.00    -0.744 OA
ENDBRANCH  74  77
ENDBRANCH  56  70
BRANCH  57  81
ATOM     81  C   UNL A   1      44.792  25.010  33.731  1.00  0.00     0.023 A 
ATOM     82  C   UNL A   1      43.641  24.828  34.521  1.00  0.00     0.012 A 
ATOM     83  C   UNL A   1      46.020  24.506  34.215  1.00  0.00     0.148 A 
ATOM     84  C   UNL A   1      43.698  24.124  35.729  1.00  0.00     0.002 A 
ATOM     85  C   UNL A   1      46.075  23.817  35.423  1.00  0.00     0.091 A 
ATOM     86  F   UNL A   1      47.114  24.616  33.452  1.00  0.00    -0.205 F 
ATOM     87  C   UNL A   1      44.912  23.610  36.175  1.00  0.00     0.022 A 
BRANCH  85  88
ATOM     88  S   UNL A   1      47.605  23.115  36.056  1.00  0.00     0.127 S 
ATOM     89  O   UNL A   1      48.614  23.920  35.366  1.00  0.00    -0.237 OA
ATOM     90  O   UNL A   1      47.488  23.375  37.487  1.00  0.00    -0.237 OA
ATOM     91  O   UNL A   1      47.590  21.711  35.662  1.00  0.00    -0.744 OA
ENDBRANCH  85  88
ENDBRANCH  57  81
BRANCH  69  92
ATOM     92  C   UNL A   1      46.126  28.290  28.501  1.00  0.00     0.023 A 
ATOM     93  C   UNL A   1      47.241  29.144  28.588  1.00  0.00     0.012 A 
ATOM     94  C   UNL A   1      46.267  27.038  27.881  1.00  0.00     0.148 A 
ATOM     95  C   UNL A   1      48.470  28.761  28.044  1.00  0.00     0.002 A 
ATOM     96  C   UNL A   1      47.500  26.641  27.385  1.00  0.00     0.091 A 
ATOM     97  F   UNL A   1      45.188  26.245  27.797  1.00  0.00    -0.205 F 
ATOM     98  C   UNL A   1      48.604  27.505  27.455  1.00  0.00     0.022 A 
BRANCH  96  99
ATOM     99  S   UNL A   1      47.749  24.992  26.727  1.00  0.00     0.127 S 
ATOM    100  O   UNL A   1      47.974  25.259  25.308  1.00  0.00    -0.237 OA
ATOM    101  O   UNL A   1      48.931  24.534  27.459  1.00  0.00    -0.237 OA
ATOM    102  O   UNL A   1      46.534  24.250  27.043  1.00  0.00    -0.744 OA
ENDBRANCH  96  99
ENDBRANCH  69  92
ENDBRANCH  43  44
ENDBRANCH  36  38
ENDBRANCH  35  36
ENDBRANCH  34  35
ENDBRANCH  33  34
ENDBRANCH  32  33
ENDBRANCH  31  32
ENDBRANCH   1  31
TORSDOF 24
ENDMDL
