MODEL 1
REMARK VINA RESULT:     -10.4      0.000      0.000
REMARK SMILES C[C@@H]1[C@H](C(=O)OCCOCCOCCOC(=O)c2ccc(-c3c4nc(c(-c5cccc(S(=O)(=O)[O-])c5F)c5ccc([nH]5)c(-c5cccc(S(=O)(=O)[O-])c5F)c5nc(c(-c6cccc(S(=O)(=O)[O-])c6F)c6ccc3[nH]6)C=C5)C=C4)cc2)CCN1S(=O)(=O)c1cc(F)cc(F)c1
REMARK SMILES IDX 11 1 10 2 9 3 8 4 7 5 6 6 4 7 5 8 3 9 1 10 2 11 83 12 81 13
REMARK SMILES IDX 82 14 84 15 85 16 86 17 87 18 88 19 94 20 89 21 92 22 90 23
REMARK SMILES IDX 91 24 93 25 12 26 13 27 14 28 15 29 16 30 17 31 18 32 19 33
REMARK SMILES IDX 80 34 20 35 79 36 21 37 22 38 23 39 73 40 24 41 78 42 72 43
REMARK SMILES IDX 74 44 25 45 77 46 71 47 70 48 26 50 58 51 38 52 57 53 39 54
REMARK SMILES IDX 42 55 56 56 75 57 40 58 41 59 55 61 76 62 43 63 27 64 28 65
REMARK SMILES IDX 36 66 29 67 31 68 37 69 30 70 32 71 33 72 34 73 35 74 59 75
REMARK SMILES IDX 60 76 68 77 61 78 63 79 69 80 62 81 64 82 65 83 66 84 67 85
REMARK SMILES IDX 44 86 45 87 53 88 46 89 48 90 54 91 47 92 49 93 50 94 51 95
REMARK SMILES IDX 52 96
REMARK H PARENT 74 49 42 60
REMARK Flexibility Score: inf
ROOT
ATOM      1  C   UNL A   1      34.893  18.597  24.696  1.00  0.00     0.188 C 
ENDROOT
BRANCH   1   2
ATOM      2  C   UNL A   1      34.035  19.826  25.021  1.00  0.00     0.188 C 
BRANCH   2   3
ATOM      3  O   UNL A   1      32.662  19.798  24.676  1.00  0.00    -0.376 OA
BRANCH   3   4
ATOM      4  C   UNL A   1      32.276  20.357  23.419  1.00  0.00     0.202 C 
BRANCH   4   5
ATOM      5  C   UNL A   1      32.150  21.876  23.317  1.00  0.00     0.261 C 
BRANCH   5   6
ATOM      6  O   UNL A   1      31.567  22.371  24.536  1.00  0.00    -0.463 OA
BRANCH   6   7
ATOM      7  C   UNL A   1      32.200  23.427  25.094  1.00  0.00     0.310 C 
ATOM      8  O   UNL A   1      32.493  23.505  26.281  1.00  0.00    -0.252 OA
BRANCH   7   9
ATOM      9  C   UNL A   1      32.623  24.435  24.049  1.00  0.00     0.118 C 
ATOM     10  C   UNL A   1      30.980  26.178  25.014  1.00  0.00     0.027 C 
ATOM     11  C   UNL A   1      31.708  25.649  23.784  1.00  0.00     0.084 C 
ATOM     12  N   UNL A   1      32.636  26.650  23.143  1.00  0.00    -0.194 NA
ATOM     13  C   UNL A   1      33.938  25.087  24.430  1.00  0.00     0.034 C 
ATOM     14  C   UNL A   1      34.042  26.253  23.470  1.00  0.00     0.104 C 
BRANCH  12  15
ATOM     15  S   UNL A   1      32.405  28.329  23.109  1.00  0.00     0.243 S 
ATOM     16  O   UNL A   1      33.433  28.929  22.288  1.00  0.00    -0.207 OA
ATOM     17  O   UNL A   1      31.008  28.527  22.770  1.00  0.00    -0.207 OA
BRANCH  15  18
ATOM     18  C   UNL A   1      32.584  28.997  24.745  1.00  0.00     0.088 A 
ATOM     19  C   UNL A   1      31.711  30.039  25.096  1.00  0.00     0.061 A 
ATOM     20  C   UNL A   1      33.554  28.579  25.652  1.00  0.00     0.061 A 
ATOM     21  C   UNL A   1      31.832  30.660  26.334  1.00  0.00     0.127 A 
ATOM     22  C   UNL A   1      33.653  29.221  26.886  1.00  0.00     0.127 A 
ATOM     23  F   UNL A   1      31.014  31.673  26.646  1.00  0.00    -0.207 F 
ATOM     24  C   UNL A   1      32.802  30.260  27.238  1.00  0.00     0.078 A 
ATOM     25  F   UNL A   1      34.613  28.847  27.741  1.00  0.00    -0.207 F 
ENDBRANCH  15  18
ENDBRANCH  12  15
ENDBRANCH   7   9
ENDBRANCH   6   7
ENDBRANCH   5   6
ENDBRANCH   4   5
ENDBRANCH   3   4
ENDBRANCH   2   3
ENDBRANCH   1   2
BRANCH   1  26
ATOM     26  O   UNL A   1      36.307  18.652  24.584  1.00  0.00    -0.376 OA
BRANCH  26  27
ATOM     27  C   UNL A   1      36.998  19.824  25.005  1.00  0.00     0.202 C 
BRANCH  27  28
ATOM     28  C   UNL A   1      38.488  19.816  25.396  1.00  0.00     0.261 C 
BRANCH  28  29
ATOM     29  O   UNL A   1      39.025  21.065  25.818  1.00  0.00    -0.460 OA
BRANCH  29  30
ATOM     30  C   UNL A   1      40.262  20.988  26.376  1.00  0.00     0.338 C 
ATOM     31  O   UNL A   1      41.023  20.040  26.355  1.00  0.00    -0.246 OA
BRANCH  30  32
ATOM     32  C   UNL A   1      40.644  22.351  26.801  1.00  0.00     0.060 A 
ATOM     33  C   UNL A   1      39.939  23.427  26.245  1.00  0.00     0.016 A 
ATOM     34  C   UNL A   1      41.603  22.563  27.795  1.00  0.00     0.016 A 
ATOM     35  C   UNL A   1      40.209  24.727  26.665  1.00  0.00     0.010 A 
ATOM     36  C   UNL A   1      41.887  23.866  28.200  1.00  0.00     0.010 A 
ATOM     37  C   UNL A   1      41.212  24.953  27.616  1.00  0.00    -0.014 A 
BRANCH  37  38
ATOM     38  C   UNL A   1      41.718  26.324  27.839  1.00  0.00     0.031 A 
ATOM     39  C   UNL A   1      43.107  26.639  27.357  1.00  0.00     0.074 A 
ATOM     40  C   UNL A   1      40.983  27.256  28.469  1.00  0.00     0.049 A 
ATOM     41  N   UNL A   1      43.796  27.740  27.480  1.00  0.00    -0.248 NA
ATOM     42  C   UNL A   1      43.813  25.560  26.642  1.00  0.00     0.031 C 
ATOM     43  C   UNL A   1      39.624  27.069  28.973  1.00  0.00     0.029 A 
ATOM     44  N   UNL A   1      41.298  28.546  28.816  1.00  0.00    -0.354 N 
ATOM     45  C   UNL A   1      45.021  27.483  26.878  1.00  0.00     0.074 A 
ATOM     46  C   UNL A   1      44.989  26.119  26.402  1.00  0.00     0.031 C 
ATOM     47  C   UNL A   1      39.231  28.197  29.592  1.00  0.00     0.029 A 
ATOM     48  C   UNL A   1      40.318  29.175  29.547  1.00  0.00     0.049 A 
ATOM     49  H   UNL A   1      42.145  28.980  28.563  1.00  0.00     0.167 HD
ATOM     50  C   UNL A   1      46.076  28.314  26.717  1.00  0.00     0.034 A 
ATOM     51  C   UNL A   1      40.315  30.392  30.127  1.00  0.00     0.034 A 
ATOM     52  C   UNL A   1      46.107  29.670  27.185  1.00  0.00     0.049 A 
ATOM     53  C   UNL A   1      41.523  31.284  29.970  1.00  0.00     0.074 A 
ATOM     54  C   UNL A   1      47.122  30.600  27.056  1.00  0.00     0.029 A 
ATOM     55  N   UNL A   1      45.082  30.286  27.883  1.00  0.00    -0.354 N 
ATOM     56  N   UNL A   1      42.629  31.070  29.298  1.00  0.00    -0.248 NA
ATOM     57  C   UNL A   1      41.471  32.597  30.632  1.00  0.00     0.031 C 
ATOM     58  C   UNL A   1      46.714  31.779  27.690  1.00  0.00     0.029 A 
ATOM     59  C   UNL A   1      45.439  31.585  28.198  1.00  0.00     0.049 A 
ATOM     60  H   UNL A   1      44.226  29.863  28.122  1.00  0.00     0.167 HD
ATOM     61  C   UNL A   1      43.383  32.233  29.421  1.00  0.00     0.074 A 
ATOM     62  C   UNL A   1      42.601  33.155  30.219  1.00  0.00     0.031 C 
ATOM     63  C   UNL A   1      44.618  32.510  28.935  1.00  0.00     0.034 A 
BRANCH  50  64
ATOM     64  C   UNL A   1      47.267  27.781  25.973  1.00  0.00     0.023 A 
ATOM     65  C   UNL A   1      48.273  27.094  26.683  1.00  0.00     0.012 A 
ATOM     66  C   UNL A   1      47.378  27.928  24.578  1.00  0.00     0.148 A 
ATOM     67  C   UNL A   1      49.385  26.582  26.017  1.00  0.00     0.002 A 
ATOM     68  C   UNL A   1      48.469  27.381  23.916  1.00  0.00     0.091 A 
ATOM     69  F   UNL A   1      46.425  28.614  23.930  1.00  0.00    -0.205 F 
ATOM     70  C   UNL A   1      49.478  26.716  24.634  1.00  0.00     0.022 A 
BRANCH  68  71
ATOM     71  S   UNL A   1      48.647  27.443  22.130  1.00  0.00     0.127 S 
ATOM     72  O   UNL A   1      47.453  28.192  21.741  1.00  0.00    -0.237 OA
ATOM     73  O   UNL A   1      49.904  28.174  21.971  1.00  0.00    -0.237 OA
ATOM     74  O   UNL A   1      48.690  26.057  21.685  1.00  0.00    -0.744 OA
ENDBRANCH  68  71
ENDBRANCH  50  64
BRANCH  51  75
ATOM     75  C   UNL A   1      39.119  30.867  30.879  1.00  0.00     0.023 A 
ATOM     76  C   UNL A   1      39.092  30.747  32.282  1.00  0.00     0.012 A 
ATOM     77  C   UNL A   1      38.008  31.426  30.217  1.00  0.00     0.148 A 
ATOM     78  C   UNL A   1      37.969  31.141  33.010  1.00  0.00     0.002 A 
ATOM     79  C   UNL A   1      36.913  31.865  30.954  1.00  0.00     0.091 A 
ATOM     80  F   UNL A   1      38.041  31.513  28.880  1.00  0.00    -0.205 F 
ATOM     81  C   UNL A   1      36.883  31.708  32.347  1.00  0.00     0.022 A 
BRANCH  79  82
ATOM     82  S   UNL A   1      35.526  32.715  30.192  1.00  0.00     0.127 S 
ATOM     83  O   UNL A   1      36.116  34.005  29.849  1.00  0.00    -0.237 OA
ATOM     84  O   UNL A   1      35.229  31.849  29.049  1.00  0.00    -0.237 OA
ATOM     85  O   UNL A   1      34.481  32.741  31.207  1.00  0.00    -0.744 OA
ENDBRANCH  79  82
ENDBRANCH  51  75
BRANCH  63  86
ATOM     86  C   UNL A   1      45.193  33.876  29.207  1.00  0.00     0.023 A 
ATOM     87  C   UNL A   1      45.782  34.148  30.457  1.00  0.00     0.012 A 
ATOM     88  C   UNL A   1      45.236  34.853  28.193  1.00  0.00     0.148 A 
ATOM     89  C   UNL A   1      46.381  35.382  30.702  1.00  0.00     0.002 A 
ATOM     90  C   UNL A   1      45.875  36.064  28.429  1.00  0.00     0.091 A 
ATOM     91  F   UNL A   1      44.655  34.580  27.016  1.00  0.00    -0.205 F 
ATOM     92  C   UNL A   1      46.440  36.334  29.687  1.00  0.00     0.022 A 
BRANCH  90  93
ATOM     93  S   UNL A   1      46.081  37.306  27.149  1.00  0.00     0.127 S 
ATOM     94  O   UNL A   1      44.708  37.775  26.965  1.00  0.00    -0.237 OA
ATOM     95  O   UNL A   1      46.975  38.272  27.791  1.00  0.00    -0.237 OA
ATOM     96  O   UNL A   1      46.665  36.612  26.009  1.00  0.00    -0.744 OA
ENDBRANCH  90  93
ENDBRANCH  63  86
ENDBRANCH  37  38
ENDBRANCH  30  32
ENDBRANCH  29  30
ENDBRANCH  28  29
ENDBRANCH  27  28
ENDBRANCH  26  27
ENDBRANCH   1  26
TORSDOF 22
ENDMDL
MODEL 2
REMARK VINA RESULT:     -10.3      2.662      3.997
REMARK SMILES C[C@@H]1[C@H](C(=O)OCCOCCOCCOC(=O)c2ccc(-c3c4nc(c(-c5cccc(S(=O)(=O)[O-])c5F)c5ccc([nH]5)c(-c5cccc(S(=O)(=O)[O-])c5F)c5nc(c(-c6cccc(S(=O)(=O)[O-])c6F)c6ccc3[nH]6)C=C5)C=C4)cc2)CCN1S(=O)(=O)c1cc(F)cc(F)c1
REMARK SMILES IDX 11 1 10 2 9 3 8 4 7 5 6 6 4 7 5 8 3 9 1 10 2 11 83 12 81 13
REMARK SMILES IDX 82 14 84 15 85 16 86 17 87 18 88 19 94 20 89 21 92 22 90 23
REMARK SMILES IDX 91 24 93 25 12 26 13 27 14 28 15 29 16 30 17 31 18 32 19 33
REMARK SMILES IDX 80 34 20 35 79 36 21 37 22 38 23 39 73 40 24 41 78 42 72 43
REMARK SMILES IDX 74 44 25 45 77 46 71 47 70 48 26 50 58 51 38 52 57 53 39 54
REMARK SMILES IDX 42 55 56 56 75 57 40 58 41 59 55 61 76 62 43 63 27 64 28 65
REMARK SMILES IDX 36 66 29 67 31 68 37 69 30 70 32 71 33 72 34 73 35 74 59 75
REMARK SMILES IDX 60 76 68 77 61 78 63 79 69 80 62 81 64 82 65 83 66 84 67 85
REMARK SMILES IDX 44 86 45 87 53 88 46 89 48 90 54 91 47 92 49 93 50 94 51 95
REMARK SMILES IDX 52 96
REMARK H PARENT 74 49 42 60
REMARK Flexibility Score: inf
ROOT
ATOM      1  C   UNL A   1      40.871  21.734  27.286  1.00  0.00     0.188 C 
ENDROOT
BRANCH   1   2
ATOM      2  C   UNL A   1      39.608  22.384  26.707  1.00  0.00     0.188 C 
BRANCH   2   3
ATOM      3  O   UNL A   1      38.985  21.770  25.594  1.00  0.00    -0.376 OA
BRANCH   3   4
ATOM      4  C   UNL A   1      37.593  21.462  25.693  1.00  0.00     0.202 C 
BRANCH   4   5
ATOM      5  C   UNL A   1      36.589  22.584  25.439  1.00  0.00     0.261 C 
BRANCH   5   6
ATOM      6  O   UNL A   1      35.406  22.018  24.846  1.00  0.00    -0.463 OA
BRANCH   6   7
ATOM      7  C   UNL A   1      34.235  22.431  25.381  1.00  0.00     0.310 C 
ATOM      8  O   UNL A   1      34.007  22.480  26.583  1.00  0.00    -0.252 OA
BRANCH   7   9
ATOM      9  C   UNL A   1      33.294  22.951  24.318  1.00  0.00     0.118 C 
ATOM     10  C   UNL A   1      34.259  25.332  24.578  1.00  0.00     0.027 C 
ATOM     11  C   UNL A   1      33.050  24.472  24.231  1.00  0.00     0.084 C 
ATOM     12  N   UNL A   1      32.547  24.664  22.823  1.00  0.00    -0.194 NA
ATOM     13  C   UNL A   1      33.810  22.618  22.931  1.00  0.00     0.034 C 
ATOM     14  C   UNL A   1      32.943  23.463  22.022  1.00  0.00     0.104 C 
BRANCH  12  15
ATOM     15  S   UNL A   1      32.612  26.108  21.939  1.00  0.00     0.243 S 
ATOM     16  O   UNL A   1      33.996  26.453  21.702  1.00  0.00    -0.207 OA
ATOM     17  O   UNL A   1      31.716  25.921  20.812  1.00  0.00    -0.207 OA
BRANCH  15  18
ATOM     18  C   UNL A   1      31.897  27.430  22.885  1.00  0.00     0.088 A 
ATOM     19  C   UNL A   1      30.533  27.687  22.673  1.00  0.00     0.061 A 
ATOM     20  C   UNL A   1      32.618  28.230  23.768  1.00  0.00     0.061 A 
ATOM     21  C   UNL A   1      29.917  28.747  23.327  1.00  0.00     0.127 A 
ATOM     22  C   UNL A   1      31.973  29.288  24.408  1.00  0.00     0.127 A 
ATOM     23  F   UNL A   1      28.623  29.002  23.094  1.00  0.00    -0.207 F 
ATOM     24  C   UNL A   1      30.628  29.558  24.196  1.00  0.00     0.078 A 
ATOM     25  F   UNL A   1      32.677  30.083  25.224  1.00  0.00    -0.207 F 
ENDBRANCH  15  18
ENDBRANCH  12  15
ENDBRANCH   7   9
ENDBRANCH   6   7
ENDBRANCH   5   6
ENDBRANCH   4   5
ENDBRANCH   3   4
ENDBRANCH   2   3
ENDBRANCH   1   2
BRANCH   1  26
ATOM     26  O   UNL A   1      40.886  20.421  27.822  1.00  0.00    -0.376 OA
BRANCH  26  27
ATOM     27  C   UNL A   1      41.708  19.426  27.217  1.00  0.00     0.202 C 
BRANCH  27  28
ATOM     28  C   UNL A   1      42.316  19.591  25.812  1.00  0.00     0.261 C 
BRANCH  28  29
ATOM     29  O   UNL A   1      43.688  19.233  25.684  1.00  0.00    -0.460 OA
BRANCH  29  30
ATOM     30  C   UNL A   1      44.312  19.767  24.601  1.00  0.00     0.338 C 
ATOM     31  O   UNL A   1      44.416  19.276  23.493  1.00  0.00    -0.246 OA
BRANCH  30  32
ATOM     32  C   UNL A   1      44.629  21.175  24.918  1.00  0.00     0.060 A 
ATOM     33  C   UNL A   1      45.063  21.466  26.219  1.00  0.00     0.016 A 
ATOM     34  C   UNL A   1      44.598  22.168  23.936  1.00  0.00     0.016 A 
ATOM     35  C   UNL A   1      45.445  22.764  26.550  1.00  0.00     0.010 A 
ATOM     36  C   UNL A   1      44.960  23.471  24.274  1.00  0.00     0.010 A 
ATOM     37  C   UNL A   1      45.357  23.778  25.588  1.00  0.00    -0.014 A 
BRANCH  37  38
ATOM     38  C   UNL A   1      45.457  25.194  26.002  1.00  0.00     0.031 A 
ATOM     39  C   UNL A   1      46.826  25.816  26.028  1.00  0.00     0.074 A 
ATOM     40  C   UNL A   1      44.375  25.902  26.368  1.00  0.00     0.049 A 
ATOM     41  N   UNL A   1      47.184  27.013  26.403  1.00  0.00    -0.248 NA
ATOM     42  C   UNL A   1      47.940  24.966  25.569  1.00  0.00     0.031 C 
ATOM     43  C   UNL A   1      43.000  25.410  26.378  1.00  0.00     0.029 A 
ATOM     44  N   UNL A   1      44.276  27.190  26.832  1.00  0.00    -0.354 N 
ATOM     45  C   UNL A   1      48.564  27.056  26.246  1.00  0.00     0.074 A 
ATOM     46  C   UNL A   1      48.981  25.762  25.755  1.00  0.00     0.031 C 
ATOM     47  C   UNL A   1      42.195  26.377  26.854  1.00  0.00     0.029 A 
ATOM     48  C   UNL A   1      43.001  27.546  27.202  1.00  0.00     0.049 A 
ATOM     49  H   UNL A   1      45.045  27.802  26.892  1.00  0.00     0.167 HD
ATOM     50  C   UNL A   1      49.409  28.086  26.472  1.00  0.00     0.034 A 
ATOM     51  C   UNL A   1      42.548  28.678  27.776  1.00  0.00     0.034 A 
ATOM     52  C   UNL A   1      48.996  29.372  26.955  1.00  0.00     0.049 A 
ATOM     53  C   UNL A   1      43.521  29.798  28.060  1.00  0.00     0.074 A 
ATOM     54  C   UNL A   1      49.773  30.489  27.200  1.00  0.00     0.029 A 
ATOM     55  N   UNL A   1      47.692  29.710  27.279  1.00  0.00    -0.354 N 
ATOM     56  N   UNL A   1      44.804  29.867  27.797  1.00  0.00    -0.248 NA
ATOM     57  C   UNL A   1      42.976  31.008  28.696  1.00  0.00     0.031 C 
ATOM     58  C   UNL A   1      48.939  31.501  27.687  1.00  0.00     0.029 A 
ATOM     59  C   UNL A   1      47.641  31.017  27.727  1.00  0.00     0.049 A 
ATOM     60  H   UNL A   1      46.917  29.107  27.203  1.00  0.00     0.167 HD
ATOM     61  C   UNL A   1      45.210  31.137  28.197  1.00  0.00     0.074 A 
ATOM     62  C   UNL A   1      44.032  31.811  28.704  1.00  0.00     0.031 C 
ATOM     63  C   UNL A   1      46.446  31.692  28.164  1.00  0.00     0.034 A 
BRANCH  50  64
ATOM     64  C   UNL A   1      50.863  27.866  26.163  1.00  0.00     0.023 A 
ATOM     65  C   UNL A   1      51.756  27.581  27.216  1.00  0.00     0.012 A 
ATOM     66  C   UNL A   1      51.340  27.909  24.840  1.00  0.00     0.148 A 
ATOM     67  C   UNL A   1      53.109  27.364  26.958  1.00  0.00     0.002 A 
ATOM     68  C   UNL A   1      52.681  27.653  24.586  1.00  0.00     0.091 A 
ATOM     69  F   UNL A   1      50.477  28.215  23.859  1.00  0.00    -0.205 F 
ATOM     70  C   UNL A   1      53.568  27.390  25.643  1.00  0.00     0.022 A 
BRANCH  68  71
ATOM     71  S   UNL A   1      53.356  27.599  22.923  1.00  0.00     0.127 S 
ATOM     72  O   UNL A   1      53.558  29.019  22.640  1.00  0.00    -0.237 OA
ATOM     73  O   UNL A   1      54.588  26.834  23.116  1.00  0.00    -0.237 OA
ATOM     74  O   UNL A   1      52.351  26.934  22.105  1.00  0.00    -0.744 OA
ENDBRANCH  68  71
ENDBRANCH  50  64
BRANCH  51  75
ATOM     75  C   UNL A   1      41.100  28.840  28.090  1.00  0.00     0.023 A 
ATOM     76  C   UNL A   1      40.191  29.102  27.046  1.00  0.00     0.012 A 
ATOM     77  C   UNL A   1      40.619  28.748  29.410  1.00  0.00     0.148 A 
ATOM     78  C   UNL A   1      38.837  29.303  27.314  1.00  0.00     0.002 A 
ATOM     79  C   UNL A   1      39.259  28.897  29.664  1.00  0.00     0.091 A 
ATOM     80  F   UNL A   1      41.500  28.520  30.394  1.00  0.00    -0.205 F 
ATOM     81  C   UNL A   1      38.370  29.192  28.621  1.00  0.00     0.022 A 
BRANCH  79  82
ATOM     82  S   UNL A   1      38.558  28.653  31.299  1.00  0.00     0.127 S 
ATOM     83  O   UNL A   1      39.216  29.705  32.068  1.00  0.00    -0.237 OA
ATOM     84  O   UNL A   1      37.131  28.868  31.054  1.00  0.00    -0.237 OA
ATOM     85  O   UNL A   1      38.900  27.285  31.668  1.00  0.00    -0.744 OA
ENDBRANCH  79  82
ENDBRANCH  51  75
BRANCH  63  86
ATOM     86  C   UNL A   1      46.595  33.111  28.648  1.00  0.00     0.023 A 
ATOM     87  C   UNL A   1      46.998  33.357  29.974  1.00  0.00     0.012 A 
ATOM     88  C   UNL A   1      46.430  34.194  27.762  1.00  0.00     0.148 A 
ATOM     89  C   UNL A   1      47.208  34.661  30.419  1.00  0.00     0.002 A 
ATOM     90  C   UNL A   1      46.685  35.488  28.199  1.00  0.00     0.091 A 
ATOM     91  F   UNL A   1      46.029  33.939  26.508  1.00  0.00    -0.205 F 
ATOM     92  C   UNL A   1      47.065  35.724  29.530  1.00  0.00     0.022 A 
BRANCH  90  93
ATOM     93  S   UNL A   1      46.620  36.904  27.096  1.00  0.00     0.127 S 
ATOM     94  O   UNL A   1      47.490  36.470  26.003  1.00  0.00    -0.237 OA
ATOM     95  O   UNL A   1      45.198  36.969  26.755  1.00  0.00    -0.237 OA
ATOM     96  O   UNL A   1      47.104  38.037  27.871  1.00  0.00    -0.744 OA
ENDBRANCH  90  93
ENDBRANCH  63  86
ENDBRANCH  37  38
ENDBRANCH  30  32
ENDBRANCH  29  30
ENDBRANCH  28  29
ENDBRANCH  27  28
ENDBRANCH  26  27
ENDBRANCH   1  26
TORSDOF 22
ENDMDL
MODEL 3
REMARK VINA RESULT:     -10.1      2.780      4.095
REMARK SMILES C[C@@H]1[C@H](C(=O)OCCOCCOCCOC(=O)c2ccc(-c3c4nc(c(-c5cccc(S(=O)(=O)[O-])c5F)c5ccc([nH]5)c(-c5cccc(S(=O)(=O)[O-])c5F)c5nc(c(-c6cccc(S(=O)(=O)[O-])c6F)c6ccc3[nH]6)C=C5)C=C4)cc2)CCN1S(=O)(=O)c1cc(F)cc(F)c1
REMARK SMILES IDX 11 1 10 2 9 3 8 4 7 5 6 6 4 7 5 8 3 9 1 10 2 11 83 12 81 13
REMARK SMILES IDX 82 14 84 15 85 16 86 17 87 18 88 19 94 20 89 21 92 22 90 23
REMARK SMILES IDX 91 24 93 25 12 26 13 27 14 28 15 29 16 30 17 31 18 32 19 33
REMARK SMILES IDX 80 34 20 35 79 36 21 37 22 38 23 39 73 40 24 41 78 42 72 43
REMARK SMILES IDX 74 44 25 45 77 46 71 47 70 48 26 50 58 51 38 52 57 53 39 54
REMARK SMILES IDX 42 55 56 56 75 57 40 58 41 59 55 61 76 62 43 63 27 64 28 65
REMARK SMILES IDX 36 66 29 67 31 68 37 69 30 70 32 71 33 72 34 73 35 74 59 75
REMARK SMILES IDX 60 76 68 77 61 78 63 79 69 80 62 81 64 82 65 83 66 84 67 85
REMARK SMILES IDX 44 86 45 87 53 88 46 89 48 90 54 91 47 92 49 93 50 94 51 95
REMARK SMILES IDX 52 96
REMARK H PARENT 74 49 42 60
REMARK Flexibility Score: inf
ROOT
ATOM      1  C   UNL A   1      40.888  21.744  27.465  1.00  0.00     0.188 C 
ENDROOT
BRANCH   1   2
ATOM      2  C   UNL A   1      39.789  22.255  26.524  1.00  0.00     0.188 C 
BRANCH   2   3
ATOM      3  O   UNL A   1      39.073  21.310  25.751  1.00  0.00    -0.376 OA
BRANCH   3   4
ATOM      4  C   UNL A   1      37.720  21.617  25.405  1.00  0.00     0.202 C 
BRANCH   4   5
ATOM      5  C   UNL A   1      37.192  23.010  25.740  1.00  0.00     0.261 C 
BRANCH   5   6
ATOM      6  O   UNL A   1      36.935  23.712  24.510  1.00  0.00    -0.463 OA
BRANCH   6   7
ATOM      7  C   UNL A   1      35.778  23.389  23.889  1.00  0.00     0.310 C 
ATOM      8  O   UNL A   1      35.705  22.997  22.732  1.00  0.00    -0.252 OA
BRANCH   7   9
ATOM      9  C   UNL A   1      34.606  23.441  24.842  1.00  0.00     0.118 C 
ATOM     10  C   UNL A   1      33.645  25.494  23.606  1.00  0.00     0.027 C 
ATOM     11  C   UNL A   1      33.780  24.742  24.924  1.00  0.00     0.084 C 
ATOM     12  N   UNL A   1      32.466  24.284  25.505  1.00  0.00    -0.194 NA
ATOM     13  C   UNL A   1      33.561  22.407  24.469  1.00  0.00     0.034 C 
ATOM     14  C   UNL A   1      32.361  22.805  25.303  1.00  0.00     0.104 C 
BRANCH  12  15
ATOM     15  S   UNL A   1      30.982  25.087  25.346  1.00  0.00     0.243 S 
ATOM     16  O   UNL A   1      30.435  24.812  24.036  1.00  0.00    -0.207 OA
ATOM     17  O   UNL A   1      30.218  24.741  26.531  1.00  0.00    -0.207 OA
BRANCH  15  18
ATOM     18  C   UNL A   1      31.231  26.843  25.451  1.00  0.00     0.088 A 
ATOM     19  C   UNL A   1      30.807  27.604  24.350  1.00  0.00     0.061 A 
ATOM     20  C   UNL A   1      31.853  27.475  26.526  1.00  0.00     0.061 A 
ATOM     21  C   UNL A   1      31.027  28.976  24.329  1.00  0.00     0.127 A 
ATOM     22  C   UNL A   1      32.062  28.853  26.475  1.00  0.00     0.127 A 
ATOM     23  F   UNL A   1      30.646  29.688  23.260  1.00  0.00    -0.207 F 
ATOM     24  C   UNL A   1      31.656  29.613  25.386  1.00  0.00     0.078 A 
ATOM     25  F   UNL A   1      32.697  29.454  27.489  1.00  0.00    -0.207 F 
ENDBRANCH  15  18
ENDBRANCH  12  15
ENDBRANCH   7   9
ENDBRANCH   6   7
ENDBRANCH   5   6
ENDBRANCH   4   5
ENDBRANCH   3   4
ENDBRANCH   2   3
ENDBRANCH   1   2
BRANCH   1  26
ATOM     26  O   UNL A   1      40.897  20.428  27.996  1.00  0.00    -0.376 OA
BRANCH  26  27
ATOM     27  C   UNL A   1      41.681  19.421  27.362  1.00  0.00     0.202 C 
BRANCH  27  28
ATOM     28  C   UNL A   1      42.231  19.573  25.932  1.00  0.00     0.261 C 
BRANCH  28  29
ATOM     29  O   UNL A   1      43.608  19.254  25.759  1.00  0.00    -0.460 OA
BRANCH  29  30
ATOM     30  C   UNL A   1      44.192  19.836  24.679  1.00  0.00     0.338 C 
ATOM     31  O   UNL A   1      44.286  19.379  23.556  1.00  0.00    -0.246 OA
BRANCH  30  32
ATOM     32  C   UNL A   1      44.474  21.243  25.030  1.00  0.00     0.060 A 
ATOM     33  C   UNL A   1      45.262  21.485  26.164  1.00  0.00     0.016 A 
ATOM     34  C   UNL A   1      44.061  22.296  24.209  1.00  0.00     0.016 A 
ATOM     35  C   UNL A   1      45.619  22.790  26.497  1.00  0.00     0.010 A 
ATOM     36  C   UNL A   1      44.401  23.603  24.555  1.00  0.00     0.010 A 
ATOM     37  C   UNL A   1      45.156  23.855  25.715  1.00  0.00    -0.014 A 
BRANCH  37  38
ATOM     38  C   UNL A   1      45.262  25.240  26.223  1.00  0.00     0.031 A 
ATOM     39  C   UNL A   1      46.586  25.937  26.070  1.00  0.00     0.074 A 
ATOM     40  C   UNL A   1      44.228  25.854  26.822  1.00  0.00     0.049 A 
ATOM     41  N   UNL A   1      46.949  27.121  26.479  1.00  0.00    -0.248 NA
ATOM     42  C   UNL A   1      47.642  25.190  25.363  1.00  0.00     0.031 C 
ATOM     43  C   UNL A   1      42.898  25.283  27.020  1.00  0.00     0.029 A 
ATOM     44  N   UNL A   1      44.152  27.097  27.401  1.00  0.00    -0.354 N 
ATOM     45  C   UNL A   1      48.278  27.256  26.098  1.00  0.00     0.074 A 
ATOM     46  C   UNL A   1      48.663  26.029  25.437  1.00  0.00     0.031 C 
ATOM     47  C   UNL A   1      42.144  26.163  27.703  1.00  0.00     0.029 A 
ATOM     48  C   UNL A   1      42.945  27.348  28.008  1.00  0.00     0.049 A 
ATOM     49  H   UNL A   1      44.892  27.745  27.383  1.00  0.00     0.167 HD
ATOM     50  C   UNL A   1      49.103  28.315  26.264  1.00  0.00     0.034 A 
ATOM     51  C   UNL A   1      42.546  28.407  28.741  1.00  0.00     0.034 A 
ATOM     52  C   UNL A   1      48.721  29.535  26.916  1.00  0.00     0.049 A 
ATOM     53  C   UNL A   1      43.502  29.557  28.951  1.00  0.00     0.074 A 
ATOM     54  C   UNL A   1      49.478  30.674  27.119  1.00  0.00     0.029 A 
ATOM     55  N   UNL A   1      47.478  29.770  27.480  1.00  0.00    -0.354 N 
ATOM     56  N   UNL A   1      44.717  29.720  28.485  1.00  0.00    -0.248 NA
ATOM     57  C   UNL A   1      43.020  30.682  29.768  1.00  0.00     0.031 C 
ATOM     58  C   UNL A   1      48.694  31.596  27.821  1.00  0.00     0.029 A 
ATOM     59  C   UNL A   1      47.445  31.036  28.037  1.00  0.00     0.049 A 
ATOM     60  H   UNL A   1      46.728  29.131  27.485  1.00  0.00     0.167 HD
ATOM     61  C   UNL A   1      45.127  30.978  28.915  1.00  0.00     0.074 A 
ATOM     62  C   UNL A   1      44.025  31.542  29.666  1.00  0.00     0.031 C 
ATOM     63  C   UNL A   1      46.314  31.605  28.722  1.00  0.00     0.034 A 
BRANCH  50  64
ATOM     64  C   UNL A   1      50.490  28.204  25.700  1.00  0.00     0.023 A 
ATOM     65  C   UNL A   1      50.728  28.608  24.370  1.00  0.00     0.012 A 
ATOM     66  C   UNL A   1      51.559  27.734  26.485  1.00  0.00     0.148 A 
ATOM     67  C   UNL A   1      52.008  28.524  23.822  1.00  0.00     0.002 A 
ATOM     68  C   UNL A   1      52.838  27.690  25.945  1.00  0.00     0.091 A 
ATOM     69  F   UNL A   1      51.301  27.324  27.735  1.00  0.00    -0.205 F 
ATOM     70  C   UNL A   1      53.063  28.075  24.613  1.00  0.00     0.022 A 
BRANCH  68  71
ATOM     71  S   UNL A   1      54.273  27.189  26.901  1.00  0.00     0.127 S 
ATOM     72  O   UNL A   1      55.360  27.445  25.957  1.00  0.00    -0.237 OA
ATOM     73  O   UNL A   1      54.223  28.109  28.037  1.00  0.00    -0.237 OA
ATOM     74  O   UNL A   1      54.058  25.790  27.242  1.00  0.00    -0.744 OA
ENDBRANCH  68  71
ENDBRANCH  50  64
BRANCH  51  75
ATOM     75  C   UNL A   1      41.167  28.460  29.305  1.00  0.00     0.023 A 
ATOM     76  C   UNL A   1      40.897  27.825  30.533  1.00  0.00     0.012 A 
ATOM     77  C   UNL A   1      40.123  29.123  28.632  1.00  0.00     0.148 A 
ATOM     78  C   UNL A   1      39.607  27.819  31.063  1.00  0.00     0.002 A 
ATOM     79  C   UNL A   1      38.850  29.158  29.193  1.00  0.00     0.091 A 
ATOM     80  F   UNL A   1      40.392  29.703  27.454  1.00  0.00    -0.205 F 
ATOM     81  C   UNL A   1      38.586  28.493  30.398  1.00  0.00     0.022 A 
BRANCH  79  82
ATOM     82  S   UNL A   1      37.508  30.103  28.462  1.00  0.00     0.127 S 
ATOM     83  O   UNL A   1      37.588  29.701  27.061  1.00  0.00    -0.237 OA
ATOM     84  O   UNL A   1      36.344  29.588  29.186  1.00  0.00    -0.237 OA
ATOM     85  O   UNL A   1      37.817  31.499  28.744  1.00  0.00    -0.744 OA
ENDBRANCH  79  82
ENDBRANCH  51  75
BRANCH  63  86
ATOM     86  C   UNL A   1      46.479  32.990  29.291  1.00  0.00     0.023 A 
ATOM     87  C   UNL A   1      47.044  33.157  30.570  1.00  0.00     0.012 A 
ATOM     88  C   UNL A   1      46.166  34.127  28.519  1.00  0.00     0.148 A 
ATOM     89  C   UNL A   1      47.269  34.433  31.084  1.00  0.00     0.002 A 
ATOM     90  C   UNL A   1      46.435  35.395  29.019  1.00  0.00     0.091 A 
ATOM     91  F   UNL A   1      45.614  33.947  27.311  1.00  0.00    -0.205 F 
ATOM     92  C   UNL A   1      46.977  35.551  30.305  1.00  0.00     0.022 A 
BRANCH  90  93
ATOM     93  S   UNL A   1      46.182  36.884  28.045  1.00  0.00     0.127 S 
ATOM     94  O   UNL A   1      46.902  37.882  28.835  1.00  0.00    -0.237 OA
ATOM     95  O   UNL A   1      46.818  36.537  26.773  1.00  0.00    -0.237 OA
ATOM     96  O   UNL A   1      44.739  37.068  27.965  1.00  0.00    -0.744 OA
ENDBRANCH  90  93
ENDBRANCH  63  86
ENDBRANCH  37  38
ENDBRANCH  30  32
ENDBRANCH  29  30
ENDBRANCH  28  29
ENDBRANCH  27  28
ENDBRANCH  26  27
ENDBRANCH   1  26
TORSDOF 22
ENDMDL
