MODEL 1
REMARK VINA RESULT:     -10.6      0.000      0.000
REMARK SMILES CS(=O)(=O)c1ccc(C2=NN(c3ccc(C(=O)OCCOCCOCCOC(=O)c4ccc(-c5c6nc(c(-c7cccc(S(=O)(=O)[O-])c7F)c7ccc([nH]7)c(-c7cccc(S(=O)(=O)[O-])c7F)c7nc(c(-c8cccc(S(=O)(=O)[O-])c8F)c8ccc5[nH]8)C=C7)C=C6)cc4)cc3)[C@H](c3cccs3)C2)cc1
REMARK SMILES IDX 22 1 21 2 20 3 19 4 18 5 16 6 17 7 15 8 12 9 13 10 94 11
REMARK SMILES IDX 14 12 93 13 11 14 9 15 10 16 101 17 95 18 8 19 5 20 6 21
REMARK SMILES IDX 103 22 7 23 102 24 2 25 1 26 3 27 4 28 96 29 97 30 100 31
REMARK SMILES IDX 98 32 99 33 23 34 24 35 25 36 26 37 27 38 28 39 29 40 30 41
REMARK SMILES IDX 31 42 92 43 32 44 91 45 33 46 34 47 35 48 85 49 36 50 90 51
REMARK SMILES IDX 84 52 86 53 37 54 89 55 83 56 82 57 38 59 70 60 50 61 69 62
REMARK SMILES IDX 51 63 54 64 68 65 87 66 52 67 53 68 67 70 88 71 55 72 39 73
REMARK SMILES IDX 40 74 48 75 41 76 43 77 49 78 42 79 44 80 45 81 46 82 47 83
REMARK SMILES IDX 71 84 72 85 80 86 73 87 75 88 81 89 74 90 76 91 77 92 78 93
REMARK SMILES IDX 79 94 56 95 57 96 65 97 58 98 60 99 66 100 59 101 61 102
REMARK SMILES IDX 62 103 63 104 64 105
REMARK H PARENT 86 58 54 69
REMARK Flexibility Score: inf
ROOT
ATOM      1  C   UNL A   1      31.034  31.342  25.745  1.00  0.00     0.188 C 
ENDROOT
BRANCH   1   2
ATOM      2  O   UNL A   1      30.294  32.266  24.982  1.00  0.00    -0.376 OA
BRANCH   2   3
ATOM      3  C   UNL A   1      29.207  31.845  24.179  1.00  0.00     0.202 C 
BRANCH   3   4
ATOM      4  C   UNL A   1      29.140  31.901  22.641  1.00  0.00     0.261 C 
BRANCH   4   5
ATOM      5  O   UNL A   1      28.906  30.678  21.942  1.00  0.00    -0.460 OA
BRANCH   5   6
ATOM      6  C   UNL A   1      28.100  29.785  22.571  1.00  0.00     0.338 C 
ATOM      7  O   UNL A   1      26.904  29.895  22.774  1.00  0.00    -0.246 OA
BRANCH   6   8
ATOM      8  C   UNL A   1      28.862  28.554  22.886  1.00  0.00     0.060 A 
ATOM      9  C   UNL A   1      30.296  26.267  23.667  1.00  0.00     0.060 A 
ATOM     10  C   UNL A   1      28.933  26.378  23.964  1.00  0.00     0.029 A 
ATOM     11  C   UNL A   1      30.892  27.256  22.869  1.00  0.00     0.029 A 
ATOM     12  C   UNL A   1      28.220  27.522  23.586  1.00  0.00     0.018 A 
ATOM     13  C   UNL A   1      30.192  28.402  22.492  1.00  0.00     0.018 A 
BRANCH   9  14
ATOM     14  N   UNL A   1      31.107  25.308  24.278  1.00  0.00    -0.257 N 
ATOM     15  C   UNL A   1      31.678  23.304  24.698  1.00  0.00     0.071 C 
ATOM     16  N   UNL A   1      31.324  24.088  23.725  1.00  0.00    -0.176 NA
ATOM     17  C   UNL A   1      31.588  23.887  26.082  1.00  0.00     0.091 C 
ATOM     18  C   UNL A   1      31.234  25.339  25.744  1.00  0.00     0.154 C 
BRANCH  15  19
ATOM     19  C   UNL A   1      32.180  21.933  24.491  1.00  0.00    -0.002 A 
ATOM     20  C   UNL A   1      33.114  19.321  24.201  1.00  0.00     0.067 A 
ATOM     21  C   UNL A   1      33.347  20.009  25.396  1.00  0.00     0.021 A 
ATOM     22  C   UNL A   1      32.420  19.933  23.151  1.00  0.00     0.021 A 
ATOM     23  C   UNL A   1      32.882  21.318  25.535  1.00  0.00     0.011 A 
ATOM     24  C   UNL A   1      31.944  21.241  23.298  1.00  0.00     0.011 A 
BRANCH  20  25
ATOM     25  S   UNL A   1      33.727  17.663  23.993  1.00  0.00     0.175 S 
ATOM     26  C   UNL A   1      32.801  16.667  25.129  1.00  0.00     0.163 C 
ATOM     27  O   UNL A   1      35.109  17.668  24.425  1.00  0.00    -0.224 OA
ATOM     28  O   UNL A   1      33.353  17.229  22.660  1.00  0.00    -0.224 OA
ENDBRANCH  20  25
ENDBRANCH  15  19
BRANCH  18  29
ATOM     29  C   UNL A   1      32.178  26.414  26.259  1.00  0.00     0.030 A 
ATOM     30  C   UNL A   1      31.845  27.427  27.148  1.00  0.00     0.017 A 
ATOM     31  S   UNL A   1      33.790  26.603  25.708  1.00  0.00    -0.147 S 
ATOM     32  C   UNL A   1      32.885  28.382  27.318  1.00  0.00     0.012 A 
ATOM     33  C   UNL A   1      34.014  28.033  26.617  1.00  0.00     0.065 A 
ENDBRANCH  18  29
ENDBRANCH   9  14
ENDBRANCH   6   8
ENDBRANCH   5   6
ENDBRANCH   4   5
ENDBRANCH   3   4
ENDBRANCH   2   3
ENDBRANCH   1   2
BRANCH   1  34
ATOM     34  C   UNL A   1      31.749  31.901  26.993  1.00  0.00     0.188 C 
BRANCH  34  35
ATOM     35  O   UNL A   1      31.812  33.298  27.214  1.00  0.00    -0.376 OA
BRANCH  35  36
ATOM     36  C   UNL A   1      33.034  33.879  27.643  1.00  0.00     0.202 C 
BRANCH  36  37
ATOM     37  C   UNL A   1      33.530  33.837  29.101  1.00  0.00     0.261 C 
BRANCH  37  38
ATOM     38  O   UNL A   1      34.030  32.586  29.586  1.00  0.00    -0.460 OA
BRANCH  38  39
ATOM     39  C   UNL A   1      34.714  32.640  30.755  1.00  0.00     0.338 C 
ATOM     40  O   UNL A   1      34.253  32.833  31.873  1.00  0.00    -0.246 OA
BRANCH  39  41
ATOM     41  C   UNL A   1      36.113  32.253  30.511  1.00  0.00     0.060 A 
ATOM     42  C   UNL A   1      36.839  31.619  31.533  1.00  0.00     0.016 A 
ATOM     43  C   UNL A   1      36.717  32.545  29.290  1.00  0.00     0.016 A 
ATOM     44  C   UNL A   1      38.176  31.281  31.336  1.00  0.00     0.010 A 
ATOM     45  C   UNL A   1      38.065  32.232  29.105  1.00  0.00     0.010 A 
ATOM     46  C   UNL A   1      38.806  31.622  30.134  1.00  0.00    -0.014 A 
BRANCH  46  47
ATOM     47  C   UNL A   1      40.278  31.509  29.999  1.00  0.00     0.031 A 
ATOM     48  C   UNL A   1      41.124  32.665  30.453  1.00  0.00     0.074 A 
ATOM     49  C   UNL A   1      40.847  30.429  29.436  1.00  0.00     0.049 A 
ATOM     50  N   UNL A   1      42.409  32.858  30.314  1.00  0.00    -0.248 NA
ATOM     51  C   UNL A   1      40.423  33.757  31.151  1.00  0.00     0.031 C 
ATOM     52  C   UNL A   1      40.134  29.241  28.973  1.00  0.00     0.029 A 
ATOM     53  N   UNL A   1      42.161  30.181  29.120  1.00  0.00    -0.354 N 
ATOM     54  C   UNL A   1      42.665  34.107  30.865  1.00  0.00     0.074 A 
ATOM     55  C   UNL A   1      41.402  34.629  31.341  1.00  0.00     0.031 C 
ATOM     56  C   UNL A   1      41.012  28.407  28.392  1.00  0.00     0.029 A 
ATOM     57  C   UNL A   1      42.340  29.018  28.409  1.00  0.00     0.049 A 
ATOM     58  H   UNL A   1      42.900  30.777  29.378  1.00  0.00     0.167 HD
ATOM     59  C   UNL A   1      43.845  34.760  30.970  1.00  0.00     0.034 A 
ATOM     60  C   UNL A   1      43.442  28.527  27.806  1.00  0.00     0.034 A 
ATOM     61  C   UNL A   1      45.099  34.232  30.506  1.00  0.00     0.049 A 
ATOM     62  C   UNL A   1      44.740  29.291  27.903  1.00  0.00     0.074 A 
ATOM     63  C   UNL A   1      46.357  34.795  30.609  1.00  0.00     0.029 A 
ATOM     64  N   UNL A   1      45.251  33.028  29.835  1.00  0.00    -0.354 N 
ATOM     65  N   UNL A   1      44.990  30.424  28.516  1.00  0.00    -0.248 NA
ATOM     66  C   UNL A   1      45.915  28.697  27.246  1.00  0.00     0.031 C 
ATOM     67  C   UNL A   1      47.266  33.951  29.963  1.00  0.00     0.029 A 
ATOM     68  C   UNL A   1      46.580  32.839  29.502  1.00  0.00     0.049 A 
ATOM     69  H   UNL A   1      44.521  32.402  29.628  1.00  0.00     0.167 HD
ATOM     70  C   UNL A   1      46.353  30.652  28.360  1.00  0.00     0.074 A 
ATOM     71  C   UNL A   1      46.878  29.538  27.600  1.00  0.00     0.031 C 
ATOM     72  C   UNL A   1      47.101  31.695  28.799  1.00  0.00     0.034 A 
BRANCH  59  73
ATOM     73  C   UNL A   1      43.839  36.120  31.616  1.00  0.00     0.023 A 
ATOM     74  C   UNL A   1      43.923  36.233  33.018  1.00  0.00     0.012 A 
ATOM     75  C   UNL A   1      43.804  37.287  30.828  1.00  0.00     0.148 A 
ATOM     76  C   UNL A   1      43.936  37.487  33.629  1.00  0.00     0.002 A 
ATOM     77  C   UNL A   1      43.867  38.533  31.440  1.00  0.00     0.091 A 
ATOM     78  F   UNL A   1      43.702  37.159  29.497  1.00  0.00    -0.205 F 
ATOM     79  C   UNL A   1      43.920  38.635  32.840  1.00  0.00     0.022 A 
BRANCH  77  80
ATOM     80  S   UNL A   1      43.936  40.067  30.510  1.00  0.00     0.127 S 
ATOM     81  O   UNL A   1      42.760  39.945  29.650  1.00  0.00    -0.237 OA
ATOM     82  O   UNL A   1      43.815  41.072  31.567  1.00  0.00    -0.237 OA
ATOM     83  O   UNL A   1      45.217  40.063  29.816  1.00  0.00    -0.744 OA
ENDBRANCH  77  80
ENDBRANCH  59  73
BRANCH  60  84
ATOM     84  C   UNL A   1      43.378  27.235  27.065  1.00  0.00     0.023 A 
ATOM     85  C   UNL A   1      42.997  27.229  25.709  1.00  0.00     0.012 A 
ATOM     86  C   UNL A   1      43.692  26.015  27.695  1.00  0.00     0.148 A 
ATOM     87  C   UNL A   1      42.896  26.029  25.004  1.00  0.00     0.002 A 
ATOM     88  C   UNL A   1      43.644  24.829  26.972  1.00  0.00     0.091 A 
ATOM     89  F   UNL A   1      44.038  26.039  28.990  1.00  0.00    -0.205 F 
ATOM     90  C   UNL A   1      43.228  24.832  25.632  1.00  0.00     0.022 A 
BRANCH  88  91
ATOM     91  S   UNL A   1      44.165  23.254  27.659  1.00  0.00     0.127 S 
ATOM     92  O   UNL A   1      45.391  23.625  28.361  1.00  0.00    -0.237 OA
ATOM     93  O   UNL A   1      43.036  22.918  28.528  1.00  0.00    -0.237 OA
ATOM     94  O   UNL A   1      44.336  22.362  26.521  1.00  0.00    -0.744 OA
ENDBRANCH  88  91
ENDBRANCH  60  84
BRANCH  72  95
ATOM     95  C   UNL A   1      48.585  31.666  28.536  1.00  0.00     0.023 A 
ATOM     96  C   UNL A   1      49.438  30.905  29.357  1.00  0.00     0.012 A 
ATOM     97  C   UNL A   1      49.115  32.313  27.400  1.00  0.00     0.148 A 
ATOM     98  C   UNL A   1      50.799  30.809  29.068  1.00  0.00     0.002 A 
ATOM     99  C   UNL A   1      50.462  32.171  27.089  1.00  0.00     0.091 A 
ATOM    100  F   UNL A   1      48.289  33.045  26.639  1.00  0.00    -0.205 F 
ATOM    101  C   UNL A   1      51.307  31.429  27.928  1.00  0.00     0.022 A 
BRANCH  99 102
ATOM    102  S   UNL A   1      51.185  32.846  25.590  1.00  0.00     0.127 S 
ATOM    103  O   UNL A   1      52.465  33.355  26.080  1.00  0.00    -0.237 OA
ATOM    104  O   UNL A   1      51.285  31.663  24.736  1.00  0.00    -0.237 OA
ATOM    105  O   UNL A   1      50.257  33.862  25.114  1.00  0.00    -0.744 OA
ENDBRANCH  99 102
ENDBRANCH  72  95
ENDBRANCH  46  47
ENDBRANCH  39  41
ENDBRANCH  38  39
ENDBRANCH  37  38
ENDBRANCH  36  37
ENDBRANCH  35  36
ENDBRANCH  34  35
ENDBRANCH   1  34
TORSDOF 24
ENDMDL
MODEL 2
REMARK VINA RESULT:     -10.5      5.499      9.524
REMARK SMILES CS(=O)(=O)c1ccc(C2=NN(c3ccc(C(=O)OCCOCCOCCOC(=O)c4ccc(-c5c6nc(c(-c7cccc(S(=O)(=O)[O-])c7F)c7ccc([nH]7)c(-c7cccc(S(=O)(=O)[O-])c7F)c7nc(c(-c8cccc(S(=O)(=O)[O-])c8F)c8ccc5[nH]8)C=C7)C=C6)cc4)cc3)[C@H](c3cccs3)C2)cc1
REMARK SMILES IDX 22 1 21 2 20 3 19 4 18 5 16 6 17 7 15 8 12 9 13 10 94 11
REMARK SMILES IDX 14 12 93 13 11 14 9 15 10 16 101 17 95 18 8 19 5 20 6 21
REMARK SMILES IDX 103 22 7 23 102 24 2 25 1 26 3 27 4 28 96 29 97 30 100 31
REMARK SMILES IDX 98 32 99 33 23 34 24 35 25 36 26 37 27 38 28 39 29 40 30 41
REMARK SMILES IDX 31 42 92 43 32 44 91 45 33 46 34 47 35 48 85 49 36 50 90 51
REMARK SMILES IDX 84 52 86 53 37 54 89 55 83 56 82 57 38 59 70 60 50 61 69 62
REMARK SMILES IDX 51 63 54 64 68 65 87 66 52 67 53 68 67 70 88 71 55 72 39 73
REMARK SMILES IDX 40 74 48 75 41 76 43 77 49 78 42 79 44 80 45 81 46 82 47 83
REMARK SMILES IDX 71 84 72 85 80 86 73 87 75 88 81 89 74 90 76 91 77 92 78 93
REMARK SMILES IDX 79 94 56 95 57 96 65 97 58 98 60 99 66 100 59 101 61 102
REMARK SMILES IDX 62 103 63 104 64 105
REMARK H PARENT 86 58 54 69
REMARK Flexibility Score: inf
ROOT
ATOM      1  C   UNL A   1      33.164  28.931  23.977  1.00  0.00     0.188 C 
ENDROOT
BRANCH   1   2
ATOM      2  O   UNL A   1      32.033  29.331  23.239  1.00  0.00    -0.376 OA
BRANCH   2   3
ATOM      3  C   UNL A   1      30.728  29.190  23.770  1.00  0.00     0.202 C 
BRANCH   3   4
ATOM      4  C   UNL A   1      29.594  28.332  23.178  1.00  0.00     0.261 C 
BRANCH   4   5
ATOM      5  O   UNL A   1      29.811  26.924  23.077  1.00  0.00    -0.460 OA
BRANCH   5   6
ATOM      6  C   UNL A   1      29.784  26.238  24.249  1.00  0.00     0.338 C 
ATOM      7  O   UNL A   1      28.811  26.024  24.948  1.00  0.00    -0.246 OA
BRANCH   6   8
ATOM      8  C   UNL A   1      31.119  25.655  24.521  1.00  0.00     0.060 A 
ATOM      9  C   UNL A   1      33.604  24.406  24.922  1.00  0.00     0.060 A 
ATOM     10  C   UNL A   1      33.298  24.984  23.685  1.00  0.00     0.029 A 
ATOM     11  C   UNL A   1      32.700  24.572  25.983  1.00  0.00     0.029 A 
ATOM     12  C   UNL A   1      32.056  25.597  23.480  1.00  0.00     0.018 A 
ATOM     13  C   UNL A   1      31.458  25.177  25.789  1.00  0.00     0.018 A 
BRANCH   9  14
ATOM     14  N   UNL A   1      34.681  23.530  25.080  1.00  0.00    -0.257 N 
ATOM     15  C   UNL A   1      36.749  23.101  25.321  1.00  0.00     0.071 C 
ATOM     16  N   UNL A   1      35.807  23.886  25.749  1.00  0.00    -0.176 NA
ATOM     17  C   UNL A   1      36.388  22.205  24.167  1.00  0.00     0.091 C 
ATOM     18  C   UNL A   1      34.888  22.492  24.058  1.00  0.00     0.154 C 
BRANCH  15  19
ATOM     19  C   UNL A   1      38.091  23.039  25.930  1.00  0.00    -0.002 A 
ATOM     20  C   UNL A   1      40.657  22.857  27.007  1.00  0.00     0.067 A 
ATOM     21  C   UNL A   1      40.092  21.744  26.376  1.00  0.00     0.021 A 
ATOM     22  C   UNL A   1      39.944  24.058  27.104  1.00  0.00     0.021 A 
ATOM     23  C   UNL A   1      38.805  21.838  25.842  1.00  0.00     0.011 A 
ATOM     24  C   UNL A   1      38.659  24.153  26.558  1.00  0.00     0.011 A 
BRANCH  20  25
ATOM     25  S   UNL A   1      42.283  22.746  27.721  1.00  0.00     0.175 S 
ATOM     26  C   UNL A   1      42.793  21.065  27.486  1.00  0.00     0.163 C 
ATOM     27  O   UNL A   1      42.135  22.976  29.143  1.00  0.00    -0.224 OA
ATOM     28  O   UNL A   1      43.166  23.564  26.911  1.00  0.00    -0.224 OA
ENDBRANCH  20  25
ENDBRANCH  15  19
BRANCH  18  29
ATOM     29  C   UNL A   1      33.949  21.303  24.187  1.00  0.00     0.030 A 
ATOM     30  C   UNL A   1      34.186  20.160  24.939  1.00  0.00     0.017 A 
ATOM     31  S   UNL A   1      32.487  21.149  23.306  1.00  0.00    -0.147 S 
ATOM     32  C   UNL A   1      33.208  19.148  24.737  1.00  0.00     0.012 A 
ATOM     33  C   UNL A   1      32.207  19.570  23.897  1.00  0.00     0.065 A 
ENDBRANCH  18  29
ENDBRANCH   9  14
ENDBRANCH   6   8
ENDBRANCH   5   6
ENDBRANCH   4   5
ENDBRANCH   3   4
ENDBRANCH   2   3
ENDBRANCH   1   2
BRANCH   1  34
ATOM     34  C   UNL A   1      32.934  28.637  25.475  1.00  0.00     0.188 C 
BRANCH  34  35
ATOM     35  O   UNL A   1      33.646  29.359  26.462  1.00  0.00    -0.376 OA
BRANCH  35  36
ATOM     36  C   UNL A   1      33.140  30.608  26.910  1.00  0.00     0.202 C 
BRANCH  36  37
ATOM     37  C   UNL A   1      34.002  31.672  27.616  1.00  0.00     0.261 C 
BRANCH  37  38
ATOM     38  O   UNL A   1      33.344  32.531  28.554  1.00  0.00    -0.460 OA
BRANCH  38  39
ATOM     39  C   UNL A   1      33.928  33.736  28.758  1.00  0.00     0.338 C 
ATOM     40  O   UNL A   1      33.534  34.826  28.363  1.00  0.00    -0.246 OA
BRANCH  39  41
ATOM     41  C   UNL A   1      35.053  33.572  29.694  1.00  0.00     0.060 A 
ATOM     42  C   UNL A   1      36.287  34.170  29.397  1.00  0.00     0.016 A 
ATOM     43  C   UNL A   1      34.897  32.802  30.846  1.00  0.00     0.016 A 
ATOM     44  C   UNL A   1      37.375  33.994  30.250  1.00  0.00     0.010 A 
ATOM     45  C   UNL A   1      35.995  32.603  31.685  1.00  0.00     0.010 A 
ATOM     46  C   UNL A   1      37.243  33.177  31.379  1.00  0.00    -0.014 A 
BRANCH  46  47
ATOM     47  C   UNL A   1      38.439  32.767  32.152  1.00  0.00     0.031 A 
ATOM     48  C   UNL A   1      39.360  31.744  31.550  1.00  0.00     0.074 A 
ATOM     49  C   UNL A   1      38.673  33.251  33.384  1.00  0.00     0.049 A 
ATOM     50  N   UNL A   1      40.383  31.131  32.084  1.00  0.00    -0.248 NA
ATOM     51  C   UNL A   1      39.081  31.350  30.158  1.00  0.00     0.031 C 
ATOM     52  C   UNL A   1      37.863  34.258  34.067  1.00  0.00     0.029 A 
ATOM     53  N   UNL A   1      39.645  32.921  34.298  1.00  0.00    -0.354 N 
ATOM     54  C   UNL A   1      40.844  30.251  31.113  1.00  0.00     0.074 A 
ATOM     55  C   UNL A   1      39.989  30.407  29.956  1.00  0.00     0.031 C 
ATOM     56  C   UNL A   1      38.345  34.433  35.309  1.00  0.00     0.029 A 
ATOM     57  C   UNL A   1      39.472  33.526  35.521  1.00  0.00     0.049 A 
ATOM     58  H   UNL A   1      40.393  32.313  34.096  1.00  0.00     0.167 HD
ATOM     59  C   UNL A   1      41.889  29.393  31.176  1.00  0.00     0.034 A 
ATOM     60  C   UNL A   1      40.123  33.336  36.686  1.00  0.00     0.034 A 
ATOM     61  C   UNL A   1      42.742  29.250  32.324  1.00  0.00     0.049 A 
ATOM     62  C   UNL A   1      41.259  32.345  36.745  1.00  0.00     0.074 A 
ATOM     63  C   UNL A   1      43.856  28.443  32.470  1.00  0.00     0.029 A 
ATOM     64  N   UNL A   1      42.567  29.916  33.528  1.00  0.00    -0.354 N 
ATOM     65  N   UNL A   1      41.752  31.593  35.790  1.00  0.00    -0.248 NA
ATOM     66  C   UNL A   1      41.949  32.196  38.036  1.00  0.00     0.031 C 
ATOM     67  C   UNL A   1      44.330  28.589  33.777  1.00  0.00     0.029 A 
ATOM     68  C   UNL A   1      43.542  29.524  34.429  1.00  0.00     0.049 A 
ATOM     69  H   UNL A   1      41.856  30.569  33.713  1.00  0.00     0.167 HD
ATOM     70  C   UNL A   1      42.832  30.919  36.349  1.00  0.00     0.074 A 
ATOM     71  C   UNL A   1      42.929  31.357  37.726  1.00  0.00     0.031 C 
ATOM     72  C   UNL A   1      43.665  30.014  35.778  1.00  0.00     0.034 A 
BRANCH  59  73
ATOM     73  C   UNL A   1      42.170  28.540  29.968  1.00  0.00     0.023 A 
ATOM     74  C   UNL A   1      41.453  27.343  29.770  1.00  0.00     0.012 A 
ATOM     75  C   UNL A   1      43.107  28.953  29.001  1.00  0.00     0.148 A 
ATOM     76  C   UNL A   1      41.690  26.552  28.646  1.00  0.00     0.002 A 
ATOM     77  C   UNL A   1      43.303  28.186  27.860  1.00  0.00     0.091 A 
ATOM     78  F   UNL A   1      43.795  30.084  29.219  1.00  0.00    -0.205 F 
ATOM     79  C   UNL A   1      42.605  26.979  27.687  1.00  0.00     0.022 A 
BRANCH  77  80
ATOM     80  S   UNL A   1      44.397  28.691  26.529  1.00  0.00     0.127 S 
ATOM     81  O   UNL A   1      45.690  28.203  27.007  1.00  0.00    -0.237 OA
ATOM     82  O   UNL A   1      43.852  27.954  25.388  1.00  0.00    -0.237 OA
ATOM     83  O   UNL A   1      44.276  30.139  26.432  1.00  0.00    -0.744 OA
ENDBRANCH  77  80
ENDBRANCH  59  73
BRANCH  60  84
ATOM     84  C   UNL A   1      39.729  34.109  37.898  1.00  0.00     0.023 A 
ATOM     85  C   UNL A   1      40.151  35.446  38.037  1.00  0.00     0.012 A 
ATOM     86  C   UNL A   1      38.941  33.529  38.912  1.00  0.00     0.148 A 
ATOM     87  C   UNL A   1      39.824  36.180  39.179  1.00  0.00     0.002 A 
ATOM     88  C   UNL A   1      38.572  34.283  40.020  1.00  0.00     0.091 A 
ATOM     89  F   UNL A   1      38.562  32.251  38.768  1.00  0.00    -0.205 F 
ATOM     90  C   UNL A   1      39.028  35.603  40.164  1.00  0.00     0.022 A 
BRANCH  88  91
ATOM     91  S   UNL A   1      37.455  33.666  41.283  1.00  0.00     0.127 S 
ATOM     92  O   UNL A   1      36.524  32.864  40.492  1.00  0.00    -0.237 OA
ATOM     93  O   UNL A   1      38.361  32.895  42.134  1.00  0.00    -0.237 OA
ATOM     94  O   UNL A   1      36.886  34.845  41.919  1.00  0.00    -0.744 OA
ENDBRANCH  88  91
ENDBRANCH  60  84
BRANCH  72  95
ATOM     95  C   UNL A   1      44.803  29.472  36.605  1.00  0.00     0.023 A 
ATOM     96  C   UNL A   1      46.010  30.189  36.709  1.00  0.00     0.012 A 
ATOM     97  C   UNL A   1      44.627  28.299  37.369  1.00  0.00     0.148 A 
ATOM     98  C   UNL A   1      47.034  29.732  37.539  1.00  0.00     0.002 A 
ATOM     99  C   UNL A   1      45.631  27.880  38.232  1.00  0.00     0.091 A 
ATOM    100  F   UNL A   1      43.475  27.624  37.245  1.00  0.00    -0.205 F 
ATOM    101  C   UNL A   1      46.840  28.588  38.310  1.00  0.00     0.022 A 
BRANCH  99 102
ATOM    102  S   UNL A   1      45.432  26.479  39.339  1.00  0.00     0.127 S 
ATOM    103  O   UNL A   1      44.424  26.980  40.274  1.00  0.00    -0.237 OA
ATOM    104  O   UNL A   1      44.956  25.434  38.432  1.00  0.00    -0.237 OA
ATOM    105  O   UNL A   1      46.744  26.230  39.919  1.00  0.00    -0.744 OA
ENDBRANCH  99 102
ENDBRANCH  72  95
ENDBRANCH  46  47
ENDBRANCH  39  41
ENDBRANCH  38  39
ENDBRANCH  37  38
ENDBRANCH  36  37
ENDBRANCH  35  36
ENDBRANCH  34  35
ENDBRANCH   1  34
TORSDOF 24
ENDMDL
MODEL 3
REMARK VINA RESULT:     -10.4      4.722      8.484
REMARK SMILES CS(=O)(=O)c1ccc(C2=NN(c3ccc(C(=O)OCCOCCOCCOC(=O)c4ccc(-c5c6nc(c(-c7cccc(S(=O)(=O)[O-])c7F)c7ccc([nH]7)c(-c7cccc(S(=O)(=O)[O-])c7F)c7nc(c(-c8cccc(S(=O)(=O)[O-])c8F)c8ccc5[nH]8)C=C7)C=C6)cc4)cc3)[C@H](c3cccs3)C2)cc1
REMARK SMILES IDX 22 1 21 2 20 3 19 4 18 5 16 6 17 7 15 8 12 9 13 10 94 11
REMARK SMILES IDX 14 12 93 13 11 14 9 15 10 16 101 17 95 18 8 19 5 20 6 21
REMARK SMILES IDX 103 22 7 23 102 24 2 25 1 26 3 27 4 28 96 29 97 30 100 31
REMARK SMILES IDX 98 32 99 33 23 34 24 35 25 36 26 37 27 38 28 39 29 40 30 41
REMARK SMILES IDX 31 42 92 43 32 44 91 45 33 46 34 47 35 48 85 49 36 50 90 51
REMARK SMILES IDX 84 52 86 53 37 54 89 55 83 56 82 57 38 59 70 60 50 61 69 62
REMARK SMILES IDX 51 63 54 64 68 65 87 66 52 67 53 68 67 70 88 71 55 72 39 73
REMARK SMILES IDX 40 74 48 75 41 76 43 77 49 78 42 79 44 80 45 81 46 82 47 83
REMARK SMILES IDX 71 84 72 85 80 86 73 87 75 88 81 89 74 90 76 91 77 92 78 93
REMARK SMILES IDX 79 94 56 95 57 96 65 97 58 98 60 99 66 100 59 101 61 102
REMARK SMILES IDX 62 103 63 104 64 105
REMARK H PARENT 86 58 54 69
REMARK Flexibility Score: inf
ROOT
ATOM      1  C   UNL A   1      30.313  31.389  24.605  1.00  0.00     0.188 C 
ENDROOT
BRANCH   1   2
ATOM      2  O   UNL A   1      29.075  31.953  24.241  1.00  0.00    -0.376 OA
BRANCH   2   3
ATOM      3  C   UNL A   1      28.762  32.213  22.885  1.00  0.00     0.202 C 
BRANCH   3   4
ATOM      4  C   UNL A   1      29.102  31.308  21.686  1.00  0.00     0.261 C 
BRANCH   4   5
ATOM      5  O   UNL A   1      28.308  30.138  21.490  1.00  0.00    -0.460 OA
BRANCH   5   6
ATOM      6  C   UNL A   1      27.822  29.560  22.620  1.00  0.00     0.338 C 
ATOM      7  O   UNL A   1      26.801  29.857  23.211  1.00  0.00    -0.246 OA
BRANCH   6   8
ATOM      8  C   UNL A   1      28.660  28.395  22.989  1.00  0.00     0.060 A 
ATOM      9  C   UNL A   1      30.227  26.236  23.871  1.00  0.00     0.060 A 
ATOM     10  C   UNL A   1      28.848  26.249  24.110  1.00  0.00     0.029 A 
ATOM     11  C   UNL A   1      30.781  27.255  23.081  1.00  0.00     0.029 A 
ATOM     12  C   UNL A   1      28.068  27.330  23.681  1.00  0.00     0.018 A 
ATOM     13  C   UNL A   1      30.014  28.338  22.653  1.00  0.00     0.018 A 
BRANCH   9  14
ATOM     14  N   UNL A   1      31.081  25.351  24.533  1.00  0.00    -0.257 N 
ATOM     15  C   UNL A   1      31.712  23.403  25.105  1.00  0.00     0.071 C 
ATOM     16  N   UNL A   1      31.307  24.091  24.081  1.00  0.00    -0.176 NA
ATOM     17  C   UNL A   1      31.656  24.103  26.436  1.00  0.00     0.091 C 
ATOM     18  C   UNL A   1      31.257  25.512  25.986  1.00  0.00     0.154 C 
BRANCH  15  19
ATOM     19  C   UNL A   1      32.239  22.029  25.000  1.00  0.00    -0.002 A 
ATOM     20  C   UNL A   1      33.254  19.449  24.700  1.00  0.00     0.067 A 
ATOM     21  C   UNL A   1      32.580  20.054  23.635  1.00  0.00     0.021 A 
ATOM     22  C   UNL A   1      33.421  20.127  25.914  1.00  0.00     0.021 A 
ATOM     23  C   UNL A   1      32.069  21.344  23.791  1.00  0.00     0.011 A 
ATOM     24  C   UNL A   1      32.918  21.424  26.062  1.00  0.00     0.011 A 
BRANCH  20  25
ATOM     25  S   UNL A   1      33.885  17.793  24.530  1.00  0.00     0.175 S 
ATOM     26  C   UNL A   1      33.366  17.248  22.926  1.00  0.00     0.163 C 
ATOM     27  O   UNL A   1      33.208  16.983  25.521  1.00  0.00    -0.224 OA
ATOM     28  O   UNL A   1      35.332  17.886  24.489  1.00  0.00    -0.224 OA
ENDBRANCH  20  25
ENDBRANCH  15  19
BRANCH  18  29
ATOM     29  C   UNL A   1      32.193  26.647  26.372  1.00  0.00     0.030 A 
ATOM     30  C   UNL A   1      31.843  27.773  27.104  1.00  0.00     0.017 A 
ATOM     31  S   UNL A   1      33.818  26.758  25.840  1.00  0.00    -0.147 S 
ATOM     32  C   UNL A   1      32.882  28.742  27.168  1.00  0.00     0.012 A 
ATOM     33  C   UNL A   1      34.026  28.299  26.549  1.00  0.00     0.065 A 
ENDBRANCH  18  29
ENDBRANCH   9  14
ENDBRANCH   6   8
ENDBRANCH   5   6
ENDBRANCH   4   5
ENDBRANCH   3   4
ENDBRANCH   2   3
ENDBRANCH   1   2
BRANCH   1  34
ATOM     34  C   UNL A   1      30.850  31.761  26.004  1.00  0.00     0.188 C 
BRANCH  34  35
ATOM     35  O   UNL A   1      31.384  33.049  26.244  1.00  0.00    -0.376 OA
BRANCH  35  36
ATOM     36  C   UNL A   1      32.172  33.269  27.405  1.00  0.00     0.202 C 
BRANCH  36  37
ATOM     37  C   UNL A   1      33.228  32.272  27.917  1.00  0.00     0.261 C 
BRANCH  37  38
ATOM     38  O   UNL A   1      34.564  32.422  27.424  1.00  0.00    -0.460 OA
BRANCH  38  39
ATOM     39  C   UNL A   1      35.288  33.422  27.982  1.00  0.00     0.338 C 
ATOM     40  O   UNL A   1      34.954  34.593  28.113  1.00  0.00    -0.246 OA
BRANCH  39  41
ATOM     41  C   UNL A   1      36.506  32.856  28.584  1.00  0.00     0.060 A 
ATOM     42  C   UNL A   1      36.533  31.495  28.929  1.00  0.00     0.016 A 
ATOM     43  C   UNL A   1      37.607  33.673  28.837  1.00  0.00     0.016 A 
ATOM     44  C   UNL A   1      37.662  30.948  29.535  1.00  0.00     0.010 A 
ATOM     45  C   UNL A   1      38.726  33.129  29.471  1.00  0.00     0.010 A 
ATOM     46  C   UNL A   1      38.749  31.773  29.845  1.00  0.00    -0.014 A 
BRANCH  46  47
ATOM     47  C   UNL A   1      39.843  31.279  30.714  1.00  0.00     0.031 A 
ATOM     48  C   UNL A   1      40.724  30.178  30.193  1.00  0.00     0.074 A 
ATOM     49  C   UNL A   1      40.017  31.759  31.957  1.00  0.00     0.049 A 
ATOM     50  N   UNL A   1      41.649  29.493  30.811  1.00  0.00    -0.248 NA
ATOM     51  C   UNL A   1      40.525  29.791  28.786  1.00  0.00     0.031 C 
ATOM     52  C   UNL A   1      39.240  32.835  32.567  1.00  0.00     0.029 A 
ATOM     53  N   UNL A   1      40.885  31.364  32.948  1.00  0.00    -0.354 N 
ATOM     54  C   UNL A   1      42.113  28.567  29.885  1.00  0.00     0.074 A 
ATOM     55  C   UNL A   1      41.368  28.776  28.663  1.00  0.00     0.031 C 
ATOM     56  C   UNL A   1      39.634  32.988  33.842  1.00  0.00     0.029 A 
ATOM     57  C   UNL A   1      40.665  31.997  34.149  1.00  0.00     0.049 A 
ATOM     58  H   UNL A   1      41.594  30.697  32.810  1.00  0.00     0.167 HD
ATOM     59  C   UNL A   1      43.077  27.630  30.037  1.00  0.00     0.034 A 
ATOM     60  C   UNL A   1      41.204  31.770  35.364  1.00  0.00     0.034 A 
ATOM     61  C   UNL A   1      43.824  27.434  31.250  1.00  0.00     0.049 A 
ATOM     62  C   UNL A   1      42.249  30.693  35.519  1.00  0.00     0.074 A 
ATOM     63  C   UNL A   1      44.853  26.543  31.489  1.00  0.00     0.029 A 
ATOM     64  N   UNL A   1      43.608  28.127  32.432  1.00  0.00    -0.354 N 
ATOM     65  N   UNL A   1      42.754  29.892  34.611  1.00  0.00    -0.248 NA
ATOM     66  C   UNL A   1      42.821  30.505  36.862  1.00  0.00     0.031 C 
ATOM     67  C   UNL A   1      45.233  26.667  32.829  1.00  0.00     0.029 A 
ATOM     68  C   UNL A   1      44.474  27.671  33.410  1.00  0.00     0.049 A 
ATOM     69  H   UNL A   1      42.939  28.837  32.555  1.00  0.00     0.167 HD
ATOM     70  C   UNL A   1      43.729  29.142  35.259  1.00  0.00     0.074 A 
ATOM     71  C   UNL A   1      43.752  29.588  36.636  1.00  0.00     0.031 C 
ATOM     72  C   UNL A   1      44.529  28.166  34.761  1.00  0.00     0.034 A 
BRANCH  59  73
ATOM     73  C   UNL A   1      43.384  26.742  28.860  1.00  0.00     0.023 A 
ATOM     74  C   UNL A   1      42.607  25.590  28.628  1.00  0.00     0.012 A 
ATOM     75  C   UNL A   1      44.408  27.080  27.955  1.00  0.00     0.148 A 
ATOM     76  C   UNL A   1      42.867  24.768  27.532  1.00  0.00     0.002 A 
ATOM     77  C   UNL A   1      44.630  26.285  26.838  1.00  0.00     0.091 A 
ATOM     78  F   UNL A   1      45.150  28.169  28.205  1.00  0.00    -0.205 F 
ATOM     79  C   UNL A   1      43.870  25.121  26.632  1.00  0.00     0.022 A 
BRANCH  77  80
ATOM     80  S   UNL A   1      45.840  26.698  25.578  1.00  0.00     0.127 S 
ATOM     81  O   UNL A   1      45.355  27.998  25.117  1.00  0.00    -0.237 OA
ATOM     82  O   UNL A   1      47.082  26.751  26.351  1.00  0.00    -0.237 OA
ATOM     83  O   UNL A   1      45.781  25.627  24.593  1.00  0.00    -0.744 OA
ENDBRANCH  77  80
ENDBRANCH  59  73
BRANCH  60  84
ATOM     84  C   UNL A   1      40.780  32.588  36.536  1.00  0.00     0.023 A 
ATOM     85  C   UNL A   1      41.565  33.685  36.939  1.00  0.00     0.012 A 
ATOM     86  C   UNL A   1      39.604  32.285  37.252  1.00  0.00     0.148 A 
ATOM     87  C   UNL A   1      41.206  34.446  38.053  1.00  0.00     0.002 A 
ATOM     88  C   UNL A   1      39.223  33.079  38.326  1.00  0.00     0.091 A 
ATOM     89  F   UNL A   1      38.878  31.227  36.862  1.00  0.00    -0.205 F 
ATOM     90  C   UNL A   1      40.033  34.148  38.740  1.00  0.00     0.022 A 
BRANCH  88  91
ATOM     91  S   UNL A   1      37.671  32.848  39.200  1.00  0.00     0.127 S 
ATOM     92  O   UNL A   1      37.696  33.956  40.152  1.00  0.00    -0.237 OA
ATOM     93  O   UNL A   1      36.695  32.989  38.118  1.00  0.00    -0.237 OA
ATOM     94  O   UNL A   1      37.739  31.516  39.782  1.00  0.00    -0.744 OA
ENDBRANCH  88  91
ENDBRANCH  60  84
BRANCH  72  95
ATOM     95  C   UNL A   1      45.551  27.546  35.680  1.00  0.00     0.023 A 
ATOM     96  C   UNL A   1      46.868  28.040  35.714  1.00  0.00     0.012 A 
ATOM     97  C   UNL A   1      45.166  26.539  36.590  1.00  0.00     0.148 A 
ATOM     98  C   UNL A   1      47.794  27.524  36.621  1.00  0.00     0.002 A 
ATOM     99  C   UNL A   1      46.078  26.068  37.526  1.00  0.00     0.091 A 
ATOM    100  F   UNL A   1      43.910  26.073  36.532  1.00  0.00    -0.205 F 
ATOM    101  C   UNL A   1      47.396  26.550  37.535  1.00  0.00     0.022 A 
BRANCH  99 102
ATOM    102  S   UNL A   1      45.630  24.891  38.806  1.00  0.00     0.127 S 
ATOM    103  O   UNL A   1      46.841  24.867  39.626  1.00  0.00    -0.237 OA
ATOM    104  O   UNL A   1      44.480  25.541  39.434  1.00  0.00    -0.237 OA
ATOM    105  O   UNL A   1      45.323  23.642  38.121  1.00  0.00    -0.744 OA
ENDBRANCH  99 102
ENDBRANCH  72  95
ENDBRANCH  46  47
ENDBRANCH  39  41
ENDBRANCH  38  39
ENDBRANCH  37  38
ENDBRANCH  36  37
ENDBRANCH  35  36
ENDBRANCH  34  35
ENDBRANCH   1  34
TORSDOF 24
ENDMDL
