MODEL 1
REMARK VINA RESULT:     -10.8      0.000      0.000
REMARK SMILES Cc1cc2c(=O)c3ccccc3oc2c(C(=O)OCCOCCOCCOC(=O)c2ccc(-c3c4nc(c(-c5cccc(S(=O)(=O)[O-])c5F)c5ccc([nH]5)c(-c5cccc(S(=O)(=O)[O-])c5F)c5nc(c(-c6cccc(S(=O)(=O)[O-])c6F)c6ccc3[nH]6)C=C5)C=C4)cc2)c1C
REMARK SMILES IDX 24 1 23 2 22 3 21 4 20 5 19 6 18 7 16 8 17 9 15 10 1 11 2 12
REMARK SMILES IDX 3 13 93 14 4 15 94 16 5 17 14 18 6 19 7 20 13 21 8 22 12 23
REMARK SMILES IDX 9 24 11 25 10 26 25 27 26 28 27 29 28 30 29 31 30 32 31 33
REMARK SMILES IDX 92 34 32 35 91 36 33 37 34 38 35 39 85 40 36 41 90 42 84 43
REMARK SMILES IDX 86 44 37 45 89 46 83 47 82 48 38 50 70 51 50 52 69 53 51 54
REMARK SMILES IDX 54 55 68 56 87 57 52 58 53 59 67 61 88 62 55 63 39 64 40 65
REMARK SMILES IDX 48 66 41 67 43 68 49 69 42 70 44 71 45 72 46 73 47 74 71 75
REMARK SMILES IDX 72 76 80 77 73 78 75 79 81 80 74 81 76 82 77 83 78 84 79 85
REMARK SMILES IDX 56 86 57 87 65 88 58 89 60 90 66 91 59 92 61 93 62 94 63 95
REMARK SMILES IDX 64 96
REMARK H PARENT 86 49 54 60
REMARK Flexibility Score: inf
ROOT
ATOM      1  O   UNL A   1      35.272  20.041  24.835  1.00  0.00    -0.376 OA
ENDROOT
BRANCH   1   2
ATOM      2  C   UNL A   1      33.864  19.949  24.959  1.00  0.00     0.188 C 
BRANCH   2   3
ATOM      3  C   UNL A   1      33.082  20.898  25.897  1.00  0.00     0.188 C 
BRANCH   3   4
ATOM      4  O   UNL A   1      31.944  21.594  25.422  1.00  0.00    -0.376 OA
BRANCH   4   5
ATOM      5  C   UNL A   1      32.094  22.836  24.749  1.00  0.00     0.202 C 
BRANCH   5   6
ATOM      6  C   UNL A   1      33.214  23.809  25.120  1.00  0.00     0.261 C 
BRANCH   6   7
ATOM      7  O   UNL A   1      32.756  25.155  25.302  1.00  0.00    -0.460 OA
BRANCH   7   8
ATOM      8  C   UNL A   1      33.300  26.077  24.467  1.00  0.00     0.342 C 
ATOM      9  O   UNL A   1      34.322  25.939  23.817  1.00  0.00    -0.246 OA
BRANCH   8  10
ATOM     10  C   UNL A   1      32.452  27.297  24.401  1.00  0.00     0.106 A 
ATOM     11  C   UNL A   1      29.205  28.652  22.819  1.00  0.00     0.044 C 
ATOM     12  C   UNL A   1      30.451  28.476  23.644  1.00  0.00    -0.046 A 
ATOM     13  C   UNL A   1      30.756  29.502  24.549  1.00  0.00     0.019 A 
ATOM     14  C   UNL A   1      31.333  27.378  23.522  1.00  0.00    -0.030 A 
ATOM     15  C   UNL A   1      31.905  29.449  25.337  1.00  0.00     0.067 A 
ATOM     16  C   UNL A   1      31.145  26.347  22.435  1.00  0.00     0.046 C 
ATOM     17  C   UNL A   1      32.219  30.580  26.221  1.00  0.00     0.200 A 
ATOM     18  C   UNL A   1      32.758  28.353  25.286  1.00  0.00     0.153 A 
ATOM     19  O   UNL A   1      31.474  31.548  26.298  1.00  0.00    -0.288 OA
ATOM     20  C   UNL A   1      33.464  30.493  26.983  1.00  0.00     0.065 A 
ATOM     21  O   UNL A   1      33.917  28.287  26.030  1.00  0.00    -0.455 OA
ATOM     22  C   UNL A   1      33.849  31.539  27.830  1.00  0.00     0.016 A 
ATOM     23  C   UNL A   1      34.241  29.345  26.851  1.00  0.00     0.138 A 
ATOM     24  C   UNL A   1      35.021  31.423  28.568  1.00  0.00     0.001 A 
ATOM     25  C   UNL A   1      35.415  29.234  27.595  1.00  0.00     0.048 A 
ATOM     26  C   UNL A   1      35.793  30.268  28.460  1.00  0.00     0.004 A 
ENDBRANCH   8  10
ENDBRANCH   7   8
ENDBRANCH   6   7
ENDBRANCH   5   6
ENDBRANCH   4   5
ENDBRANCH   3   4
ENDBRANCH   2   3
ENDBRANCH   1   2
BRANCH   1  27
ATOM     27  C   UNL A   1      35.928  21.228  25.252  1.00  0.00     0.202 C 
BRANCH  27  28
ATOM     28  C   UNL A   1      37.450  21.357  25.142  1.00  0.00     0.261 C 
BRANCH  28  29
ATOM     29  O   UNL A   1      38.045  22.127  26.195  1.00  0.00    -0.460 OA
BRANCH  29  30
ATOM     30  C   UNL A   1      39.362  21.891  26.417  1.00  0.00     0.338 C 
ATOM     31  O   UNL A   1      39.978  20.863  26.184  1.00  0.00    -0.246 OA
BRANCH  30  32
ATOM     32  C   UNL A   1      40.004  23.157  26.816  1.00  0.00     0.060 A 
ATOM     33  C   UNL A   1      40.950  23.177  27.841  1.00  0.00     0.016 A 
ATOM     34  C   UNL A   1      39.639  24.338  26.155  1.00  0.00     0.016 A 
ATOM     35  C   UNL A   1      41.552  24.387  28.191  1.00  0.00     0.010 A 
ATOM     36  C   UNL A   1      40.221  25.550  26.526  1.00  0.00     0.010 A 
ATOM     37  C   UNL A   1      41.198  25.577  27.532  1.00  0.00    -0.014 A 
BRANCH  37  38
ATOM     38  C   UNL A   1      41.964  26.818  27.788  1.00  0.00     0.031 A 
ATOM     39  C   UNL A   1      41.419  27.916  28.648  1.00  0.00     0.074 A 
ATOM     40  C   UNL A   1      43.173  26.941  27.212  1.00  0.00     0.049 A 
ATOM     41  N   UNL A   1      41.946  29.083  28.915  1.00  0.00    -0.248 NA
ATOM     42  C   UNL A   1      40.113  27.685  29.280  1.00  0.00     0.031 C 
ATOM     43  C   UNL A   1      43.797  25.933  26.351  1.00  0.00     0.029 A 
ATOM     44  N   UNL A   1      44.098  27.950  27.272  1.00  0.00    -0.354 N 
ATOM     45  C   UNL A   1      41.005  29.762  29.677  1.00  0.00     0.074 A 
ATOM     46  C   UNL A   1      39.899  28.849  29.884  1.00  0.00     0.031 C 
ATOM     47  C   UNL A   1      45.016  26.361  25.991  1.00  0.00     0.029 A 
ATOM     48  C   UNL A   1      45.249  27.679  26.573  1.00  0.00     0.049 A 
ATOM     49  H   UNL A   1      43.951  28.788  27.766  1.00  0.00     0.167 HD
ATOM     50  C   UNL A   1      41.057  31.038  30.129  1.00  0.00     0.034 A 
ATOM     51  C   UNL A   1      46.374  28.405  26.429  1.00  0.00     0.034 A 
ATOM     52  C   UNL A   1      42.210  31.893  30.007  1.00  0.00     0.049 A 
ATOM     53  C   UNL A   1      46.479  29.740  27.104  1.00  0.00     0.074 A 
ATOM     54  C   UNL A   1      42.388  33.172  30.509  1.00  0.00     0.029 A 
ATOM     55  N   UNL A   1      43.393  31.549  29.372  1.00  0.00    -0.354 N 
ATOM     56  N   UNL A   1      45.589  30.357  27.842  1.00  0.00    -0.248 NA
ATOM     57  C   UNL A   1      47.744  30.470  26.950  1.00  0.00     0.031 C 
ATOM     58  C   UNL A   1      43.682  33.594  30.190  1.00  0.00     0.029 A 
ATOM     59  C   UNL A   1      44.314  32.576  29.495  1.00  0.00     0.049 A 
ATOM     60  H   UNL A   1      43.556  30.698  28.902  1.00  0.00     0.167 HD
ATOM     61  C   UNL A   1      46.186  31.543  28.246  1.00  0.00     0.074 A 
ATOM     62  C   UNL A   1      47.526  31.547  27.695  1.00  0.00     0.031 C 
ATOM     63  C   UNL A   1      45.660  32.548  28.986  1.00  0.00     0.034 A 
BRANCH  50  64
ATOM     64  C   UNL A   1      39.850  31.607  30.830  1.00  0.00     0.023 A 
ATOM     65  C   UNL A   1      38.794  32.153  30.076  1.00  0.00     0.012 A 
ATOM     66  C   UNL A   1      39.705  31.474  32.228  1.00  0.00     0.148 A 
ATOM     67  C   UNL A   1      37.620  32.571  30.701  1.00  0.00     0.002 A 
ATOM     68  C   UNL A   1      38.513  31.847  32.838  1.00  0.00     0.091 A 
ATOM     69  F   UNL A   1      40.729  30.966  32.929  1.00  0.00    -0.205 F 
ATOM     70  C   UNL A   1      37.473  32.406  32.076  1.00  0.00     0.022 A 
BRANCH  68  71
ATOM     71  S   UNL A   1      38.184  31.585  34.585  1.00  0.00     0.127 S 
ATOM     72  O   UNL A   1      36.831  32.125  34.715  1.00  0.00    -0.237 OA
ATOM     73  O   UNL A   1      38.274  30.130  34.698  1.00  0.00    -0.237 OA
ATOM     74  O   UNL A   1      39.217  32.320  35.304  1.00  0.00    -0.744 OA
ENDBRANCH  68  71
ENDBRANCH  50  64
BRANCH  51  75
ATOM     75  C   UNL A   1      47.521  27.815  25.691  1.00  0.00     0.023 A 
ATOM     76  C   UNL A   1      48.481  27.076  26.407  1.00  0.00     0.012 A 
ATOM     77  C   UNL A   1      47.612  27.898  24.289  1.00  0.00     0.148 A 
ATOM     78  C   UNL A   1      49.521  26.432  25.739  1.00  0.00     0.002 A 
ATOM     79  C   UNL A   1      48.628  27.222  23.627  1.00  0.00     0.091 A 
ATOM     80  F   UNL A   1      46.680  28.605  23.635  1.00  0.00    -0.205 F 
ATOM     81  C   UNL A   1      49.588  26.496  24.350  1.00  0.00     0.022 A 
BRANCH  79  82
ATOM     82  S   UNL A   1      48.740  27.152  21.836  1.00  0.00     0.127 S 
ATOM     83  O   UNL A   1      50.096  27.643  21.604  1.00  0.00    -0.237 OA
ATOM     84  O   UNL A   1      48.549  25.724  21.581  1.00  0.00    -0.237 OA
ATOM     85  O   UNL A   1      47.671  28.007  21.338  1.00  0.00    -0.744 OA
ENDBRANCH  79  82
ENDBRANCH  51  75
BRANCH  63  86
ATOM     86  C   UNL A   1      46.523  33.748  29.262  1.00  0.00     0.023 A 
ATOM     87  C   UNL A   1      47.355  33.751  30.398  1.00  0.00     0.012 A 
ATOM     88  C   UNL A   1      46.595  34.813  28.343  1.00  0.00     0.148 A 
ATOM     89  C   UNL A   1      48.240  34.803  30.624  1.00  0.00     0.002 A 
ATOM     90  C   UNL A   1      47.501  35.845  28.558  1.00  0.00     0.091 A 
ATOM     91  F   UNL A   1      45.786  34.789  27.275  1.00  0.00    -0.205 F 
ATOM     92  C   UNL A   1      48.321  35.843  29.700  1.00  0.00     0.022 A 
BRANCH  90  93
ATOM     93  S   UNL A   1      47.727  37.197  27.397  1.00  0.00     0.127 S 
ATOM     94  O   UNL A   1      46.379  37.762  27.334  1.00  0.00    -0.237 OA
ATOM     95  O   UNL A   1      48.707  38.035  28.086  1.00  0.00    -0.237 OA
ATOM     96  O   UNL A   1      48.202  36.593  26.160  1.00  0.00    -0.744 OA
ENDBRANCH  90  93
ENDBRANCH  63  86
ENDBRANCH  37  38
ENDBRANCH  30  32
ENDBRANCH  29  30
ENDBRANCH  28  29
ENDBRANCH  27  28
ENDBRANCH   1  27
TORSDOF 20
ENDMDL
MODEL 2
REMARK VINA RESULT:     -10.6      3.200      7.704
REMARK SMILES Cc1cc2c(=O)c3ccccc3oc2c(C(=O)OCCOCCOCCOC(=O)c2ccc(-c3c4nc(c(-c5cccc(S(=O)(=O)[O-])c5F)c5ccc([nH]5)c(-c5cccc(S(=O)(=O)[O-])c5F)c5nc(c(-c6cccc(S(=O)(=O)[O-])c6F)c6ccc3[nH]6)C=C5)C=C4)cc2)c1C
REMARK SMILES IDX 24 1 23 2 22 3 21 4 20 5 19 6 18 7 16 8 17 9 15 10 1 11 2 12
REMARK SMILES IDX 3 13 93 14 4 15 94 16 5 17 14 18 6 19 7 20 13 21 8 22 12 23
REMARK SMILES IDX 9 24 11 25 10 26 25 27 26 28 27 29 28 30 29 31 30 32 31 33
REMARK SMILES IDX 92 34 32 35 91 36 33 37 34 38 35 39 85 40 36 41 90 42 84 43
REMARK SMILES IDX 86 44 37 45 89 46 83 47 82 48 38 50 70 51 50 52 69 53 51 54
REMARK SMILES IDX 54 55 68 56 87 57 52 58 53 59 67 61 88 62 55 63 39 64 40 65
REMARK SMILES IDX 48 66 41 67 43 68 49 69 42 70 44 71 45 72 46 73 47 74 71 75
REMARK SMILES IDX 72 76 80 77 73 78 75 79 81 80 74 81 76 82 77 83 78 84 79 85
REMARK SMILES IDX 56 86 57 87 65 88 58 89 60 90 66 91 59 92 61 93 62 94 63 95
REMARK SMILES IDX 64 96
REMARK H PARENT 86 49 54 60
REMARK Flexibility Score: inf
ROOT
ATOM      1  O   UNL A   1      35.854  20.620  24.963  1.00  0.00    -0.376 OA
ENDROOT
BRANCH   1   2
ATOM      2  C   UNL A   1      34.606  20.983  25.529  1.00  0.00     0.188 C 
BRANCH   2   3
ATOM      3  C   UNL A   1      33.859  22.254  25.062  1.00  0.00     0.188 C 
BRANCH   3   4
ATOM      4  O   UNL A   1      33.073  22.228  23.884  1.00  0.00    -0.376 OA
BRANCH   4   5
ATOM      5  C   UNL A   1      32.961  23.389  23.073  1.00  0.00     0.202 C 
BRANCH   5   6
ATOM      6  C   UNL A   1      31.670  24.208  23.034  1.00  0.00     0.261 C 
BRANCH   6   7
ATOM      7  O   UNL A   1      31.714  25.373  23.868  1.00  0.00    -0.460 OA
BRANCH   7   8
ATOM      8  C   UNL A   1      32.430  26.416  23.378  1.00  0.00     0.342 C 
ATOM      9  O   UNL A   1      32.916  26.491  22.263  1.00  0.00    -0.246 OA
BRANCH   8  10
ATOM     10  C   UNL A   1      32.518  27.514  24.378  1.00  0.00     0.106 A 
ATOM     11  C   UNL A   1      34.731  28.830  27.251  1.00  0.00     0.044 C 
ATOM     12  C   UNL A   1      33.678  28.676  26.187  1.00  0.00    -0.046 A 
ATOM     13  C   UNL A   1      32.786  29.745  26.027  1.00  0.00     0.019 A 
ATOM     14  C   UNL A   1      33.519  27.517  25.393  1.00  0.00    -0.030 A 
ATOM     15  C   UNL A   1      31.755  29.687  25.089  1.00  0.00     0.067 A 
ATOM     16  C   UNL A   1      34.336  26.275  25.658  1.00  0.00     0.046 C 
ATOM     17  C   UNL A   1      30.803  30.802  25.003  1.00  0.00     0.200 A 
ATOM     18  C   UNL A   1      31.611  28.587  24.250  1.00  0.00     0.153 A 
ATOM     19  O   UNL A   1      30.919  31.789  25.718  1.00  0.00    -0.288 OA
ATOM     20  C   UNL A   1      29.711  30.663  24.040  1.00  0.00     0.065 A 
ATOM     21  O   UNL A   1      30.584  28.489  23.335  1.00  0.00    -0.455 OA
ATOM     22  C   UNL A   1      28.747  31.669  23.913  1.00  0.00     0.016 A 
ATOM     23  C   UNL A   1      29.668  29.514  23.252  1.00  0.00     0.138 A 
ATOM     24  C   UNL A   1      27.735  31.529  22.970  1.00  0.00     0.001 A 
ATOM     25  C   UNL A   1      28.651  29.382  22.308  1.00  0.00     0.048 A 
ATOM     26  C   UNL A   1      27.697  30.396  22.162  1.00  0.00     0.004 A 
ENDBRANCH   8  10
ENDBRANCH   7   8
ENDBRANCH   6   7
ENDBRANCH   5   6
ENDBRANCH   4   5
ENDBRANCH   3   4
ENDBRANCH   2   3
ENDBRANCH   1   2
BRANCH   1  27
ATOM     27  C   UNL A   1      36.873  21.600  24.848  1.00  0.00     0.202 C 
BRANCH  27  28
ATOM     28  C   UNL A   1      38.299  21.300  25.318  1.00  0.00     0.261 C 
BRANCH  28  29
ATOM     29  O   UNL A   1      38.761  22.165  26.364  1.00  0.00    -0.460 OA
BRANCH  29  30
ATOM     30  C   UNL A   1      40.103  22.361  26.408  1.00  0.00     0.338 C 
ATOM     31  O   UNL A   1      40.970  21.639  25.944  1.00  0.00    -0.246 OA
BRANCH  30  32
ATOM     32  C   UNL A   1      40.361  23.708  26.950  1.00  0.00     0.060 A 
ATOM     33  C   UNL A   1      41.002  23.864  28.180  1.00  0.00     0.016 A 
ATOM     34  C   UNL A   1      39.945  24.825  26.213  1.00  0.00     0.016 A 
ATOM     35  C   UNL A   1      41.247  25.150  28.663  1.00  0.00     0.010 A 
ATOM     36  C   UNL A   1      40.165  26.109  26.712  1.00  0.00     0.010 A 
ATOM     37  C   UNL A   1      40.837  26.278  27.931  1.00  0.00    -0.014 A 
BRANCH  37  38
ATOM     38  C   UNL A   1      41.254  27.631  28.365  1.00  0.00     0.031 A 
ATOM     39  C   UNL A   1      42.672  28.096  28.240  1.00  0.00     0.074 A 
ATOM     40  C   UNL A   1      40.318  28.438  28.895  1.00  0.00     0.049 A 
ATOM     41  N   UNL A   1      43.199  29.227  28.629  1.00  0.00    -0.248 NA
ATOM     42  C   UNL A   1      43.625  27.173  27.607  1.00  0.00     0.031 C 
ATOM     43  C   UNL A   1      38.907  28.083  29.068  1.00  0.00     0.029 A 
ATOM     44  N   UNL A   1      40.402  29.721  29.368  1.00  0.00    -0.354 N 
ATOM     45  C   UNL A   1      44.559  29.125  28.370  1.00  0.00     0.074 A 
ATOM     46  C   UNL A   1      44.766  27.844  27.726  1.00  0.00     0.031 C 
ATOM     47  C   UNL A   1      38.252  29.136  29.579  1.00  0.00     0.029 A 
ATOM     48  C   UNL A   1      39.198  30.228  29.791  1.00  0.00     0.049 A 
ATOM     49  H   UNL A   1      41.244  30.229  29.403  1.00  0.00     0.167 HD
ATOM     50  C   UNL A   1      45.539  30.012  28.671  1.00  0.00     0.034 A 
ATOM     51  C   UNL A   1      38.885  31.443  30.279  1.00  0.00     0.034 A 
ATOM     52  C   UNL A   1      45.300  31.327  29.211  1.00  0.00     0.049 A 
ATOM     53  C   UNL A   1      39.963  32.477  30.425  1.00  0.00     0.074 A 
ATOM     54  C   UNL A   1      46.221  32.328  29.470  1.00  0.00     0.029 A 
ATOM     55  N   UNL A   1      44.055  31.840  29.540  1.00  0.00    -0.354 N 
ATOM     56  N   UNL A   1      41.240  32.372  30.150  1.00  0.00    -0.248 NA
ATOM     57  C   UNL A   1      39.559  33.798  30.922  1.00  0.00     0.031 C 
ATOM     58  C   UNL A   1      45.532  33.450  29.941  1.00  0.00     0.029 A 
ATOM     59  C   UNL A   1      44.180  33.150  29.969  1.00  0.00     0.049 A 
ATOM     60  H   UNL A   1      43.205  31.344  29.477  1.00  0.00     0.167 HD
ATOM     61  C   UNL A   1      41.792  33.614  30.434  1.00  0.00     0.074 A 
ATOM     62  C   UNL A   1      40.706  34.465  30.875  1.00  0.00     0.031 C 
ATOM     63  C   UNL A   1      43.087  34.002  30.359  1.00  0.00     0.034 A 
BRANCH  50  64
ATOM     64  C   UNL A   1      46.971  29.625  28.408  1.00  0.00     0.023 A 
ATOM     65  C   UNL A   1      47.592  30.012  27.206  1.00  0.00     0.012 A 
ATOM     66  C   UNL A   1      47.739  28.997  29.412  1.00  0.00     0.148 A 
ATOM     67  C   UNL A   1      48.950  29.768  26.999  1.00  0.00     0.002 A 
ATOM     68  C   UNL A   1      49.101  28.801  29.219  1.00  0.00     0.091 A 
ATOM     69  F   UNL A   1      47.124  28.622  30.543  1.00  0.00    -0.205 F 
ATOM     70  C   UNL A   1      49.706  29.177  28.009  1.00  0.00     0.022 A 
BRANCH  68  71
ATOM     71  S   UNL A   1      50.185  28.140  30.493  1.00  0.00     0.127 S 
ATOM     72  O   UNL A   1      51.390  27.834  29.724  1.00  0.00    -0.237 OA
ATOM     73  O   UNL A   1      50.314  29.276  31.404  1.00  0.00    -0.237 OA
ATOM     74  O   UNL A   1      49.493  26.985  31.050  1.00  0.00    -0.744 OA
ENDBRANCH  68  71
ENDBRANCH  50  64
BRANCH  51  75
ATOM     75  C   UNL A   1      37.462  31.760  30.564  1.00  0.00     0.023 A 
ATOM     76  C   UNL A   1      36.954  31.500  31.851  1.00  0.00     0.012 A 
ATOM     77  C   UNL A   1      36.647  32.398  29.611  1.00  0.00     0.148 A 
ATOM     78  C   UNL A   1      35.651  31.867  32.185  1.00  0.00     0.002 A 
ATOM     79  C   UNL A   1      35.363  32.796  29.963  1.00  0.00     0.091 A 
ATOM     80  F   UNL A   1      37.161  32.636  28.397  1.00  0.00    -0.205 F 
ATOM     81  C   UNL A   1      34.861  32.523  31.245  1.00  0.00     0.022 A 
BRANCH  79  82
ATOM     82  S   UNL A   1      34.305  33.742  28.862  1.00  0.00     0.127 S 
ATOM     83  O   UNL A   1      35.196  34.824  28.452  1.00  0.00    -0.237 OA
ATOM     84  O   UNL A   1      34.007  32.760  27.819  1.00  0.00    -0.237 OA
ATOM     85  O   UNL A   1      33.158  34.145  29.663  1.00  0.00    -0.744 OA
ENDBRANCH  79  82
ENDBRANCH  51  75
BRANCH  63  86
ATOM     86  C   UNL A   1      43.425  35.413  30.753  1.00  0.00     0.023 A 
ATOM     87  C   UNL A   1      43.839  35.679  32.073  1.00  0.00     0.012 A 
ATOM     88  C   UNL A   1      43.441  36.447  29.797  1.00  0.00     0.148 A 
ATOM     89  C   UNL A   1      44.256  36.957  32.440  1.00  0.00     0.002 A 
ATOM     90  C   UNL A   1      43.886  37.713  30.162  1.00  0.00     0.091 A 
ATOM     91  F   UNL A   1      43.033  36.169  28.551  1.00  0.00    -0.205 F 
ATOM     92  C   UNL A   1      44.290  37.970  31.483  1.00  0.00     0.022 A 
BRANCH  90  93
ATOM     93  S   UNL A   1      44.027  39.067  28.991  1.00  0.00     0.127 S 
ATOM     94  O   UNL A   1      44.581  38.390  27.818  1.00  0.00    -0.237 OA
ATOM     95  O   UNL A   1      42.637  39.497  28.847  1.00  0.00    -0.237 OA
ATOM     96  O   UNL A   1      44.908  40.048  29.610  1.00  0.00    -0.744 OA
ENDBRANCH  90  93
ENDBRANCH  63  86
ENDBRANCH  37  38
ENDBRANCH  30  32
ENDBRANCH  29  30
ENDBRANCH  28  29
ENDBRANCH  27  28
ENDBRANCH   1  27
TORSDOF 20
ENDMDL
MODEL 3
REMARK VINA RESULT:     -10.2      3.309      4.455
REMARK SMILES Cc1cc2c(=O)c3ccccc3oc2c(C(=O)OCCOCCOCCOC(=O)c2ccc(-c3c4nc(c(-c5cccc(S(=O)(=O)[O-])c5F)c5ccc([nH]5)c(-c5cccc(S(=O)(=O)[O-])c5F)c5nc(c(-c6cccc(S(=O)(=O)[O-])c6F)c6ccc3[nH]6)C=C5)C=C4)cc2)c1C
REMARK SMILES IDX 24 1 23 2 22 3 21 4 20 5 19 6 18 7 16 8 17 9 15 10 1 11 2 12
REMARK SMILES IDX 3 13 93 14 4 15 94 16 5 17 14 18 6 19 7 20 13 21 8 22 12 23
REMARK SMILES IDX 9 24 11 25 10 26 25 27 26 28 27 29 28 30 29 31 30 32 31 33
REMARK SMILES IDX 92 34 32 35 91 36 33 37 34 38 35 39 85 40 36 41 90 42 84 43
REMARK SMILES IDX 86 44 37 45 89 46 83 47 82 48 38 50 70 51 50 52 69 53 51 54
REMARK SMILES IDX 54 55 68 56 87 57 52 58 53 59 67 61 88 62 55 63 39 64 40 65
REMARK SMILES IDX 48 66 41 67 43 68 49 69 42 70 44 71 45 72 46 73 47 74 71 75
REMARK SMILES IDX 72 76 80 77 73 78 75 79 81 80 74 81 76 82 77 83 78 84 79 85
REMARK SMILES IDX 56 86 57 87 65 88 58 89 60 90 66 91 59 92 61 93 62 94 63 95
REMARK SMILES IDX 64 96
REMARK H PARENT 86 49 54 60
REMARK Flexibility Score: inf
ROOT
ATOM      1  O   UNL A   1      36.213  21.152  25.475  1.00  0.00    -0.376 OA
ENDROOT
BRANCH   1   2
ATOM      2  C   UNL A   1      34.942  21.698  25.780  1.00  0.00     0.188 C 
BRANCH   2   3
ATOM      3  C   UNL A   1      34.330  22.824  24.915  1.00  0.00     0.188 C 
BRANCH   3   4
ATOM      4  O   UNL A   1      32.940  22.840  24.641  1.00  0.00    -0.376 OA
BRANCH   4   5
ATOM      5  C   UNL A   1      32.463  23.293  23.382  1.00  0.00     0.202 C 
BRANCH   5   6
ATOM      6  C   UNL A   1      31.256  24.226  23.280  1.00  0.00     0.261 C 
BRANCH   6   7
ATOM      7  O   UNL A   1      31.387  25.409  24.079  1.00  0.00    -0.460 OA
BRANCH   7   8
ATOM      8  C   UNL A   1      32.243  26.347  23.600  1.00  0.00     0.342 C 
ATOM      9  O   UNL A   1      32.827  26.304  22.532  1.00  0.00    -0.246 OA
BRANCH   8  10
ATOM     10  C   UNL A   1      32.353  27.493  24.542  1.00  0.00     0.106 A 
ATOM     11  C   UNL A   1      34.570  28.890  27.374  1.00  0.00     0.044 C 
ATOM     12  C   UNL A   1      33.526  28.712  26.304  1.00  0.00    -0.046 A 
ATOM     13  C   UNL A   1      32.671  29.799  26.073  1.00  0.00     0.019 A 
ATOM     14  C   UNL A   1      33.340  27.518  25.570  1.00  0.00    -0.030 A 
ATOM     15  C   UNL A   1      31.652  29.724  25.125  1.00  0.00     0.067 A 
ATOM     16  C   UNL A   1      34.112  26.267  25.913  1.00  0.00     0.046 C 
ATOM     17  C   UNL A   1      30.737  30.862  24.966  1.00  0.00     0.200 A 
ATOM     18  C   UNL A   1      31.483  28.586  24.343  1.00  0.00     0.153 A 
ATOM     19  O   UNL A   1      30.875  31.882  25.629  1.00  0.00    -0.288 OA
ATOM     20  C   UNL A   1      29.654  30.706  23.995  1.00  0.00     0.065 A 
ATOM     21  O   UNL A   1      30.465  28.472  23.421  1.00  0.00    -0.455 OA
ATOM     22  C   UNL A   1      28.724  31.734  23.802  1.00  0.00     0.016 A 
ATOM     23  C   UNL A   1      29.584  29.519  23.269  1.00  0.00     0.138 A 
ATOM     24  C   UNL A   1      27.721  31.577  22.853  1.00  0.00     0.001 A 
ATOM     25  C   UNL A   1      28.576  29.368  22.319  1.00  0.00     0.048 A 
ATOM     26  C   UNL A   1      27.657  30.403  22.105  1.00  0.00     0.004 A 
ENDBRANCH   8  10
ENDBRANCH   7   8
ENDBRANCH   6   7
ENDBRANCH   5   6
ENDBRANCH   4   5
ENDBRANCH   3   4
ENDBRANCH   2   3
ENDBRANCH   1   2
BRANCH   1  27
ATOM     27  C   UNL A   1      37.344  22.008  25.439  1.00  0.00     0.202 C 
BRANCH  27  28
ATOM     28  C   UNL A   1      38.757  21.440  25.597  1.00  0.00     0.261 C 
BRANCH  28  29
ATOM     29  O   UNL A   1      39.487  21.996  26.699  1.00  0.00    -0.460 OA
BRANCH  29  30
ATOM     30  C   UNL A   1      40.731  22.449  26.404  1.00  0.00     0.338 C 
ATOM     31  O   UNL A   1      41.548  21.932  25.658  1.00  0.00    -0.246 OA
BRANCH  30  32
ATOM     32  C   UNL A   1      40.889  23.794  26.986  1.00  0.00     0.060 A 
ATOM     33  C   UNL A   1      41.472  23.956  28.244  1.00  0.00     0.016 A 
ATOM     34  C   UNL A   1      40.437  24.903  26.258  1.00  0.00     0.016 A 
ATOM     35  C   UNL A   1      41.622  25.242  28.766  1.00  0.00     0.010 A 
ATOM     36  C   UNL A   1      40.563  26.185  26.794  1.00  0.00     0.010 A 
ATOM     37  C   UNL A   1      41.176  26.363  28.043  1.00  0.00    -0.014 A 
BRANCH  37  38
ATOM     38  C   UNL A   1      41.496  27.725  28.524  1.00  0.00     0.031 A 
ATOM     39  C   UNL A   1      40.447  28.622  29.105  1.00  0.00     0.074 A 
ATOM     40  C   UNL A   1      42.769  28.148  28.414  1.00  0.00     0.049 A 
ATOM     41  N   UNL A   1      40.564  29.859  29.513  1.00  0.00    -0.248 NA
ATOM     42  C   UNL A   1      39.092  28.069  29.236  1.00  0.00     0.031 C 
ATOM     43  C   UNL A   1      43.869  27.357  27.858  1.00  0.00     0.029 A 
ATOM     44  N   UNL A   1      43.355  29.333  28.774  1.00  0.00    -0.354 N 
ATOM     45  C   UNL A   1      39.286  30.265  29.871  1.00  0.00     0.074 A 
ATOM     46  C   UNL A   1      38.418  29.118  29.694  1.00  0.00     0.031 C 
ATOM     47  C   UNL A   1      45.004  28.067  27.946  1.00  0.00     0.029 A 
ATOM     48  C   UNL A   1      44.708  29.367  28.538  1.00  0.00     0.049 A 
ATOM     49  H   UNL A   1      42.855  30.086  29.162  1.00  0.00     0.167 HD
ATOM     50  C   UNL A   1      38.880  31.492  30.280  1.00  0.00     0.034 A 
ATOM     51  C   UNL A   1      45.613  30.332  28.788  1.00  0.00     0.034 A 
ATOM     52  C   UNL A   1      39.774  32.588  30.556  1.00  0.00     0.049 A 
ATOM     53  C   UNL A   1      45.164  31.616  29.421  1.00  0.00     0.074 A 
ATOM     54  C   UNL A   1      39.466  33.842  31.056  1.00  0.00     0.029 A 
ATOM     55  N   UNL A   1      41.150  32.555  30.394  1.00  0.00    -0.354 N 
ATOM     56  N   UNL A   1      43.955  31.974  29.777  1.00  0.00    -0.248 NA
ATOM     57  C   UNL A   1      46.199  32.617  29.710  1.00  0.00     0.031 C 
ATOM     58  C   UNL A   1      40.655  34.561  31.209  1.00  0.00     0.029 A 
ATOM     59  C   UNL A   1      41.706  33.752  30.811  1.00  0.00     0.049 A 
ATOM     60  H   UNL A   1      41.658  31.791  30.034  1.00  0.00     0.167 HD
ATOM     61  C   UNL A   1      44.083  33.238  30.338  1.00  0.00     0.074 A 
ATOM     62  C   UNL A   1      45.492  33.573  30.301  1.00  0.00     0.031 C 
ATOM     63  C   UNL A   1      43.114  34.055  30.816  1.00  0.00     0.034 A 
BRANCH  50  64
ATOM     64  C   UNL A   1      37.408  31.735  30.490  1.00  0.00     0.023 A 
ATOM     65  C   UNL A   1      36.849  31.592  31.774  1.00  0.00     0.012 A 
ATOM     66  C   UNL A   1      36.609  32.237  29.440  1.00  0.00     0.148 A 
ATOM     67  C   UNL A   1      35.517  31.930  32.008  1.00  0.00     0.002 A 
ATOM     68  C   UNL A   1      35.296  32.618  29.692  1.00  0.00     0.091 A 
ATOM     69  F   UNL A   1      37.156  32.350  28.221  1.00  0.00    -0.205 F 
ATOM     70  C   UNL A   1      34.746  32.456  30.974  1.00  0.00     0.022 A 
BRANCH  68  71
ATOM     71  S   UNL A   1      34.249  33.397  28.456  1.00  0.00     0.127 S 
ATOM     72  O   UNL A   1      35.237  33.874  27.490  1.00  0.00    -0.237 OA
ATOM     73  O   UNL A   1      33.436  32.272  27.992  1.00  0.00    -0.237 OA
ATOM     74  O   UNL A   1      33.509  34.439  29.154  1.00  0.00    -0.744 OA
ENDBRANCH  68  71
ENDBRANCH  50  64
BRANCH  51  75
ATOM     75  C   UNL A   1      47.049  30.058  28.522  1.00  0.00     0.023 A 
ATOM     76  C   UNL A   1      47.611  30.503  27.311  1.00  0.00     0.012 A 
ATOM     77  C   UNL A   1      47.872  29.454  29.490  1.00  0.00     0.148 A 
ATOM     78  C   UNL A   1      48.975  30.346  27.065  1.00  0.00     0.002 A 
ATOM     79  C   UNL A   1      49.236  29.335  29.254  1.00  0.00     0.091 A 
ATOM     80  F   UNL A   1      47.307  29.045  30.635  1.00  0.00    -0.205 F 
ATOM     81  C   UNL A   1      49.787  29.772  28.039  1.00  0.00     0.022 A 
BRANCH  79  82
ATOM     82  S   UNL A   1      50.383  28.711  30.486  1.00  0.00     0.127 S 
ATOM     83  O   UNL A   1      50.181  29.653  31.584  1.00  0.00    -0.237 OA
ATOM     84  O   UNL A   1      49.861  27.365  30.724  1.00  0.00    -0.237 OA
ATOM     85  O   UNL A   1      51.698  28.752  29.862  1.00  0.00    -0.744 OA
ENDBRANCH  79  82
ENDBRANCH  51  75
BRANCH  63  86
ATOM     86  C   UNL A   1      43.525  35.398  31.351  1.00  0.00     0.023 A 
ATOM     87  C   UNL A   1      43.944  35.507  32.691  1.00  0.00     0.012 A 
ATOM     88  C   UNL A   1      43.605  36.520  30.503  1.00  0.00     0.148 A 
ATOM     89  C   UNL A   1      44.427  36.717  33.185  1.00  0.00     0.002 A 
ATOM     90  C   UNL A   1      44.115  37.716  30.994  1.00  0.00     0.091 A 
ATOM     91  F   UNL A   1      43.191  36.391  29.235  1.00  0.00    -0.205 F 
ATOM     92  C   UNL A   1      44.523  37.817  32.335  1.00  0.00     0.022 A 
BRANCH  90  93
ATOM     93  S   UNL A   1      44.338  39.172  29.965  1.00  0.00     0.127 S 
ATOM     94  O   UNL A   1      44.338  40.243  30.962  1.00  0.00    -0.237 OA
ATOM     95  O   UNL A   1      45.638  38.915  29.345  1.00  0.00    -0.237 OA
ATOM     96  O   UNL A   1      43.214  39.190  29.040  1.00  0.00    -0.744 OA
ENDBRANCH  90  93
ENDBRANCH  63  86
ENDBRANCH  37  38
ENDBRANCH  30  32
ENDBRANCH  29  30
ENDBRANCH  28  29
ENDBRANCH  27  28
ENDBRANCH   1  27
TORSDOF 20
ENDMDL
