MODEL 1
REMARK VINA RESULT:     -10.7      0.000      0.000
REMARK SMILES Cn1ncc(C(=O)OCCOCCOCCOC(=O)c2ccc(-c3c4nc(c(-c5cccc(S(=O)(=O)[O-])c5F)c5ccc([nH]5)c(-c5cccc(S(=O)(=O)[O-])c5F)c5nc(c(-c6cccc(S(=O)(=O)[O-])c6F)c6ccc3[nH]6)C=C5)C=C4)cc2)c1NS(=O)(=O)[C@@H]1CCS(=O)(=O)C1
REMARK SMILES IDX 12 1 11 2 10 3 9 4 8 5 6 6 7 7 5 8 1 9 2 10 3 11 83 12 4 13
REMARK SMILES IDX 84 14 85 16 86 17 87 18 88 19 89 20 94 21 90 22 91 23 92 24
REMARK SMILES IDX 93 25 13 26 14 27 15 28 16 29 17 30 18 31 19 32 20 33 21 34
REMARK SMILES IDX 82 35 22 36 81 37 23 38 24 39 25 40 75 41 26 42 80 43 74 44
REMARK SMILES IDX 76 45 27 46 79 47 73 48 72 49 28 51 60 52 40 53 59 54 41 55
REMARK SMILES IDX 44 56 58 57 77 58 42 59 43 60 57 62 78 63 45 64 29 65 30 66
REMARK SMILES IDX 38 67 31 68 33 69 39 70 32 71 34 72 35 73 36 74 37 75 61 76
REMARK SMILES IDX 62 77 70 78 63 79 65 80 71 81 64 82 66 83 67 84 68 85 69 86
REMARK SMILES IDX 46 87 47 88 55 89 48 90 50 91 56 92 49 93 51 94 52 95 53 96
REMARK SMILES IDX 54 97
REMARK H PARENT 84 15 76 50 44 61
REMARK Flexibility Score: inf
ROOT
ATOM      1  C   UNL A   1      30.782  29.195  23.674  1.00  0.00     0.188 C 
ENDROOT
BRANCH   1   2
ATOM      2  O   UNL A   1      31.824  28.900  22.756  1.00  0.00    -0.376 OA
BRANCH   2   3
ATOM      3  C   UNL A   1      33.163  29.010  23.236  1.00  0.00     0.202 C 
BRANCH   3   4
ATOM      4  C   UNL A   1      34.002  27.740  23.009  1.00  0.00     0.261 C 
BRANCH   4   5
ATOM      5  O   UNL A   1      33.298  26.881  22.082  1.00  0.00    -0.460 OA
BRANCH   5   6
ATOM      6  C   UNL A   1      33.187  25.561  22.378  1.00  0.00     0.343 C 
ATOM      7  O   UNL A   1      33.952  24.703  21.984  1.00  0.00    -0.246 OA
BRANCH   6   8
ATOM      8  C   UNL A   1      32.192  25.321  23.408  1.00  0.00     0.123 A 
ATOM      9  C   UNL A   1      30.240  24.834  26.422  1.00  0.00     0.176 C 
ATOM     10  N   UNL A   1      30.841  25.002  25.116  1.00  0.00    -0.251 N 
ATOM     11  N   UNL A   1      30.011  25.305  24.116  1.00  0.00    -0.179 NA
ATOM     12  C   UNL A   1      32.182  24.894  24.739  1.00  0.00     0.152 A 
ATOM     13  C   UNL A   1      30.820  25.551  23.098  1.00  0.00     0.153 A 
BRANCH  12  14
ATOM     14  N   UNL A   1      33.132  24.472  25.675  1.00  0.00    -0.267 N 
ATOM     15  H   UNL A   1      32.835  24.652  26.597  1.00  0.00     0.181 HD
BRANCH  14  16
ATOM     16  S   UNL A   1      34.591  23.766  25.647  1.00  0.00     0.237 S 
ATOM     17  O   UNL A   1      35.404  24.412  24.639  1.00  0.00    -0.206 OA
ATOM     18  O   UNL A   1      35.056  23.769  27.021  1.00  0.00    -0.206 OA
BRANCH  16  19
ATOM     19  C   UNL A   1      34.488  22.078  25.201  1.00  0.00     0.145 C 
ATOM     20  C   UNL A   1      34.127  21.856  23.737  1.00  0.00     0.039 C 
ATOM     21  C   UNL A   1      33.552  21.265  26.079  1.00  0.00     0.158 C 
ATOM     22  C   UNL A   1      32.619  21.714  23.618  1.00  0.00     0.138 C 
ATOM     23  S   UNL A   1      32.118  20.886  25.106  1.00  0.00     0.151 S 
ATOM     24  O   UNL A   1      30.981  21.573  25.673  1.00  0.00    -0.229 OA
ATOM     25  O   UNL A   1      32.127  19.460  24.857  1.00  0.00    -0.229 OA
ENDBRANCH  16  19
ENDBRANCH  14  16
ENDBRANCH  12  14
ENDBRANCH   6   8
ENDBRANCH   5   6
ENDBRANCH   4   5
ENDBRANCH   3   4
ENDBRANCH   2   3
ENDBRANCH   1   2
BRANCH   1  26
ATOM     26  C   UNL A   1      31.280  29.572  25.052  1.00  0.00     0.188 C 
BRANCH  26  27
ATOM     27  O   UNL A   1      31.055  30.922  25.454  1.00  0.00    -0.376 OA
BRANCH  27  28
ATOM     28  C   UNL A   1      31.813  31.295  26.617  1.00  0.00     0.202 C 
BRANCH  28  29
ATOM     29  C   UNL A   1      31.879  32.808  26.926  1.00  0.00     0.261 C 
BRANCH  29  30
ATOM     30  O   UNL A   1      32.612  33.090  28.134  1.00  0.00    -0.460 OA
BRANCH  30  31
ATOM     31  C   UNL A   1      33.718  33.868  27.997  1.00  0.00     0.338 C 
ATOM     32  O   UNL A   1      33.738  35.078  27.839  1.00  0.00    -0.246 OA
BRANCH  31  33
ATOM     33  C   UNL A   1      34.911  33.075  28.407  1.00  0.00     0.060 A 
ATOM     34  C   UNL A   1      34.761  31.679  28.501  1.00  0.00     0.016 A 
ATOM     35  C   UNL A   1      36.177  33.652  28.549  1.00  0.00     0.016 A 
ATOM     36  C   UNL A   1      35.862  30.864  28.761  1.00  0.00     0.010 A 
ATOM     37  C   UNL A   1      37.275  32.839  28.838  1.00  0.00     0.010 A 
ATOM     38  C   UNL A   1      37.113  31.449  28.983  1.00  0.00    -0.014 A 
BRANCH  38  39
ATOM     39  C   UNL A   1      38.164  30.678  29.686  1.00  0.00     0.031 A 
ATOM     40  C   UNL A   1      38.401  31.031  31.129  1.00  0.00     0.074 A 
ATOM     41  C   UNL A   1      38.909  29.744  29.070  1.00  0.00     0.049 A 
ATOM     42  N   UNL A   1      39.312  30.596  31.954  1.00  0.00    -0.248 NA
ATOM     43  C   UNL A   1      37.486  32.030  31.716  1.00  0.00     0.031 C 
ATOM     44  C   UNL A   1      38.763  29.319  27.679  1.00  0.00     0.029 A 
ATOM     45  N   UNL A   1      39.969  29.008  29.538  1.00  0.00    -0.354 N 
ATOM     46  C   UNL A   1      39.103  31.290  33.141  1.00  0.00     0.074 A 
ATOM     47  C   UNL A   1      37.985  32.179  32.930  1.00  0.00     0.031 C 
ATOM     48  C   UNL A   1      39.729  28.426  27.394  1.00  0.00     0.029 A 
ATOM     49  C   UNL A   1      40.574  28.237  28.574  1.00  0.00     0.049 A 
ATOM     50  H   UNL A   1      40.269  29.030  30.476  1.00  0.00     0.167 HD
ATOM     51  C   UNL A   1      39.776  31.192  34.308  1.00  0.00     0.034 A 
ATOM     52  C   UNL A   1      41.697  27.493  28.636  1.00  0.00     0.034 A 
ATOM     53  C   UNL A   1      40.887  30.309  34.510  1.00  0.00     0.049 A 
ATOM     54  C   UNL A   1      42.450  27.420  29.944  1.00  0.00     0.074 A 
ATOM     55  C   UNL A   1      41.622  30.101  35.661  1.00  0.00     0.029 A 
ATOM     56  N   UNL A   1      41.434  29.500  33.527  1.00  0.00    -0.354 N 
ATOM     57  N   UNL A   1      42.168  27.987  31.092  1.00  0.00    -0.248 NA
ATOM     58  C   UNL A   1      43.658  26.582  29.972  1.00  0.00     0.031 C 
ATOM     59  C   UNL A   1      42.633  29.180  35.365  1.00  0.00     0.029 A 
ATOM     60  C   UNL A   1      42.506  28.796  34.039  1.00  0.00     0.049 A 
ATOM     61  H   UNL A   1      41.108  29.438  32.600  1.00  0.00     0.167 HD
ATOM     62  C   UNL A   1      43.141  27.548  31.987  1.00  0.00     0.074 A 
ATOM     63  C   UNL A   1      44.007  26.651  31.250  1.00  0.00     0.031 C 
ATOM     64  C   UNL A   1      43.315  27.866  33.294  1.00  0.00     0.034 A 
BRANCH  51  65
ATOM     65  C   UNL A   1      39.313  32.057  35.447  1.00  0.00     0.023 A 
ATOM     66  C   UNL A   1      39.613  33.434  35.445  1.00  0.00     0.012 A 
ATOM     67  C   UNL A   1      38.570  31.510  36.511  1.00  0.00     0.148 A 
ATOM     68  C   UNL A   1      39.208  34.249  36.501  1.00  0.00     0.002 A 
ATOM     69  C   UNL A   1      38.132  32.338  37.537  1.00  0.00     0.091 A 
ATOM     70  F   UNL A   1      38.327  30.192  36.510  1.00  0.00    -0.205 F 
ATOM     71  C   UNL A   1      38.459  33.703  37.539  1.00  0.00     0.022 A 
BRANCH  69  72
ATOM     72  S   UNL A   1      37.107  31.745  38.887  1.00  0.00     0.127 S 
ATOM     73  O   UNL A   1      35.980  32.675  38.828  1.00  0.00    -0.237 OA
ATOM     74  O   UNL A   1      36.797  30.381  38.456  1.00  0.00    -0.237 OA
ATOM     75  O   UNL A   1      37.929  31.835  40.085  1.00  0.00    -0.744 OA
ENDBRANCH  69  72
ENDBRANCH  51  65
BRANCH  52  76
ATOM     76  C   UNL A   1      42.175  26.739  27.440  1.00  0.00     0.023 A 
ATOM     77  C   UNL A   1      42.859  27.422  26.415  1.00  0.00     0.012 A 
ATOM     78  C   UNL A   1      41.961  25.353  27.311  1.00  0.00     0.148 A 
ATOM     79  C   UNL A   1      43.292  26.746  25.272  1.00  0.00     0.002 A 
ATOM     80  C   UNL A   1      42.444  24.675  26.197  1.00  0.00     0.091 A 
ATOM     81  F   UNL A   1      41.290  24.721  28.285  1.00  0.00    -0.205 F 
ATOM     82  C   UNL A   1      43.094  25.372  25.168  1.00  0.00     0.022 A 
BRANCH  80  83
ATOM     83  S   UNL A   1      42.356  22.887  26.044  1.00  0.00     0.127 S 
ATOM     84  O   UNL A   1      42.954  22.668  24.731  1.00  0.00    -0.237 OA
ATOM     85  O   UNL A   1      43.172  22.448  27.177  1.00  0.00    -0.237 OA
ATOM     86  O   UNL A   1      40.943  22.553  26.164  1.00  0.00    -0.744 OA
ENDBRANCH  80  83
ENDBRANCH  52  76
BRANCH  64  87
ATOM     87  C   UNL A   1      44.453  27.212  34.030  1.00  0.00     0.023 A 
ATOM     88  C   UNL A   1      45.733  27.801  34.012  1.00  0.00     0.012 A 
ATOM     89  C   UNL A   1      44.227  26.068  34.819  1.00  0.00     0.148 A 
ATOM     90  C   UNL A   1      46.777  27.243  34.747  1.00  0.00     0.002 A 
ATOM     91  C   UNL A   1      45.260  25.547  35.589  1.00  0.00     0.091 A 
ATOM     92  F   UNL A   1      43.006  25.514  34.809  1.00  0.00    -0.205 F 
ATOM     93  C   UNL A   1      46.538  26.125  35.545  1.00  0.00     0.022 A 
BRANCH  91  94
ATOM     94  S   UNL A   1      45.014  24.175  36.722  1.00  0.00     0.127 S 
ATOM     95  O   UNL A   1      44.383  23.183  35.853  1.00  0.00    -0.237 OA
ATOM     96  O   UNL A   1      46.383  23.855  37.124  1.00  0.00    -0.237 OA
ATOM     97  O   UNL A   1      44.174  24.689  37.796  1.00  0.00    -0.744 OA
ENDBRANCH  91  94
ENDBRANCH  64  87
ENDBRANCH  38  39
ENDBRANCH  31  33
ENDBRANCH  30  31
ENDBRANCH  29  30
ENDBRANCH  28  29
ENDBRANCH  27  28
ENDBRANCH  26  27
ENDBRANCH   1  26
TORSDOF 23
ENDMDL
MODEL 2
REMARK VINA RESULT:      -9.8      1.648      2.306
REMARK SMILES Cn1ncc(C(=O)OCCOCCOCCOC(=O)c2ccc(-c3c4nc(c(-c5cccc(S(=O)(=O)[O-])c5F)c5ccc([nH]5)c(-c5cccc(S(=O)(=O)[O-])c5F)c5nc(c(-c6cccc(S(=O)(=O)[O-])c6F)c6ccc3[nH]6)C=C5)C=C4)cc2)c1NS(=O)(=O)[C@@H]1CCS(=O)(=O)C1
REMARK SMILES IDX 12 1 11 2 10 3 9 4 8 5 6 6 7 7 5 8 1 9 2 10 3 11 83 12 4 13
REMARK SMILES IDX 84 14 85 16 86 17 87 18 88 19 89 20 94 21 90 22 91 23 92 24
REMARK SMILES IDX 93 25 13 26 14 27 15 28 16 29 17 30 18 31 19 32 20 33 21 34
REMARK SMILES IDX 82 35 22 36 81 37 23 38 24 39 25 40 75 41 26 42 80 43 74 44
REMARK SMILES IDX 76 45 27 46 79 47 73 48 72 49 28 51 60 52 40 53 59 54 41 55
REMARK SMILES IDX 44 56 58 57 77 58 42 59 43 60 57 62 78 63 45 64 29 65 30 66
REMARK SMILES IDX 38 67 31 68 33 69 39 70 32 71 34 72 35 73 36 74 37 75 61 76
REMARK SMILES IDX 62 77 70 78 63 79 65 80 71 81 64 82 66 83 67 84 68 85 69 86
REMARK SMILES IDX 46 87 47 88 55 89 48 90 50 91 56 92 49 93 51 94 52 95 53 96
REMARK SMILES IDX 54 97
REMARK H PARENT 84 15 76 50 44 61
REMARK Flexibility Score: inf
ROOT
ATOM      1  C   UNL A   1      32.735  29.816  24.876  1.00  0.00     0.188 C 
ENDROOT
BRANCH   1   2
ATOM      2  O   UNL A   1      31.769  28.778  24.802  1.00  0.00    -0.376 OA
BRANCH   2   3
ATOM      3  C   UNL A   1      32.135  27.511  25.344  1.00  0.00     0.202 C 
BRANCH   3   4
ATOM      4  C   UNL A   1      32.861  26.600  24.339  1.00  0.00     0.261 C 
BRANCH   4   5
ATOM      5  O   UNL A   1      31.892  26.094  23.390  1.00  0.00    -0.460 OA
BRANCH   5   6
ATOM      6  C   UNL A   1      31.656  24.759  23.355  1.00  0.00     0.343 C 
ATOM      7  O   UNL A   1      32.103  24.005  22.513  1.00  0.00    -0.246 OA
BRANCH   6   8
ATOM      8  C   UNL A   1      31.006  24.293  24.568  1.00  0.00     0.123 A 
ATOM      9  C   UNL A   1      29.915  22.674  27.620  1.00  0.00     0.176 C 
ATOM     10  N   UNL A   1      30.190  23.448  26.429  1.00  0.00    -0.251 N 
ATOM     11  N   UNL A   1      29.637  24.661  26.370  1.00  0.00    -0.179 NA
ATOM     12  C   UNL A   1      30.961  23.111  25.313  1.00  0.00     0.152 A 
ATOM     13  C   UNL A   1      30.166  25.196  25.281  1.00  0.00     0.153 A 
BRANCH  12  14
ATOM     14  N   UNL A   1      31.500  21.825  25.208  1.00  0.00    -0.267 N 
ATOM     15  H   UNL A   1      30.902  21.222  24.709  1.00  0.00     0.181 HD
BRANCH  14  16
ATOM     16  S   UNL A   1      32.848  21.063  25.689  1.00  0.00     0.237 S 
ATOM     17  O   UNL A   1      33.290  21.640  26.940  1.00  0.00    -0.206 OA
ATOM     18  O   UNL A   1      32.533  19.647  25.649  1.00  0.00    -0.206 OA
BRANCH  16  19
ATOM     19  C   UNL A   1      34.157  21.274  24.548  1.00  0.00     0.145 C 
ATOM     20  C   UNL A   1      35.367  20.395  24.842  1.00  0.00     0.039 C 
ATOM     21  C   UNL A   1      34.609  22.715  24.389  1.00  0.00     0.158 C 
ATOM     22  C   UNL A   1      36.341  21.172  25.711  1.00  0.00     0.138 C 
ATOM     23  S   UNL A   1      36.196  22.856  25.167  1.00  0.00     0.151 S 
ATOM     24  O   UNL A   1      36.072  23.719  26.319  1.00  0.00    -0.229 OA
ATOM     25  O   UNL A   1      37.173  23.081  24.123  1.00  0.00    -0.229 OA
ENDBRANCH  16  19
ENDBRANCH  14  16
ENDBRANCH  12  14
ENDBRANCH   6   8
ENDBRANCH   5   6
ENDBRANCH   4   5
ENDBRANCH   3   4
ENDBRANCH   2   3
ENDBRANCH   1   2
BRANCH   1  26
ATOM     26  C   UNL A   1      33.320  29.999  26.258  1.00  0.00     0.188 C 
BRANCH  26  27
ATOM     27  O   UNL A   1      32.474  30.625  27.221  1.00  0.00    -0.376 OA
BRANCH  27  28
ATOM     28  C   UNL A   1      31.669  31.676  26.661  1.00  0.00     0.202 C 
BRANCH  28  29
ATOM     29  C   UNL A   1      32.134  33.120  26.962  1.00  0.00     0.261 C 
BRANCH  29  30
ATOM     30  O   UNL A   1      32.865  33.213  28.200  1.00  0.00    -0.460 OA
BRANCH  30  31
ATOM     31  C   UNL A   1      33.981  33.990  28.180  1.00  0.00     0.338 C 
ATOM     32  O   UNL A   1      34.016  35.208  28.121  1.00  0.00    -0.246 OA
BRANCH  31  33
ATOM     33  C   UNL A   1      35.148  33.155  28.582  1.00  0.00     0.060 A 
ATOM     34  C   UNL A   1      34.903  31.804  28.891  1.00  0.00     0.016 A 
ATOM     35  C   UNL A   1      36.462  33.628  28.517  1.00  0.00     0.016 A 
ATOM     36  C   UNL A   1      35.961  30.935  29.158  1.00  0.00     0.010 A 
ATOM     37  C   UNL A   1      37.520  32.766  28.812  1.00  0.00     0.010 A 
ATOM     38  C   UNL A   1      37.269  31.429  29.172  1.00  0.00    -0.014 A 
BRANCH  38  39
ATOM     39  C   UNL A   1      38.329  30.669  29.873  1.00  0.00     0.031 A 
ATOM     40  C   UNL A   1      38.590  31.050  31.305  1.00  0.00     0.074 A 
ATOM     41  C   UNL A   1      39.061  29.720  29.264  1.00  0.00     0.049 A 
ATOM     42  N   UNL A   1      39.512  30.627  32.124  1.00  0.00    -0.248 NA
ATOM     43  C   UNL A   1      37.687  32.063  31.887  1.00  0.00     0.031 C 
ATOM     44  C   UNL A   1      38.892  29.268  27.885  1.00  0.00     0.029 A 
ATOM     45  N   UNL A   1      40.126  28.990  29.730  1.00  0.00    -0.354 N 
ATOM     46  C   UNL A   1      39.324  31.346  33.300  1.00  0.00     0.074 A 
ATOM     47  C   UNL A   1      38.206  32.235  33.089  1.00  0.00     0.031 C 
ATOM     48  C   UNL A   1      39.851  28.366  27.603  1.00  0.00     0.029 A 
ATOM     49  C   UNL A   1      40.714  28.198  28.772  1.00  0.00     0.049 A 
ATOM     50  H   UNL A   1      40.441  29.029  30.663  1.00  0.00     0.167 HD
ATOM     51  C   UNL A   1      40.015  31.269  34.458  1.00  0.00     0.034 A 
ATOM     52  C   UNL A   1      41.836  27.452  28.832  1.00  0.00     0.034 A 
ATOM     53  C   UNL A   1      41.126  30.386  34.661  1.00  0.00     0.049 A 
ATOM     54  C   UNL A   1      42.608  27.401  30.129  1.00  0.00     0.074 A 
ATOM     55  C   UNL A   1      41.878  30.198  35.804  1.00  0.00     0.029 A 
ATOM     56  N   UNL A   1      41.655  29.556  33.685  1.00  0.00    -0.354 N 
ATOM     57  N   UNL A   1      42.346  27.993  31.270  1.00  0.00    -0.248 NA
ATOM     58  C   UNL A   1      43.814  26.560  30.155  1.00  0.00     0.031 C 
ATOM     59  C   UNL A   1      42.881  29.268  35.511  1.00  0.00     0.029 A 
ATOM     60  C   UNL A   1      42.732  28.858  34.195  1.00  0.00     0.049 A 
ATOM     61  H   UNL A   1      41.314  29.477  32.765  1.00  0.00     0.167 HD
ATOM     62  C   UNL A   1      43.331  27.568  32.158  1.00  0.00     0.074 A 
ATOM     63  C   UNL A   1      44.183  26.653  31.426  1.00  0.00     0.031 C 
ATOM     64  C   UNL A   1      43.527  27.911  33.456  1.00  0.00     0.034 A 
BRANCH  51  65
ATOM     65  C   UNL A   1      39.572  32.158  35.587  1.00  0.00     0.023 A 
ATOM     66  C   UNL A   1      38.541  31.731  36.449  1.00  0.00     0.012 A 
ATOM     67  C   UNL A   1      40.184  33.407  35.803  1.00  0.00     0.148 A 
ATOM     68  C   UNL A   1      38.104  32.548  37.490  1.00  0.00     0.002 A 
ATOM     69  C   UNL A   1      39.772  34.196  36.870  1.00  0.00     0.091 A 
ATOM     70  F   UNL A   1      41.137  33.807  34.950  1.00  0.00    -0.205 F 
ATOM     71  C   UNL A   1      38.727  33.774  37.706  1.00  0.00     0.022 A 
BRANCH  69  72
ATOM     72  S   UNL A   1      40.554  35.761  37.273  1.00  0.00     0.127 S 
ATOM     73  O   UNL A   1      39.838  36.682  36.391  1.00  0.00    -0.237 OA
ATOM     74  O   UNL A   1      40.235  35.903  38.693  1.00  0.00    -0.237 OA
ATOM     75  O   UNL A   1      41.970  35.590  36.979  1.00  0.00    -0.744 OA
ENDBRANCH  69  72
ENDBRANCH  51  65
BRANCH  52  76
ATOM     76  C   UNL A   1      42.292  26.672  27.644  1.00  0.00     0.023 A 
ATOM     77  C   UNL A   1      43.071  27.304  26.654  1.00  0.00     0.012 A 
ATOM     78  C   UNL A   1      41.965  25.311  27.488  1.00  0.00     0.148 A 
ATOM     79  C   UNL A   1      43.487  26.607  25.519  1.00  0.00     0.002 A 
ATOM     80  C   UNL A   1      42.430  24.606  26.383  1.00  0.00     0.091 A 
ATOM     81  F   UNL A   1      41.206  24.729  28.427  1.00  0.00    -0.205 F 
ATOM     82  C   UNL A   1      43.176  25.256  25.388  1.00  0.00     0.022 A 
BRANCH  80  83
ATOM     83  S   UNL A   1      42.195  22.834  26.201  1.00  0.00     0.127 S 
ATOM     84  O   UNL A   1      42.969  22.311  27.323  1.00  0.00    -0.237 OA
ATOM     85  O   UNL A   1      40.743  22.708  26.339  1.00  0.00    -0.237 OA
ATOM     86  O   UNL A   1      42.698  22.507  24.874  1.00  0.00    -0.744 OA
ENDBRANCH  80  83
ENDBRANCH  52  76
BRANCH  64  87
ATOM     87  C   UNL A   1      44.674  27.267  34.187  1.00  0.00     0.023 A 
ATOM     88  C   UNL A   1      45.961  27.837  34.116  1.00  0.00     0.012 A 
ATOM     89  C   UNL A   1      44.453  26.156  35.022  1.00  0.00     0.148 A 
ATOM     90  C   UNL A   1      47.016  27.291  34.844  1.00  0.00     0.002 A 
ATOM     91  C   UNL A   1      45.497  25.648  35.785  1.00  0.00     0.091 A 
ATOM     92  F   UNL A   1      43.224  25.620  35.062  1.00  0.00    -0.205 F 
ATOM     93  C   UNL A   1      46.782  26.206  35.688  1.00  0.00     0.022 A 
BRANCH  91  94
ATOM     94  S   UNL A   1      45.261  24.322  36.973  1.00  0.00     0.127 S 
ATOM     95  O   UNL A   1      46.598  24.203  37.553  1.00  0.00    -0.237 OA
ATOM     96  O   UNL A   1      44.253  24.886  37.871  1.00  0.00    -0.237 OA
ATOM     97  O   UNL A   1      44.808  23.172  36.203  1.00  0.00    -0.744 OA
ENDBRANCH  91  94
ENDBRANCH  64  87
ENDBRANCH  38  39
ENDBRANCH  31  33
ENDBRANCH  30  31
ENDBRANCH  29  30
ENDBRANCH  28  29
ENDBRANCH  27  28
ENDBRANCH  26  27
ENDBRANCH   1  26
TORSDOF 23
ENDMDL
MODEL 3
REMARK VINA RESULT:      -9.8      2.476      8.747
REMARK SMILES Cn1ncc(C(=O)OCCOCCOCCOC(=O)c2ccc(-c3c4nc(c(-c5cccc(S(=O)(=O)[O-])c5F)c5ccc([nH]5)c(-c5cccc(S(=O)(=O)[O-])c5F)c5nc(c(-c6cccc(S(=O)(=O)[O-])c6F)c6ccc3[nH]6)C=C5)C=C4)cc2)c1NS(=O)(=O)[C@@H]1CCS(=O)(=O)C1
REMARK SMILES IDX 12 1 11 2 10 3 9 4 8 5 6 6 7 7 5 8 1 9 2 10 3 11 83 12 4 13
REMARK SMILES IDX 84 14 85 16 86 17 87 18 88 19 89 20 94 21 90 22 91 23 92 24
REMARK SMILES IDX 93 25 13 26 14 27 15 28 16 29 17 30 18 31 19 32 20 33 21 34
REMARK SMILES IDX 82 35 22 36 81 37 23 38 24 39 25 40 75 41 26 42 80 43 74 44
REMARK SMILES IDX 76 45 27 46 79 47 73 48 72 49 28 51 60 52 40 53 59 54 41 55
REMARK SMILES IDX 44 56 58 57 77 58 42 59 43 60 57 62 78 63 45 64 29 65 30 66
REMARK SMILES IDX 38 67 31 68 33 69 39 70 32 71 34 72 35 73 36 74 37 75 61 76
REMARK SMILES IDX 62 77 70 78 63 79 65 80 71 81 64 82 66 83 67 84 68 85 69 86
REMARK SMILES IDX 46 87 47 88 55 89 48 90 50 91 56 92 49 93 51 94 52 95 53 96
REMARK SMILES IDX 54 97
REMARK H PARENT 84 15 76 50 44 61
REMARK Flexibility Score: inf
ROOT
ATOM      1  C   UNL A   1      40.604  21.589  27.111  1.00  0.00     0.188 C 
ENDROOT
BRANCH   1   2
ATOM      2  O   UNL A   1      39.427  21.349  26.354  1.00  0.00    -0.376 OA
BRANCH   2   3
ATOM      3  C   UNL A   1      38.512  22.435  26.214  1.00  0.00     0.202 C 
BRANCH   3   4
ATOM      4  C   UNL A   1      37.564  22.287  25.012  1.00  0.00     0.261 C 
BRANCH   4   5
ATOM      5  O   UNL A   1      36.442  21.462  25.407  1.00  0.00    -0.460 OA
BRANCH   5   6
ATOM      6  C   UNL A   1      35.267  22.069  25.709  1.00  0.00     0.343 C 
ATOM      7  O   UNL A   1      35.154  22.995  26.488  1.00  0.00    -0.246 OA
BRANCH   6   8
ATOM      8  C   UNL A   1      34.197  21.644  24.824  1.00  0.00     0.123 A 
ATOM      9  C   UNL A   1      31.845  20.996  22.145  1.00  0.00     0.176 C 
ATOM     10  N   UNL A   1      32.674  21.118  23.325  1.00  0.00    -0.251 N 
ATOM     11  N   UNL A   1      32.595  20.122  24.210  1.00  0.00    -0.179 NA
ATOM     12  C   UNL A   1      33.560  22.138  23.682  1.00  0.00     0.152 A 
ATOM     13  C   UNL A   1      33.546  20.404  25.087  1.00  0.00     0.153 A 
BRANCH  12  14
ATOM     14  N   UNL A   1      33.646  23.288  22.890  1.00  0.00    -0.267 N 
ATOM     15  H   UNL A   1      33.636  23.067  21.930  1.00  0.00     0.181 HD
BRANCH  14  16
ATOM     16  S   UNL A   1      33.758  24.887  23.132  1.00  0.00     0.237 S 
ATOM     17  O   UNL A   1      34.821  25.143  24.080  1.00  0.00    -0.206 OA
ATOM     18  O   UNL A   1      33.848  25.478  21.810  1.00  0.00    -0.206 OA
BRANCH  16  19
ATOM     19  C   UNL A   1      32.294  25.544  23.829  1.00  0.00     0.145 C 
ATOM     20  C   UNL A   1      31.256  25.951  22.789  1.00  0.00     0.039 C 
ATOM     21  C   UNL A   1      32.533  26.702  24.782  1.00  0.00     0.158 C 
ATOM     22  C   UNL A   1      31.448  27.420  22.451  1.00  0.00     0.138 C 
ATOM     23  S   UNL A   1      31.972  28.175  23.969  1.00  0.00     0.151 S 
ATOM     24  O   UNL A   1      33.114  29.022  23.709  1.00  0.00    -0.229 OA
ATOM     25  O   UNL A   1      30.797  28.641  24.675  1.00  0.00    -0.229 OA
ENDBRANCH  16  19
ENDBRANCH  14  16
ENDBRANCH  12  14
ENDBRANCH   6   8
ENDBRANCH   5   6
ENDBRANCH   4   5
ENDBRANCH   3   4
ENDBRANCH   2   3
ENDBRANCH   1   2
BRANCH   1  26
ATOM     26  C   UNL A   1      41.839  20.937  26.529  1.00  0.00     0.188 C 
BRANCH  26  27
ATOM     27  O   UNL A   1      43.084  21.565  26.833  1.00  0.00    -0.376 OA
BRANCH  27  28
ATOM     28  C   UNL A   1      43.949  21.677  25.691  1.00  0.00     0.202 C 
BRANCH  28  29
ATOM     29  C   UNL A   1      43.432  22.562  24.533  1.00  0.00     0.261 C 
BRANCH  29  30
ATOM     30  O   UNL A   1      43.065  23.883  24.975  1.00  0.00    -0.460 OA
BRANCH  30  31
ATOM     31  C   UNL A   1      44.092  24.738  25.227  1.00  0.00     0.338 C 
ATOM     32  O   UNL A   1      45.019  25.000  24.477  1.00  0.00    -0.246 OA
BRANCH  31  33
ATOM     33  C   UNL A   1      43.741  25.565  26.416  1.00  0.00     0.060 A 
ATOM     34  C   UNL A   1      42.719  25.090  27.258  1.00  0.00     0.016 A 
ATOM     35  C   UNL A   1      44.483  26.691  26.786  1.00  0.00     0.016 A 
ATOM     36  C   UNL A   1      42.421  25.748  28.451  1.00  0.00     0.010 A 
ATOM     37  C   UNL A   1      44.165  27.367  27.966  1.00  0.00     0.010 A 
ATOM     38  C   UNL A   1      43.108  26.920  28.780  1.00  0.00    -0.014 A 
BRANCH  38  39
ATOM     39  C   UNL A   1      42.525  27.856  29.768  1.00  0.00     0.031 A 
ATOM     40  C   UNL A   1      43.149  27.858  31.137  1.00  0.00     0.074 A 
ATOM     41  C   UNL A   1      41.465  28.633  29.489  1.00  0.00     0.049 A 
ATOM     42  N   UNL A   1      42.787  28.495  32.216  1.00  0.00    -0.248 NA
ATOM     43  C   UNL A   1      44.344  27.008  31.312  1.00  0.00     0.031 C 
ATOM     44  C   UNL A   1      40.785  28.715  28.198  1.00  0.00     0.029 A 
ATOM     45  N   UNL A   1      40.751  29.480  30.301  1.00  0.00    -0.354 N 
ATOM     46  C   UNL A   1      43.683  28.096  33.202  1.00  0.00     0.074 A 
ATOM     47  C   UNL A   1      44.602  27.159  32.599  1.00  0.00     0.031 C 
ATOM     48  C   UNL A   1      39.724  29.535  28.317  1.00  0.00     0.029 A 
ATOM     49  C   UNL A   1      39.636  30.014  29.697  1.00  0.00     0.049 A 
ATOM     50  H   UNL A   1      41.012  29.686  31.228  1.00  0.00     0.167 HD
ATOM     51  C   UNL A   1      43.743  28.480  34.496  1.00  0.00     0.034 A 
ATOM     52  C   UNL A   1      38.650  30.774  30.214  1.00  0.00     0.034 A 
ATOM     53  C   UNL A   1      42.826  29.408  35.091  1.00  0.00     0.049 A 
ATOM     54  C   UNL A   1      38.722  31.169  31.670  1.00  0.00     0.074 A 
ATOM     55  C   UNL A   1      42.813  29.896  36.382  1.00  0.00     0.029 A 
ATOM     56  N   UNL A   1      41.746  29.972  34.432  1.00  0.00    -0.354 N 
ATOM     57  N   UNL A   1      39.644  30.883  32.559  1.00  0.00    -0.248 NA
ATOM     58  C   UNL A   1      37.636  32.015  32.187  1.00  0.00     0.031 C 
ATOM     59  C   UNL A   1      41.706  30.741  36.512  1.00  0.00     0.029 A 
ATOM     60  C   UNL A   1      41.050  30.799  35.291  1.00  0.00     0.049 A 
ATOM     61  H   UNL A   1      41.509  29.807  33.490  1.00  0.00     0.167 HD
ATOM     62  C   UNL A   1      39.268  31.540  33.728  1.00  0.00     0.074 A 
ATOM     63  C   UNL A   1      38.045  32.256  33.426  1.00  0.00     0.031 C 
ATOM     64  C   UNL A   1      39.867  31.543  34.945  1.00  0.00     0.034 A 
BRANCH  51  65
ATOM     65  C   UNL A   1      44.845  27.899  35.339  1.00  0.00     0.023 A 
ATOM     66  C   UNL A   1      46.060  28.600  35.479  1.00  0.00     0.012 A 
ATOM     67  C   UNL A   1      44.673  26.668  36.000  1.00  0.00     0.148 A 
ATOM     68  C   UNL A   1      47.099  28.070  36.241  1.00  0.00     0.002 A 
ATOM     69  C   UNL A   1      45.698  26.168  36.794  1.00  0.00     0.091 A 
ATOM     70  F   UNL A   1      43.523  26.002  35.824  1.00  0.00    -0.205 F 
ATOM     71  C   UNL A   1      46.914  26.861  36.906  1.00  0.00     0.022 A 
BRANCH  69  72
ATOM     72  S   UNL A   1      45.535  24.653  37.743  1.00  0.00     0.127 S 
ATOM     73  O   UNL A   1      45.256  23.677  36.690  1.00  0.00    -0.237 OA
ATOM     74  O   UNL A   1      46.859  24.532  38.353  1.00  0.00    -0.237 OA
ATOM     75  O   UNL A   1      44.447  24.883  38.684  1.00  0.00    -0.744 OA
ENDBRANCH  69  72
ENDBRANCH  51  65
BRANCH  52  76
ATOM     76  C   UNL A   1      37.519  31.234  29.356  1.00  0.00     0.023 A 
ATOM     77  C   UNL A   1      37.409  32.599  29.022  1.00  0.00     0.012 A 
ATOM     78  C   UNL A   1      36.555  30.332  28.864  1.00  0.00     0.148 A 
ATOM     79  C   UNL A   1      36.345  33.061  28.245  1.00  0.00     0.002 A 
ATOM     80  C   UNL A   1      35.530  30.789  28.043  1.00  0.00     0.091 A 
ATOM     81  F   UNL A   1      36.662  29.040  29.206  1.00  0.00    -0.205 F 
ATOM     82  C   UNL A   1      35.413  32.156  27.746  1.00  0.00     0.022 A 
BRANCH  80  83
ATOM     83  S   UNL A   1      34.365  29.677  27.245  1.00  0.00     0.127 S 
ATOM     84  O   UNL A   1      33.852  28.915  28.380  1.00  0.00    -0.237 OA
ATOM     85  O   UNL A   1      33.414  30.616  26.649  1.00  0.00    -0.237 OA
ATOM     86  O   UNL A   1      35.147  28.923  26.274  1.00  0.00    -0.744 OA
ENDBRANCH  80  83
ENDBRANCH  52  76
BRANCH  64  87
ATOM     87  C   UNL A   1      39.242  32.376  36.032  1.00  0.00     0.023 A 
ATOM     88  C   UNL A   1      38.249  31.818  36.861  1.00  0.00     0.012 A 
ATOM     89  C   UNL A   1      39.713  33.677  36.293  1.00  0.00     0.148 A 
ATOM     90  C   UNL A   1      37.714  32.556  37.915  1.00  0.00     0.002 A 
ATOM     91  C   UNL A   1      39.212  34.386  37.377  1.00  0.00     0.091 A 
ATOM     92  F   UNL A   1      40.648  34.193  35.482  1.00  0.00    -0.205 F 
ATOM     93  C   UNL A   1      38.204  33.833  38.181  1.00  0.00     0.022 A 
BRANCH  91  94
ATOM     94  S   UNL A   1      39.859  35.993  37.853  1.00  0.00     0.127 S 
ATOM     95  O   UNL A   1      41.237  35.662  38.215  1.00  0.00    -0.237 OA
ATOM     96  O   UNL A   1      39.719  36.763  36.617  1.00  0.00    -0.237 OA
ATOM     97  O   UNL A   1      39.018  36.453  38.950  1.00  0.00    -0.744 OA
ENDBRANCH  91  94
ENDBRANCH  64  87
ENDBRANCH  38  39
ENDBRANCH  31  33
ENDBRANCH  30  31
ENDBRANCH  29  30
ENDBRANCH  28  29
ENDBRANCH  27  28
ENDBRANCH  26  27
ENDBRANCH   1  26
TORSDOF 23
ENDMDL
