MODEL 1
REMARK VINA RESULT:     -10.9      0.000      0.000
REMARK SMILES Cc1ccc(Nc2c(Cl)cc(Cl)cc2Cl)c(CC(=O)OCCOCCOCCOC(=O)c2ccc(-c3c4nc(c(-c5cccc(S(=O)(=O)[O-])c5F)c5ccc([nH]5)c(-c5cccc(S(=O)(=O)[O-])c5F)c5nc(c(-c6cccc(S(=O)(=O)[O-])c6F)c6ccc3[nH]6)C=C5)C=C4)cc2)c1
REMARK SMILES IDX 24 1 23 2 22 3 21 4 20 5 18 6 19 7 17 8 16 9 1 10 2 11 3 12
REMARK SMILES IDX 95 13 4 14 5 15 6 16 7 18 8 19 14 20 9 21 10 22 13 23 15 24
REMARK SMILES IDX 11 25 12 26 25 27 26 28 27 29 28 30 29 31 30 32 31 33 32 34
REMARK SMILES IDX 33 35 94 36 34 37 93 38 35 39 36 40 37 41 87 42 38 43 92 44
REMARK SMILES IDX 86 45 88 46 39 47 91 48 85 49 84 50 40 52 72 53 52 54 71 55
REMARK SMILES IDX 53 56 56 57 70 58 89 59 54 60 55 61 69 63 90 64 57 65 41 66
REMARK SMILES IDX 42 67 50 68 43 69 45 70 51 71 44 72 46 73 47 74 48 75 49 76
REMARK SMILES IDX 73 77 74 78 82 79 75 80 77 81 83 82 76 83 78 84 79 85 80 86
REMARK SMILES IDX 81 87 58 88 59 89 67 90 60 91 62 92 68 93 61 94 63 95 64 96
REMARK SMILES IDX 65 97 66 98
REMARK H PARENT 6 17 88 51 56 62
REMARK Flexibility Score: inf
ROOT
ATOM      1  C   UNL A   1      45.104  27.963  26.324  1.00  0.00     0.188 C 
ENDROOT
BRANCH   1   2
ATOM      2  O   UNL A   1      46.020  26.895  26.347  1.00  0.00    -0.376 OA
BRANCH   2   3
ATOM      3  C   UNL A   1      46.359  26.229  27.551  1.00  0.00     0.202 C 
BRANCH   3   4
ATOM      4  C   UNL A   1      45.788  24.913  28.363  1.00  0.00     0.261 C 
BRANCH   4   5
ATOM      5  O   UNL A   1      44.188  24.210  28.886  1.00  0.00    -0.463 OA
BRANCH   5   6
ATOM      6  C   UNL A   1      42.753  23.603  28.317  1.00  0.00     0.310 C 
ATOM      7  O   UNL A   1      41.917  22.794  28.750  1.00  0.00    -0.252 OA
BRANCH   6   8
ATOM      8  C   UNL A   1      42.191  24.343  27.250  1.00  0.00     0.160 C 
BRANCH   8   9
ATOM      9  C   UNL A   1      42.312  23.441  26.106  1.00  0.00    -0.013 A 
ATOM     10  C   UNL A   1      46.019  23.651  24.948  1.00  0.00     0.044 C 
ATOM     11  C   UNL A   1      44.668  23.088  25.242  1.00  0.00    -0.051 A 
ATOM     12  C   UNL A   1      44.416  21.756  25.351  1.00  0.00     0.005 A 
ATOM     13  C   UNL A   1      43.615  23.906  25.571  1.00  0.00     0.009 A 
ATOM     14  C   UNL A   1      43.117  21.326  25.726  1.00  0.00     0.026 A 
ATOM     15  C   UNL A   1      41.725  22.143  25.979  1.00  0.00     0.042 A 
BRANCH  15  16
ATOM     16  N   UNL A   1      39.917  21.248  26.094  1.00  0.00    -0.353 N 
ATOM     17  H   UNL A   1      39.975  20.301  26.356  1.00  0.00     0.167 HD
BRANCH  16  18
ATOM     18  C   UNL A   1      38.185  21.806  25.817  1.00  0.00     0.076 A 
ATOM     19  C   UNL A   1      37.033  21.006  25.140  1.00  0.00     0.067 A 
ATOM     20  C   UNL A   1      37.908  23.201  25.822  1.00  0.00     0.067 A 
ATOM     21  Cl  UNL A   1      36.686  19.275  24.829  1.00  0.00    -0.082 Cl
ATOM     22  C   UNL A   1      35.937  21.631  24.496  1.00  0.00     0.043 A 
ATOM     23  C   UNL A   1      36.786  23.754  25.113  1.00  0.00     0.043 A 
ATOM     24  Cl  UNL A   1      38.686  24.417  26.709  1.00  0.00    -0.082 Cl
ATOM     25  C   UNL A   1      35.854  22.991  24.429  1.00  0.00     0.044 A 
ATOM     26  Cl  UNL A   1      34.631  23.713  23.455  1.00  0.00    -0.084 Cl
ENDBRANCH  16  18
ENDBRANCH  15  16
ENDBRANCH   8   9
ENDBRANCH   6   8
ENDBRANCH   5   6
ENDBRANCH   4   5
ENDBRANCH   3   4
ENDBRANCH   2   3
ENDBRANCH   1   2
BRANCH   1  27
ATOM     27  C   UNL A   1      43.637  27.705  26.605  1.00  0.00     0.188 C 
BRANCH  27  28
ATOM     28  O   UNL A   1      42.922  28.852  26.995  1.00  0.00    -0.376 OA
BRANCH  28  29
ATOM     29  C   UNL A   1      41.679  28.603  27.634  1.00  0.00     0.202 C 
BRANCH  29  30
ATOM     30  C   UNL A   1      40.327  28.826  26.837  1.00  0.00     0.261 C 
BRANCH  30  31
ATOM     31  O   UNL A   1      39.272  29.627  27.516  1.00  0.00    -0.460 OA
BRANCH  31  32
ATOM     32  C   UNL A   1      38.355  29.099  28.459  1.00  0.00     0.338 C 
ATOM     33  O   UNL A   1      38.151  27.900  28.439  1.00  0.00    -0.246 OA
BRANCH  32  34
ATOM     34  C   UNL A   1      37.687  30.289  29.464  1.00  0.00     0.060 A 
ATOM     35  C   UNL A   1      37.143  32.175  29.456  1.00  0.00     0.016 A 
ATOM     36  C   UNL A   1      39.096  29.972  30.546  1.00  0.00     0.016 A 
ATOM     37  C   UNL A   1      38.290  33.450  30.279  1.00  0.00     0.010 A 
ATOM     38  C   UNL A   1      40.068  31.244  31.201  1.00  0.00     0.010 A 
ATOM     39  C   UNL A   1      39.856  33.012  31.133  1.00  0.00    -0.014 A 
BRANCH  39  40
ATOM     40  C   UNL A   1      41.110  33.909  32.248  1.00  0.00     0.031 A 
ATOM     41  C   UNL A   1      40.794  34.594  34.021  1.00  0.00     0.074 A 
ATOM     42  C   UNL A   1      42.446  33.918  32.031  1.00  0.00     0.049 A 
ATOM     43  N   UNL A   1      40.815  35.853  34.424  1.00  0.00    -0.248 NA
ATOM     44  C   UNL A   1      39.897  33.895  35.236  1.00  0.00     0.031 C 
ATOM     45  C   UNL A   1      43.506  34.150  33.034  1.00  0.00     0.029 A 
ATOM     46  N   UNL A   1      43.183  33.577  30.902  1.00  0.00    -0.354 N 
ATOM     47  C   UNL A   1      40.128  35.924  35.691  1.00  0.00     0.074 A 
ATOM     48  C   UNL A   1      39.195  34.877  35.757  1.00  0.00     0.031 C 
ATOM     49  C   UNL A   1      44.699  34.248  32.410  1.00  0.00     0.029 A 
ATOM     50  C   UNL A   1      44.407  34.262  30.988  1.00  0.00     0.049 A 
ATOM     51  H   UNL A   1      42.900  32.972  30.179  1.00  0.00     0.167 HD
ATOM     52  C   UNL A   1      40.736  36.306  36.859  1.00  0.00     0.034 A 
ATOM     53  C   UNL A   1      44.589  35.298  30.124  1.00  0.00     0.034 A 
ATOM     54  C   UNL A   1      42.119  36.567  36.509  1.00  0.00     0.049 A 
ATOM     55  C   UNL A   1      44.522  36.596  30.907  1.00  0.00     0.074 A 
ATOM     56  C   UNL A   1      43.271  35.800  36.541  1.00  0.00     0.029 A 
ATOM     57  N   UNL A   1      42.315  37.532  35.544  1.00  0.00    -0.354 N 
ATOM     58  N   UNL A   1      44.030  36.697  32.117  1.00  0.00    -0.248 NA
ATOM     59  C   UNL A   1      45.149  37.832  30.465  1.00  0.00     0.031 C 
ATOM     60  C   UNL A   1      44.145  36.310  35.524  1.00  0.00     0.029 A 
ATOM     61  C   UNL A   1      43.516  37.369  34.884  1.00  0.00     0.049 A 
ATOM     62  H   UNL A   1      41.673  38.253  35.347  1.00  0.00     0.167 HD
ATOM     63  C   UNL A   1      44.253  37.938  32.622  1.00  0.00     0.074 A 
ATOM     64  C   UNL A   1      44.976  38.608  31.550  1.00  0.00     0.031 C 
ATOM     65  C   UNL A   1      43.841  38.352  33.859  1.00  0.00     0.034 A 
BRANCH  52  66
ATOM     66  C   UNL A   1      40.203  36.017  38.295  1.00  0.00     0.023 A 
ATOM     67  C   UNL A   1      39.482  37.063  38.906  1.00  0.00     0.012 A 
ATOM     68  C   UNL A   1      40.319  34.821  39.083  1.00  0.00     0.148 A 
ATOM     69  C   UNL A   1      38.939  36.966  40.198  1.00  0.00     0.002 A 
ATOM     70  C   UNL A   1      39.829  34.749  40.405  1.00  0.00     0.091 A 
ATOM     71  F   UNL A   1      40.848  33.710  38.550  1.00  0.00    -0.205 F 
ATOM     72  C   UNL A   1      39.125  35.821  40.955  1.00  0.00     0.022 A 
BRANCH  70  73
ATOM     73  S   UNL A   1      40.092  33.336  41.514  1.00  0.00     0.127 S 
ATOM     74  O   UNL A   1      41.554  33.285  41.619  1.00  0.00    -0.237 OA
ATOM     75  O   UNL A   1      39.420  33.759  42.739  1.00  0.00    -0.237 OA
ATOM     76  O   UNL A   1      39.514  32.181  40.836  1.00  0.00    -0.744 OA
ENDBRANCH  70  73
ENDBRANCH  52  66
BRANCH  53  77
ATOM     77  C   UNL A   1      44.009  34.934  28.778  1.00  0.00     0.023 A 
ATOM     78  C   UNL A   1      42.905  35.736  28.346  1.00  0.00     0.012 A 
ATOM     79  C   UNL A   1      44.733  34.227  27.801  1.00  0.00     0.148 A 
ATOM     80  C   UNL A   1      42.631  35.934  26.995  1.00  0.00     0.002 A 
ATOM     81  C   UNL A   1      44.421  34.401  26.448  1.00  0.00     0.091 A 
ATOM     82  F   UNL A   1      45.743  33.442  28.195  1.00  0.00    -0.205 F 
ATOM     83  C   UNL A   1      43.397  35.272  26.047  1.00  0.00     0.022 A 
BRANCH  81  84
ATOM     84  S   UNL A   1      45.316  33.578  25.123  1.00  0.00     0.127 S 
ATOM     85  O   UNL A   1      44.428  33.821  23.988  1.00  0.00    -0.237 OA
ATOM     86  O   UNL A   1      46.577  34.322  25.068  1.00  0.00    -0.237 OA
ATOM     87  O   UNL A   1      45.452  32.192  25.540  1.00  0.00    -0.744 OA
ENDBRANCH  81  84
ENDBRANCH  53  77
BRANCH  65  88
ATOM     88  C   UNL A   1      43.624  39.818  34.190  1.00  0.00     0.023 A 
ATOM     89  C   UNL A   1      44.164  40.382  35.358  1.00  0.00     0.012 A 
ATOM     90  C   UNL A   1      43.062  40.724  33.250  1.00  0.00     0.148 A 
ATOM     91  C   UNL A   1      44.027  41.735  35.652  1.00  0.00     0.002 A 
ATOM     92  C   UNL A   1      43.117  42.092  33.460  1.00  0.00     0.091 A 
ATOM     93  F   UNL A   1      42.453  40.275  32.143  1.00  0.00    -0.205 F 
ATOM     94  C   UNL A   1      43.530  42.598  34.690  1.00  0.00     0.022 A 
BRANCH  92  95
ATOM     95  S   UNL A   1      42.848  43.252  32.114  1.00  0.00     0.127 S 
ATOM     96  O   UNL A   1      41.887  42.528  31.286  1.00  0.00    -0.237 OA
ATOM     97  O   UNL A   1      42.298  44.414  32.814  1.00  0.00    -0.237 OA
ATOM     98  O   UNL A   1      44.162  43.476  31.527  1.00  0.00    -0.744 OA
ENDBRANCH  92  95
ENDBRANCH  65  88
ENDBRANCH  39  40
ENDBRANCH  32  34
ENDBRANCH  31  32
ENDBRANCH  30  31
ENDBRANCH  29  30
ENDBRANCH  28  29
ENDBRANCH  27  28
ENDBRANCH   1  27
TORSDOF 23
ENDMDL
MODEL 2
REMARK VINA RESULT:     -10.8      5.339     13.040
REMARK SMILES Cc1ccc(Nc2c(Cl)cc(Cl)cc2Cl)c(CC(=O)OCCOCCOCCOC(=O)c2ccc(-c3c4nc(c(-c5cccc(S(=O)(=O)[O-])c5F)c5ccc([nH]5)c(-c5cccc(S(=O)(=O)[O-])c5F)c5nc(c(-c6cccc(S(=O)(=O)[O-])c6F)c6ccc3[nH]6)C=C5)C=C4)cc2)c1
REMARK SMILES IDX 24 1 23 2 22 3 21 4 20 5 18 6 19 7 17 8 16 9 1 10 2 11 3 12
REMARK SMILES IDX 95 13 4 14 5 15 6 16 7 18 8 19 14 20 9 21 10 22 13 23 15 24
REMARK SMILES IDX 11 25 12 26 25 27 26 28 27 29 28 30 29 31 30 32 31 33 32 34
REMARK SMILES IDX 33 35 94 36 34 37 93 38 35 39 36 40 37 41 87 42 38 43 92 44
REMARK SMILES IDX 86 45 88 46 39 47 91 48 85 49 84 50 40 52 72 53 52 54 71 55
REMARK SMILES IDX 53 56 56 57 70 58 89 59 54 60 55 61 69 63 90 64 57 65 41 66
REMARK SMILES IDX 42 67 50 68 43 69 45 70 51 71 44 72 46 73 47 74 48 75 49 76
REMARK SMILES IDX 73 77 74 78 82 79 75 80 77 81 83 82 76 83 78 84 79 85 80 86
REMARK SMILES IDX 81 87 58 88 59 89 67 90 60 91 62 92 68 93 61 94 63 95 64 96
REMARK SMILES IDX 65 97 66 98
REMARK H PARENT 6 17 88 51 56 62
REMARK Flexibility Score: inf
ROOT
ATOM      1  C   UNL A   1      37.719  31.605  33.111  1.00  0.00     0.188 C 
ENDROOT
BRANCH   1   2
ATOM      2  O   UNL A   1      36.680  32.509  33.403  1.00  0.00    -0.376 OA
BRANCH   2   3
ATOM      3  C   UNL A   1      35.370  32.331  32.893  1.00  0.00     0.202 C 
BRANCH   3   4
ATOM      4  C   UNL A   1      34.356  33.208  31.933  1.00  0.00     0.261 C 
BRANCH   4   5
ATOM      5  O   UNL A   1      34.151  33.620  30.169  1.00  0.00    -0.463 OA
BRANCH   5   6
ATOM      6  C   UNL A   1      34.371  33.035  28.632  1.00  0.00     0.310 C 
ATOM      7  O   UNL A   1      33.610  32.719  27.704  1.00  0.00    -0.252 OA
BRANCH   6   8
ATOM      8  C   UNL A   1      35.690  33.176  28.140  1.00  0.00     0.160 C 
BRANCH   8   9
ATOM      9  C   UNL A   1      36.060  31.814  27.756  1.00  0.00    -0.013 A 
ATOM     10  C   UNL A   1      39.183  30.900  29.886  1.00  0.00     0.044 C 
ATOM     11  C   UNL A   1      37.897  30.753  29.143  1.00  0.00    -0.051 A 
ATOM     12  C   UNL A   1      37.046  29.706  29.311  1.00  0.00     0.005 A 
ATOM     13  C   UNL A   1      37.422  31.762  28.341  1.00  0.00     0.009 A 
ATOM     14  C   UNL A   1      35.803  29.707  28.627  1.00  0.00     0.026 A 
ATOM     15  C   UNL A   1      35.166  30.724  27.519  1.00  0.00     0.042 A 
BRANCH  15  16
ATOM     16  N   UNL A   1      33.552  30.268  26.390  1.00  0.00    -0.353 N 
ATOM     17  H   UNL A   1      32.996  31.053  26.184  1.00  0.00     0.167 HD
BRANCH  16  18
ATOM     18  C   UNL A   1      32.890  28.713  25.662  1.00  0.00     0.076 A 
ATOM     19  C   UNL A   1      32.987  28.250  24.178  1.00  0.00     0.067 A 
ATOM     20  C   UNL A   1      31.849  28.027  26.347  1.00  0.00     0.067 A 
ATOM     21  Cl  UNL A   1      34.049  28.629  22.785  1.00  0.00    -0.082 Cl
ATOM     22  C   UNL A   1      32.052  27.366  23.585  1.00  0.00     0.043 A 
ATOM     23  C   UNL A   1      30.923  27.171  25.658  1.00  0.00     0.043 A 
ATOM     24  Cl  UNL A   1      31.570  27.952  28.016  1.00  0.00    -0.082 Cl
ATOM     25  C   UNL A   1      30.996  26.887  24.303  1.00  0.00     0.044 A 
ATOM     26  Cl  UNL A   1      29.763  25.996  23.496  1.00  0.00    -0.084 Cl
ENDBRANCH  16  18
ENDBRANCH  15  16
ENDBRANCH   8   9
ENDBRANCH   6   8
ENDBRANCH   5   6
ENDBRANCH   4   5
ENDBRANCH   3   4
ENDBRANCH   2   3
ENDBRANCH   1   2
BRANCH   1  27
ATOM     27  C   UNL A   1      39.161  32.069  33.166  1.00  0.00     0.188 C 
BRANCH  27  28
ATOM     28  O   UNL A   1      39.462  32.858  34.291  1.00  0.00    -0.376 OA
BRANCH  28  29
ATOM     29  C   UNL A   1      40.216  32.207  35.303  1.00  0.00     0.202 C 
BRANCH  29  30
ATOM     30  C   UNL A   1      39.506  31.170  36.268  1.00  0.00     0.261 C 
BRANCH  30  31
ATOM     31  O   UNL A   1      39.964  29.756  36.187  1.00  0.00    -0.460 OA
BRANCH  31  32
ATOM     32  C   UNL A   1      41.321  29.354  36.241  1.00  0.00     0.338 C 
ATOM     33  O   UNL A   1      42.115  30.115  36.761  1.00  0.00    -0.246 OA
BRANCH  32  34
ATOM     34  C   UNL A   1      41.587  27.837  35.532  1.00  0.00     0.060 A 
ATOM     35  C   UNL A   1      43.013  26.536  35.182  1.00  0.00     0.016 A 
ATOM     36  C   UNL A   1      40.930  28.579  34.024  1.00  0.00     0.016 A 
ATOM     37  C   UNL A   1      43.739  26.442  33.426  1.00  0.00     0.010 A 
ATOM     38  C   UNL A   1      41.722  28.428  32.494  1.00  0.00     0.010 A 
ATOM     39  C   UNL A   1      43.142  27.463  32.019  1.00  0.00    -0.014 A 
BRANCH  39  40
ATOM     40  C   UNL A   1      43.414  27.499  30.137  1.00  0.00     0.031 A 
ATOM     41  C   UNL A   1      43.733  25.986  28.988  1.00  0.00     0.074 A 
ATOM     42  C   UNL A   1      43.133  28.565  29.351  1.00  0.00     0.049 A 
ATOM     43  N   UNL A   1      44.819  25.709  28.286  1.00  0.00    -0.248 NA
ATOM     44  C   UNL A   1      43.026  24.481  29.068  1.00  0.00     0.031 C 
ATOM     45  C   UNL A   1      42.854  28.549  27.900  1.00  0.00     0.029 A 
ATOM     46  N   UNL A   1      42.884  29.892  29.680  1.00  0.00    -0.354 N 
ATOM     47  C   UNL A   1      44.771  24.313  27.926  1.00  0.00     0.074 A 
ATOM     48  C   UNL A   1      44.008  23.627  28.884  1.00  0.00     0.031 C 
ATOM     49  C   UNL A   1      42.786  29.817  27.443  1.00  0.00     0.029 A 
ATOM     50  C   UNL A   1      43.198  30.663  28.548  1.00  0.00     0.049 A 
ATOM     51  H   UNL A   1      42.551  30.229  30.545  1.00  0.00     0.167 HD
ATOM     52  C   UNL A   1      44.710  23.870  26.630  1.00  0.00     0.034 A 
ATOM     53  C   UNL A   1      44.323  31.426  28.622  1.00  0.00     0.034 A 
ATOM     54  C   UNL A   1      44.684  25.066  25.811  1.00  0.00     0.049 A 
ATOM     55  C   UNL A   1      45.380  30.812  27.725  1.00  0.00     0.074 A 
ATOM     56  C   UNL A   1      43.664  25.821  25.258  1.00  0.00     0.029 A 
ATOM     57  N   UNL A   1      45.762  25.913  25.964  1.00  0.00    -0.354 N 
ATOM     58  N   UNL A   1      45.325  29.589  27.257  1.00  0.00    -0.248 NA
ATOM     59  C   UNL A   1      46.485  31.567  27.154  1.00  0.00     0.031 C 
ATOM     60  C   UNL A   1      44.154  27.163  25.132  1.00  0.00     0.029 A 
ATOM     61  C   UNL A   1      45.455  27.211  25.613  1.00  0.00     0.049 A 
ATOM     62  H   UNL A   1      46.647  25.625  26.287  1.00  0.00     0.167 HD
ATOM     63  C   UNL A   1      46.319  29.376  26.357  1.00  0.00     0.074 A 
ATOM     64  C   UNL A   1      47.010  30.657  26.315  1.00  0.00     0.031 C 
ATOM     65  C   UNL A   1      46.530  28.189  25.709  1.00  0.00     0.034 A 
BRANCH  52  66
ATOM     66  C   UNL A   1      44.245  22.452  26.179  1.00  0.00     0.023 A 
ATOM     67  C   UNL A   1      42.900  22.130  26.447  1.00  0.00     0.012 A 
ATOM     68  C   UNL A   1      44.989  21.426  25.501  1.00  0.00     0.148 A 
ATOM     69  C   UNL A   1      42.326  20.894  26.110  1.00  0.00     0.002 A 
ATOM     70  C   UNL A   1      44.429  20.160  25.221  1.00  0.00     0.091 A 
ATOM     71  F   UNL A   1      46.230  21.673  25.058  1.00  0.00    -0.205 F 
ATOM     72  C   UNL A   1      43.090  19.903  25.514  1.00  0.00     0.022 A 
BRANCH  70  73
ATOM     73  S   UNL A   1      45.360  18.765  24.526  1.00  0.00     0.127 S 
ATOM     74  O   UNL A   1      44.383  18.153  23.620  1.00  0.00    -0.237 OA
ATOM     75  O   UNL A   1      46.470  19.427  23.847  1.00  0.00    -0.237 OA
ATOM     76  O   UNL A   1      45.718  17.919  25.658  1.00  0.00    -0.744 OA
ENDBRANCH  70  73
ENDBRANCH  52  66
BRANCH  53  77
ATOM     77  C   UNL A   1      44.435  32.020  30.006  1.00  0.00     0.023 A 
ATOM     78  C   UNL A   1      45.697  31.836  30.654  1.00  0.00     0.012 A 
ATOM     79  C   UNL A   1      43.606  33.063  30.459  1.00  0.00     0.148 A 
ATOM     80  C   UNL A   1      46.167  32.737  31.607  1.00  0.00     0.002 A 
ATOM     81  C   UNL A   1      44.072  33.937  31.447  1.00  0.00     0.091 A 
ATOM     82  F   UNL A   1      42.406  33.221  29.888  1.00  0.00    -0.205 F 
ATOM     83  C   UNL A   1      45.356  33.793  31.995  1.00  0.00     0.022 A 
BRANCH  81  84
ATOM     84  S   UNL A   1      43.108  35.325  32.060  1.00  0.00     0.127 S 
ATOM     85  O   UNL A   1      43.779  36.447  31.406  1.00  0.00    -0.237 OA
ATOM     86  O   UNL A   1      41.766  35.046  31.543  1.00  0.00    -0.237 OA
ATOM     87  O   UNL A   1      43.219  35.275  33.509  1.00  0.00    -0.744 OA
ENDBRANCH  81  84
ENDBRANCH  53  77
BRANCH  65  88
ATOM     88  C   UNL A   1      47.889  27.806  25.148  1.00  0.00     0.023 A 
ATOM     89  C   UNL A   1      48.825  27.114  25.933  1.00  0.00     0.012 A 
ATOM     90  C   UNL A   1      48.192  27.934  23.765  1.00  0.00     0.148 A 
ATOM     91  C   UNL A   1      50.052  26.702  25.423  1.00  0.00     0.002 A 
ATOM     92  C   UNL A   1      49.321  27.338  23.227  1.00  0.00     0.091 A 
ATOM     93  F   UNL A   1      47.398  28.645  22.950  1.00  0.00    -0.205 F 
ATOM     94  C   UNL A   1      50.290  26.787  24.061  1.00  0.00     0.022 A 
BRANCH  92  95
ATOM     95  S   UNL A   1      49.485  27.085  21.455  1.00  0.00     0.127 S 
ATOM     96  O   UNL A   1      50.804  26.465  21.365  1.00  0.00    -0.237 OA
ATOM     97  O   UNL A   1      48.366  26.186  21.167  1.00  0.00    -0.237 OA
ATOM     98  O   UNL A   1      49.354  28.408  20.861  1.00  0.00    -0.744 OA
ENDBRANCH  92  95
ENDBRANCH  65  88
ENDBRANCH  39  40
ENDBRANCH  32  34
ENDBRANCH  31  32
ENDBRANCH  30  31
ENDBRANCH  29  30
ENDBRANCH  28  29
ENDBRANCH  27  28
ENDBRANCH   1  27
TORSDOF 23
ENDMDL
MODEL 3
REMARK VINA RESULT:     -10.1      8.006     14.917
REMARK SMILES Cc1ccc(Nc2c(Cl)cc(Cl)cc2Cl)c(CC(=O)OCCOCCOCCOC(=O)c2ccc(-c3c4nc(c(-c5cccc(S(=O)(=O)[O-])c5F)c5ccc([nH]5)c(-c5cccc(S(=O)(=O)[O-])c5F)c5nc(c(-c6cccc(S(=O)(=O)[O-])c6F)c6ccc3[nH]6)C=C5)C=C4)cc2)c1
REMARK SMILES IDX 24 1 23 2 22 3 21 4 20 5 18 6 19 7 17 8 16 9 1 10 2 11 3 12
REMARK SMILES IDX 95 13 4 14 5 15 6 16 7 18 8 19 14 20 9 21 10 22 13 23 15 24
REMARK SMILES IDX 11 25 12 26 25 27 26 28 27 29 28 30 29 31 30 32 31 33 32 34
REMARK SMILES IDX 33 35 94 36 34 37 93 38 35 39 36 40 37 41 87 42 38 43 92 44
REMARK SMILES IDX 86 45 88 46 39 47 91 48 85 49 84 50 40 52 72 53 52 54 71 55
REMARK SMILES IDX 53 56 56 57 70 58 89 59 54 60 55 61 69 63 90 64 57 65 41 66
REMARK SMILES IDX 42 67 50 68 43 69 45 70 51 71 44 72 46 73 47 74 48 75 49 76
REMARK SMILES IDX 73 77 74 78 82 79 75 80 77 81 83 82 76 83 78 84 79 85 80 86
REMARK SMILES IDX 81 87 58 88 59 89 67 90 60 91 62 92 68 93 61 94 63 95 64 96
REMARK SMILES IDX 65 97 66 98
REMARK H PARENT 6 17 88 51 56 62
REMARK Flexibility Score: inf
ROOT
ATOM      1  C   UNL A   1      47.157  41.241  29.644  1.00  0.00     0.188 C 
ENDROOT
BRANCH   1   2
ATOM      2  O   UNL A   1      45.871  41.782  29.462  1.00  0.00    -0.376 OA
BRANCH   2   3
ATOM      3  C   UNL A   1      45.671  43.034  28.831  1.00  0.00     0.202 C 
BRANCH   3   4
ATOM      4  C   UNL A   1      45.003  43.537  27.410  1.00  0.00     0.261 C 
BRANCH   4   5
ATOM      5  O   UNL A   1      45.408  44.647  26.020  1.00  0.00    -0.463 OA
BRANCH   5   6
ATOM      6  C   UNL A   1      45.350  44.784  24.367  1.00  0.00     0.310 C 
ATOM      7  O   UNL A   1      46.146  44.546  23.446  1.00  0.00    -0.252 OA
BRANCH   6   8
ATOM      8  C   UNL A   1      44.044  44.933  23.843  1.00  0.00     0.160 C 
BRANCH   8   9
ATOM      9  C   UNL A   1      43.849  43.714  23.059  1.00  0.00    -0.013 A 
ATOM     10  C   UNL A   1      41.604  41.386  25.218  1.00  0.00     0.044 C 
ATOM     11  C   UNL A   1      42.193  42.055  24.020  1.00  0.00    -0.051 A 
ATOM     12  C   UNL A   1      41.594  42.077  22.800  1.00  0.00     0.005 A 
ATOM     13  C   UNL A   1      43.325  42.825  24.124  1.00  0.00     0.009 A 
ATOM     14  C   UNL A   1      42.191  42.821  21.749  1.00  0.00     0.026 A 
ATOM     15  C   UNL A   1      43.602  43.637  21.653  1.00  0.00     0.042 A 
BRANCH  15  16
ATOM     16  N   UNL A   1      44.411  44.256  19.906  1.00  0.00    -0.353 N 
ATOM     17  H   UNL A   1      45.377  44.079  19.848  1.00  0.00     0.167 HD
BRANCH  16  18
ATOM     18  C   UNL A   1      43.744  45.075  18.399  1.00  0.00     0.076 A 
ATOM     19  C   UNL A   1      44.409  46.217  17.574  1.00  0.00     0.067 A 
ATOM     20  C   UNL A   1      42.347  45.004  18.144  1.00  0.00     0.067 A 
ATOM     21  Cl  UNL A   1      46.076  46.839  17.360  1.00  0.00    -0.082 Cl
ATOM     22  C   UNL A   1      43.664  47.135  16.793  1.00  0.00     0.043 A 
ATOM     23  C   UNL A   1      41.666  46.000  17.363  1.00  0.00     0.043 A 
ATOM     24  Cl  UNL A   1      41.275  43.754  18.545  1.00  0.00    -0.082 Cl
ATOM     25  C   UNL A   1      42.303  47.064  16.745  1.00  0.00     0.044 A 
ATOM     26  Cl  UNL A   1      41.420  48.322  15.968  1.00  0.00    -0.084 Cl
ENDBRANCH  16  18
ENDBRANCH  15  16
ENDBRANCH   8   9
ENDBRANCH   6   8
ENDBRANCH   5   6
ENDBRANCH   4   5
ENDBRANCH   3   4
ENDBRANCH   2   3
ENDBRANCH   1   2
BRANCH   1  27
ATOM     27  C   UNL A   1      47.528  39.933  28.972  1.00  0.00     0.188 C 
BRANCH  27  28
ATOM     28  O   UNL A   1      47.696  40.038  27.580  1.00  0.00    -0.376 OA
BRANCH  28  29
ATOM     29  C   UNL A   1      46.761  39.307  26.801  1.00  0.00     0.202 C 
BRANCH  29  30
ATOM     30  C   UNL A   1      45.630  40.079  26.001  1.00  0.00     0.261 C 
BRANCH  30  31
ATOM     31  O   UNL A   1      44.221  39.793  26.386  1.00  0.00    -0.460 OA
BRANCH  31  32
ATOM     32  C   UNL A   1      43.842  39.095  27.560  1.00  0.00     0.338 C 
ATOM     33  O   UNL A   1      43.947  39.679  28.622  1.00  0.00    -0.246 OA
BRANCH  32  34
ATOM     34  C   UNL A   1      43.307  37.519  27.245  1.00  0.00     0.060 A 
ATOM     35  C   UNL A   1      41.693  36.405  27.310  1.00  0.00     0.016 A 
ATOM     36  C   UNL A   1      44.563  37.001  28.432  1.00  0.00     0.016 A 
ATOM     37  C   UNL A   1      41.497  35.181  28.754  1.00  0.00     0.010 A 
ATOM     38  C   UNL A   1      44.226  35.893  29.716  1.00  0.00     0.010 A 
ATOM     39  C   UNL A   1      42.761  34.939  30.065  1.00  0.00    -0.014 A 
BRANCH  39  40
ATOM     40  C   UNL A   1      43.053  33.700  31.479  1.00  0.00     0.031 A 
ATOM     41  C   UNL A   1      44.737  32.924  32.002  1.00  0.00     0.074 A 
ATOM     42  C   UNL A   1      42.155  33.442  32.457  1.00  0.00     0.049 A 
ATOM     43  N   UNL A   1      45.100  31.653  31.949  1.00  0.00    -0.248 NA
ATOM     44  C   UNL A   1      46.224  33.667  32.064  1.00  0.00     0.031 C 
ATOM     45  C   UNL A   1      42.439  32.901  33.803  1.00  0.00     0.029 A 
ATOM     46  N   UNL A   1      40.798  33.734  32.542  1.00  0.00    -0.354 N 
ATOM     47  C   UNL A   1      46.538  31.599  32.039  1.00  0.00     0.074 A 
ATOM     48  C   UNL A   1      47.067  32.802  31.544  1.00  0.00     0.031 C 
ATOM     49  C   UNL A   1      41.276  32.624  34.429  1.00  0.00     0.029 A 
ATOM     50  C   UNL A   1      40.233  32.810  33.437  1.00  0.00     0.049 A 
ATOM     51  H   UNL A   1      40.323  34.453  32.064  1.00  0.00     0.167 HD
ATOM     52  C   UNL A   1      47.209  30.988  33.067  1.00  0.00     0.034 A 
ATOM     53  C   UNL A   1      39.434  31.849  32.897  1.00  0.00     0.034 A 
ATOM     54  C   UNL A   1      46.180  30.487  33.957  1.00  0.00     0.049 A 
ATOM     55  C   UNL A   1      40.165  30.521  32.965  1.00  0.00     0.074 A 
ATOM     56  C   UNL A   1      45.568  30.997  35.090  1.00  0.00     0.029 A 
ATOM     57  N   UNL A   1      45.285  29.602  33.392  1.00  0.00    -0.354 N 
ATOM     58  N   UNL A   1      41.452  30.404  33.176  1.00  0.00    -0.248 NA
ATOM     59  C   UNL A   1      39.489  29.233  32.967  1.00  0.00     0.031 C 
ATOM     60  C   UNL A   1      44.256  30.422  35.155  1.00  0.00     0.029 A 
ATOM     61  C   UNL A   1      44.081  29.581  34.065  1.00  0.00     0.049 A 
ATOM     62  H   UNL A   1      45.483  29.050  32.600  1.00  0.00     0.167 HD
ATOM     63  C   UNL A   1      41.792  29.100  33.348  1.00  0.00     0.074 A 
ATOM     64  C   UNL A   1      40.518  28.406  33.224  1.00  0.00     0.031 C 
ATOM     65  C   UNL A   1      43.068  28.659  33.570  1.00  0.00     0.034 A 
BRANCH  52  66
ATOM     66  C   UNL A   1      48.698  31.237  33.452  1.00  0.00     0.023 A 
ATOM     67  C   UNL A   1      49.640  30.367  32.865  1.00  0.00     0.012 A 
ATOM     68  C   UNL A   1      49.259  32.247  34.307  1.00  0.00     0.148 A 
ATOM     69  C   UNL A   1      51.020  30.453  33.112  1.00  0.00     0.002 A 
ATOM     70  C   UNL A   1      50.638  32.291  34.605  1.00  0.00     0.091 A 
ATOM     71  F   UNL A   1      48.482  33.222  34.799  1.00  0.00    -0.205 F 
ATOM     72  C   UNL A   1      51.519  31.399  33.992  1.00  0.00     0.022 A 
BRANCH  70  73
ATOM     73  S   UNL A   1      51.386  33.428  35.806  1.00  0.00     0.127 S 
ATOM     74  O   UNL A   1      51.337  34.712  35.100  1.00  0.00    -0.237 OA
ATOM     75  O   UNL A   1      50.474  33.338  36.944  1.00  0.00    -0.237 OA
ATOM     76  O   UNL A   1      52.740  32.937  36.035  1.00  0.00    -0.744 OA
ENDBRANCH  70  73
ENDBRANCH  52  66
BRANCH  53  77
ATOM     77  C   UNL A   1      38.599  32.453  31.794  1.00  0.00     0.023 A 
ATOM     78  C   UNL A   1      39.000  32.115  30.463  1.00  0.00     0.012 A 
ATOM     79  C   UNL A   1      37.280  32.902  31.992  1.00  0.00     0.148 A 
ATOM     80  C   UNL A   1      38.087  32.087  29.410  1.00  0.00     0.002 A 
ATOM     81  C   UNL A   1      36.383  32.910  30.918  1.00  0.00     0.091 A 
ATOM     82  F   UNL A   1      36.904  33.260  33.226  1.00  0.00    -0.205 F 
ATOM     83  C   UNL A   1      36.777  32.476  29.643  1.00  0.00     0.022 A 
BRANCH  81  84
ATOM     84  S   UNL A   1      34.667  33.420  31.079  1.00  0.00     0.127 S 
ATOM     85  O   UNL A   1      34.153  33.111  29.746  1.00  0.00    -0.237 OA
ATOM     86  O   UNL A   1      34.161  32.540  32.135  1.00  0.00    -0.237 OA
ATOM     87  O   UNL A   1      34.706  34.830  31.435  1.00  0.00    -0.744 OA
ENDBRANCH  81  84
ENDBRANCH  53  77
BRANCH  65  88
ATOM     88  C   UNL A   1      43.502  27.242  33.237  1.00  0.00     0.023 A 
ATOM     89  C   UNL A   1      44.341  26.983  32.141  1.00  0.00     0.012 A 
ATOM     90  C   UNL A   1      43.265  26.157  34.124  1.00  0.00     0.148 A 
ATOM     91  C   UNL A   1      44.798  25.701  31.851  1.00  0.00     0.002 A 
ATOM     92  C   UNL A   1      43.894  24.937  33.939  1.00  0.00     0.091 A 
ATOM     93  F   UNL A   1      42.416  26.285  35.155  1.00  0.00    -0.205 F 
ATOM     94  C   UNL A   1      44.600  24.681  32.767  1.00  0.00     0.022 A 
BRANCH  92  95
ATOM     95  S   UNL A   1      43.985  23.726  35.264  1.00  0.00     0.127 S 
ATOM     96  O   UNL A   1      42.585  23.333  35.403  1.00  0.00    -0.237 OA
ATOM     97  O   UNL A   1      44.853  22.699  34.685  1.00  0.00    -0.237 OA
ATOM     98  O   UNL A   1      44.569  24.432  36.395  1.00  0.00    -0.744 OA
ENDBRANCH  92  95
ENDBRANCH  65  88
ENDBRANCH  39  40
ENDBRANCH  32  34
ENDBRANCH  31  32
ENDBRANCH  30  31
ENDBRANCH  29  30
ENDBRANCH  28  29
ENDBRANCH  27  28
ENDBRANCH   1  27
TORSDOF 23
ENDMDL
