MODEL 1
REMARK VINA RESULT:     -11.5      0.000      0.000
REMARK SMILES O=C(OCCOCCOCCOC(=O)[C@@H]1CC2(CC[NH2+]CC2)C[N@H+]1Cc1cccc2nonc12)c1ccc(-c2c3nc(c(-c4cccc(S(=O)(=O)[O-])c4F)c4ccc([nH]4)c(-c4cccc(S(=O)(=O)[O-])c4F)c4nc(c(-c5cccc(S(=O)(=O)[O-])c5F)c5ccc2[nH]5)C=C4)C=C3)cc1
REMARK SMILES IDX 7 1 6 2 5 3 4 4 3 5 2 6 1 7 35 8 36 9 97 10 37 11 96 12
REMARK SMILES IDX 38 13 39 14 40 15 90 16 41 17 95 18 89 19 91 20 42 21 94 22
REMARK SMILES IDX 88 23 87 24 43 26 75 27 55 28 74 29 56 30 59 31 73 32 92 33
REMARK SMILES IDX 57 34 58 35 72 37 93 38 60 39 44 40 45 41 53 42 46 43 48 44
REMARK SMILES IDX 54 45 47 46 49 47 50 48 51 49 52 50 76 51 77 52 85 53 78 54
REMARK SMILES IDX 80 55 86 56 79 57 81 58 82 59 83 60 84 61 61 62 62 63 70 64
REMARK SMILES IDX 63 65 65 66 71 67 64 68 66 69 67 70 68 71 69 72 8 73 9 74
REMARK SMILES IDX 10 75 11 76 12 77 13 78 14 79 15 80 16 81 24 82 17 83 23 84
REMARK SMILES IDX 18 86 22 87 19 88 21 89 20 90 25 93 26 94 27 95 34 96 28 97
REMARK SMILES IDX 30 98 33 99 29 100 31 101 32 102
REMARK H PARENT 91 25 59 36 24 85 20 91 20 92
REMARK Flexibility Score: inf
ROOT
ATOM      1  C   UNL A   1      29.938  25.935  24.246  1.00  0.00     0.188 C 
ENDROOT
BRANCH   1   2
ATOM      2  O   UNL A   1      31.005  26.569  23.536  1.00  0.00    -0.376 OA
BRANCH   2   3
ATOM      3  C   UNL A   1      31.004  27.994  23.511  1.00  0.00     0.202 C 
BRANCH   3   4
ATOM      4  C   UNL A   1      32.435  28.472  23.715  1.00  0.00     0.261 C 
BRANCH   4   5
ATOM      5  O   UNL A   1      32.733  28.393  25.129  1.00  0.00    -0.460 OA
BRANCH   5   6
ATOM      6  C   UNL A   1      32.497  29.523  25.847  1.00  0.00     0.338 C 
ATOM      7  O   UNL A   1      31.461  30.192  25.796  1.00  0.00    -0.246 OA
BRANCH   6   8
ATOM      8  C   UNL A   1      33.706  29.907  26.642  1.00  0.00     0.060 A 
ATOM      9  C   UNL A   1      34.800  29.044  26.766  1.00  0.00     0.016 A 
ATOM     10  C   UNL A   1      33.736  31.090  27.375  1.00  0.00     0.016 A 
ATOM     11  C   UNL A   1      35.888  29.360  27.626  1.00  0.00     0.010 A 
ATOM     12  C   UNL A   1      34.800  31.373  28.252  1.00  0.00     0.010 A 
ATOM     13  C   UNL A   1      35.902  30.519  28.437  1.00  0.00    -0.014 A 
BRANCH  13  14
ATOM     14  C   UNL A   1      37.025  30.874  29.426  1.00  0.00     0.031 A 
ATOM     15  C   UNL A   1      38.244  29.890  29.587  1.00  0.00     0.074 A 
ATOM     16  C   UNL A   1      37.289  32.134  29.870  1.00  0.00     0.049 A 
ATOM     17  N   UNL A   1      39.501  30.100  29.244  1.00  0.00    -0.248 NA
ATOM     18  C   UNL A   1      38.004  28.488  29.949  1.00  0.00     0.031 C 
ATOM     19  C   UNL A   1      37.127  33.381  29.100  1.00  0.00     0.029 A 
ATOM     20  N   UNL A   1      37.987  32.557  30.979  1.00  0.00    -0.354 N 
ATOM     21  C   UNL A   1      40.175  28.873  29.200  1.00  0.00     0.074 A 
ATOM     22  C   UNL A   1      39.176  27.908  29.652  1.00  0.00     0.031 C 
ATOM     23  C   UNL A   1      37.938  34.334  29.618  1.00  0.00     0.029 A 
ATOM     24  C   UNL A   1      38.490  33.848  30.869  1.00  0.00     0.049 A 
ATOM     25  H   UNL A   1      38.119  31.996  31.777  1.00  0.00     0.167 HD
ATOM     26  C   UNL A   1      41.462  28.606  28.774  1.00  0.00     0.034 A 
ATOM     27  C   UNL A   1      39.302  34.544  31.719  1.00  0.00     0.034 A 
ATOM     28  C   UNL A   1      42.405  29.654  28.344  1.00  0.00     0.049 A 
ATOM     29  C   UNL A   1      40.670  33.969  31.427  1.00  0.00     0.074 A 
ATOM     30  C   UNL A   1      43.210  29.881  27.233  1.00  0.00     0.029 A 
ATOM     31  N   UNL A   1      42.987  30.543  29.237  1.00  0.00    -0.354 N 
ATOM     32  N   UNL A   1      41.595  34.396  30.603  1.00  0.00    -0.248 NA
ATOM     33  C   UNL A   1      40.842  32.601  31.894  1.00  0.00     0.031 C 
ATOM     34  C   UNL A   1      43.886  31.157  27.419  1.00  0.00     0.029 A 
ATOM     35  C   UNL A   1      43.409  31.724  28.605  1.00  0.00     0.049 A 
ATOM     36  H   UNL A   1      43.091  30.368  30.200  1.00  0.00     0.167 HD
ATOM     37  C   UNL A   1      42.296  33.249  30.212  1.00  0.00     0.074 A 
ATOM     38  C   UNL A   1      41.696  32.183  30.987  1.00  0.00     0.031 C 
ATOM     39  C   UNL A   1      43.187  33.128  29.171  1.00  0.00     0.034 A 
BRANCH  26  40
ATOM     40  C   UNL A   1      42.020  27.198  28.845  1.00  0.00     0.023 A 
ATOM     41  C   UNL A   1      42.963  26.992  29.871  1.00  0.00     0.012 A 
ATOM     42  C   UNL A   1      41.799  26.155  27.912  1.00  0.00     0.148 A 
ATOM     43  C   UNL A   1      43.711  25.819  29.952  1.00  0.00     0.002 A 
ATOM     44  C   UNL A   1      42.552  24.972  28.004  1.00  0.00     0.091 A 
ATOM     45  F   UNL A   1      40.892  26.336  26.940  1.00  0.00    -0.205 F 
ATOM     46  C   UNL A   1      43.513  24.815  29.015  1.00  0.00     0.022 A 
BRANCH  44  47
ATOM     47  S   UNL A   1      42.421  23.581  26.860  1.00  0.00     0.127 S 
ATOM     48  O   UNL A   1      41.065  23.099  27.121  1.00  0.00    -0.237 OA
ATOM     49  O   UNL A   1      42.593  24.236  25.562  1.00  0.00    -0.237 OA
ATOM     50  O   UNL A   1      43.490  22.663  27.226  1.00  0.00    -0.744 OA
ENDBRANCH  44  47
ENDBRANCH  26  40
BRANCH  27  51
ATOM     51  C   UNL A   1      38.756  34.555  33.127  1.00  0.00     0.023 A 
ATOM     52  C   UNL A   1      37.419  34.113  33.245  1.00  0.00     0.012 A 
ATOM     53  C   UNL A   1      39.459  34.840  34.315  1.00  0.00     0.148 A 
ATOM     54  C   UNL A   1      36.853  33.816  34.482  1.00  0.00     0.002 A 
ATOM     55  C   UNL A   1      38.909  34.496  35.548  1.00  0.00     0.091 A 
ATOM     56  F   UNL A   1      40.667  35.412  34.253  1.00  0.00    -0.205 F 
ATOM     57  C   UNL A   1      37.614  33.969  35.632  1.00  0.00     0.022 A 
BRANCH  55  58
ATOM     58  S   UNL A   1      39.836  34.599  37.086  1.00  0.00     0.127 S 
ATOM     59  O   UNL A   1      38.861  34.118  38.064  1.00  0.00    -0.237 OA
ATOM     60  O   UNL A   1      40.944  33.684  36.817  1.00  0.00    -0.237 OA
ATOM     61  O   UNL A   1      40.211  35.999  37.234  1.00  0.00    -0.744 OA
ENDBRANCH  55  58
ENDBRANCH  27  51
BRANCH  39  62
ATOM     62  C   UNL A   1      43.682  34.456  28.411  1.00  0.00     0.023 A 
ATOM     63  C   UNL A   1      43.200  34.681  27.112  1.00  0.00     0.012 A 
ATOM     64  C   UNL A   1      44.466  35.550  28.941  1.00  0.00     0.148 A 
ATOM     65  C   UNL A   1      43.349  35.932  26.468  1.00  0.00     0.002 A 
ATOM     66  C   UNL A   1      44.378  36.852  28.425  1.00  0.00     0.091 A 
ATOM     67  F   UNL A   1      45.380  35.345  29.906  1.00  0.00    -0.205 F 
ATOM     68  C   UNL A   1      43.840  37.037  27.159  1.00  0.00     0.022 A 
BRANCH  66  69
ATOM     69  S   UNL A   1      44.707  38.358  29.409  1.00  0.00     0.127 S 
ATOM     70  O   UNL A   1      44.012  39.393  28.644  1.00  0.00    -0.237 OA
ATOM     71  O   UNL A   1      44.068  38.046  30.693  1.00  0.00    -0.237 OA
ATOM     72  O   UNL A   1      46.151  38.533  29.490  1.00  0.00    -0.744 OA
ENDBRANCH  66  69
ENDBRANCH  39  62
ENDBRANCH  13  14
ENDBRANCH   6   8
ENDBRANCH   5   6
ENDBRANCH   4   5
ENDBRANCH   3   4
ENDBRANCH   2   3
ENDBRANCH   1   2
BRANCH   1  73
ATOM     73  C   UNL A   1      30.274  25.948  25.741  1.00  0.00     0.188 C 
BRANCH  73  74
ATOM     74  O   UNL A   1      29.384  25.176  26.535  1.00  0.00    -0.376 OA
BRANCH  74  75
ATOM     75  C   UNL A   1      29.621  23.768  26.702  1.00  0.00     0.202 C 
BRANCH  75  76
ATOM     76  C   UNL A   1      30.982  23.081  26.980  1.00  0.00     0.261 C 
BRANCH  76  77
ATOM     77  O   UNL A   1      31.886  23.035  25.904  1.00  0.00    -0.459 OA
BRANCH  77  78
ATOM     78  C   UNL A   1      33.144  23.406  26.223  1.00  0.00     0.365 C 
ATOM     79  O   UNL A   1      33.576  24.553  26.131  1.00  0.00    -0.245 OA
BRANCH  78  80
ATOM     80  C   UNL A   1      33.940  22.257  26.807  1.00  0.00     0.296 C 
ATOM     81  C   UNL A   1      35.340  22.761  26.587  1.00  0.00     0.091 C 
ATOM     82  N   UNL A   1      33.957  20.981  26.074  1.00  0.00    -0.319 N 
ATOM     83  C   UNL A   1      35.877  21.825  25.500  1.00  0.00     0.036 C 
ATOM     84  C   UNL A   1      35.306  20.519  25.917  1.00  0.00     0.270 C 
ATOM     85  H   UNL A   1      33.446  21.343  25.268  1.00  0.00     0.349 HD
ATOM     86  C   UNL A   1      37.354  21.852  25.574  1.00  0.00     0.074 C 
ATOM     87  C   UNL A   1      35.444  22.145  24.045  1.00  0.00     0.074 C 
ATOM     88  C   UNL A   1      37.736  23.245  25.221  1.00  0.00     0.261 C 
ATOM     89  C   UNL A   1      35.937  23.501  23.600  1.00  0.00     0.261 C 
ATOM     90  N   UNL A   1      37.355  23.608  23.854  1.00  0.00    -0.346 N 
ATOM     91  H   UNL A   1      37.846  22.989  23.208  1.00  0.00     0.346 HD
ATOM     92  H   UNL A   1      37.609  24.587  23.724  1.00  0.00     0.346 HD
BRANCH  82  93
ATOM     93  C   UNL A   1      32.938  19.988  25.999  1.00  0.00     0.302 C 
BRANCH  93  94
ATOM     94  C   UNL A   1      32.906  19.341  24.645  1.00  0.00     0.038 A 
ATOM     95  C   UNL A   1      32.310  19.996  23.535  1.00  0.00     0.012 A 
ATOM     96  C   UNL A   1      33.371  18.048  24.323  1.00  0.00     0.144 A 
ATOM     97  C   UNL A   1      32.132  19.411  22.258  1.00  0.00     0.003 A 
ATOM     98  C   UNL A   1      33.167  17.436  23.018  1.00  0.00     0.135 A 
ATOM     99  N   UNL A   1      34.055  17.172  25.065  1.00  0.00    -0.049 NA
ATOM    100  C   UNL A   1      32.536  18.103  21.958  1.00  0.00     0.034 A 
ATOM    101  N   UNL A   1      33.672  16.194  23.044  1.00  0.00    -0.050 NA
ATOM    102  O   UNL A   1      34.192  16.031  24.313  1.00  0.00    -0.243 OA
ENDBRANCH  93  94
ENDBRANCH  82  93
ENDBRANCH  78  80
ENDBRANCH  77  78
ENDBRANCH  76  77
ENDBRANCH  75  76
ENDBRANCH  74  75
ENDBRANCH  73  74
ENDBRANCH   1  73
TORSDOF 22
ENDMDL
MODEL 2
REMARK VINA RESULT:     -10.4      1.342      2.065
REMARK SMILES O=C(OCCOCCOCCOC(=O)[C@@H]1CC2(CC[NH2+]CC2)C[N@H+]1Cc1cccc2nonc12)c1ccc(-c2c3nc(c(-c4cccc(S(=O)(=O)[O-])c4F)c4ccc([nH]4)c(-c4cccc(S(=O)(=O)[O-])c4F)c4nc(c(-c5cccc(S(=O)(=O)[O-])c5F)c5ccc2[nH]5)C=C4)C=C3)cc1
REMARK SMILES IDX 7 1 6 2 5 3 4 4 3 5 2 6 1 7 35 8 36 9 97 10 37 11 96 12
REMARK SMILES IDX 38 13 39 14 40 15 90 16 41 17 95 18 89 19 91 20 42 21 94 22
REMARK SMILES IDX 88 23 87 24 43 26 75 27 55 28 74 29 56 30 59 31 73 32 92 33
REMARK SMILES IDX 57 34 58 35 72 37 93 38 60 39 44 40 45 41 53 42 46 43 48 44
REMARK SMILES IDX 54 45 47 46 49 47 50 48 51 49 52 50 76 51 77 52 85 53 78 54
REMARK SMILES IDX 80 55 86 56 79 57 81 58 82 59 83 60 84 61 61 62 62 63 70 64
REMARK SMILES IDX 63 65 65 66 71 67 64 68 66 69 67 70 68 71 69 72 8 73 9 74
REMARK SMILES IDX 10 75 11 76 12 77 13 78 14 79 15 80 16 81 24 82 17 83 23 84
REMARK SMILES IDX 18 86 22 87 19 88 21 89 20 90 25 93 26 94 27 95 34 96 28 97
REMARK SMILES IDX 30 98 33 99 29 100 31 101 32 102
REMARK H PARENT 91 25 59 36 24 85 20 91 20 92
REMARK Flexibility Score: inf
ROOT
ATOM      1  C   UNL A   1      30.097  25.646  25.534  1.00  0.00     0.188 C 
ENDROOT
BRANCH   1   2
ATOM      2  O   UNL A   1      30.982  26.694  25.936  1.00  0.00    -0.376 OA
BRANCH   2   3
ATOM      3  C   UNL A   1      30.839  27.183  27.268  1.00  0.00     0.202 C 
BRANCH   3   4
ATOM      4  C   UNL A   1      31.778  28.369  27.440  1.00  0.00     0.261 C 
BRANCH   4   5
ATOM      5  O   UNL A   1      31.674  29.194  26.256  1.00  0.00    -0.460 OA
BRANCH   5   6
ATOM      6  C   UNL A   1      32.851  29.596  25.709  1.00  0.00     0.338 C 
ATOM      7  O   UNL A   1      33.088  29.651  24.499  1.00  0.00    -0.246 OA
BRANCH   6   8
ATOM      8  C   UNL A   1      33.864  29.874  26.776  1.00  0.00     0.060 A 
ATOM      9  C   UNL A   1      33.784  31.021  27.574  1.00  0.00     0.016 A 
ATOM     10  C   UNL A   1      34.980  29.059  26.935  1.00  0.00     0.016 A 
ATOM     11  C   UNL A   1      34.817  31.345  28.496  1.00  0.00     0.010 A 
ATOM     12  C   UNL A   1      36.015  29.411  27.823  1.00  0.00     0.010 A 
ATOM     13  C   UNL A   1      35.995  30.572  28.618  1.00  0.00    -0.014 A 
BRANCH  13  14
ATOM     14  C   UNL A   1      37.165  30.912  29.555  1.00  0.00     0.031 A 
ATOM     15  C   UNL A   1      38.365  29.900  29.682  1.00  0.00     0.074 A 
ATOM     16  C   UNL A   1      37.478  32.170  29.971  1.00  0.00     0.049 A 
ATOM     17  N   UNL A   1      39.611  30.073  29.285  1.00  0.00    -0.248 NA
ATOM     18  C   UNL A   1      38.105  28.508  30.073  1.00  0.00     0.031 C 
ATOM     19  C   UNL A   1      37.316  33.410  29.190  1.00  0.00     0.029 A 
ATOM     20  N   UNL A   1      38.231  32.590  31.044  1.00  0.00    -0.354 N 
ATOM     21  C   UNL A   1      40.253  28.828  29.231  1.00  0.00     0.074 A 
ATOM     22  C   UNL A   1      39.250  27.895  29.737  1.00  0.00     0.031 C 
ATOM     23  C   UNL A   1      38.171  34.350  29.661  1.00  0.00     0.029 A 
ATOM     24  C   UNL A   1      38.761  33.866  30.895  1.00  0.00     0.049 A 
ATOM     25  H   UNL A   1      38.381  32.037  31.844  1.00  0.00     0.167 HD
ATOM     26  C   UNL A   1      41.514  28.523  28.758  1.00  0.00     0.034 A 
ATOM     27  C   UNL A   1      39.623  34.552  31.702  1.00  0.00     0.034 A 
ATOM     28  C   UNL A   1      42.465  29.541  28.275  1.00  0.00     0.049 A 
ATOM     29  C   UNL A   1      40.964  33.939  31.363  1.00  0.00     0.074 A 
ATOM     30  C   UNL A   1      43.229  29.733  27.130  1.00  0.00     0.029 A 
ATOM     31  N   UNL A   1      43.105  30.427  29.131  1.00  0.00    -0.354 N 
ATOM     32  N   UNL A   1      41.865  34.332  30.497  1.00  0.00    -0.248 NA
ATOM     33  C   UNL A   1      41.121  32.574  31.843  1.00  0.00     0.031 C 
ATOM     34  C   UNL A   1      43.944  30.994  27.270  1.00  0.00     0.029 A 
ATOM     35  C   UNL A   1      43.529  31.588  28.466  1.00  0.00     0.049 A 
ATOM     36  H   UNL A   1      43.243  30.262  30.092  1.00  0.00     0.167 HD
ATOM     37  C   UNL A   1      42.521  33.162  30.094  1.00  0.00     0.074 A 
ATOM     38  C   UNL A   1      41.926  32.122  30.908  1.00  0.00     0.031 C 
ATOM     39  C   UNL A   1      43.365  33.005  29.020  1.00  0.00     0.034 A 
BRANCH  26  40
ATOM     40  C   UNL A   1      42.039  27.103  28.826  1.00  0.00     0.023 A 
ATOM     41  C   UNL A   1      43.000  26.880  29.833  1.00  0.00     0.012 A 
ATOM     42  C   UNL A   1      41.773  26.060  27.905  1.00  0.00     0.148 A 
ATOM     43  C   UNL A   1      43.721  25.690  29.906  1.00  0.00     0.002 A 
ATOM     44  C   UNL A   1      42.499  24.860  27.989  1.00  0.00     0.091 A 
ATOM     45  F   UNL A   1      40.850  26.256  26.952  1.00  0.00    -0.205 F 
ATOM     46  C   UNL A   1      43.478  24.685  28.981  1.00  0.00     0.022 A 
BRANCH  44  47
ATOM     47  S   UNL A   1      42.310  23.465  26.858  1.00  0.00     0.127 S 
ATOM     48  O   UNL A   1      43.310  22.525  27.362  1.00  0.00    -0.237 OA
ATOM     49  O   UNL A   1      40.923  23.063  27.098  1.00  0.00    -0.237 OA
ATOM     50  O   UNL A   1      42.569  23.995  25.526  1.00  0.00    -0.744 OA
ENDBRANCH  44  47
ENDBRANCH  26  40
BRANCH  27  51
ATOM     51  C   UNL A   1      39.136  34.596  33.131  1.00  0.00     0.023 A 
ATOM     52  C   UNL A   1      37.793  34.193  33.309  1.00  0.00     0.012 A 
ATOM     53  C   UNL A   1      39.894  34.877  34.286  1.00  0.00     0.148 A 
ATOM     54  C   UNL A   1      37.270  33.927  34.571  1.00  0.00     0.002 A 
ATOM     55  C   UNL A   1      39.386  34.563  35.544  1.00  0.00     0.091 A 
ATOM     56  F   UNL A   1      41.113  35.414  34.167  1.00  0.00    -0.205 F 
ATOM     57  C   UNL A   1      38.081  34.073  35.688  1.00  0.00     0.022 A 
BRANCH  55  58
ATOM     58  S   UNL A   1      40.377  34.659  37.042  1.00  0.00     0.127 S 
ATOM     59  O   UNL A   1      40.900  36.023  36.976  1.00  0.00    -0.237 OA
ATOM     60  O   UNL A   1      39.364  34.437  38.073  1.00  0.00    -0.237 OA
ATOM     61  O   UNL A   1      41.382  33.612  36.926  1.00  0.00    -0.744 OA
ENDBRANCH  55  58
ENDBRANCH  27  51
BRANCH  39  62
ATOM     62  C   UNL A   1      43.861  34.310  28.221  1.00  0.00     0.023 A 
ATOM     63  C   UNL A   1      43.238  34.602  26.999  1.00  0.00     0.012 A 
ATOM     64  C   UNL A   1      44.789  35.329  28.662  1.00  0.00     0.148 A 
ATOM     65  C   UNL A   1      43.402  35.853  26.359  1.00  0.00     0.002 A 
ATOM     66  C   UNL A   1      44.738  36.646  28.181  1.00  0.00     0.091 A 
ATOM     67  F   UNL A   1      45.799  35.033  29.500  1.00  0.00    -0.205 F 
ATOM     68  C   UNL A   1      44.061  36.901  26.997  1.00  0.00     0.022 A 
BRANCH  66  69
ATOM     69  S   UNL A   1      45.304  38.099  29.135  1.00  0.00     0.127 S 
ATOM     70  O   UNL A   1      45.144  39.191  28.175  1.00  0.00    -0.237 OA
ATOM     71  O   UNL A   1      44.344  38.145  30.245  1.00  0.00    -0.237 OA
ATOM     72  O   UNL A   1      46.679  37.854  29.549  1.00  0.00    -0.744 OA
ENDBRANCH  66  69
ENDBRANCH  39  62
ENDBRANCH  13  14
ENDBRANCH   6   8
ENDBRANCH   5   6
ENDBRANCH   4   5
ENDBRANCH   3   4
ENDBRANCH   2   3
ENDBRANCH   1   2
BRANCH   1  73
ATOM     73  C   UNL A   1      29.369  25.121  26.776  1.00  0.00     0.188 C 
BRANCH  73  74
ATOM     74  O   UNL A   1      29.831  23.853  27.218  1.00  0.00    -0.376 OA
BRANCH  74  75
ATOM     75  C   UNL A   1      31.039  23.305  26.663  1.00  0.00     0.202 C 
BRANCH  75  76
ATOM     76  C   UNL A   1      32.436  23.266  27.333  1.00  0.00     0.261 C 
BRANCH  76  77
ATOM     77  O   UNL A   1      33.410  22.481  26.692  1.00  0.00    -0.459 OA
BRANCH  77  78
ATOM     78  C   UNL A   1      33.871  23.008  25.536  1.00  0.00     0.365 C 
ATOM     79  O   UNL A   1      34.228  24.176  25.399  1.00  0.00    -0.245 OA
BRANCH  78  80
ATOM     80  C   UNL A   1      33.992  21.962  24.447  1.00  0.00     0.296 C 
ATOM     81  C   UNL A   1      34.076  22.846  23.234  1.00  0.00     0.091 C 
ATOM     82  N   UNL A   1      32.811  21.138  24.143  1.00  0.00    -0.319 N 
ATOM     83  C   UNL A   1      32.739  22.596  22.530  1.00  0.00     0.036 C 
ATOM     84  C   UNL A   1      32.563  21.134  22.730  1.00  0.00     0.270 C 
ATOM     85  H   UNL A   1      32.189  21.652  24.767  1.00  0.00     0.349 HD
ATOM     86  C   UNL A   1      32.906  22.961  21.107  1.00  0.00     0.074 C 
ATOM     87  C   UNL A   1      31.511  23.353  23.100  1.00  0.00     0.074 C 
ATOM     88  C   UNL A   1      33.164  24.425  21.109  1.00  0.00     0.261 C 
ATOM     89  C   UNL A   1      31.677  24.850  22.990  1.00  0.00     0.261 C 
ATOM     90  N   UNL A   1      32.037  25.198  21.635  1.00  0.00    -0.346 N 
ATOM     91  H   UNL A   1      31.227  25.037  21.035  1.00  0.00     0.346 HD
ATOM     92  H   UNL A   1      32.325  26.176  21.645  1.00  0.00     0.346 HD
BRANCH  82  93
ATOM     93  C   UNL A   1      32.284  20.037  24.877  1.00  0.00     0.302 C 
BRANCH  93  94
ATOM     94  C   UNL A   1      33.264  18.902  24.936  1.00  0.00     0.038 A 
ATOM     95  C   UNL A   1      34.647  19.116  24.692  1.00  0.00     0.012 A 
ATOM     96  C   UNL A   1      32.958  17.543  25.157  1.00  0.00     0.144 A 
ATOM     97  C   UNL A   1      35.616  18.087  24.609  1.00  0.00     0.003 A 
ATOM     98  C   UNL A   1      33.949  16.481  25.049  1.00  0.00     0.135 A 
ATOM     99  N   UNL A   1      31.802  16.967  25.499  1.00  0.00    -0.049 NA
ATOM    100  C   UNL A   1      35.300  16.731  24.765  1.00  0.00     0.034 A 
ATOM    101  N   UNL A   1      33.341  15.304  25.261  1.00  0.00    -0.050 NA
ATOM    102  O   UNL A   1      32.018  15.610  25.511  1.00  0.00    -0.243 OA
ENDBRANCH  93  94
ENDBRANCH  82  93
ENDBRANCH  78  80
ENDBRANCH  77  78
ENDBRANCH  76  77
ENDBRANCH  75  76
ENDBRANCH  74  75
ENDBRANCH  73  74
ENDBRANCH   1  73
TORSDOF 22
ENDMDL
MODEL 3
REMARK VINA RESULT:     -10.4      3.295      8.514
REMARK SMILES O=C(OCCOCCOCCOC(=O)[C@@H]1CC2(CC[NH2+]CC2)C[N@H+]1Cc1cccc2nonc12)c1ccc(-c2c3nc(c(-c4cccc(S(=O)(=O)[O-])c4F)c4ccc([nH]4)c(-c4cccc(S(=O)(=O)[O-])c4F)c4nc(c(-c5cccc(S(=O)(=O)[O-])c5F)c5ccc2[nH]5)C=C4)C=C3)cc1
REMARK SMILES IDX 7 1 6 2 5 3 4 4 3 5 2 6 1 7 35 8 36 9 97 10 37 11 96 12
REMARK SMILES IDX 38 13 39 14 40 15 90 16 41 17 95 18 89 19 91 20 42 21 94 22
REMARK SMILES IDX 88 23 87 24 43 26 75 27 55 28 74 29 56 30 59 31 73 32 92 33
REMARK SMILES IDX 57 34 58 35 72 37 93 38 60 39 44 40 45 41 53 42 46 43 48 44
REMARK SMILES IDX 54 45 47 46 49 47 50 48 51 49 52 50 76 51 77 52 85 53 78 54
REMARK SMILES IDX 80 55 86 56 79 57 81 58 82 59 83 60 84 61 61 62 62 63 70 64
REMARK SMILES IDX 63 65 65 66 71 67 64 68 66 69 67 70 68 71 69 72 8 73 9 74
REMARK SMILES IDX 10 75 11 76 12 77 13 78 14 79 15 80 16 81 24 82 17 83 23 84
REMARK SMILES IDX 18 86 22 87 19 88 21 89 20 90 25 93 26 94 27 95 34 96 28 97
REMARK SMILES IDX 30 98 33 99 29 100 31 101 32 102
REMARK H PARENT 91 25 59 36 24 85 20 91 20 92
REMARK Flexibility Score: inf
ROOT
ATOM      1  C   UNL A   1      39.593  21.791  26.123  1.00  0.00     0.188 C 
ENDROOT
BRANCH   1   2
ATOM      2  O   UNL A   1      40.036  21.508  27.452  1.00  0.00    -0.376 OA
BRANCH   2   3
ATOM      3  C   UNL A   1      41.195  20.690  27.584  1.00  0.00     0.202 C 
BRANCH   3   4
ATOM      4  C   UNL A   1      41.958  20.734  26.267  1.00  0.00     0.261 C 
BRANCH   4   5
ATOM      5  O   UNL A   1      43.037  21.689  26.411  1.00  0.00    -0.460 OA
BRANCH   5   6
ATOM      6  C   UNL A   1      43.261  22.494  25.340  1.00  0.00     0.338 C 
ATOM      7  O   UNL A   1      43.601  22.105  24.218  1.00  0.00    -0.246 OA
BRANCH   6   8
ATOM      8  C   UNL A   1      43.134  23.935  25.724  1.00  0.00     0.060 A 
ATOM      9  C   UNL A   1      43.861  24.932  25.065  1.00  0.00     0.016 A 
ATOM     10  C   UNL A   1      42.371  24.320  26.824  1.00  0.00     0.016 A 
ATOM     11  C   UNL A   1      43.835  26.280  25.518  1.00  0.00     0.010 A 
ATOM     12  C   UNL A   1      42.384  25.650  27.286  1.00  0.00     0.010 A 
ATOM     13  C   UNL A   1      43.129  26.677  26.677  1.00  0.00    -0.014 A 
BRANCH  13  14
ATOM     14  C   UNL A   1      43.117  28.107  27.241  1.00  0.00     0.031 A 
ATOM     15  C   UNL A   1      41.736  28.830  27.469  1.00  0.00     0.074 A 
ATOM     16  C   UNL A   1      44.138  28.664  27.949  1.00  0.00     0.049 A 
ATOM     17  N   UNL A   1      41.186  29.173  28.618  1.00  0.00    -0.248 NA
ATOM     18  C   UNL A   1      40.798  28.976  26.349  1.00  0.00     0.031 C 
ATOM     19  C   UNL A   1      45.043  27.958  28.873  1.00  0.00     0.029 A 
ATOM     20  N   UNL A   1      44.427  29.986  28.201  1.00  0.00    -0.354 N 
ATOM     21  C   UNL A   1      39.825  29.435  28.415  1.00  0.00     0.074 A 
ATOM     22  C   UNL A   1      39.652  29.291  26.972  1.00  0.00     0.031 C 
ATOM     23  C   UNL A   1      45.556  28.844  29.760  1.00  0.00     0.029 A 
ATOM     24  C   UNL A   1      45.208  30.186  29.333  1.00  0.00     0.049 A 
ATOM     25  H   UNL A   1      44.109  30.724  27.631  1.00  0.00     0.167 HD
ATOM     26  C   UNL A   1      38.846  29.708  29.351  1.00  0.00     0.034 A 
ATOM     27  C   UNL A   1      45.596  31.351  29.931  1.00  0.00     0.034 A 
ATOM     28  C   UNL A   1      39.121  29.846  30.792  1.00  0.00     0.049 A 
ATOM     29  C   UNL A   1      44.357  31.770  30.691  1.00  0.00     0.074 A 
ATOM     30  C   UNL A   1      38.611  29.300  31.965  1.00  0.00     0.029 A 
ATOM     31  N   UNL A   1      39.795  30.938  31.320  1.00  0.00    -0.354 N 
ATOM     32  N   UNL A   1      44.027  31.540  31.938  1.00  0.00    -0.248 NA
ATOM     33  C   UNL A   1      43.268  32.217  29.835  1.00  0.00     0.031 C 
ATOM     34  C   UNL A   1      39.370  29.842  33.083  1.00  0.00     0.029 A 
ATOM     35  C   UNL A   1      40.389  30.643  32.557  1.00  0.00     0.049 A 
ATOM     36  H   UNL A   1      39.853  31.816  30.878  1.00  0.00     0.167 HD
ATOM     37  C   UNL A   1      42.627  31.518  31.949  1.00  0.00     0.074 A 
ATOM     38  C   UNL A   1      42.255  31.850  30.589  1.00  0.00     0.031 C 
ATOM     39  C   UNL A   1      41.805  31.065  32.954  1.00  0.00     0.034 A 
BRANCH  26  40
ATOM     40  C   UNL A   1      37.425  30.005  28.914  1.00  0.00     0.023 A 
ATOM     41  C   UNL A   1      36.802  28.963  28.198  1.00  0.00     0.012 A 
ATOM     42  C   UNL A   1      36.751  31.246  29.023  1.00  0.00     0.148 A 
ATOM     43  C   UNL A   1      35.576  29.144  27.561  1.00  0.00     0.002 A 
ATOM     44  C   UNL A   1      35.511  31.419  28.384  1.00  0.00     0.091 A 
ATOM     45  F   UNL A   1      37.328  32.239  29.714  1.00  0.00    -0.205 F 
ATOM     46  C   UNL A   1      34.936  30.372  27.645  1.00  0.00     0.022 A 
BRANCH  44  47
ATOM     47  S   UNL A   1      34.560  32.954  28.389  1.00  0.00     0.127 S 
ATOM     48  O   UNL A   1      35.419  33.847  27.612  1.00  0.00    -0.237 OA
ATOM     49  O   UNL A   1      33.329  32.553  27.709  1.00  0.00    -0.237 OA
ATOM     50  O   UNL A   1      34.394  33.314  29.790  1.00  0.00    -0.744 OA
ENDBRANCH  44  47
ENDBRANCH  26  40
BRANCH  27  51
ATOM     51  C   UNL A   1      46.250  32.292  28.947  1.00  0.00     0.023 A 
ATOM     52  C   UNL A   1      46.891  31.657  27.859  1.00  0.00     0.012 A 
ATOM     53  C   UNL A   1      46.189  33.700  28.939  1.00  0.00     0.148 A 
ATOM     54  C   UNL A   1      47.311  32.369  26.740  1.00  0.00     0.002 A 
ATOM     55  C   UNL A   1      46.565  34.406  27.799  1.00  0.00     0.091 A 
ATOM     56  F   UNL A   1      45.740  34.353  30.017  1.00  0.00    -0.205 F 
ATOM     57  C   UNL A   1      47.111  33.741  26.693  1.00  0.00     0.022 A 
BRANCH  55  58
ATOM     58  S   UNL A   1      46.290  36.174  27.618  1.00  0.00     0.127 S 
ATOM     59  O   UNL A   1      46.743  36.416  26.248  1.00  0.00    -0.237 OA
ATOM     60  O   UNL A   1      44.843  36.262  27.814  1.00  0.00    -0.237 OA
ATOM     61  O   UNL A   1      47.095  36.813  28.650  1.00  0.00    -0.744 OA
ENDBRANCH  55  58
ENDBRANCH  27  51
BRANCH  39  62
ATOM     62  C   UNL A   1      42.449  30.700  34.382  1.00  0.00     0.023 A 
ATOM     63  C   UNL A   1      42.584  29.342  34.709  1.00  0.00     0.012 A 
ATOM     64  C   UNL A   1      43.052  31.596  35.346  1.00  0.00     0.148 A 
ATOM     65  C   UNL A   1      43.374  28.913  35.800  1.00  0.00     0.002 A 
ATOM     66  C   UNL A   1      44.040  31.170  36.246  1.00  0.00     0.091 A 
ATOM     67  F   UNL A   1      42.628  32.866  35.473  1.00  0.00    -0.205 F 
ATOM     68  C   UNL A   1      44.179  29.812  36.497  1.00  0.00     0.022 A 
BRANCH  66  69
ATOM     69  S   UNL A   1      45.326  32.271  36.938  1.00  0.00     0.127 S 
ATOM     70  O   UNL A   1      46.314  31.321  37.450  1.00  0.00    -0.237 OA
ATOM     71  O   UNL A   1      45.780  33.013  35.755  1.00  0.00    -0.237 OA
ATOM     72  O   UNL A   1      44.701  33.103  37.958  1.00  0.00    -0.744 OA
ENDBRANCH  66  69
ENDBRANCH  39  62
ENDBRANCH  13  14
ENDBRANCH   6   8
ENDBRANCH   5   6
ENDBRANCH   4   5
ENDBRANCH   3   4
ENDBRANCH   2   3
ENDBRANCH   1   2
BRANCH   1  73
ATOM     73  C   UNL A   1      38.637  22.988  26.173  1.00  0.00     0.188 C 
BRANCH  73  74
ATOM     74  O   UNL A   1      37.374  22.738  25.574  1.00  0.00    -0.376 OA
BRANCH  74  75
ATOM     75  C   UNL A   1      36.588  23.840  25.088  1.00  0.00     0.202 C 
BRANCH  75  76
ATOM     76  C   UNL A   1      35.067  24.055  25.289  1.00  0.00     0.261 C 
BRANCH  76  77
ATOM     77  O   UNL A   1      34.397  24.747  24.263  1.00  0.00    -0.459 OA
BRANCH  77  78
ATOM     78  C   UNL A   1      33.941  25.965  24.625  1.00  0.00     0.365 C 
ATOM     79  O   UNL A   1      34.308  26.575  25.628  1.00  0.00    -0.245 OA
BRANCH  78  80
ATOM     80  C   UNL A   1      32.992  26.542  23.595  1.00  0.00     0.296 C 
ATOM     81  C   UNL A   1      32.884  27.958  24.092  1.00  0.00     0.091 C 
ATOM     82  N   UNL A   1      31.588  26.101  23.621  1.00  0.00    -0.319 N 
ATOM     83  C   UNL A   1      31.446  28.030  24.616  1.00  0.00     0.036 C 
ATOM     84  C   UNL A   1      30.714  27.238  23.595  1.00  0.00     0.270 C 
ATOM     85  H   UNL A   1      31.690  25.556  24.478  1.00  0.00     0.349 HD
ATOM     86  C   UNL A   1      31.045  29.454  24.629  1.00  0.00     0.074 C 
ATOM     87  C   UNL A   1      31.197  27.428  26.023  1.00  0.00     0.074 C 
ATOM     88  C   UNL A   1      31.938  30.100  25.627  1.00  0.00     0.261 C 
ATOM     89  C   UNL A   1      31.983  28.153  27.089  1.00  0.00     0.261 C 
ATOM     90  N   UNL A   1      31.748  29.575  26.981  1.00  0.00    -0.346 N 
ATOM     91  H   UNL A   1      30.788  29.765  27.269  1.00  0.00     0.346 HD
ATOM     92  H   UNL A   1      32.432  30.037  27.579  1.00  0.00     0.346 HD
BRANCH  82  93
ATOM     93  C   UNL A   1      31.036  24.871  23.162  1.00  0.00     0.302 C 
BRANCH  93  94
ATOM     94  C   UNL A   1      31.234  23.775  24.169  1.00  0.00     0.038 A 
ATOM     95  C   UNL A   1      30.978  23.995  25.548  1.00  0.00     0.012 A 
ATOM     96  C   UNL A   1      31.736  22.483  23.911  1.00  0.00     0.144 A 
ATOM     97  C   UNL A   1      31.251  23.058  26.574  1.00  0.00     0.003 A 
ATOM     98  C   UNL A   1      32.040  21.527  24.967  1.00  0.00     0.135 A 
ATOM     99  N   UNL A   1      32.010  21.883  22.748  1.00  0.00    -0.049 NA
ATOM    100  C   UNL A   1      31.810  21.798  26.323  1.00  0.00     0.034 A 
ATOM    101  N   UNL A   1      32.548  20.419  24.408  1.00  0.00    -0.050 NA
ATOM    102  O   UNL A   1      32.550  20.656  23.048  1.00  0.00    -0.243 OA
ENDBRANCH  93  94
ENDBRANCH  82  93
ENDBRANCH  78  80
ENDBRANCH  77  78
ENDBRANCH  76  77
ENDBRANCH  75  76
ENDBRANCH  74  75
ENDBRANCH  73  74
ENDBRANCH   1  73
TORSDOF 22
ENDMDL
