MODEL 1
REMARK VINA RESULT:     -10.4      0.000      0.000
REMARK SMILES O=C(OCCOCCOCCOC(=O)[C@H](c1c[nH]c2cc(F)ccc12)[NH+]1CC[NH+](CC(=O)N2CCOCC2)CC1)c1ccc(-c2c3nc(c(-c4cccc(S(=O)(=O)[O-])c4F)c4ccc([nH]4)c(-c4cccc(S(=O)(=O)[O-])c4F)c4nc(c(-c5cccc(S(=O)(=O)[O-])c5F)c5ccc2[nH]5)C=C4)C=C3)cc1
REMARK SMILES IDX 7 1 6 2 5 3 4 4 3 5 2 6 1 7 41 8 42 9 103 10 43 11 102 12
REMARK SMILES IDX 44 13 45 14 46 15 96 16 47 17 101 18 95 19 97 20 48 21
REMARK SMILES IDX 100 22 94 23 93 24 49 26 81 27 61 28 80 29 62 30 65 31 79 32
REMARK SMILES IDX 98 33 63 34 64 35 78 37 99 38 66 39 50 40 51 41 59 42 52 43
REMARK SMILES IDX 54 44 60 45 53 46 55 47 56 48 57 49 58 50 82 51 83 52 91 53
REMARK SMILES IDX 84 54 86 55 92 56 85 57 87 58 88 59 89 60 90 61 67 62 68 63
REMARK SMILES IDX 76 64 69 65 71 66 77 67 70 68 72 69 73 70 74 71 75 72 8 73
REMARK SMILES IDX 9 74 10 75 11 76 12 77 13 78 14 79 15 80 26 81 27 82 40 83
REMARK SMILES IDX 28 85 39 86 29 87 30 89 31 90 32 91 33 92 34 93 38 94 35 95
REMARK SMILES IDX 37 96 36 97 16 98 17 99 25 100 18 101 19 102 24 103 20 105
REMARK SMILES IDX 23 106 21 107 22 108
REMARK H PARENT 97 25 65 36 26 84 29 88 18 104
REMARK Flexibility Score: inf
ROOT
ATOM      1  C   UNL A   1      37.274  23.239  25.520  1.00  0.00     0.188 C 
ENDROOT
BRANCH   1   2
ATOM      2  O   UNL A   1      37.988  22.046  25.820  1.00  0.00    -0.376 OA
BRANCH   2   3
ATOM      3  C   UNL A   1      39.283  22.138  26.411  1.00  0.00     0.202 C 
BRANCH   3   4
ATOM      4  C   UNL A   1      40.169  20.891  26.498  1.00  0.00     0.261 C 
BRANCH   4   5
ATOM      5  O   UNL A   1      41.197  20.733  25.502  1.00  0.00    -0.460 OA
BRANCH   5   6
ATOM      6  C   UNL A   1      42.452  20.350  25.811  1.00  0.00     0.338 C 
ATOM      7  O   UNL A   1      42.907  19.214  25.770  1.00  0.00    -0.246 OA
BRANCH   6   8
ATOM      8  C   UNL A   1      43.248  21.582  25.870  1.00  0.00     0.060 A 
ATOM      9  C   UNL A   1      44.337  21.673  26.740  1.00  0.00     0.016 A 
ATOM     10  C   UNL A   1      42.845  22.685  25.122  1.00  0.00     0.016 A 
ATOM     11  C   UNL A   1      44.937  22.893  26.981  1.00  0.00     0.010 A 
ATOM     12  C   UNL A   1      43.494  23.903  25.311  1.00  0.00     0.010 A 
ATOM     13  C   UNL A   1      44.506  24.018  26.277  1.00  0.00    -0.014 A 
BRANCH  13  14
ATOM     14  C   UNL A   1      45.113  25.316  26.615  1.00  0.00     0.031 A 
ATOM     15  C   UNL A   1      44.446  26.194  27.619  1.00  0.00     0.074 A 
ATOM     16  C   UNL A   1      46.273  25.663  26.033  1.00  0.00     0.049 A 
ATOM     17  N   UNL A   1      44.830  27.360  28.053  1.00  0.00    -0.248 NA
ATOM     18  C   UNL A   1      43.162  25.732  28.173  1.00  0.00     0.031 C 
ATOM     19  C   UNL A   1      46.926  24.889  24.984  1.00  0.00     0.029 A 
ATOM     20  N   UNL A   1      47.115  26.726  26.234  1.00  0.00    -0.354 N 
ATOM     21  C   UNL A   1      43.775  27.836  28.814  1.00  0.00     0.074 A 
ATOM     22  C   UNL A   1      42.774  26.793  28.865  1.00  0.00     0.031 C 
ATOM     23  C   UNL A   1      48.093  25.469  24.676  1.00  0.00     0.029 A 
ATOM     24  C   UNL A   1      48.282  26.646  25.504  1.00  0.00     0.049 A 
ATOM     25  H   UNL A   1      46.907  27.473  26.840  1.00  0.00     0.167 HD
ATOM     26  C   UNL A   1      43.643  29.067  29.351  1.00  0.00     0.034 A 
ATOM     27  C   UNL A   1      49.382  27.425  25.523  1.00  0.00     0.034 A 
ATOM     28  C   UNL A   1      44.665  30.074  29.282  1.00  0.00     0.049 A 
ATOM     29  C   UNL A   1      49.294  28.688  26.330  1.00  0.00     0.074 A 
ATOM     30  C   UNL A   1      44.643  31.355  29.799  1.00  0.00     0.029 A 
ATOM     31  N   UNL A   1      45.886  29.917  28.640  1.00  0.00    -0.354 N 
ATOM     32  N   UNL A   1      48.319  29.096  27.108  1.00  0.00    -0.248 NA
ATOM     33  C   UNL A   1      50.414  29.628  26.217  1.00  0.00     0.031 C 
ATOM     34  C   UNL A   1      45.836  31.987  29.434  1.00  0.00     0.029 A 
ATOM     35  C   UNL A   1      46.620  31.085  28.732  1.00  0.00     0.049 A 
ATOM     36  H   UNL A   1      46.183  29.097  28.184  1.00  0.00     0.167 HD
ATOM     37  C   UNL A   1      48.675  30.369  27.518  1.00  0.00     0.074 A 
ATOM     38  C   UNL A   1      50.006  30.619  26.996  1.00  0.00     0.031 C 
ATOM     39  C   UNL A   1      47.942  31.284  28.197  1.00  0.00     0.034 A 
BRANCH  26  40
ATOM     40  C   UNL A   1      42.319  29.417  29.964  1.00  0.00     0.023 A 
ATOM     41  C   UNL A   1      41.262  29.906  29.175  1.00  0.00     0.012 A 
ATOM     42  C   UNL A   1      42.124  29.222  31.346  1.00  0.00     0.148 A 
ATOM     43  C   UNL A   1      40.033  30.215  29.758  1.00  0.00     0.002 A 
ATOM     44  C   UNL A   1      40.885  29.486  31.911  1.00  0.00     0.091 A 
ATOM     45  F   UNL A   1      43.159  28.788  32.080  1.00  0.00    -0.205 F 
ATOM     46  C   UNL A   1      39.841  29.993  31.121  1.00  0.00     0.022 A 
BRANCH  44  47
ATOM     47  S   UNL A   1      40.519  29.165  33.639  1.00  0.00     0.127 S 
ATOM     48  O   UNL A   1      41.326  30.186  34.306  1.00  0.00    -0.237 OA
ATOM     49  O   UNL A   1      39.076  29.397  33.688  1.00  0.00    -0.237 OA
ATOM     50  O   UNL A   1      40.932  27.792  33.894  1.00  0.00    -0.744 OA
ENDBRANCH  44  47
ENDBRANCH  26  40
BRANCH  27  51
ATOM     51  C   UNL A   1      50.635  27.045  24.798  1.00  0.00     0.023 A 
ATOM     52  C   UNL A   1      50.932  27.656  23.561  1.00  0.00     0.012 A 
ATOM     53  C   UNL A   1      51.563  26.127  25.324  1.00  0.00     0.148 A 
ATOM     54  C   UNL A   1      52.106  27.348  22.867  1.00  0.00     0.002 A 
ATOM     55  C   UNL A   1      52.775  25.900  24.678  1.00  0.00     0.091 A 
ATOM     56  F   UNL A   1      51.256  25.484  26.462  1.00  0.00    -0.205 F 
ATOM     57  C   UNL A   1      53.041  26.488  23.437  1.00  0.00     0.022 A 
BRANCH  55  58
ATOM     58  S   UNL A   1      54.084  24.975  25.490  1.00  0.00     0.127 S 
ATOM     59  O   UNL A   1      53.603  23.602  25.380  1.00  0.00    -0.237 OA
ATOM     60  O   UNL A   1      55.259  25.281  24.672  1.00  0.00    -0.237 OA
ATOM     61  O   UNL A   1      54.143  25.535  26.836  1.00  0.00    -0.744 OA
ENDBRANCH  55  58
ENDBRANCH  27  51
BRANCH  39  62
ATOM     62  C   UNL A   1      48.555  32.644  28.358  1.00  0.00     0.023 A 
ATOM     63  C   UNL A   1      49.295  32.936  29.522  1.00  0.00     0.012 A 
ATOM     64  C   UNL A   1      48.450  33.601  27.335  1.00  0.00     0.148 A 
ATOM     65  C   UNL A   1      49.896  34.181  29.679  1.00  0.00     0.002 A 
ATOM     66  C   UNL A   1      49.095  34.820  27.476  1.00  0.00     0.091 A 
ATOM     67  F   UNL A   1      47.726  33.297  26.249  1.00  0.00    -0.205 F 
ATOM     68  C   UNL A   1      49.806  35.119  28.652  1.00  0.00     0.022 A 
BRANCH  66  69
ATOM     69  S   UNL A   1      49.113  36.050  26.172  1.00  0.00     0.127 S 
ATOM     70  O   UNL A   1      49.376  35.228  24.992  1.00  0.00    -0.237 OA
ATOM     71  O   UNL A   1      47.759  36.599  26.247  1.00  0.00    -0.237 OA
ATOM     72  O   UNL A   1      50.170  36.992  26.518  1.00  0.00    -0.744 OA
ENDBRANCH  66  69
ENDBRANCH  39  62
ENDBRANCH  13  14
ENDBRANCH   6   8
ENDBRANCH   5   6
ENDBRANCH   4   5
ENDBRANCH   3   4
ENDBRANCH   2   3
ENDBRANCH   1   2
BRANCH   1  73
ATOM     73  C   UNL A   1      35.809  23.269  25.982  1.00  0.00     0.188 C 
BRANCH  73  74
ATOM     74  O   UNL A   1      34.840  23.680  25.024  1.00  0.00    -0.376 OA
BRANCH  74  75
ATOM     75  C   UNL A   1      33.476  23.460  25.367  1.00  0.00     0.202 C 
BRANCH  75  76
ATOM     76  C   UNL A   1      32.411  23.877  24.350  1.00  0.00     0.261 C 
BRANCH  76  77
ATOM     77  O   UNL A   1      32.916  24.634  23.241  1.00  0.00    -0.459 OA
BRANCH  77  78
ATOM     78  C   UNL A   1      32.203  25.755  22.908  1.00  0.00     0.370 C 
ATOM     79  O   UNL A   1      32.319  26.304  21.817  1.00  0.00    -0.245 OA
BRANCH  78  80
ATOM     80  C   UNL A   1      31.426  26.303  24.161  1.00  0.00     0.328 C 
BRANCH  80  81
ATOM     81  N   UNL A   1      32.263  27.349  24.780  1.00  0.00    -0.310 N 
ATOM     82  C   UNL A   1      33.654  27.598  24.431  1.00  0.00     0.325 C 
ATOM     83  C   UNL A   1      31.586  28.340  25.605  1.00  0.00     0.325 C 
ATOM     84  H   UNL A   1      32.677  26.569  25.292  1.00  0.00     0.349 HD
ATOM     85  C   UNL A   1      34.150  29.069  24.663  1.00  0.00     0.325 C 
ATOM     86  C   UNL A   1      32.084  29.772  25.556  1.00  0.00     0.325 C 
ATOM     87  N   UNL A   1      33.523  29.823  25.767  1.00  0.00    -0.318 N 
ATOM     88  H   UNL A   1      33.890  30.773  25.711  1.00  0.00     0.348 HD
BRANCH  87  89
ATOM     89  C   UNL A   1      33.916  29.482  27.159  1.00  0.00     0.364 C 
BRANCH  89  90
ATOM     90  C   UNL A   1      35.267  29.983  27.700  1.00  0.00     0.277 C 
ATOM     91  O   UNL A   1      36.243  29.228  27.611  1.00  0.00    -0.268 OA
ATOM     92  N   UNL A   1      35.432  31.296  28.171  1.00  0.00    -0.333 N 
ATOM     93  C   UNL A   1      34.383  32.157  28.720  1.00  0.00     0.148 C 
ATOM     94  C   UNL A   1      36.775  31.629  28.650  1.00  0.00     0.148 C 
ATOM     95  C   UNL A   1      34.751  33.633  28.935  1.00  0.00     0.181 C 
ATOM     96  C   UNL A   1      37.024  33.136  28.702  1.00  0.00     0.181 C 
ATOM     97  O   UNL A   1      36.045  33.798  29.511  1.00  0.00    -0.378 OA
ENDBRANCH  89  90
ENDBRANCH  87  89
ENDBRANCH  80  81
BRANCH  80  98
ATOM     98  C   UNL A   1      30.029  26.674  23.679  1.00  0.00     0.046 A 
ATOM     99  C   UNL A   1      28.842  26.050  24.028  1.00  0.00     0.094 A 
ATOM    100  C   UNL A   1      29.638  27.892  22.995  1.00  0.00     0.009 A 
ATOM    101  N   UNL A   1      27.799  26.894  23.757  1.00  0.00    -0.361 N 
ATOM    102  C   UNL A   1      28.259  28.048  23.172  1.00  0.00     0.049 A 
ATOM    103  C   UNL A   1      30.324  28.926  22.318  1.00  0.00     0.014 A 
ATOM    104  H   UNL A   1      26.854  26.700  23.952  1.00  0.00     0.166 HD
ATOM    105  C   UNL A   1      27.560  29.206  22.796  1.00  0.00     0.065 A 
ATOM    106  C   UNL A   1      29.632  30.066  21.878  1.00  0.00     0.040 A 
ATOM    107  C   UNL A   1      28.279  30.205  22.147  1.00  0.00     0.125 A 
ATOM    108  F   UNL A   1      27.646  31.329  21.775  1.00  0.00    -0.207 F 
ENDBRANCH  80  98
ENDBRANCH  78  80
ENDBRANCH  77  78
ENDBRANCH  76  77
ENDBRANCH  75  76
ENDBRANCH  74  75
ENDBRANCH  73  74
ENDBRANCH   1  73
TORSDOF 24
ENDMDL
MODEL 2
REMARK VINA RESULT:     -10.4      1.310      7.222
REMARK SMILES O=C(OCCOCCOCCOC(=O)[C@H](c1c[nH]c2cc(F)ccc12)[NH+]1CC[NH+](CC(=O)N2CCOCC2)CC1)c1ccc(-c2c3nc(c(-c4cccc(S(=O)(=O)[O-])c4F)c4ccc([nH]4)c(-c4cccc(S(=O)(=O)[O-])c4F)c4nc(c(-c5cccc(S(=O)(=O)[O-])c5F)c5ccc2[nH]5)C=C4)C=C3)cc1
REMARK SMILES IDX 7 1 6 2 5 3 4 4 3 5 2 6 1 7 41 8 42 9 103 10 43 11 102 12
REMARK SMILES IDX 44 13 45 14 46 15 96 16 47 17 101 18 95 19 97 20 48 21
REMARK SMILES IDX 100 22 94 23 93 24 49 26 81 27 61 28 80 29 62 30 65 31 79 32
REMARK SMILES IDX 98 33 63 34 64 35 78 37 99 38 66 39 50 40 51 41 59 42 52 43
REMARK SMILES IDX 54 44 60 45 53 46 55 47 56 48 57 49 58 50 82 51 83 52 91 53
REMARK SMILES IDX 84 54 86 55 92 56 85 57 87 58 88 59 89 60 90 61 67 62 68 63
REMARK SMILES IDX 76 64 69 65 71 66 77 67 70 68 72 69 73 70 74 71 75 72 8 73
REMARK SMILES IDX 9 74 10 75 11 76 12 77 13 78 14 79 15 80 26 81 27 82 40 83
REMARK SMILES IDX 28 85 39 86 29 87 30 89 31 90 32 91 33 92 34 93 38 94 35 95
REMARK SMILES IDX 37 96 36 97 16 98 17 99 25 100 18 101 19 102 24 103 20 105
REMARK SMILES IDX 23 106 21 107 22 108
REMARK H PARENT 97 25 65 36 26 84 29 88 18 104
REMARK Flexibility Score: inf
ROOT
ATOM      1  C   UNL A   1      36.226  22.247  25.053  1.00  0.00     0.188 C 
ENDROOT
BRANCH   1   2
ATOM      2  O   UNL A   1      37.160  21.492  25.815  1.00  0.00    -0.376 OA
BRANCH   2   3
ATOM      3  C   UNL A   1      38.549  21.806  25.727  1.00  0.00     0.202 C 
BRANCH   3   4
ATOM      4  C   UNL A   1      39.592  20.760  26.132  1.00  0.00     0.261 C 
BRANCH   4   5
ATOM      5  O   UNL A   1      40.885  20.830  25.502  1.00  0.00    -0.460 OA
BRANCH   5   6
ATOM      6  C   UNL A   1      42.016  20.448  26.128  1.00  0.00     0.338 C 
ATOM      7  O   UNL A   1      42.413  19.303  26.301  1.00  0.00    -0.246 OA
BRANCH   6   8
ATOM      8  C   UNL A   1      42.839  21.658  26.253  1.00  0.00     0.060 A 
ATOM      9  C   UNL A   1      43.667  21.833  27.364  1.00  0.00     0.016 A 
ATOM     10  C   UNL A   1      42.707  22.667  25.302  1.00  0.00     0.016 A 
ATOM     11  C   UNL A   1      44.251  23.059  27.612  1.00  0.00     0.010 A 
ATOM     12  C   UNL A   1      43.352  23.884  25.514  1.00  0.00     0.010 A 
ATOM     13  C   UNL A   1      44.082  24.096  26.694  1.00  0.00    -0.014 A 
BRANCH  13  14
ATOM     14  C   UNL A   1      44.652  25.412  27.029  1.00  0.00     0.031 A 
ATOM     15  C   UNL A   1      45.984  25.790  26.474  1.00  0.00     0.074 A 
ATOM     16  C   UNL A   1      43.944  26.252  27.800  1.00  0.00     0.049 A 
ATOM     17  N   UNL A   1      46.642  26.901  26.644  1.00  0.00    -0.248 NA
ATOM     18  C   UNL A   1      46.691  24.783  25.665  1.00  0.00     0.031 C 
ATOM     19  C   UNL A   1      42.680  25.905  28.441  1.00  0.00     0.029 A 
ATOM     20  N   UNL A   1      44.157  27.554  28.170  1.00  0.00    -0.354 N 
ATOM     21  C   UNL A   1      47.892  26.676  26.093  1.00  0.00     0.074 A 
ATOM     22  C   UNL A   1      47.871  25.361  25.494  1.00  0.00     0.031 C 
ATOM     23  C   UNL A   1      42.202  26.984  29.074  1.00  0.00     0.029 A 
ATOM     24  C   UNL A   1      43.110  28.100  28.882  1.00  0.00     0.049 A 
ATOM     25  H   UNL A   1      44.977  28.051  27.950  1.00  0.00     0.167 HD
ATOM     26  C   UNL A   1      48.973  27.483  26.157  1.00  0.00     0.034 A 
ATOM     27  C   UNL A   1      42.905  29.362  29.309  1.00  0.00     0.034 A 
ATOM     28  C   UNL A   1      48.951  28.788  26.757  1.00  0.00     0.049 A 
ATOM     29  C   UNL A   1      44.053  30.317  29.151  1.00  0.00     0.074 A 
ATOM     30  C   UNL A   1      49.986  29.697  26.872  1.00  0.00     0.029 A 
ATOM     31  N   UNL A   1      47.840  29.361  27.361  1.00  0.00    -0.354 N 
ATOM     32  N   UNL A   1      45.207  30.118  28.561  1.00  0.00    -0.248 NA
ATOM     33  C   UNL A   1      43.907  31.639  29.769  1.00  0.00     0.031 C 
ATOM     34  C   UNL A   1      49.509  30.804  27.581  1.00  0.00     0.029 A 
ATOM     35  C   UNL A   1      48.167  30.606  27.866  1.00  0.00     0.049 A 
ATOM     36  H   UNL A   1      46.952  28.942  27.423  1.00  0.00     0.167 HD
ATOM     37  C   UNL A   1      45.951  31.261  28.798  1.00  0.00     0.074 A 
ATOM     38  C   UNL A   1      45.077  32.192  29.487  1.00  0.00     0.031 C 
ATOM     39  C   UNL A   1      47.261  31.496  28.543  1.00  0.00     0.034 A 
BRANCH  26  40
ATOM     40  C   UNL A   1      50.277  26.936  25.657  1.00  0.00     0.023 A 
ATOM     41  C   UNL A   1      51.040  26.051  26.441  1.00  0.00     0.012 A 
ATOM     42  C   UNL A   1      50.727  27.290  24.370  1.00  0.00     0.148 A 
ATOM     43  C   UNL A   1      52.245  25.541  25.957  1.00  0.00     0.002 A 
ATOM     44  C   UNL A   1      51.902  26.741  23.876  1.00  0.00     0.091 A 
ATOM     45  F   UNL A   1      49.999  28.162  23.658  1.00  0.00    -0.205 F 
ATOM     46  C   UNL A   1      52.668  25.875  24.672  1.00  0.00     0.022 A 
BRANCH  44  47
ATOM     47  S   UNL A   1      52.492  27.054  22.210  1.00  0.00     0.127 S 
ATOM     48  O   UNL A   1      52.728  28.497  22.246  1.00  0.00    -0.237 OA
ATOM     49  O   UNL A   1      53.705  26.238  22.163  1.00  0.00    -0.237 OA
ATOM     50  O   UNL A   1      51.426  26.628  21.313  1.00  0.00    -0.744 OA
ENDBRANCH  44  47
ENDBRANCH  26  40
BRANCH  27  51
ATOM     51  C   UNL A   1      41.596  29.800  29.889  1.00  0.00     0.023 A 
ATOM     52  C   UNL A   1      40.539  30.154  29.022  1.00  0.00     0.012 A 
ATOM     53  C   UNL A   1      41.355  29.830  31.274  1.00  0.00     0.148 A 
ATOM     54  C   UNL A   1      39.293  30.542  29.524  1.00  0.00     0.002 A 
ATOM     55  C   UNL A   1      40.085  30.119  31.764  1.00  0.00     0.091 A 
ATOM     56  F   UNL A   1      42.374  29.567  32.109  1.00  0.00    -0.205 F 
ATOM     57  C   UNL A   1      39.057  30.501  30.895  1.00  0.00     0.022 A 
BRANCH  55  58
ATOM     58  S   UNL A   1      39.693  29.862  33.499  1.00  0.00     0.127 S 
ATOM     59  O   UNL A   1      38.293  30.268  33.561  1.00  0.00    -0.237 OA
ATOM     60  O   UNL A   1      39.926  28.428  33.680  1.00  0.00    -0.237 OA
ATOM     61  O   UNL A   1      40.645  30.706  34.214  1.00  0.00    -0.744 OA
ENDBRANCH  55  58
ENDBRANCH  27  51
BRANCH  39  62
ATOM     62  C   UNL A   1      47.821  32.788  29.063  1.00  0.00     0.023 A 
ATOM     63  C   UNL A   1      48.470  32.806  30.314  1.00  0.00     0.012 A 
ATOM     64  C   UNL A   1      47.758  33.958  28.288  1.00  0.00     0.148 A 
ATOM     65  C   UNL A   1      49.021  33.987  30.803  1.00  0.00     0.002 A 
ATOM     66  C   UNL A   1      48.355  35.117  28.758  1.00  0.00     0.091 A 
ATOM     67  F   UNL A   1      47.120  33.910  27.110  1.00  0.00    -0.205 F 
ATOM     68  C   UNL A   1      48.974  35.139  30.020  1.00  0.00     0.022 A 
BRANCH  66  69
ATOM     69  S   UNL A   1      48.426  36.620  27.784  1.00  0.00     0.127 S 
ATOM     70  O   UNL A   1      49.211  36.188  26.629  1.00  0.00    -0.237 OA
ATOM     71  O   UNL A   1      47.013  36.873  27.504  1.00  0.00    -0.237 OA
ATOM     72  O   UNL A   1      49.066  37.620  28.628  1.00  0.00    -0.744 OA
ENDBRANCH  66  69
ENDBRANCH  39  62
ENDBRANCH  13  14
ENDBRANCH   6   8
ENDBRANCH   5   6
ENDBRANCH   4   5
ENDBRANCH   3   4
ENDBRANCH   2   3
ENDBRANCH   1   2
BRANCH   1  73
ATOM     73  C   UNL A   1      34.857  21.585  24.836  1.00  0.00     0.188 C 
BRANCH  73  74
ATOM     74  O   UNL A   1      33.866  22.360  24.172  1.00  0.00    -0.376 OA
BRANCH  74  75
ATOM     75  C   UNL A   1      32.741  22.753  24.951  1.00  0.00     0.202 C 
BRANCH  75  76
ATOM     76  C   UNL A   1      31.780  23.778  24.346  1.00  0.00     0.261 C 
BRANCH  76  77
ATOM     77  O   UNL A   1      32.314  24.503  23.229  1.00  0.00    -0.459 OA
BRANCH  77  78
ATOM     78  C   UNL A   1      31.596  25.599  22.828  1.00  0.00     0.370 C 
ATOM     79  O   UNL A   1      31.623  26.012  21.673  1.00  0.00    -0.245 OA
BRANCH  78  80
ATOM     80  C   UNL A   1      30.945  26.313  24.070  1.00  0.00     0.328 C 
BRANCH  80  81
ATOM     81  N   UNL A   1      31.939  27.263  24.606  1.00  0.00    -0.310 N 
ATOM     82  C   UNL A   1      33.175  27.624  23.929  1.00  0.00     0.325 C 
ATOM     83  C   UNL A   1      31.539  28.065  25.753  1.00  0.00     0.325 C 
ATOM     84  H   UNL A   1      32.470  26.422  24.829  1.00  0.00     0.349 HD
ATOM     85  C   UNL A   1      33.737  29.048  24.274  1.00  0.00     0.325 C 
ATOM     86  C   UNL A   1      32.022  29.501  25.827  1.00  0.00     0.325 C 
ATOM     87  N   UNL A   1      33.461  29.570  25.627  1.00  0.00    -0.318 N 
ATOM     88  H   UNL A   1      33.810  30.528  25.643  1.00  0.00     0.348 HD
BRANCH  87  89
ATOM     89  C   UNL A   1      34.230  29.002  26.766  1.00  0.00     0.364 C 
BRANCH  89  90
ATOM     90  C   UNL A   1      35.302  29.868  27.451  1.00  0.00     0.277 C 
ATOM     91  O   UNL A   1      36.414  29.363  27.652  1.00  0.00    -0.268 OA
ATOM     92  N   UNL A   1      35.084  31.226  27.734  1.00  0.00    -0.333 N 
ATOM     93  C   UNL A   1      33.785  31.867  27.952  1.00  0.00     0.148 C 
ATOM     94  C   UNL A   1      36.196  31.922  28.384  1.00  0.00     0.148 C 
ATOM     95  C   UNL A   1      33.778  33.403  27.997  1.00  0.00     0.181 C 
ATOM     96  C   UNL A   1      36.102  33.441  28.246  1.00  0.00     0.181 C 
ATOM     97  O   UNL A   1      34.861  33.935  28.758  1.00  0.00    -0.378 OA
ENDBRANCH  89  90
ENDBRANCH  87  89
ENDBRANCH  80  81
BRANCH  80  98
ATOM     98  C   UNL A   1      29.596  26.847  23.607  1.00  0.00     0.046 A 
ATOM     99  C   UNL A   1      28.349  26.337  23.933  1.00  0.00     0.094 A 
ATOM    100  C   UNL A   1      29.336  28.127  22.975  1.00  0.00     0.009 A 
ATOM    101  N   UNL A   1      27.401  27.296  23.699  1.00  0.00    -0.361 N 
ATOM    102  C   UNL A   1      27.980  28.418  23.161  1.00  0.00     0.049 A 
ATOM    103  C   UNL A   1      30.127  29.111  22.340  1.00  0.00     0.014 A 
ATOM    104  H   UNL A   1      26.440  27.194  23.889  1.00  0.00     0.166 HD
ATOM    105  C   UNL A   1      27.407  29.658  22.836  1.00  0.00     0.065 A 
ATOM    106  C   UNL A   1      29.559  30.333  21.948  1.00  0.00     0.040 A 
ATOM    107  C   UNL A   1      28.227  30.602  22.227  1.00  0.00     0.125 A 
ATOM    108  F   UNL A   1      27.717  31.801  21.903  1.00  0.00    -0.207 F 
ENDBRANCH  80  98
ENDBRANCH  78  80
ENDBRANCH  77  78
ENDBRANCH  76  77
ENDBRANCH  75  76
ENDBRANCH  74  75
ENDBRANCH  73  74
ENDBRANCH   1  73
TORSDOF 24
ENDMDL
MODEL 3
REMARK VINA RESULT:     -10.2      3.940      5.814
REMARK SMILES O=C(OCCOCCOCCOC(=O)[C@H](c1c[nH]c2cc(F)ccc12)[NH+]1CC[NH+](CC(=O)N2CCOCC2)CC1)c1ccc(-c2c3nc(c(-c4cccc(S(=O)(=O)[O-])c4F)c4ccc([nH]4)c(-c4cccc(S(=O)(=O)[O-])c4F)c4nc(c(-c5cccc(S(=O)(=O)[O-])c5F)c5ccc2[nH]5)C=C4)C=C3)cc1
REMARK SMILES IDX 7 1 6 2 5 3 4 4 3 5 2 6 1 7 41 8 42 9 103 10 43 11 102 12
REMARK SMILES IDX 44 13 45 14 46 15 96 16 47 17 101 18 95 19 97 20 48 21
REMARK SMILES IDX 100 22 94 23 93 24 49 26 81 27 61 28 80 29 62 30 65 31 79 32
REMARK SMILES IDX 98 33 63 34 64 35 78 37 99 38 66 39 50 40 51 41 59 42 52 43
REMARK SMILES IDX 54 44 60 45 53 46 55 47 56 48 57 49 58 50 82 51 83 52 91 53
REMARK SMILES IDX 84 54 86 55 92 56 85 57 87 58 88 59 89 60 90 61 67 62 68 63
REMARK SMILES IDX 76 64 69 65 71 66 77 67 70 68 72 69 73 70 74 71 75 72 8 73
REMARK SMILES IDX 9 74 10 75 11 76 12 77 13 78 14 79 15 80 26 81 27 82 40 83
REMARK SMILES IDX 28 85 39 86 29 87 30 89 31 90 32 91 33 92 34 93 38 94 35 95
REMARK SMILES IDX 37 96 36 97 16 98 17 99 25 100 18 101 19 102 24 103 20 105
REMARK SMILES IDX 23 106 21 107 22 108
REMARK H PARENT 97 25 65 36 26 84 29 88 18 104
REMARK Flexibility Score: inf
ROOT
ATOM      1  C   UNL A   1      36.891  23.582  25.351  1.00  0.00     0.188 C 
ENDROOT
BRANCH   1   2
ATOM      2  O   UNL A   1      37.969  23.304  26.236  1.00  0.00    -0.376 OA
BRANCH   2   3
ATOM      3  C   UNL A   1      38.691  24.388  26.818  1.00  0.00     0.202 C 
BRANCH   3   4
ATOM      4  C   UNL A   1      40.212  24.468  26.644  1.00  0.00     0.261 C 
BRANCH   4   5
ATOM      5  O   UNL A   1      40.759  25.691  26.117  1.00  0.00    -0.460 OA
BRANCH   5   6
ATOM      6  C   UNL A   1      42.054  25.812  25.766  1.00  0.00     0.338 C 
ATOM      7  O   UNL A   1      42.673  25.109  24.977  1.00  0.00    -0.246 OA
BRANCH   6   8
ATOM      8  C   UNL A   1      42.479  27.137  26.235  1.00  0.00     0.060 A 
ATOM      9  C   UNL A   1      43.600  27.264  27.058  1.00  0.00     0.016 A 
ATOM     10  C   UNL A   1      41.696  28.247  25.930  1.00  0.00     0.016 A 
ATOM     11  C   UNL A   1      43.864  28.459  27.699  1.00  0.00     0.010 A 
ATOM     12  C   UNL A   1      42.000  29.472  26.520  1.00  0.00     0.010 A 
ATOM     13  C   UNL A   1      43.053  29.564  27.444  1.00  0.00    -0.014 A 
BRANCH  13  14
ATOM     14  C   UNL A   1      43.315  30.799  28.202  1.00  0.00     0.031 A 
ATOM     15  C   UNL A   1      42.650  30.999  29.522  1.00  0.00     0.074 A 
ATOM     16  C   UNL A   1      44.172  31.703  27.700  1.00  0.00     0.049 A 
ATOM     17  N   UNL A   1      42.763  32.007  30.337  1.00  0.00    -0.248 NA
ATOM     18  C   UNL A   1      41.704  29.960  29.966  1.00  0.00     0.031 C 
ATOM     19  C   UNL A   1      44.783  31.604  26.379  1.00  0.00     0.029 A 
ATOM     20  N   UNL A   1      44.692  32.859  28.220  1.00  0.00    -0.354 N 
ATOM     21  C   UNL A   1      41.801  31.801  31.313  1.00  0.00     0.074 A 
ATOM     22  C   UNL A   1      41.181  30.523  31.046  1.00  0.00     0.031 C 
ATOM     23  C   UNL A   1      45.638  32.623  26.217  1.00  0.00     0.029 A 
ATOM     24  C   UNL A   1      45.649  33.441  27.416  1.00  0.00     0.049 A 
ATOM     25  H   UNL A   1      44.410  33.238  29.084  1.00  0.00     0.167 HD
ATOM     26  C   UNL A   1      41.434  32.653  32.294  1.00  0.00     0.034 A 
ATOM     27  C   UNL A   1      46.453  34.500  27.637  1.00  0.00     0.034 A 
ATOM     28  C   UNL A   1      42.081  33.914  32.530  1.00  0.00     0.049 A 
ATOM     29  C   UNL A   1      46.175  35.304  28.874  1.00  0.00     0.074 A 
ATOM     30  C   UNL A   1      41.797  34.854  33.501  1.00  0.00     0.029 A 
ATOM     31  N   UNL A   1      43.129  34.417  31.772  1.00  0.00    -0.354 N 
ATOM     32  N   UNL A   1      45.312  35.061  29.832  1.00  0.00    -0.248 NA
ATOM     33  C   UNL A   1      46.923  36.556  29.035  1.00  0.00     0.031 C 
ATOM     34  C   UNL A   1      42.650  35.946  33.306  1.00  0.00     0.029 A 
ATOM     35  C   UNL A   1      43.495  35.664  32.243  1.00  0.00     0.049 A 
ATOM     36  H   UNL A   1      43.548  33.956  31.010  1.00  0.00     0.167 HD
ATOM     37  C   UNL A   1      45.362  36.162  30.670  1.00  0.00     0.074 A 
ATOM     38  C   UNL A   1      46.420  37.020  30.169  1.00  0.00     0.031 C 
ATOM     39  C   UNL A   1      44.556  36.479  31.712  1.00  0.00     0.034 A 
BRANCH  26  40
ATOM     40  C   UNL A   1      40.228  32.292  33.110  1.00  0.00     0.023 A 
ATOM     41  C   UNL A   1      40.359  31.643  34.351  1.00  0.00     0.012 A 
ATOM     42  C   UNL A   1      38.946  32.639  32.638  1.00  0.00     0.148 A 
ATOM     43  C   UNL A   1      39.228  31.325  35.102  1.00  0.00     0.002 A 
ATOM     44  C   UNL A   1      37.829  32.364  33.413  1.00  0.00     0.091 A 
ATOM     45  F   UNL A   1      38.847  33.227  31.436  1.00  0.00    -0.205 F 
ATOM     46  C   UNL A   1      37.966  31.697  34.640  1.00  0.00     0.022 A 
BRANCH  44  47
ATOM     47  S   UNL A   1      36.172  32.866  32.938  1.00  0.00     0.127 S 
ATOM     48  O   UNL A   1      35.699  31.682  32.221  1.00  0.00    -0.237 OA
ATOM     49  O   UNL A   1      35.541  33.086  34.239  1.00  0.00    -0.237 OA
ATOM     50  O   UNL A   1      36.328  34.060  32.118  1.00  0.00    -0.744 OA
ENDBRANCH  44  47
ENDBRANCH  26  40
BRANCH  27  51
ATOM     51  C   UNL A   1      47.578  34.847  26.713  1.00  0.00     0.023 A 
ATOM     52  C   UNL A   1      47.533  36.059  25.992  1.00  0.00     0.012 A 
ATOM     53  C   UNL A   1      48.714  34.030  26.566  1.00  0.00     0.148 A 
ATOM     54  C   UNL A   1      48.578  36.432  25.140  1.00  0.00     0.002 A 
ATOM     55  C   UNL A   1      49.793  34.453  25.796  1.00  0.00     0.091 A 
ATOM     56  F   UNL A   1      48.734  32.841  27.189  1.00  0.00    -0.205 F 
ATOM     57  C   UNL A   1      49.721  35.641  25.060  1.00  0.00     0.022 A 
BRANCH  55  58
ATOM     58  S   UNL A   1      51.357  33.568  25.848  1.00  0.00     0.127 S 
ATOM     59  O   UNL A   1      52.299  34.584  25.390  1.00  0.00    -0.237 OA
ATOM     60  O   UNL A   1      51.482  33.206  27.261  1.00  0.00    -0.237 OA
ATOM     61  O   UNL A   1      51.156  32.425  24.964  1.00  0.00    -0.744 OA
ENDBRANCH  55  58
ENDBRANCH  27  51
BRANCH  39  62
ATOM     62  C   UNL A   1      44.767  37.830  32.331  1.00  0.00     0.023 A 
ATOM     63  C   UNL A   1      45.629  37.955  33.440  1.00  0.00     0.012 A 
ATOM     64  C   UNL A   1      44.165  38.972  31.778  1.00  0.00     0.148 A 
ATOM     65  C   UNL A   1      45.861  39.202  34.012  1.00  0.00     0.002 A 
ATOM     66  C   UNL A   1      44.442  40.217  32.321  1.00  0.00     0.091 A 
ATOM     67  F   UNL A   1      43.339  38.816  30.734  1.00  0.00    -0.205 F 
ATOM     68  C   UNL A   1      45.277  40.334  33.446  1.00  0.00     0.022 A 
BRANCH  66  69
ATOM     69  S   UNL A   1      43.813  41.735  31.605  1.00  0.00     0.127 S 
ATOM     70  O   UNL A   1      44.692  42.735  32.210  1.00  0.00    -0.237 OA
ATOM     71  O   UNL A   1      44.029  41.514  30.176  1.00  0.00    -0.237 OA
ATOM     72  O   UNL A   1      42.413  41.821  32.002  1.00  0.00    -0.744 OA
ENDBRANCH  66  69
ENDBRANCH  39  62
ENDBRANCH  13  14
ENDBRANCH   6   8
ENDBRANCH   5   6
ENDBRANCH   4   5
ENDBRANCH   3   4
ENDBRANCH   2   3
ENDBRANCH   1   2
BRANCH   1  73
ATOM     73  C   UNL A   1      35.507  23.111  25.823  1.00  0.00     0.188 C 
BRANCH  73  74
ATOM     74  O   UNL A   1      34.440  23.208  24.886  1.00  0.00    -0.376 OA
BRANCH  74  75
ATOM     75  C   UNL A   1      33.121  23.167  25.421  1.00  0.00     0.202 C 
BRANCH  75  76
ATOM     76  C   UNL A   1      32.007  23.843  24.619  1.00  0.00     0.261 C 
BRANCH  76  77
ATOM     77  O   UNL A   1      32.456  24.520  23.435  1.00  0.00    -0.459 OA
BRANCH  77  78
ATOM     78  C   UNL A   1      31.641  25.516  22.970  1.00  0.00     0.370 C 
ATOM     79  O   UNL A   1      31.604  25.833  21.785  1.00  0.00    -0.245 OA
BRANCH  78  80
ATOM     80  C   UNL A   1      30.966  26.278  24.170  1.00  0.00     0.328 C 
BRANCH  80  81
ATOM     81  N   UNL A   1      31.958  27.229  24.706  1.00  0.00    -0.310 N 
ATOM     82  C   UNL A   1      33.197  27.588  24.031  1.00  0.00     0.325 C 
ATOM     83  C   UNL A   1      31.556  28.034  25.850  1.00  0.00     0.325 C 
ATOM     84  H   UNL A   1      32.489  26.388  24.933  1.00  0.00     0.349 HD
ATOM     85  C   UNL A   1      33.759  29.012  24.374  1.00  0.00     0.325 C 
ATOM     86  C   UNL A   1      32.040  29.470  25.921  1.00  0.00     0.325 C 
ATOM     87  N   UNL A   1      33.480  29.538  25.726  1.00  0.00    -0.318 N 
ATOM     88  H   UNL A   1      33.829  30.495  25.740  1.00  0.00     0.348 HD
BRANCH  87  89
ATOM     89  C   UNL A   1      34.245  28.972  26.868  1.00  0.00     0.364 C 
BRANCH  89  90
ATOM     90  C   UNL A   1      35.365  29.812  27.507  1.00  0.00     0.277 C 
ATOM     91  O   UNL A   1      36.479  29.290  27.639  1.00  0.00    -0.268 OA
ATOM     92  N   UNL A   1      35.181  31.168  27.824  1.00  0.00    -0.333 N 
ATOM     93  C   UNL A   1      33.905  31.822  28.123  1.00  0.00     0.148 C 
ATOM     94  C   UNL A   1      36.337  31.838  28.424  1.00  0.00     0.148 C 
ATOM     95  C   UNL A   1      33.922  33.357  28.193  1.00  0.00     0.181 C 
ATOM     96  C   UNL A   1      36.257  33.360  28.315  1.00  0.00     0.181 C 
ATOM     97  O   UNL A   1      35.052  33.862  28.903  1.00  0.00    -0.378 OA
ENDBRANCH  89  90
ENDBRANCH  87  89
ENDBRANCH  80  81
BRANCH  80  98
ATOM     98  C   UNL A   1      29.639  26.819  23.651  1.00  0.00     0.046 A 
ATOM     99  C   UNL A   1      28.376  26.329  23.945  1.00  0.00     0.094 A 
ATOM    100  C   UNL A   1      29.416  28.088  22.987  1.00  0.00     0.009 A 
ATOM    101  N   UNL A   1      27.448  27.293  23.661  1.00  0.00    -0.361 N 
ATOM    102  C   UNL A   1      28.058  28.399  23.121  1.00  0.00     0.049 A 
ATOM    103  C   UNL A   1      30.240  29.051  22.360  1.00  0.00     0.014 A 
ATOM    104  H   UNL A   1      26.480  27.206  23.819  1.00  0.00     0.166 HD
ATOM    105  C   UNL A   1      27.511  29.638  22.753  1.00  0.00     0.065 A 
ATOM    106  C   UNL A   1      29.700  30.272  21.926  1.00  0.00     0.040 A 
ATOM    107  C   UNL A   1      28.363  30.561  22.154  1.00  0.00     0.125 A 
ATOM    108  F   UNL A   1      27.878  31.759  21.791  1.00  0.00    -0.207 F 
ENDBRANCH  80  98
ENDBRANCH  78  80
ENDBRANCH  77  78
ENDBRANCH  76  77
ENDBRANCH  75  76
ENDBRANCH  74  75
ENDBRANCH  73  74
ENDBRANCH   1  73
TORSDOF 24
ENDMDL
