MODEL 1
REMARK VINA RESULT:      -9.5      0.000      0.000
REMARK SMILES COc1cnc(F)c(C(=O)OCCOCCOCCOC(=O)c2ccc(-c3c4nc(c(-c5cccc(S(=O)(=O)[O-])c5F)c5ccc([nH]5)c(-c5cccc(S(=O)(=O)[O-])c5F)c5nc(c(-c6cccc(S(=O)(=O)[O-])c6F)c6ccc3[nH]6)C=C5)C=C4)cc2)c1
REMARK SMILES IDX 16 1 15 2 14 3 13 4 12 5 11 6 9 7 10 8 8 9 3 10 4 11 86 12
REMARK SMILES IDX 5 13 6 14 7 15 2 16 1 17 17 18 18 19 19 20 20 21 21 22 22 23
REMARK SMILES IDX 23 24 24 25 85 26 25 27 84 28 26 29 27 30 28 31 78 32 29 33
REMARK SMILES IDX 83 34 77 35 79 36 30 37 82 38 76 39 75 40 31 42 63 43 43 44
REMARK SMILES IDX 62 45 44 46 47 47 61 48 80 49 45 50 46 51 60 53 81 54 48 55
REMARK SMILES IDX 32 56 33 57 41 58 34 59 36 60 42 61 35 62 37 63 38 64 39 65
REMARK SMILES IDX 40 66 64 67 65 68 73 69 66 70 68 71 74 72 67 73 69 74 70 75
REMARK SMILES IDX 71 76 72 77 49 78 50 79 58 80 51 81 53 82 59 83 52 84 54 85
REMARK SMILES IDX 55 86 56 87 57 88
REMARK H PARENT 79 41 47 52
REMARK Flexibility Score: inf
ROOT
ATOM      1  C   UNL A   1      35.683  21.405  24.972  1.00  0.00     0.188 C 
ENDROOT
BRANCH   1   2
ATOM      2  C   UNL A   1      34.361  20.627  25.118  1.00  0.00     0.188 C 
BRANCH   2   3
ATOM      3  O   UNL A   1      33.247  20.977  24.324  1.00  0.00    -0.376 OA
BRANCH   3   4
ATOM      4  C   UNL A   1      32.273  21.884  24.810  1.00  0.00     0.202 C 
BRANCH   4   5
ATOM      5  C   UNL A   1      32.341  23.397  24.554  1.00  0.00     0.261 C 
BRANCH   5   6
ATOM      6  O   UNL A   1      32.540  24.205  25.721  1.00  0.00    -0.460 OA
BRANCH   6   7
ATOM      7  C   UNL A   1      33.686  24.937  25.737  1.00  0.00     0.343 C 
ATOM      8  O   UNL A   1      34.820  24.519  25.791  1.00  0.00    -0.246 OA
BRANCH   7   9
ATOM      9  C   UNL A   1      33.383  26.351  25.481  1.00  0.00     0.118 A 
ATOM     10  C   UNL A   1      32.608  28.484  26.261  1.00  0.00     0.138 A 
ATOM     11  C   UNL A   1      32.784  28.955  24.966  1.00  0.00     0.160 A 
ATOM     12  C   UNL A   1      32.897  27.150  26.523  1.00  0.00     0.068 A 
ATOM     13  N   UNL A   1      33.264  28.206  23.943  1.00  0.00    -0.224 NA
ATOM     14  C   UNL A   1      33.552  26.911  24.226  1.00  0.00     0.227 A 
ATOM     15  F   UNL A   1      33.994  26.161  23.206  1.00  0.00    -0.184 F 
BRANCH  10  16
ATOM     16  O   UNL A   1      32.047  29.308  27.189  1.00  0.00    -0.495 OA
ATOM     17  C   UNL A   1      32.036  30.673  26.766  1.00  0.00     0.278 C 
ENDBRANCH  10  16
ENDBRANCH   7   9
ENDBRANCH   6   7
ENDBRANCH   5   6
ENDBRANCH   4   5
ENDBRANCH   3   4
ENDBRANCH   2   3
ENDBRANCH   1   2
BRANCH   1  18
ATOM     18  O   UNL A   1      36.853  20.942  25.606  1.00  0.00    -0.376 OA
BRANCH  18  19
ATOM     19  C   UNL A   1      37.770  20.114  24.913  1.00  0.00     0.202 C 
BRANCH  19  20
ATOM     20  C   UNL A   1      38.950  19.362  25.555  1.00  0.00     0.261 C 
BRANCH  20  21
ATOM     21  O   UNL A   1      40.180  20.071  25.713  1.00  0.00    -0.460 OA
BRANCH  21  22
ATOM     22  C   UNL A   1      40.625  20.180  26.990  1.00  0.00     0.338 C 
ATOM     23  O   UNL A   1      40.944  19.276  27.743  1.00  0.00    -0.246 OA
BRANCH  22  24
ATOM     24  C   UNL A   1      40.857  21.604  27.290  1.00  0.00     0.060 A 
ATOM     25  C   UNL A   1      40.314  22.566  26.427  1.00  0.00     0.016 A 
ATOM     26  C   UNL A   1      41.621  21.983  28.393  1.00  0.00     0.016 A 
ATOM     27  C   UNL A   1      40.541  23.920  26.665  1.00  0.00     0.010 A 
ATOM     28  C   UNL A   1      41.864  23.340  28.616  1.00  0.00     0.010 A 
ATOM     29  C   UNL A   1      41.342  24.312  27.743  1.00  0.00    -0.014 A 
BRANCH  29  30
ATOM     30  C   UNL A   1      41.758  25.727  27.875  1.00  0.00     0.031 A 
ATOM     31  C   UNL A   1      43.130  26.123  27.414  1.00  0.00     0.074 A 
ATOM     32  C   UNL A   1      40.938  26.641  28.422  1.00  0.00     0.049 A 
ATOM     33  N   UNL A   1      43.729  27.280  27.495  1.00  0.00    -0.248 NA
ATOM     34  C   UNL A   1      43.935  25.067  26.776  1.00  0.00     0.031 C 
ATOM     35  C   UNL A   1      39.583  26.379  28.900  1.00  0.00     0.029 A 
ATOM     36  N   UNL A   1      41.149  27.968  28.700  1.00  0.00    -0.354 N 
ATOM     37  C   UNL A   1      44.996  27.087  26.960  1.00  0.00     0.074 A 
ATOM     38  C   UNL A   1      45.076  25.701  26.554  1.00  0.00     0.031 C 
ATOM     39  C   UNL A   1      39.098  27.502  29.459  1.00  0.00     0.029 A 
ATOM     40  C   UNL A   1      40.121  28.546  29.406  1.00  0.00     0.049 A 
ATOM     41  H   UNL A   1      41.956  28.458  28.422  1.00  0.00     0.167 HD
ATOM     42  C   UNL A   1      46.000  27.983  26.817  1.00  0.00     0.034 A 
ATOM     43  C   UNL A   1      40.034  29.762  29.983  1.00  0.00     0.034 A 
ATOM     44  C   UNL A   1      45.918  29.360  27.221  1.00  0.00     0.049 A 
ATOM     45  C   UNL A   1      41.178  30.732  29.849  1.00  0.00     0.074 A 
ATOM     46  C   UNL A   1      46.856  30.363  27.055  1.00  0.00     0.029 A 
ATOM     47  N   UNL A   1      44.851  29.923  27.902  1.00  0.00    -0.354 N 
ATOM     48  N   UNL A   1      42.319  30.581  29.219  1.00  0.00    -0.248 NA
ATOM     49  C   UNL A   1      41.015  32.047  30.485  1.00  0.00     0.031 C 
ATOM     50  C   UNL A   1      46.374  31.520  27.677  1.00  0.00     0.029 A 
ATOM     51  C   UNL A   1      45.118  31.249  28.195  1.00  0.00     0.049 A 
ATOM     52  H   UNL A   1      44.022  29.448  28.144  1.00  0.00     0.167 HD
ATOM     53  C   UNL A   1      43.000  31.786  29.365  1.00  0.00     0.074 A 
ATOM     54  C   UNL A   1      42.132  32.665  30.122  1.00  0.00     0.031 C 
ATOM     55  C   UNL A   1      44.237  32.128  28.924  1.00  0.00     0.034 A 
BRANCH  42  56
ATOM     56  C   UNL A   1      47.284  27.486  26.204  1.00  0.00     0.023 A 
ATOM     57  C   UNL A   1      47.534  27.686  24.831  1.00  0.00     0.012 A 
ATOM     58  C   UNL A   1      48.249  26.835  26.995  1.00  0.00     0.148 A 
ATOM     59  C   UNL A   1      48.704  27.203  24.245  1.00  0.00     0.002 A 
ATOM     60  C   UNL A   1      49.434  26.399  26.414  1.00  0.00     0.091 A 
ATOM     61  F   UNL A   1      47.983  26.630  28.293  1.00  0.00    -0.205 F 
ATOM     62  C   UNL A   1      49.657  26.569  25.039  1.00  0.00     0.022 A 
BRANCH  60  63
ATOM     63  S   UNL A   1      50.753  25.642  27.369  1.00  0.00     0.127 S 
ATOM     64  O   UNL A   1      50.935  26.617  28.443  1.00  0.00    -0.237 OA
ATOM     65  O   UNL A   1      50.142  24.380  27.789  1.00  0.00    -0.237 OA
ATOM     66  O   UNL A   1      51.875  25.496  26.454  1.00  0.00    -0.744 OA
ENDBRANCH  60  63
ENDBRANCH  42  56
BRANCH  43  67
ATOM     67  C   UNL A   1      38.805  30.124  30.744  1.00  0.00     0.023 A 
ATOM     68  C   UNL A   1      38.673  29.726  32.088  1.00  0.00     0.012 A 
ATOM     69  C   UNL A   1      37.790  30.900  30.151  1.00  0.00     0.148 A 
ATOM     70  C   UNL A   1      37.543  30.084  32.824  1.00  0.00     0.002 A 
ATOM     71  C   UNL A   1      36.695  31.300  30.906  1.00  0.00     0.091 A 
ATOM     72  F   UNL A   1      37.933  31.253  28.866  1.00  0.00    -0.205 F 
ATOM     73  C   UNL A   1      36.562  30.880  32.238  1.00  0.00     0.022 A 
BRANCH  71  74
ATOM     74  S   UNL A   1      35.447  32.429  30.279  1.00  0.00     0.127 S 
ATOM     75  O   UNL A   1      35.045  31.772  29.037  1.00  0.00    -0.237 OA
ATOM     76  O   UNL A   1      34.450  32.392  31.347  1.00  0.00    -0.237 OA
ATOM     77  O   UNL A   1      36.118  33.712  30.119  1.00  0.00    -0.744 OA
ENDBRANCH  71  74
ENDBRANCH  43  67
BRANCH  55  78
ATOM     78  C   UNL A   1      44.736  33.517  29.235  1.00  0.00     0.023 A 
ATOM     79  C   UNL A   1      45.396  33.771  30.454  1.00  0.00     0.012 A 
ATOM     80  C   UNL A   1      44.625  34.553  28.284  1.00  0.00     0.148 A 
ATOM     81  C   UNL A   1      45.910  35.036  30.734  1.00  0.00     0.002 A 
ATOM     82  C   UNL A   1      45.183  35.798  28.550  1.00  0.00     0.091 A 
ATOM     83  F   UNL A   1      43.981  34.299  27.136  1.00  0.00    -0.205 F 
ATOM     84  C   UNL A   1      45.815  36.046  29.779  1.00  0.00     0.022 A 
BRANCH  82  85
ATOM     85  S   UNL A   1      45.195  37.130  27.344  1.00  0.00     0.127 S 
ATOM     86  O   UNL A   1      43.794  37.167  26.928  1.00  0.00    -0.237 OA
ATOM     87  O   UNL A   1      45.621  38.274  28.150  1.00  0.00    -0.237 OA
ATOM     88  O   UNL A   1      46.141  36.731  26.310  1.00  0.00    -0.744 OA
ENDBRANCH  82  85
ENDBRANCH  55  78
ENDBRANCH  29  30
ENDBRANCH  22  24
ENDBRANCH  21  22
ENDBRANCH  20  21
ENDBRANCH  19  20
ENDBRANCH  18  19
ENDBRANCH   1  18
TORSDOF 21
ENDMDL
MODEL 2
REMARK VINA RESULT:      -9.3      5.317     10.924
REMARK SMILES COc1cnc(F)c(C(=O)OCCOCCOCCOC(=O)c2ccc(-c3c4nc(c(-c5cccc(S(=O)(=O)[O-])c5F)c5ccc([nH]5)c(-c5cccc(S(=O)(=O)[O-])c5F)c5nc(c(-c6cccc(S(=O)(=O)[O-])c6F)c6ccc3[nH]6)C=C5)C=C4)cc2)c1
REMARK SMILES IDX 16 1 15 2 14 3 13 4 12 5 11 6 9 7 10 8 8 9 3 10 4 11 86 12
REMARK SMILES IDX 5 13 6 14 7 15 2 16 1 17 17 18 18 19 19 20 20 21 21 22 22 23
REMARK SMILES IDX 23 24 24 25 85 26 25 27 84 28 26 29 27 30 28 31 78 32 29 33
REMARK SMILES IDX 83 34 77 35 79 36 30 37 82 38 76 39 75 40 31 42 63 43 43 44
REMARK SMILES IDX 62 45 44 46 47 47 61 48 80 49 45 50 46 51 60 53 81 54 48 55
REMARK SMILES IDX 32 56 33 57 41 58 34 59 36 60 42 61 35 62 37 63 38 64 39 65
REMARK SMILES IDX 40 66 64 67 65 68 73 69 66 70 68 71 74 72 67 73 69 74 70 75
REMARK SMILES IDX 71 76 72 77 49 78 50 79 58 80 51 81 53 82 59 83 52 84 54 85
REMARK SMILES IDX 55 86 56 87 57 88
REMARK H PARENT 79 41 47 52
REMARK Flexibility Score: inf
ROOT
ATOM      1  C   UNL A   1      32.030  29.326  25.274  1.00  0.00     0.188 C 
ENDROOT
BRANCH   1   2
ATOM      2  C   UNL A   1      31.148  28.243  24.620  1.00  0.00     0.188 C 
BRANCH   2   3
ATOM      3  O   UNL A   1      31.745  27.223  23.848  1.00  0.00    -0.376 OA
BRANCH   3   4
ATOM      4  C   UNL A   1      32.617  26.281  24.448  1.00  0.00     0.202 C 
BRANCH   4   5
ATOM      5  C   UNL A   1      32.367  24.766  24.402  1.00  0.00     0.261 C 
BRANCH   5   6
ATOM      6  O   UNL A   1      33.542  23.951  24.491  1.00  0.00    -0.460 OA
BRANCH   6   7
ATOM      7  C   UNL A   1      33.728  23.081  23.462  1.00  0.00     0.343 C 
ATOM      8  O   UNL A   1      33.852  23.351  22.289  1.00  0.00    -0.246 OA
BRANCH   7   9
ATOM      9  C   UNL A   1      33.959  21.727  23.983  1.00  0.00     0.118 A 
ATOM     10  C   UNL A   1      33.139  19.530  24.494  1.00  0.00     0.138 A 
ATOM     11  C   UNL A   1      34.401  19.242  24.999  1.00  0.00     0.160 A 
ATOM     12  C   UNL A   1      32.906  20.805  23.990  1.00  0.00     0.068 A 
ATOM     13  N   UNL A   1      35.439  20.114  24.994  1.00  0.00    -0.224 NA
ATOM     14  C   UNL A   1      35.191  21.345  24.484  1.00  0.00     0.227 A 
ATOM     15  F   UNL A   1      36.209  22.219  24.511  1.00  0.00    -0.184 F 
BRANCH  10  16
ATOM     16  O   UNL A   1      32.152  18.600  24.622  1.00  0.00    -0.495 OA
ATOM     17  C   UNL A   1      32.622  17.388  25.211  1.00  0.00     0.278 C 
ENDBRANCH  10  16
ENDBRANCH   7   9
ENDBRANCH   6   7
ENDBRANCH   5   6
ENDBRANCH   4   5
ENDBRANCH   3   4
ENDBRANCH   2   3
ENDBRANCH   1   2
BRANCH   1  18
ATOM     18  O   UNL A   1      31.455  30.528  25.731  1.00  0.00    -0.376 OA
BRANCH  18  19
ATOM     19  C   UNL A   1      32.024  31.231  26.821  1.00  0.00     0.202 C 
BRANCH  19  20
ATOM     20  C   UNL A   1      31.951  32.754  27.031  1.00  0.00     0.261 C 
BRANCH  20  21
ATOM     21  O   UNL A   1      33.176  33.488  26.989  1.00  0.00    -0.460 OA
BRANCH  21  22
ATOM     22  C   UNL A   1      33.618  33.945  28.187  1.00  0.00     0.338 C 
ATOM     23  O   UNL A   1      33.099  34.791  28.895  1.00  0.00    -0.246 OA
BRANCH  22  24
ATOM     24  C   UNL A   1      34.756  33.115  28.619  1.00  0.00     0.060 A 
ATOM     25  C   UNL A   1      34.490  31.865  29.196  1.00  0.00     0.016 A 
ATOM     26  C   UNL A   1      36.066  33.573  28.480  1.00  0.00     0.016 A 
ATOM     27  C   UNL A   1      35.542  31.068  29.644  1.00  0.00     0.010 A 
ATOM     28  C   UNL A   1      37.116  32.782  28.949  1.00  0.00     0.010 A 
ATOM     29  C   UNL A   1      36.857  31.536  29.550  1.00  0.00    -0.014 A 
BRANCH  29  30
ATOM     30  C   UNL A   1      37.953  30.791  30.213  1.00  0.00     0.031 A 
ATOM     31  C   UNL A   1      38.295  31.123  31.636  1.00  0.00     0.074 A 
ATOM     32  C   UNL A   1      38.650  29.852  29.550  1.00  0.00     0.049 A 
ATOM     33  N   UNL A   1      39.253  30.654  32.388  1.00  0.00    -0.248 NA
ATOM     34  C   UNL A   1      37.440  32.123  32.297  1.00  0.00     0.031 C 
ATOM     35  C   UNL A   1      38.408  29.438  28.171  1.00  0.00     0.029 A 
ATOM     36  N   UNL A   1      39.732  29.107  29.947  1.00  0.00    -0.354 N 
ATOM     37  C   UNL A   1      39.147  31.328  33.597  1.00  0.00     0.074 A 
ATOM     38  C   UNL A   1      38.028  32.237  33.477  1.00  0.00     0.031 C 
ATOM     39  C   UNL A   1      39.348  28.544  27.817  1.00  0.00     0.029 A 
ATOM     40  C   UNL A   1      40.273  28.352  28.934  1.00  0.00     0.049 A 
ATOM     41  H   UNL A   1      40.087  29.113  30.865  1.00  0.00     0.167 HD
ATOM     42  C   UNL A   1      39.910  31.201  34.708  1.00  0.00     0.034 A 
ATOM     43  C   UNL A   1      41.409  27.626  28.897  1.00  0.00     0.034 A 
ATOM     44  C   UNL A   1      41.021  30.296  34.825  1.00  0.00     0.049 A 
ATOM     45  C   UNL A   1      42.269  27.529  30.130  1.00  0.00     0.074 A 
ATOM     46  C   UNL A   1      41.813  30.044  35.931  1.00  0.00     0.029 A 
ATOM     47  N   UNL A   1      41.523  29.521  33.791  1.00  0.00    -0.354 N 
ATOM     48  N   UNL A   1      42.081  28.065  31.313  1.00  0.00    -0.248 NA
ATOM     49  C   UNL A   1      43.485  26.709  30.032  1.00  0.00     0.031 C 
ATOM     50  C   UNL A   1      42.821  29.151  35.552  1.00  0.00     0.029 A 
ATOM     51  C   UNL A   1      42.633  28.815  34.221  1.00  0.00     0.049 A 
ATOM     52  H   UNL A   1      41.145  29.479  32.883  1.00  0.00     0.167 HD
ATOM     53  C   UNL A   1      43.141  27.631  32.103  1.00  0.00     0.074 A 
ATOM     54  C   UNL A   1      43.954  26.767  31.272  1.00  0.00     0.031 C 
ATOM     55  C   UNL A   1      43.422  27.933  33.397  1.00  0.00     0.034 A 
BRANCH  42  56
ATOM     56  C   UNL A   1      39.567  32.078  35.884  1.00  0.00     0.023 A 
ATOM     57  C   UNL A   1      40.198  33.329  36.040  1.00  0.00     0.012 A 
ATOM     58  C   UNL A   1      38.606  31.665  36.827  1.00  0.00     0.148 A 
ATOM     59  C   UNL A   1      39.912  34.135  37.141  1.00  0.00     0.002 A 
ATOM     60  C   UNL A   1      38.291  32.495  37.896  1.00  0.00     0.091 A 
ATOM     61  F   UNL A   1      38.036  30.460  36.677  1.00  0.00    -0.205 F 
ATOM     62  C   UNL A   1      38.952  33.723  38.062  1.00  0.00     0.022 A 
BRANCH  60  63
ATOM     63  S   UNL A   1      37.014  32.085  39.090  1.00  0.00     0.127 S 
ATOM     64  O   UNL A   1      35.838  32.715  38.491  1.00  0.00    -0.237 OA
ATOM     65  O   UNL A   1      37.011  30.622  39.045  1.00  0.00    -0.237 OA
ATOM     66  O   UNL A   1      37.455  32.651  40.356  1.00  0.00    -0.744 OA
ENDBRANCH  60  63
ENDBRANCH  42  56
BRANCH  43  67
ATOM     67  C   UNL A   1      41.795  26.934  27.635  1.00  0.00     0.023 A 
ATOM     68  C   UNL A   1      42.348  27.673  26.573  1.00  0.00     0.012 A 
ATOM     69  C   UNL A   1      41.656  25.538  27.506  1.00  0.00     0.148 A 
ATOM     70  C   UNL A   1      42.743  27.035  25.397  1.00  0.00     0.002 A 
ATOM     71  C   UNL A   1      42.103  24.903  26.355  1.00  0.00     0.091 A 
ATOM     72  F   UNL A   1      41.113  24.859  28.526  1.00  0.00    -0.205 F 
ATOM     73  C   UNL A   1      42.633  25.651  25.293  1.00  0.00     0.022 A 
BRANCH  71  74
ATOM     74  S   UNL A   1      42.121  23.115  26.181  1.00  0.00     0.127 S 
ATOM     75  O   UNL A   1      42.934  22.711  27.327  1.00  0.00    -0.237 OA
ATOM     76  O   UNL A   1      40.699  22.792  26.288  1.00  0.00    -0.237 OA
ATOM     77  O   UNL A   1      42.707  22.849  24.874  1.00  0.00    -0.744 OA
ENDBRANCH  71  74
ENDBRANCH  43  67
BRANCH  55  78
ATOM     78  C   UNL A   1      44.657  27.321  34.009  1.00  0.00     0.023 A 
ATOM     79  C   UNL A   1      45.854  28.062  34.069  1.00  0.00     0.012 A 
ATOM     80  C   UNL A   1      44.610  26.041  34.601  1.00  0.00     0.148 A 
ATOM     81  C   UNL A   1      46.989  27.531  34.680  1.00  0.00     0.002 A 
ATOM     82  C   UNL A   1      45.731  25.539  35.251  1.00  0.00     0.091 A 
ATOM     83  F   UNL A   1      43.468  25.343  34.522  1.00  0.00    -0.205 F 
ATOM     84  C   UNL A   1      46.925  26.276  35.281  1.00  0.00     0.022 A 
BRANCH  82  85
ATOM     85  S   UNL A   1      45.716  23.975  36.136  1.00  0.00     0.127 S 
ATOM     86  O   UNL A   1      44.496  24.096  36.933  1.00  0.00    -0.237 OA
ATOM     87  O   UNL A   1      45.639  23.002  35.046  1.00  0.00    -0.237 OA
ATOM     88  O   UNL A   1      46.956  23.931  36.900  1.00  0.00    -0.744 OA
ENDBRANCH  82  85
ENDBRANCH  55  78
ENDBRANCH  29  30
ENDBRANCH  22  24
ENDBRANCH  21  22
ENDBRANCH  20  21
ENDBRANCH  19  20
ENDBRANCH  18  19
ENDBRANCH   1  18
TORSDOF 21
ENDMDL
MODEL 3
REMARK VINA RESULT:      -9.1      4.540      9.703
REMARK SMILES COc1cnc(F)c(C(=O)OCCOCCOCCOC(=O)c2ccc(-c3c4nc(c(-c5cccc(S(=O)(=O)[O-])c5F)c5ccc([nH]5)c(-c5cccc(S(=O)(=O)[O-])c5F)c5nc(c(-c6cccc(S(=O)(=O)[O-])c6F)c6ccc3[nH]6)C=C5)C=C4)cc2)c1
REMARK SMILES IDX 16 1 15 2 14 3 13 4 12 5 11 6 9 7 10 8 8 9 3 10 4 11 86 12
REMARK SMILES IDX 5 13 6 14 7 15 2 16 1 17 17 18 18 19 19 20 20 21 21 22 22 23
REMARK SMILES IDX 23 24 24 25 85 26 25 27 84 28 26 29 27 30 28 31 78 32 29 33
REMARK SMILES IDX 83 34 77 35 79 36 30 37 82 38 76 39 75 40 31 42 63 43 43 44
REMARK SMILES IDX 62 45 44 46 47 47 61 48 80 49 45 50 46 51 60 53 81 54 48 55
REMARK SMILES IDX 32 56 33 57 41 58 34 59 36 60 42 61 35 62 37 63 38 64 39 65
REMARK SMILES IDX 40 66 64 67 65 68 73 69 66 70 68 71 74 72 67 73 69 74 70 75
REMARK SMILES IDX 71 76 72 77 49 78 50 79 58 80 51 81 53 82 59 83 52 84 54 85
REMARK SMILES IDX 55 86 56 87 57 88
REMARK H PARENT 79 41 47 52
REMARK Flexibility Score: inf
ROOT
ATOM      1  C   UNL A   1      31.050  28.367  24.825  1.00  0.00     0.188 C 
ENDROOT
BRANCH   1   2
ATOM      2  C   UNL A   1      30.638  27.626  23.537  1.00  0.00     0.188 C 
BRANCH   2   3
ATOM      3  O   UNL A   1      29.963  26.389  23.624  1.00  0.00    -0.376 OA
BRANCH   3   4
ATOM      4  C   UNL A   1      30.689  25.180  23.766  1.00  0.00     0.202 C 
BRANCH   4   5
ATOM      5  C   UNL A   1      31.062  24.588  25.132  1.00  0.00     0.261 C 
BRANCH   5   6
ATOM      6  O   UNL A   1      32.458  24.323  25.323  1.00  0.00    -0.460 OA
BRANCH   6   7
ATOM      7  C   UNL A   1      32.830  23.023  25.180  1.00  0.00     0.343 C 
ATOM      8  O   UNL A   1      32.150  22.042  25.377  1.00  0.00    -0.246 OA
BRANCH   7   9
ATOM      9  C   UNL A   1      34.154  22.945  24.551  1.00  0.00     0.118 A 
ATOM     10  C   UNL A   1      36.516  22.554  24.723  1.00  0.00     0.138 A 
ATOM     11  C   UNL A   1      36.604  22.857  23.370  1.00  0.00     0.160 A 
ATOM     12  C   UNL A   1      35.268  22.615  25.333  1.00  0.00     0.068 A 
ATOM     13  N   UNL A   1      35.541  23.168  22.590  1.00  0.00    -0.224 NA
ATOM     14  C   UNL A   1      34.333  23.207  23.204  1.00  0.00     0.227 A 
ATOM     15  F   UNL A   1      33.285  23.550  22.439  1.00  0.00    -0.184 F 
BRANCH  10  16
ATOM     16  O   UNL A   1      37.663  22.329  25.423  1.00  0.00    -0.495 OA
ATOM     17  C   UNL A   1      38.127  23.500  26.095  1.00  0.00     0.278 C 
ENDBRANCH  10  16
ENDBRANCH   7   9
ENDBRANCH   6   7
ENDBRANCH   5   6
ENDBRANCH   4   5
ENDBRANCH   3   4
ENDBRANCH   2   3
ENDBRANCH   1   2
BRANCH   1  18
ATOM     18  O   UNL A   1      32.371  28.829  24.985  1.00  0.00    -0.376 OA
BRANCH  18  19
ATOM     19  C   UNL A   1      33.028  28.718  26.236  1.00  0.00     0.202 C 
BRANCH  19  20
ATOM     20  C   UNL A   1      33.197  29.859  27.256  1.00  0.00     0.261 C 
BRANCH  20  21
ATOM     21  O   UNL A   1      34.303  30.746  27.081  1.00  0.00    -0.460 OA
BRANCH  21  22
ATOM     22  C   UNL A   1      34.840  31.234  28.227  1.00  0.00     0.338 C 
ATOM     23  O   UNL A   1      34.338  32.032  28.999  1.00  0.00    -0.246 OA
BRANCH  22  24
ATOM     24  C   UNL A   1      36.082  30.497  28.518  1.00  0.00     0.060 A 
ATOM     25  C   UNL A   1      36.160  29.761  29.709  1.00  0.00     0.016 A 
ATOM     26  C   UNL A   1      37.164  30.551  27.640  1.00  0.00     0.016 A 
ATOM     27  C   UNL A   1      37.332  29.079  30.028  1.00  0.00     0.010 A 
ATOM     28  C   UNL A   1      38.344  29.884  27.974  1.00  0.00     0.010 A 
ATOM     29  C   UNL A   1      38.440  29.162  29.178  1.00  0.00    -0.014 A 
BRANCH  29  30
ATOM     30  C   UNL A   1      39.746  28.617  29.614  1.00  0.00     0.031 A 
ATOM     31  C   UNL A   1      40.499  29.329  30.699  1.00  0.00     0.074 A 
ATOM     32  C   UNL A   1      40.266  27.521  29.036  1.00  0.00     0.049 A 
ATOM     33  N   UNL A   1      41.683  29.075  31.189  1.00  0.00    -0.248 NA
ATOM     34  C   UNL A   1      39.825  30.486  31.312  1.00  0.00     0.031 C 
ATOM     35  C   UNL A   1      39.628  26.740  27.979  1.00  0.00     0.029 A 
ATOM     36  N   UNL A   1      41.474  26.902  29.236  1.00  0.00    -0.354 N 
ATOM     37  C   UNL A   1      41.917  30.063  32.137  1.00  0.00     0.074 A 
ATOM     38  C   UNL A   1      40.750  30.917  32.155  1.00  0.00     0.031 C 
ATOM     39  C   UNL A   1      40.473  25.771  27.588  1.00  0.00     0.029 A 
ATOM     40  C   UNL A   1      41.720  25.886  28.343  1.00  0.00     0.049 A 
ATOM     41  H   UNL A   1      42.104  27.159  29.948  1.00  0.00     0.167 HD
ATOM     42  C   UNL A   1      43.005  30.241  32.923  1.00  0.00     0.034 A 
ATOM     43  C   UNL A   1      42.838  25.164  28.129  1.00  0.00     0.034 A 
ATOM     44  C   UNL A   1      44.163  29.390  32.904  1.00  0.00     0.049 A 
ATOM     45  C   UNL A   1      44.054  25.403  28.986  1.00  0.00     0.074 A 
ATOM     46  C   UNL A   1      45.286  29.446  33.710  1.00  0.00     0.029 A 
ATOM     47  N   UNL A   1      44.367  28.350  32.011  1.00  0.00    -0.354 N 
ATOM     48  N   UNL A   1      44.213  26.251  29.974  1.00  0.00    -0.248 NA
ATOM     49  C   UNL A   1      45.235  24.572  28.714  1.00  0.00     0.031 C 
ATOM     50  C   UNL A   1      46.187  28.469  33.273  1.00  0.00     0.029 A 
ATOM     51  C   UNL A   1      45.609  27.777  32.222  1.00  0.00     0.049 A 
ATOM     52  H   UNL A   1      43.721  28.060  31.325  1.00  0.00     0.167 HD
ATOM     53  C   UNL A   1      45.503  26.042  30.455  1.00  0.00     0.074 A 
ATOM     54  C   UNL A   1      46.071  24.969  29.665  1.00  0.00     0.031 C 
ATOM     55  C   UNL A   1      46.159  26.689  31.451  1.00  0.00     0.034 A 
BRANCH  42  56
ATOM     56  C   UNL A   1      42.989  31.416  33.866  1.00  0.00     0.023 A 
ATOM     57  C   UNL A   1      43.559  32.644  33.473  1.00  0.00     0.012 A 
ATOM     58  C   UNL A   1      42.393  31.305  35.137  1.00  0.00     0.148 A 
ATOM     59  C   UNL A   1      43.578  33.729  34.348  1.00  0.00     0.002 A 
ATOM     60  C   UNL A   1      42.373  32.405  35.985  1.00  0.00     0.091 A 
ATOM     61  F   UNL A   1      41.880  30.121  35.504  1.00  0.00    -0.205 F 
ATOM     62  C   UNL A   1      42.977  33.612  35.599  1.00  0.00     0.022 A 
BRANCH  60  63
ATOM     63  S   UNL A   1      41.555  32.373  37.584  1.00  0.00     0.127 S 
ATOM     64  O   UNL A   1      42.366  31.396  38.309  1.00  0.00    -0.237 OA
ATOM     65  O   UNL A   1      41.715  33.755  38.038  1.00  0.00    -0.237 OA
ATOM     66  O   UNL A   1      40.180  31.978  37.320  1.00  0.00    -0.744 OA
ENDBRANCH  60  63
ENDBRANCH  42  56
BRANCH  43  67
ATOM     67  C   UNL A   1      42.852  24.141  27.045  1.00  0.00     0.023 A 
ATOM     68  C   UNL A   1      43.538  24.403  25.845  1.00  0.00     0.012 A 
ATOM     69  C   UNL A   1      42.224  22.892  27.223  1.00  0.00     0.148 A 
ATOM     70  C   UNL A   1      43.587  23.444  24.833  1.00  0.00     0.002 A 
ATOM     71  C   UNL A   1      42.324  21.922  26.235  1.00  0.00     0.091 A 
ATOM     72  F   UNL A   1      41.564  22.673  28.369  1.00  0.00    -0.205 F 
ATOM     73  C   UNL A   1      42.992  22.200  25.033  1.00  0.00     0.022 A 
BRANCH  71  74
ATOM     74  S   UNL A   1      41.702  20.251  26.453  1.00  0.00     0.127 S 
ATOM     75  O   UNL A   1      42.284  19.881  27.741  1.00  0.00    -0.237 OA
ATOM     76  O   UNL A   1      40.257  20.472  26.469  1.00  0.00    -0.237 OA
ATOM     77  O   UNL A   1      42.187  19.494  25.306  1.00  0.00    -0.744 OA
ENDBRANCH  71  74
ENDBRANCH  43  67
BRANCH  55  78
ATOM     78  C   UNL A   1      47.570  26.256  31.761  1.00  0.00     0.023 A 
ATOM     79  C   UNL A   1      48.651  26.826  31.059  1.00  0.00     0.012 A 
ATOM     80  C   UNL A   1      47.832  25.345  32.805  1.00  0.00     0.148 A 
ATOM     81  C   UNL A   1      49.965  26.476  31.369  1.00  0.00     0.002 A 
ATOM     82  C   UNL A   1      49.146  25.038  33.141  1.00  0.00     0.091 A 
ATOM     83  F   UNL A   1      46.792  24.800  33.452  1.00  0.00    -0.205 F 
ATOM     84  C   UNL A   1      50.213  25.593  32.417  1.00  0.00     0.022 A 
BRANCH  82  85
ATOM     85  S   UNL A   1      49.566  23.986  34.536  1.00  0.00     0.127 S 
ATOM     86  O   UNL A   1      51.012  23.839  34.372  1.00  0.00    -0.237 OA
ATOM     87  O   UNL A   1      49.162  24.808  35.677  1.00  0.00    -0.237 OA
ATOM     88  O   UNL A   1      48.794  22.762  34.367  1.00  0.00    -0.744 OA
ENDBRANCH  82  85
ENDBRANCH  55  78
ENDBRANCH  29  30
ENDBRANCH  22  24
ENDBRANCH  21  22
ENDBRANCH  20  21
ENDBRANCH  19  20
ENDBRANCH  18  19
ENDBRANCH   1  18
TORSDOF 21
ENDMDL
