MODEL 1
REMARK VINA RESULT:     -10.9      0.000      0.000
REMARK SMILES CC(C)[C@H](C[C@H]1Cc2ccccc21)C(=O)OCCOCCOCCOC(=O)c1ccc(-c2c3nc(c(-c4cccc(S(=O)(=O)[O-])c4F)c4ccc([nH]4)c(-c4cccc(S(=O)(=O)[O-])c4F)c4nc(c(-c5cccc(S(=O)(=O)[O-])c5F)c5ccc2[nH]5)C=C4)C=C3)cc1
REMARK SMILES IDX 21 1 20 2 19 3 18 4 17 5 16 6 14 7 15 8 4 9 2 10 1 11 3 12
REMARK SMILES IDX 5 13 6 14 7 15 13 16 8 17 12 18 9 19 11 20 10 21 22 22 23 23
REMARK SMILES IDX 24 24 25 25 26 26 27 27 28 28 29 29 90 30 30 31 89 32 31 33
REMARK SMILES IDX 32 34 33 35 83 36 34 37 88 38 82 39 84 40 35 41 87 42 81 43
REMARK SMILES IDX 80 44 36 46 68 47 48 48 67 49 49 50 52 51 66 52 85 53 50 54
REMARK SMILES IDX 51 55 65 57 86 58 53 59 37 60 38 61 46 62 39 63 41 64 47 65
REMARK SMILES IDX 40 66 42 67 43 68 44 69 45 70 69 71 70 72 78 73 71 74 73 75
REMARK SMILES IDX 79 76 72 77 74 78 75 79 76 80 77 81 54 82 55 83 63 84 56 85
REMARK SMILES IDX 58 86 64 87 57 88 59 89 60 90 61 91 62 92
REMARK H PARENT 84 45 52 56
REMARK Flexibility Score: inf
ROOT
ATOM      1  C   UNL A   1      33.774  28.616  22.708  1.00  0.00     0.188 C 
ENDROOT
BRANCH   1   2
ATOM      2  C   UNL A   1      33.939  27.105  22.699  1.00  0.00     0.188 C 
BRANCH   2   3
ATOM      3  O   UNL A   1      33.583  26.397  21.519  1.00  0.00    -0.376 OA
BRANCH   3   4
ATOM      4  C   UNL A   1      32.340  25.713  21.440  1.00  0.00     0.202 C 
BRANCH   4   5
ATOM      5  C   UNL A   1      32.013  24.733  22.575  1.00  0.00     0.261 C 
BRANCH   5   6
ATOM      6  O   UNL A   1      32.577  23.397  22.478  1.00  0.00    -0.463 OA
BRANCH   6   7
ATOM      7  C   UNL A   1      33.828  23.251  22.998  1.00  0.00     0.309 C 
ATOM      8  O   UNL A   1      34.857  23.498  22.378  1.00  0.00    -0.252 OA
BRANCH   7   9
ATOM      9  C   UNL A   1      33.879  22.593  24.384  1.00  0.00     0.102 C 
BRANCH   9  10
ATOM     10  C   UNL A   1      34.132  23.753  25.395  1.00  0.00    -0.003 C 
ATOM     11  C   UNL A   1      33.466  23.498  26.748  1.00  0.00     0.008 C 
ATOM     12  C   UNL A   1      35.617  24.076  25.594  1.00  0.00     0.008 C 
ENDBRANCH   9  10
BRANCH   9  13
ATOM     13  C   UNL A   1      34.782  21.357  24.631  1.00  0.00     0.024 C 
BRANCH  13  14
ATOM     14  C   UNL A   1      34.084  20.186  25.307  1.00  0.00     0.025 C 
ATOM     15  C   UNL A   1      32.521  20.039  25.185  1.00  0.00     0.044 C 
ATOM     16  C   UNL A   1      34.134  18.803  24.696  1.00  0.00    -0.041 A 
ATOM     17  C   UNL A   1      32.796  18.583  24.939  1.00  0.00    -0.044 A 
ATOM     18  C   UNL A   1      34.953  17.793  24.247  1.00  0.00     0.004 A 
ATOM     19  C   UNL A   1      32.222  17.334  24.869  1.00  0.00     0.004 A 
ATOM     20  C   UNL A   1      34.387  16.516  24.116  1.00  0.00     0.000 A 
ATOM     21  C   UNL A   1      33.043  16.281  24.467  1.00  0.00     0.000 A 
ENDBRANCH  13  14
ENDBRANCH   9  13
ENDBRANCH   7   9
ENDBRANCH   6   7
ENDBRANCH   5   6
ENDBRANCH   4   5
ENDBRANCH   3   4
ENDBRANCH   2   3
ENDBRANCH   1   2
BRANCH   1  22
ATOM     22  O   UNL A   1      32.426  29.053  22.805  1.00  0.00    -0.376 OA
BRANCH  22  23
ATOM     23  C   UNL A   1      31.742  28.616  23.974  1.00  0.00     0.202 C 
BRANCH  23  24
ATOM     24  C   UNL A   1      31.712  29.744  25.009  1.00  0.00     0.261 C 
BRANCH  24  25
ATOM     25  O   UNL A   1      32.978  29.921  25.672  1.00  0.00    -0.460 OA
BRANCH  25  26
ATOM     26  C   UNL A   1      33.021  30.900  26.603  1.00  0.00     0.338 C 
ATOM     27  O   UNL A   1      32.139  31.715  26.850  1.00  0.00    -0.246 OA
BRANCH  26  28
ATOM     28  C   UNL A   1      34.230  30.698  27.417  1.00  0.00     0.060 A 
ATOM     29  C   UNL A   1      35.046  31.800  27.678  1.00  0.00     0.016 A 
ATOM     30  C   UNL A   1      34.559  29.447  27.928  1.00  0.00     0.016 A 
ATOM     31  C   UNL A   1      36.201  31.665  28.444  1.00  0.00     0.010 A 
ATOM     32  C   UNL A   1      35.724  29.309  28.692  1.00  0.00     0.010 A 
ATOM     33  C   UNL A   1      36.561  30.413  28.945  1.00  0.00    -0.014 A 
BRANCH  33  34
ATOM     34  C   UNL A   1      37.850  30.233  29.660  1.00  0.00     0.031 A 
ATOM     35  C   UNL A   1      38.907  29.362  29.045  1.00  0.00     0.074 A 
ATOM     36  C   UNL A   1      38.077  30.829  30.845  1.00  0.00     0.049 A 
ATOM     37  N   UNL A   1      39.995  28.878  29.581  1.00  0.00    -0.248 NA
ATOM     38  C   UNL A   1      38.709  28.988  27.635  1.00  0.00     0.031 C 
ATOM     39  C   UNL A   1      37.173  31.767  31.510  1.00  0.00     0.029 A 
ATOM     40  N   UNL A   1      39.133  30.704  31.716  1.00  0.00    -0.354 N 
ATOM     41  C   UNL A   1      40.577  28.084  28.601  1.00  0.00     0.074 A 
ATOM     42  C   UNL A   1      39.735  28.175  27.427  1.00  0.00     0.031 C 
ATOM     43  C   UNL A   1      37.695  32.107  32.700  1.00  0.00     0.029 A 
ATOM     44  C   UNL A   1      38.929  31.355  32.912  1.00  0.00     0.049 A 
ATOM     45  H   UNL A   1      39.951  30.200  31.507  1.00  0.00     0.167 HD
ATOM     46  C   UNL A   1      41.707  27.344  28.679  1.00  0.00     0.034 A 
ATOM     47  C   UNL A   1      39.619  31.297  34.069  1.00  0.00     0.034 A 
ATOM     48  C   UNL A   1      42.562  27.296  29.834  1.00  0.00     0.049 A 
ATOM     49  C   UNL A   1      40.835  30.412  34.155  1.00  0.00     0.074 A 
ATOM     50  C   UNL A   1      43.744  26.599  30.001  1.00  0.00     0.029 A 
ATOM     51  N   UNL A   1      42.324  27.970  31.021  1.00  0.00    -0.354 N 
ATOM     52  N   UNL A   1      41.396  29.687  33.218  1.00  0.00    -0.248 NA
ATOM     53  C   UNL A   1      41.512  30.338  35.458  1.00  0.00     0.031 C 
ATOM     54  C   UNL A   1      44.209  26.831  31.299  1.00  0.00     0.029 A 
ATOM     55  C   UNL A   1      43.326  27.691  31.934  1.00  0.00     0.049 A 
ATOM     56  H   UNL A   1      41.555  28.560  31.192  1.00  0.00     0.167 HD
ATOM     57  C   UNL A   1      42.498  29.081  33.813  1.00  0.00     0.074 A 
ATOM     58  C   UNL A   1      42.543  29.549  35.182  1.00  0.00     0.031 C 
ATOM     59  C   UNL A   1      43.379  28.197  33.282  1.00  0.00     0.034 A 
BRANCH  46  60
ATOM     60  C   UNL A   1      42.083  26.515  27.480  1.00  0.00     0.023 A 
ATOM     61  C   UNL A   1      42.764  27.106  26.399  1.00  0.00     0.012 A 
ATOM     62  C   UNL A   1      41.805  25.133  27.454  1.00  0.00     0.148 A 
ATOM     63  C   UNL A   1      43.143  26.339  25.297  1.00  0.00     0.002 A 
ATOM     64  C   UNL A   1      42.220  24.369  26.371  1.00  0.00     0.091 A 
ATOM     65  F   UNL A   1      41.131  24.597  28.481  1.00  0.00    -0.205 F 
ATOM     66  C   UNL A   1      42.880  24.971  25.289  1.00  0.00     0.022 A 
BRANCH  64  67
ATOM     67  S   UNL A   1      41.992  22.588  26.301  1.00  0.00     0.127 S 
ATOM     68  O   UNL A   1      42.639  22.258  25.033  1.00  0.00    -0.237 OA
ATOM     69  O   UNL A   1      42.715  22.138  27.492  1.00  0.00    -0.237 OA
ATOM     70  O   UNL A   1      40.554  22.366  26.346  1.00  0.00    -0.744 OA
ENDBRANCH  64  67
ENDBRANCH  46  60
BRANCH  47  71
ATOM     71  C   UNL A   1      39.153  32.074  35.254  1.00  0.00     0.023 A 
ATOM     72  C   UNL A   1      38.230  31.497  36.146  1.00  0.00     0.012 A 
ATOM     73  C   UNL A   1      39.639  33.371  35.512  1.00  0.00     0.148 A 
ATOM     74  C   UNL A   1      37.788  32.204  37.267  1.00  0.00     0.002 A 
ATOM     75  C   UNL A   1      39.241  34.045  36.662  1.00  0.00     0.091 A 
ATOM     76  F   UNL A   1      40.489  33.919  34.633  1.00  0.00    -0.205 F 
ATOM     77  C   UNL A   1      38.305  33.470  37.532  1.00  0.00     0.022 A 
BRANCH  75  78
ATOM     78  S   UNL A   1      39.958  35.620  37.146  1.00  0.00     0.127 S 
ATOM     79  O   UNL A   1      41.368  35.272  37.303  1.00  0.00    -0.237 OA
ATOM     80  O   UNL A   1      39.655  36.460  35.986  1.00  0.00    -0.237 OA
ATOM     81  O   UNL A   1      39.260  36.009  38.364  1.00  0.00    -0.744 OA
ENDBRANCH  75  78
ENDBRANCH  47  71
BRANCH  59  82
ATOM     82  C   UNL A   1      44.476  27.682  34.177  1.00  0.00     0.023 A 
ATOM     83  C   UNL A   1      45.662  28.430  34.319  1.00  0.00     0.012 A 
ATOM     84  C   UNL A   1      44.304  26.507  34.933  1.00  0.00     0.148 A 
ATOM     85  C   UNL A   1      46.671  27.999  35.178  1.00  0.00     0.002 A 
ATOM     86  C   UNL A   1      45.295  26.108  35.821  1.00  0.00     0.091 A 
ATOM     87  F   UNL A   1      43.174  25.802  34.771  1.00  0.00    -0.205 F 
ATOM     88  C   UNL A   1      46.484  26.846  35.937  1.00  0.00     0.022 A 
BRANCH  86  89
ATOM     89  S   UNL A   1      45.105  24.687  36.905  1.00  0.00     0.127 S 
ATOM     90  O   UNL A   1      44.669  23.654  35.967  1.00  0.00    -0.237 OA
ATOM     91  O   UNL A   1      46.463  24.508  37.423  1.00  0.00    -0.237 OA
ATOM     92  O   UNL A   1      44.123  25.075  37.908  1.00  0.00    -0.744 OA
ENDBRANCH  86  89
ENDBRANCH  59  82
ENDBRANCH  33  34
ENDBRANCH  26  28
ENDBRANCH  25  26
ENDBRANCH  24  25
ENDBRANCH  23  24
ENDBRANCH  22  23
ENDBRANCH   1  22
TORSDOF 23
ENDMDL
MODEL 2
REMARK VINA RESULT:      -9.8      5.128      8.639
REMARK SMILES CC(C)[C@H](C[C@H]1Cc2ccccc21)C(=O)OCCOCCOCCOC(=O)c1ccc(-c2c3nc(c(-c4cccc(S(=O)(=O)[O-])c4F)c4ccc([nH]4)c(-c4cccc(S(=O)(=O)[O-])c4F)c4nc(c(-c5cccc(S(=O)(=O)[O-])c5F)c5ccc2[nH]5)C=C4)C=C3)cc1
REMARK SMILES IDX 21 1 20 2 19 3 18 4 17 5 16 6 14 7 15 8 4 9 2 10 1 11 3 12
REMARK SMILES IDX 5 13 6 14 7 15 13 16 8 17 12 18 9 19 11 20 10 21 22 22 23 23
REMARK SMILES IDX 24 24 25 25 26 26 27 27 28 28 29 29 90 30 30 31 89 32 31 33
REMARK SMILES IDX 32 34 33 35 83 36 34 37 88 38 82 39 84 40 35 41 87 42 81 43
REMARK SMILES IDX 80 44 36 46 68 47 48 48 67 49 49 50 52 51 66 52 85 53 50 54
REMARK SMILES IDX 51 55 65 57 86 58 53 59 37 60 38 61 46 62 39 63 41 64 47 65
REMARK SMILES IDX 40 66 42 67 43 68 44 69 45 70 69 71 70 72 78 73 71 74 73 75
REMARK SMILES IDX 79 76 72 77 74 78 75 79 76 80 77 81 54 82 55 83 63 84 56 85
REMARK SMILES IDX 58 86 64 87 57 88 59 89 60 90 61 91 62 92
REMARK H PARENT 84 45 52 56
REMARK Flexibility Score: inf
ROOT
ATOM      1  C   UNL A   1      35.699  21.169  25.333  1.00  0.00     0.188 C 
ENDROOT
BRANCH   1   2
ATOM      2  C   UNL A   1      34.734  20.071  24.922  1.00  0.00     0.188 C 
BRANCH   2   3
ATOM      3  O   UNL A   1      33.342  20.363  24.919  1.00  0.00    -0.376 OA
BRANCH   3   4
ATOM      4  C   UNL A   1      32.551  20.076  23.775  1.00  0.00     0.202 C 
BRANCH   4   5
ATOM      5  C   UNL A   1      32.181  21.260  22.870  1.00  0.00     0.261 C 
BRANCH   5   6
ATOM      6  O   UNL A   1      32.515  22.590  23.353  1.00  0.00    -0.463 OA
BRANCH   6   7
ATOM      7  C   UNL A   1      31.464  23.327  23.808  1.00  0.00     0.309 C 
ATOM      8  O   UNL A   1      30.477  23.597  23.132  1.00  0.00    -0.252 OA
BRANCH   7   9
ATOM      9  C   UNL A   1      31.665  23.950  25.197  1.00  0.00     0.102 C 
BRANCH   9  10
ATOM     10  C   UNL A   1      31.378  22.807  26.219  1.00  0.00    -0.003 C 
ATOM     11  C   UNL A   1      32.490  22.669  27.260  1.00  0.00     0.008 C 
ATOM     12  C   UNL A   1      30.019  22.938  26.916  1.00  0.00     0.008 C 
ENDBRANCH   9  10
BRANCH   9  13
ATOM     13  C   UNL A   1      30.972  25.287  25.564  1.00  0.00     0.024 C 
BRANCH  13  14
ATOM     14  C   UNL A   1      31.831  26.246  26.374  1.00  0.00     0.025 C 
ATOM     15  C   UNL A   1      33.399  26.182  26.244  1.00  0.00     0.044 C 
ATOM     16  C   UNL A   1      31.982  27.691  25.951  1.00  0.00    -0.041 A 
ATOM     17  C   UNL A   1      33.338  27.681  26.197  1.00  0.00    -0.044 A 
ATOM     18  C   UNL A   1      31.318  28.858  25.652  1.00  0.00     0.004 A 
ATOM     19  C   UNL A   1      34.086  28.834  26.280  1.00  0.00     0.004 A 
ATOM     20  C   UNL A   1      32.064  30.047  25.680  1.00  0.00     0.000 A 
ATOM     21  C   UNL A   1      33.428  30.038  26.034  1.00  0.00     0.000 A 
ENDBRANCH  13  14
ENDBRANCH   9  13
ENDBRANCH   7   9
ENDBRANCH   6   7
ENDBRANCH   5   6
ENDBRANCH   4   5
ENDBRANCH   3   4
ENDBRANCH   2   3
ENDBRANCH   1   2
BRANCH   1  22
ATOM     22  O   UNL A   1      36.923  21.169  24.611  1.00  0.00    -0.376 OA
BRANCH  22  23
ATOM     23  C   UNL A   1      38.090  21.254  25.422  1.00  0.00     0.202 C 
BRANCH  23  24
ATOM     24  C   UNL A   1      38.851  19.926  25.375  1.00  0.00     0.261 C 
BRANCH  24  25
ATOM     25  O   UNL A   1      39.667  19.713  26.542  1.00  0.00    -0.460 OA
BRANCH  25  26
ATOM     26  C   UNL A   1      41.002  19.778  26.343  1.00  0.00     0.338 C 
ATOM     27  O   UNL A   1      41.727  18.879  25.930  1.00  0.00    -0.246 OA
BRANCH  26  28
ATOM     28  C   UNL A   1      41.418  21.180  26.513  1.00  0.00     0.060 A 
ATOM     29  C   UNL A   1      41.085  21.832  27.702  1.00  0.00     0.016 A 
ATOM     30  C   UNL A   1      42.132  21.849  25.525  1.00  0.00     0.016 A 
ATOM     31  C   UNL A   1      41.454  23.157  27.915  1.00  0.00     0.010 A 
ATOM     32  C   UNL A   1      42.498  23.185  25.736  1.00  0.00     0.010 A 
ATOM     33  C   UNL A   1      42.151  23.852  26.926  1.00  0.00    -0.014 A 
BRANCH  33  34
ATOM     34  C   UNL A   1      42.445  25.298  27.091  1.00  0.00     0.031 A 
ATOM     35  C   UNL A   1      43.774  25.827  26.636  1.00  0.00     0.074 A 
ATOM     36  C   UNL A   1      41.546  26.132  27.648  1.00  0.00     0.049 A 
ATOM     37  N   UNL A   1      44.335  26.980  26.885  1.00  0.00    -0.248 NA
ATOM     38  C   UNL A   1      44.577  24.935  25.783  1.00  0.00     0.031 C 
ATOM     39  C   UNL A   1      40.189  25.767  28.052  1.00  0.00     0.029 A 
ATOM     40  N   UNL A   1      41.657  27.456  27.997  1.00  0.00    -0.354 N 
ATOM     41  C   UNL A   1      45.586  26.928  26.283  1.00  0.00     0.074 A 
ATOM     42  C   UNL A   1      45.689  25.640  25.631  1.00  0.00     0.031 C 
ATOM     43  C   UNL A   1      39.603  26.831  28.626  1.00  0.00     0.029 A 
ATOM     44  C   UNL A   1      40.568  27.925  28.696  1.00  0.00     0.049 A 
ATOM     45  H   UNL A   1      42.436  28.013  27.770  1.00  0.00     0.167 HD
ATOM     46  C   UNL A   1      46.559  27.868  26.280  1.00  0.00     0.034 A 
ATOM     47  C   UNL A   1      40.394  29.077  29.375  1.00  0.00     0.034 A 
ATOM     48  C   UNL A   1      46.430  29.164  26.891  1.00  0.00     0.049 A 
ATOM     49  C   UNL A   1      41.516  30.081  29.418  1.00  0.00     0.074 A 
ATOM     50  C   UNL A   1      47.348  30.198  26.918  1.00  0.00     0.029 A 
ATOM     51  N   UNL A   1      45.313  29.602  27.585  1.00  0.00    -0.354 N 
ATOM     52  N   UNL A   1      42.684  30.039  28.824  1.00  0.00    -0.248 NA
ATOM     53  C   UNL A   1      41.297  31.290  30.225  1.00  0.00     0.031 C 
ATOM     54  C   UNL A   1      46.795  31.253  27.651  1.00  0.00     0.029 A 
ATOM     55  C   UNL A   1      45.524  30.884  28.063  1.00  0.00     0.049 A 
ATOM     56  H   UNL A   1      44.490  29.079  27.721  1.00  0.00     0.167 HD
ATOM     57  C   UNL A   1      43.333  31.219  29.174  1.00  0.00     0.074 A 
ATOM     58  C   UNL A   1      42.415  31.969  30.005  1.00  0.00     0.031 C 
ATOM     59  C   UNL A   1      44.585  31.634  28.856  1.00  0.00     0.034 A 
BRANCH  46  60
ATOM     60  C   UNL A   1      47.858  27.529  25.601  1.00  0.00     0.023 A 
ATOM     61  C   UNL A   1      48.935  27.020  26.352  1.00  0.00     0.012 A 
ATOM     62  C   UNL A   1      47.989  27.667  24.204  1.00  0.00     0.148 A 
ATOM     63  C   UNL A   1      50.132  26.675  25.727  1.00  0.00     0.002 A 
ATOM     64  C   UNL A   1      49.172  27.285  23.584  1.00  0.00     0.091 A 
ATOM     65  F   UNL A   1      46.962  28.180  23.513  1.00  0.00    -0.205 F 
ATOM     66  C   UNL A   1      50.247  26.797  24.343  1.00  0.00     0.022 A 
BRANCH  64  67
ATOM     67  S   UNL A   1      49.388  27.338  21.801  1.00  0.00     0.127 S 
ATOM     68  O   UNL A   1      48.553  26.218  21.370  1.00  0.00    -0.237 OA
ATOM     69  O   UNL A   1      48.857  28.660  21.465  1.00  0.00    -0.237 OA
ATOM     70  O   UNL A   1      50.816  27.180  21.565  1.00  0.00    -0.744 OA
ENDBRANCH  64  67
ENDBRANCH  46  60
BRANCH  47  71
ATOM     71  C   UNL A   1      39.117  29.327  30.103  1.00  0.00     0.023 A 
ATOM     72  C   UNL A   1      38.851  28.639  31.302  1.00  0.00     0.012 A 
ATOM     73  C   UNL A   1      38.175  30.261  29.625  1.00  0.00     0.148 A 
ATOM     74  C   UNL A   1      37.666  28.865  32.004  1.00  0.00     0.002 A 
ATOM     75  C   UNL A   1      37.025  30.525  30.361  1.00  0.00     0.091 A 
ATOM     76  F   UNL A   1      38.427  30.881  28.464  1.00  0.00    -0.205 F 
ATOM     77  C   UNL A   1      36.761  29.818  31.542  1.00  0.00     0.022 A 
BRANCH  75  78
ATOM     78  S   UNL A   1      35.876  31.830  29.906  1.00  0.00     0.127 S 
ATOM     79  O   UNL A   1      36.780  32.944  29.634  1.00  0.00    -0.237 OA
ATOM     80  O   UNL A   1      35.224  31.262  28.726  1.00  0.00    -0.237 OA
ATOM     81  O   UNL A   1      34.995  31.992  31.056  1.00  0.00    -0.744 OA
ENDBRANCH  75  78
ENDBRANCH  47  71
BRANCH  59  82
ATOM     82  C   UNL A   1      45.037  32.965  29.399  1.00  0.00     0.023 A 
ATOM     83  C   UNL A   1      45.754  33.010  30.611  1.00  0.00     0.012 A 
ATOM     84  C   UNL A   1      44.822  34.154  28.677  1.00  0.00     0.148 A 
ATOM     85  C   UNL A   1      46.225  34.223  31.110  1.00  0.00     0.002 A 
ATOM     86  C   UNL A   1      45.334  35.354  29.157  1.00  0.00     0.091 A 
ATOM     87  F   UNL A   1      44.124  34.090  27.533  1.00  0.00    -0.205 F 
ATOM     88  C   UNL A   1      46.026  35.392  30.378  1.00  0.00     0.022 A 
BRANCH  86  89
ATOM     89  S   UNL A   1      45.203  36.894  28.241  1.00  0.00     0.127 S 
ATOM     90  O   UNL A   1      43.754  37.058  28.140  1.00  0.00    -0.237 OA
ATOM     91  O   UNL A   1      45.864  37.845  29.137  1.00  0.00    -0.237 OA
ATOM     92  O   UNL A   1      45.897  36.672  26.979  1.00  0.00    -0.744 OA
ENDBRANCH  86  89
ENDBRANCH  59  82
ENDBRANCH  33  34
ENDBRANCH  26  28
ENDBRANCH  25  26
ENDBRANCH  24  25
ENDBRANCH  23  24
ENDBRANCH  22  23
ENDBRANCH   1  22
TORSDOF 23
ENDMDL
MODEL 3
REMARK VINA RESULT:      -9.7      2.499      8.713
REMARK SMILES CC(C)[C@H](C[C@H]1Cc2ccccc21)C(=O)OCCOCCOCCOC(=O)c1ccc(-c2c3nc(c(-c4cccc(S(=O)(=O)[O-])c4F)c4ccc([nH]4)c(-c4cccc(S(=O)(=O)[O-])c4F)c4nc(c(-c5cccc(S(=O)(=O)[O-])c5F)c5ccc2[nH]5)C=C4)C=C3)cc1
REMARK SMILES IDX 21 1 20 2 19 3 18 4 17 5 16 6 14 7 15 8 4 9 2 10 1 11 3 12
REMARK SMILES IDX 5 13 6 14 7 15 13 16 8 17 12 18 9 19 11 20 10 21 22 22 23 23
REMARK SMILES IDX 24 24 25 25 26 26 27 27 28 28 29 29 90 30 30 31 89 32 31 33
REMARK SMILES IDX 32 34 33 35 83 36 34 37 88 38 82 39 84 40 35 41 87 42 81 43
REMARK SMILES IDX 80 44 36 46 68 47 48 48 67 49 49 50 52 51 66 52 85 53 50 54
REMARK SMILES IDX 51 55 65 57 86 58 53 59 37 60 38 61 46 62 39 63 41 64 47 65
REMARK SMILES IDX 40 66 42 67 43 68 44 69 45 70 69 71 70 72 78 73 71 74 73 75
REMARK SMILES IDX 79 76 72 77 74 78 75 79 76 80 77 81 54 82 55 83 63 84 56 85
REMARK SMILES IDX 58 86 64 87 57 88 59 89 60 90 61 91 62 92
REMARK H PARENT 84 45 52 56
REMARK Flexibility Score: inf
ROOT
ATOM      1  C   UNL A   1      33.159  30.658  27.287  1.00  0.00     0.188 C 
ENDROOT
BRANCH   1   2
ATOM      2  C   UNL A   1      33.729  29.313  26.869  1.00  0.00     0.188 C 
BRANCH   2   3
ATOM      3  O   UNL A   1      33.638  28.940  25.500  1.00  0.00    -0.376 OA
BRANCH   3   4
ATOM      4  C   UNL A   1      33.582  27.569  25.131  1.00  0.00     0.202 C 
BRANCH   4   5
ATOM      5  C   UNL A   1      32.965  26.600  26.148  1.00  0.00     0.261 C 
BRANCH   5   6
ATOM      6  O   UNL A   1      31.530  26.381  26.066  1.00  0.00    -0.463 OA
BRANCH   6   7
ATOM      7  C   UNL A   1      31.138  25.077  26.032  1.00  0.00     0.309 C 
ATOM      8  O   UNL A   1      31.005  24.379  27.031  1.00  0.00    -0.252 OA
BRANCH   7   9
ATOM      9  C   UNL A   1      31.025  24.473  24.625  1.00  0.00     0.102 C 
BRANCH   9  10
ATOM     10  C   UNL A   1      32.482  24.114  24.199  1.00  0.00    -0.003 C 
ATOM     11  C   UNL A   1      32.921  22.749  24.729  1.00  0.00     0.008 C 
ATOM     12  C   UNL A   1      32.712  24.189  22.685  1.00  0.00     0.008 C 
ENDBRANCH   9  10
BRANCH   9  13
ATOM     13  C   UNL A   1      30.228  25.210  23.517  1.00  0.00     0.024 C 
BRANCH  13  14
ATOM     14  C   UNL A   1      30.319  26.728  23.573  1.00  0.00     0.025 C 
ATOM     15  C   UNL A   1      31.038  27.505  22.407  1.00  0.00     0.044 C 
ATOM     16  C   UNL A   1      29.119  27.584  23.233  1.00  0.00    -0.041 A 
ATOM     17  C   UNL A   1      29.882  28.459  22.489  1.00  0.00    -0.044 A 
ATOM     18  C   UNL A   1      27.802  27.855  23.525  1.00  0.00     0.004 A 
ATOM     19  C   UNL A   1      29.424  29.696  22.098  1.00  0.00     0.004 A 
ATOM     20  C   UNL A   1      27.289  29.089  23.097  1.00  0.00     0.000 A 
ATOM     21  C   UNL A   1      28.108  30.020  22.427  1.00  0.00     0.000 A 
ENDBRANCH  13  14
ENDBRANCH   9  13
ENDBRANCH   7   9
ENDBRANCH   6   7
ENDBRANCH   5   6
ENDBRANCH   4   5
ENDBRANCH   3   4
ENDBRANCH   2   3
ENDBRANCH   1   2
BRANCH   1  22
ATOM     22  O   UNL A   1      31.885  30.949  26.730  1.00  0.00    -0.376 OA
BRANCH  22  23
ATOM     23  C   UNL A   1      31.553  32.333  26.696  1.00  0.00     0.202 C 
BRANCH  23  24
ATOM     24  C   UNL A   1      32.751  33.163  27.167  1.00  0.00     0.261 C 
BRANCH  24  25
ATOM     25  O   UNL A   1      32.379  34.184  28.113  1.00  0.00    -0.460 OA
BRANCH  25  26
ATOM     26  C   UNL A   1      33.392  34.948  28.579  1.00  0.00     0.338 C 
ATOM     27  O   UNL A   1      33.392  36.168  28.702  1.00  0.00    -0.246 OA
BRANCH  26  28
ATOM     28  C   UNL A   1      34.430  34.050  29.110  1.00  0.00     0.060 A 
ATOM     29  C   UNL A   1      34.044  33.034  29.987  1.00  0.00     0.016 A 
ATOM     30  C   UNL A   1      35.765  34.192  28.749  1.00  0.00     0.016 A 
ATOM     31  C   UNL A   1      34.986  32.156  30.517  1.00  0.00     0.010 A 
ATOM     32  C   UNL A   1      36.714  33.313  29.287  1.00  0.00     0.010 A 
ATOM     33  C   UNL A   1      36.333  32.297  30.184  1.00  0.00    -0.014 A 
BRANCH  33  34
ATOM     34  C   UNL A   1      37.360  31.445  30.836  1.00  0.00     0.031 A 
ATOM     35  C   UNL A   1      37.722  31.708  32.269  1.00  0.00     0.074 A 
ATOM     36  C   UNL A   1      37.972  30.455  30.160  1.00  0.00     0.049 A 
ATOM     37  N   UNL A   1      38.732  31.259  32.964  1.00  0.00    -0.248 NA
ATOM     38  C   UNL A   1      36.819  32.597  33.020  1.00  0.00     0.031 C 
ATOM     39  C   UNL A   1      37.655  30.037  28.796  1.00  0.00     0.029 A 
ATOM     40  N   UNL A   1      39.015  29.639  30.528  1.00  0.00    -0.354 N 
ATOM     41  C   UNL A   1      38.631  31.864  34.210  1.00  0.00     0.074 A 
ATOM     42  C   UNL A   1      37.443  32.690  34.185  1.00  0.00     0.031 C 
ATOM     43  C   UNL A   1      38.508  29.067  28.426  1.00  0.00     0.029 A 
ATOM     44  C   UNL A   1      39.474  28.849  29.499  1.00  0.00     0.049 A 
ATOM     45  H   UNL A   1      39.396  29.622  31.435  1.00  0.00     0.167 HD
ATOM     46  C   UNL A   1      39.459  31.744  35.273  1.00  0.00     0.034 A 
ATOM     47  C   UNL A   1      40.586  28.091  29.406  1.00  0.00     0.034 A 
ATOM     48  C   UNL A   1      40.612  30.885  35.305  1.00  0.00     0.049 A 
ATOM     49  C   UNL A   1      41.530  28.026  30.578  1.00  0.00     0.074 A 
ATOM     50  C   UNL A   1      41.497  30.671  36.345  1.00  0.00     0.029 A 
ATOM     51  N   UNL A   1      41.041  30.100  34.246  1.00  0.00    -0.354 N 
ATOM     52  N   UNL A   1      41.416  28.576  31.762  1.00  0.00    -0.248 NA
ATOM     53  C   UNL A   1      42.757  27.235  30.400  1.00  0.00     0.031 C 
ATOM     54  C   UNL A   1      42.478  29.775  35.907  1.00  0.00     0.029 A 
ATOM     55  C   UNL A   1      42.190  29.414  34.600  1.00  0.00     0.049 A 
ATOM     56  H   UNL A   1      40.596  30.039  33.371  1.00  0.00     0.167 HD
ATOM     57  C   UNL A   1      42.547  28.189  32.474  1.00  0.00     0.074 A 
ATOM     58  C   UNL A   1      43.317  27.332  31.598  1.00  0.00     0.031 C 
ATOM     59  C   UNL A   1      42.926  28.532  33.730  1.00  0.00     0.034 A 
BRANCH  46  60
ATOM     60  C   UNL A   1      39.153  32.569  36.494  1.00  0.00     0.023 A 
ATOM     61  C   UNL A   1      39.698  33.860  36.628  1.00  0.00     0.012 A 
ATOM     62  C   UNL A   1      38.280  32.078  37.486  1.00  0.00     0.148 A 
ATOM     63  C   UNL A   1      39.397  34.643  37.741  1.00  0.00     0.002 A 
ATOM     64  C   UNL A   1      37.954  32.879  38.573  1.00  0.00     0.091 A 
ATOM     65  F   UNL A   1      37.796  30.835  37.353  1.00  0.00    -0.205 F 
ATOM     66  C   UNL A   1      38.518  34.157  38.707  1.00  0.00     0.022 A 
BRANCH  64  67
ATOM     67  S   UNL A   1      36.777  32.369  39.830  1.00  0.00     0.127 S 
ATOM     68  O   UNL A   1      36.942  33.421  40.832  1.00  0.00    -0.237 OA
ATOM     69  O   UNL A   1      35.508  32.415  39.101  1.00  0.00    -0.237 OA
ATOM     70  O   UNL A   1      37.188  31.036  40.248  1.00  0.00    -0.744 OA
ENDBRANCH  64  67
ENDBRANCH  46  60
BRANCH  47  71
ATOM     71  C   UNL A   1      40.885  27.360  28.141  1.00  0.00     0.023 A 
ATOM     72  C   UNL A   1      41.395  28.064  27.033  1.00  0.00     0.012 A 
ATOM     73  C   UNL A   1      40.690  25.968  28.038  1.00  0.00     0.148 A 
ATOM     74  C   UNL A   1      41.691  27.397  25.843  1.00  0.00     0.002 A 
ATOM     75  C   UNL A   1      41.044  25.301  26.870  1.00  0.00     0.091 A 
ATOM     76  F   UNL A   1      40.171  25.319  29.090  1.00  0.00    -0.205 F 
ATOM     77  C   UNL A   1      41.530  26.016  25.766  1.00  0.00     0.022 A 
BRANCH  75  78
ATOM     78  S   UNL A   1      40.994  23.510  26.736  1.00  0.00     0.127 S 
ATOM     79  O   UNL A   1      41.506  23.098  28.040  1.00  0.00    -0.237 OA
ATOM     80  O   UNL A   1      39.567  23.262  26.528  1.00  0.00    -0.237 OA
ATOM     81  O   UNL A   1      41.832  23.181  25.591  1.00  0.00    -0.744 OA
ENDBRANCH  75  78
ENDBRANCH  47  71
BRANCH  59  82
ATOM     82  C   UNL A   1      44.228  27.974  34.243  1.00  0.00     0.023 A 
ATOM     83  C   UNL A   1      45.408  28.732  34.105  1.00  0.00     0.012 A 
ATOM     84  C   UNL A   1      44.270  26.743  34.925  1.00  0.00     0.148 A 
ATOM     85  C   UNL A   1      46.616  28.258  34.614  1.00  0.00     0.002 A 
ATOM     86  C   UNL A   1      45.470  26.299  35.469  1.00  0.00     0.091 A 
ATOM     87  F   UNL A   1      43.139  26.031  35.031  1.00  0.00    -0.205 F 
ATOM     88  C   UNL A   1      46.645  27.049  35.305  1.00  0.00     0.022 A 
BRANCH  86  89
ATOM     89  S   UNL A   1      45.587  24.798  36.451  1.00  0.00     0.127 S 
ATOM     90  O   UNL A   1      46.308  23.905  35.545  1.00  0.00    -0.237 OA
ATOM     91  O   UNL A   1      46.360  25.246  37.610  1.00  0.00    -0.237 OA
ATOM     92  O   UNL A   1      44.216  24.408  36.753  1.00  0.00    -0.744 OA
ENDBRANCH  86  89
ENDBRANCH  59  82
ENDBRANCH  33  34
ENDBRANCH  26  28
ENDBRANCH  25  26
ENDBRANCH  24  25
ENDBRANCH  23  24
ENDBRANCH  22  23
ENDBRANCH   1  22
TORSDOF 23
ENDMDL
