MODEL 1
REMARK VINA RESULT:     -10.7      0.000      0.000
REMARK SMILES O=C(OCCOCCOCCOC(=O)[C@H]1Sc2[nH]c(=O)sc2[C@H]2c3cc(Br)cc(Br)c3OC(=O)[C@H]21)c1ccc(-c2c3nc(c(-c4cccc(S(=O)(=O)[O-])c4F)c4ccc([nH]4)c(-c4cccc(S(=O)(=O)[O-])c4F)c4nc(c(-c5cccc(S(=O)(=O)[O-])c5F)c5ccc2[nH]5)C=C4)C=C3)cc1
REMARK SMILES IDX 6 1 5 2 4 3 3 4 2 5 1 6 36 7 37 8 98 9 38 10 97 11 39 12
REMARK SMILES IDX 40 13 41 14 91 15 42 16 96 17 90 18 92 19 43 20 95 21 89 22
REMARK SMILES IDX 88 23 44 25 76 26 56 27 75 28 57 29 60 30 74 31 93 32 58 33
REMARK SMILES IDX 59 34 73 36 94 37 61 38 45 39 46 40 54 41 47 42 49 43 55 44
REMARK SMILES IDX 48 45 50 46 51 47 52 48 53 49 77 50 78 51 86 52 79 53 81 54
REMARK SMILES IDX 87 55 80 56 82 57 83 58 84 59 85 60 62 61 63 62 71 63 64 64
REMARK SMILES IDX 66 65 72 66 65 67 67 68 68 69 69 70 70 71 7 72 8 73 9 74
REMARK SMILES IDX 10 75 11 76 12 77 13 78 14 79 15 80 16 81 35 82 17 83 23 84
REMARK SMILES IDX 33 85 18 86 22 87 24 88 32 89 34 90 19 91 21 93 25 94 31 95
REMARK SMILES IDX 20 96 26 97 29 98 27 99 28 100 30 101
REMARK H PARENT 92 24 60 35 18 92
REMARK Flexibility Score: inf
ROOT
ATOM      1  O   UNL A   1      44.864  40.294  27.417  1.00  0.00    -0.376 OA
ENDROOT
BRANCH   1   2
ATOM      2  C   UNL A   1      44.329  40.776  28.635  1.00  0.00     0.202 C 
BRANCH   2   3
ATOM      3  C   UNL A   1      44.868  40.216  29.958  1.00  0.00     0.261 C 
BRANCH   3   4
ATOM      4  O   UNL A   1      45.816  39.140  29.882  1.00  0.00    -0.460 OA
BRANCH   4   5
ATOM      5  C   UNL A   1      45.891  37.918  30.440  1.00  0.00     0.338 C 
ATOM      6  O   UNL A   1      46.982  37.535  30.863  1.00  0.00    -0.246 OA
BRANCH   5   7
ATOM      7  C   UNL A   1      44.774  36.940  30.459  1.00  0.00     0.060 A 
ATOM      8  C   UNL A   1      44.179  36.412  31.603  1.00  0.00     0.016 A 
ATOM      9  C   UNL A   1      44.362  36.471  29.192  1.00  0.00     0.016 A 
ATOM     10  C   UNL A   1      43.320  35.329  31.491  1.00  0.00     0.010 A 
ATOM     11  C   UNL A   1      43.501  35.394  29.075  1.00  0.00     0.010 A 
ATOM     12  C   UNL A   1      43.050  34.780  30.234  1.00  0.00    -0.014 A 
BRANCH  12  13
ATOM     13  C   UNL A   1      42.242  33.573  30.180  1.00  0.00     0.031 A 
ATOM     14  C   UNL A   1      40.788  33.805  30.367  1.00  0.00     0.074 A 
ATOM     15  C   UNL A   1      42.765  32.360  29.909  1.00  0.00     0.049 A 
ATOM     16  N   UNL A   1      40.045  33.477  31.374  1.00  0.00    -0.248 NA
ATOM     17  C   UNL A   1      40.116  34.659  29.383  1.00  0.00     0.031 C 
ATOM     18  C   UNL A   1      44.110  32.038  29.424  1.00  0.00     0.029 A 
ATOM     19  N   UNL A   1      42.142  31.152  29.902  1.00  0.00    -0.354 N 
ATOM     20  C   UNL A   1      38.751  33.877  31.027  1.00  0.00     0.074 A 
ATOM     21  C   UNL A   1      38.897  34.771  29.912  1.00  0.00     0.031 C 
ATOM     22  C   UNL A   1      44.117  30.774  28.940  1.00  0.00     0.029 A 
ATOM     23  C   UNL A   1      42.833  30.157  29.215  1.00  0.00     0.049 A 
ATOM     24  H   UNL A   1      41.277  30.992  30.344  1.00  0.00     0.167 HD
ATOM     25  C   UNL A   1      37.657  33.234  31.521  1.00  0.00     0.034 A 
ATOM     26  C   UNL A   1      42.338  28.950  28.839  1.00  0.00     0.034 A 
ATOM     27  C   UNL A   1      37.991  32.478  32.703  1.00  0.00     0.049 A 
ATOM     28  C   UNL A   1      41.159  28.679  29.695  1.00  0.00     0.074 A 
ATOM     29  C   UNL A   1      38.527  32.784  33.938  1.00  0.00     0.029 A 
ATOM     30  N   UNL A   1      38.134  31.119  32.560  1.00  0.00    -0.354 N 
ATOM     31  N   UNL A   1      41.233  28.481  30.981  1.00  0.00    -0.248 NA
ATOM     32  C   UNL A   1      39.853  29.071  29.190  1.00  0.00     0.031 C 
ATOM     33  C   UNL A   1      39.402  31.697  34.230  1.00  0.00     0.029 A 
ATOM     34  C   UNL A   1      39.290  30.764  33.197  1.00  0.00     0.049 A 
ATOM     35  H   UNL A   1      37.518  30.513  32.087  1.00  0.00     0.167 HD
ATOM     36  C   UNL A   1      40.134  29.156  31.496  1.00  0.00     0.074 A 
ATOM     37  C   UNL A   1      39.272  29.415  30.342  1.00  0.00     0.031 C 
ATOM     38  C   UNL A   1      40.158  29.698  32.748  1.00  0.00     0.034 A 
BRANCH  25  39
ATOM     39  C   UNL A   1      36.382  32.956  30.741  1.00  0.00     0.023 A 
ATOM     40  C   UNL A   1      36.328  31.734  30.027  1.00  0.00     0.012 A 
ATOM     41  C   UNL A   1      35.385  33.910  30.433  1.00  0.00     0.148 A 
ATOM     42  C   UNL A   1      35.405  31.518  28.997  1.00  0.00     0.002 A 
ATOM     43  C   UNL A   1      34.424  33.663  29.458  1.00  0.00     0.091 A 
ATOM     44  F   UNL A   1      35.411  35.121  30.988  1.00  0.00    -0.205 F 
ATOM     45  C   UNL A   1      34.454  32.486  28.710  1.00  0.00     0.022 A 
BRANCH  43  46
ATOM     46  S   UNL A   1      33.129  34.852  29.075  1.00  0.00     0.127 S 
ATOM     47  O   UNL A   1      32.347  34.120  28.083  1.00  0.00    -0.237 OA
ATOM     48  O   UNL A   1      32.481  35.013  30.377  1.00  0.00    -0.237 OA
ATOM     49  O   UNL A   1      33.814  36.045  28.600  1.00  0.00    -0.744 OA
ENDBRANCH  43  46
ENDBRANCH  25  39
BRANCH  26  50
ATOM     50  C   UNL A   1      42.595  28.161  27.609  1.00  0.00     0.023 A 
ATOM     51  C   UNL A   1      41.991  28.554  26.394  1.00  0.00     0.012 A 
ATOM     52  C   UNL A   1      43.658  27.233  27.553  1.00  0.00     0.148 A 
ATOM     53  C   UNL A   1      42.461  28.071  25.166  1.00  0.00     0.002 A 
ATOM     54  C   UNL A   1      44.121  26.757  26.329  1.00  0.00     0.091 A 
ATOM     55  F   UNL A   1      44.275  26.891  28.690  1.00  0.00    -0.205 F 
ATOM     56  C   UNL A   1      43.532  27.185  25.132  1.00  0.00     0.022 A 
BRANCH  54  57
ATOM     57  S   UNL A   1      45.530  25.647  26.201  1.00  0.00     0.127 S 
ATOM     58  O   UNL A   1      46.607  26.462  26.766  1.00  0.00    -0.237 OA
ATOM     59  O   UNL A   1      45.109  24.527  27.038  1.00  0.00    -0.237 OA
ATOM     60  O   UNL A   1      45.680  25.354  24.782  1.00  0.00    -0.744 OA
ENDBRANCH  54  57
ENDBRANCH  26  50
BRANCH  38  61
ATOM     61  C   UNL A   1      41.324  29.381  33.653  1.00  0.00     0.023 A 
ATOM     62  C   UNL A   1      42.335  30.323  33.938  1.00  0.00     0.012 A 
ATOM     63  C   UNL A   1      41.264  28.199  34.410  1.00  0.00     0.148 A 
ATOM     64  C   UNL A   1      43.265  30.089  34.957  1.00  0.00     0.002 A 
ATOM     65  C   UNL A   1      42.151  27.998  35.460  1.00  0.00     0.091 A 
ATOM     66  F   UNL A   1      40.298  27.312  34.123  1.00  0.00    -0.205 F 
ATOM     67  C   UNL A   1      43.160  28.935  35.731  1.00  0.00     0.022 A 
BRANCH  65  68
ATOM     68  S   UNL A   1      41.960  26.620  36.594  1.00  0.00     0.127 S 
ATOM     69  O   UNL A   1      43.162  26.732  37.416  1.00  0.00    -0.237 OA
ATOM     70  O   UNL A   1      40.712  26.954  37.284  1.00  0.00    -0.237 OA
ATOM     71  O   UNL A   1      41.876  25.424  35.764  1.00  0.00    -0.744 OA
ENDBRANCH  65  68
ENDBRANCH  38  61
ENDBRANCH  12  13
ENDBRANCH   5   7
ENDBRANCH   4   5
ENDBRANCH   3   4
ENDBRANCH   2   3
ENDBRANCH   1   2
BRANCH   1  72
ATOM     72  C   UNL A   1      44.022  40.317  26.281  1.00  0.00     0.188 C 
BRANCH  72  73
ATOM     73  C   UNL A   1      43.732  41.735  25.726  1.00  0.00     0.188 C 
BRANCH  73  74
ATOM     74  O   UNL A   1      44.779  42.695  25.669  1.00  0.00    -0.376 OA
BRANCH  74  75
ATOM     75  C   UNL A   1      44.603  43.845  24.857  1.00  0.00     0.202 C 
BRANCH  75  76
ATOM     76  C   UNL A   1      45.829  44.490  24.183  1.00  0.00     0.261 C 
BRANCH  76  77
ATOM     77  O   UNL A   1      45.885  44.428  22.740  1.00  0.00    -0.462 OA
BRANCH  77  78
ATOM     78  C   UNL A   1      46.120  43.197  22.206  1.00  0.00     0.320 C 
ATOM     79  O   UNL A   1      46.843  42.346  22.718  1.00  0.00    -0.251 OA
BRANCH  78  80
ATOM     80  C   UNL A   1      45.329  42.920  20.917  1.00  0.00     0.178 C 
ATOM     81  S   UNL A   1      43.549  42.799  21.322  1.00  0.00    -0.091 SA
ATOM     82  C   UNL A   1      45.781  43.551  19.581  1.00  0.00     0.137 C 
ATOM     83  C   UNL A   1      42.777  43.573  20.035  1.00  0.00     0.091 A 
ATOM     84  C   UNL A   1      44.802  44.439  18.765  1.00  0.00     0.082 C 
ATOM     85  C   UNL A   1      47.180  44.157  19.628  1.00  0.00     0.317 C 
ATOM     86  N   UNL A   1      41.417  43.521  19.975  1.00  0.00    -0.307 N 
ATOM     87  C   UNL A   1      43.345  44.226  19.020  1.00  0.00     0.049 A 
ATOM     88  C   UNL A   1      45.298  45.875  18.722  1.00  0.00     0.007 A 
ATOM     89  O   UNL A   1      47.486  44.902  18.511  1.00  0.00    -0.425 OA
ATOM     90  O   UNL A   1      48.039  43.867  20.450  1.00  0.00    -0.251 OA
ATOM     91  C   UNL A   1      40.831  44.062  18.867  1.00  0.00     0.305 A 
ATOM     92  H   UNL A   1      40.884  43.114  20.695  1.00  0.00     0.171 HD
ATOM     93  S   UNL A   1      42.117  44.695  17.843  1.00  0.00    -0.078 S 
ATOM     94  C   UNL A   1      44.514  47.033  18.778  1.00  0.00     0.024 A 
ATOM     95  C   UNL A   1      46.675  46.030  18.507  1.00  0.00     0.148 A 
ATOM     96  O   UNL A   1      39.638  44.101  18.620  1.00  0.00    -0.257 OA
ATOM     97  C   UNL A   1      45.104  48.291  18.598  1.00  0.00     0.019 A 
ATOM     98  C   UNL A   1      47.258  47.280  18.284  1.00  0.00     0.062 A 
ATOM     99  Br  UNL A   1      44.034  49.847  18.719  1.00  0.00    -0.051 Br
ATOM    100  C   UNL A   1      46.467  48.421  18.333  1.00  0.00     0.035 A 
ATOM    101  Br  UNL A   1      49.111  47.458  17.936  1.00  0.00    -0.047 Br
ENDBRANCH  78  80
ENDBRANCH  77  78
ENDBRANCH  76  77
ENDBRANCH  75  76
ENDBRANCH  74  75
ENDBRANCH  73  74
ENDBRANCH  72  73
ENDBRANCH   1  72
TORSDOF 20
ENDMDL
MODEL 2
REMARK VINA RESULT:     -10.7      7.498     14.771
REMARK SMILES O=C(OCCOCCOCCOC(=O)[C@H]1Sc2[nH]c(=O)sc2[C@H]2c3cc(Br)cc(Br)c3OC(=O)[C@H]21)c1ccc(-c2c3nc(c(-c4cccc(S(=O)(=O)[O-])c4F)c4ccc([nH]4)c(-c4cccc(S(=O)(=O)[O-])c4F)c4nc(c(-c5cccc(S(=O)(=O)[O-])c5F)c5ccc2[nH]5)C=C4)C=C3)cc1
REMARK SMILES IDX 6 1 5 2 4 3 3 4 2 5 1 6 36 7 37 8 98 9 38 10 97 11 39 12
REMARK SMILES IDX 40 13 41 14 91 15 42 16 96 17 90 18 92 19 43 20 95 21 89 22
REMARK SMILES IDX 88 23 44 25 76 26 56 27 75 28 57 29 60 30 74 31 93 32 58 33
REMARK SMILES IDX 59 34 73 36 94 37 61 38 45 39 46 40 54 41 47 42 49 43 55 44
REMARK SMILES IDX 48 45 50 46 51 47 52 48 53 49 77 50 78 51 86 52 79 53 81 54
REMARK SMILES IDX 87 55 80 56 82 57 83 58 84 59 85 60 62 61 63 62 71 63 64 64
REMARK SMILES IDX 66 65 72 66 65 67 67 68 68 69 69 70 70 71 7 72 8 73 9 74
REMARK SMILES IDX 10 75 11 76 12 77 13 78 14 79 15 80 16 81 35 82 17 83 23 84
REMARK SMILES IDX 33 85 18 86 22 87 24 88 32 89 34 90 19 91 21 93 25 94 31 95
REMARK SMILES IDX 20 96 26 97 29 98 27 99 28 100 30 101
REMARK H PARENT 92 24 60 35 18 92
REMARK Flexibility Score: inf
ROOT
ATOM      1  O   UNL A   1      36.424  21.110  25.193  1.00  0.00    -0.376 OA
ENDROOT
BRANCH   1   2
ATOM      2  C   UNL A   1      37.823  21.043  24.987  1.00  0.00     0.202 C 
BRANCH   2   3
ATOM      3  C   UNL A   1      38.763  21.507  26.108  1.00  0.00     0.261 C 
BRANCH   3   4
ATOM      4  O   UNL A   1      40.012  22.098  25.720  1.00  0.00    -0.460 OA
BRANCH   4   5
ATOM      5  C   UNL A   1      40.969  22.777  26.377  1.00  0.00     0.338 C 
ATOM      6  O   UNL A   1      42.099  22.289  26.432  1.00  0.00    -0.246 OA
BRANCH   5   7
ATOM      7  C   UNL A   1      40.727  24.015  27.161  1.00  0.00     0.060 A 
ATOM      8  C   UNL A   1      39.663  24.896  26.977  1.00  0.00     0.016 A 
ATOM      9  C   UNL A   1      41.724  24.330  28.111  1.00  0.00     0.016 A 
ATOM     10  C   UNL A   1      39.684  26.135  27.600  1.00  0.00     0.010 A 
ATOM     11  C   UNL A   1      41.746  25.562  28.740  1.00  0.00     0.010 A 
ATOM     12  C   UNL A   1      40.764  26.487  28.415  1.00  0.00    -0.014 A 
BRANCH  12  13
ATOM     13  C   UNL A   1      40.799  27.839  28.947  1.00  0.00     0.031 A 
ATOM     14  C   UNL A   1      41.861  28.697  28.361  1.00  0.00     0.074 A 
ATOM     15  C   UNL A   1      39.898  28.291  29.842  1.00  0.00     0.049 A 
ATOM     16  N   UNL A   1      42.936  29.142  28.925  1.00  0.00    -0.248 NA
ATOM     17  C   UNL A   1      41.795  28.947  26.918  1.00  0.00     0.031 C 
ATOM     18  C   UNL A   1      38.650  27.657  30.274  1.00  0.00     0.029 A 
ATOM     19  N   UNL A   1      39.861  29.495  30.473  1.00  0.00    -0.354 N 
ATOM     20  C   UNL A   1      43.559  29.937  27.960  1.00  0.00     0.074 A 
ATOM     21  C   UNL A   1      42.935  29.606  26.708  1.00  0.00     0.031 C 
ATOM     22  C   UNL A   1      37.872  28.578  30.890  1.00  0.00     0.029 A 
ATOM     23  C   UNL A   1      38.623  29.813  31.024  1.00  0.00     0.049 A 
ATOM     24  H   UNL A   1      40.641  30.092  30.534  1.00  0.00     0.167 HD
ATOM     25  C   UNL A   1      44.354  30.985  28.313  1.00  0.00     0.034 A 
ATOM     26  C   UNL A   1      38.237  31.032  31.481  1.00  0.00     0.034 A 
ATOM     27  C   UNL A   1      44.795  30.862  29.681  1.00  0.00     0.049 A 
ATOM     28  C   UNL A   1      39.472  31.804  31.754  1.00  0.00     0.074 A 
ATOM     29  C   UNL A   1      45.503  29.918  30.397  1.00  0.00     0.029 A 
ATOM     30  N   UNL A   1      44.162  31.643  30.617  1.00  0.00    -0.354 N 
ATOM     31  N   UNL A   1      40.324  31.493  32.690  1.00  0.00    -0.248 NA
ATOM     32  C   UNL A   1      39.983  32.659  30.695  1.00  0.00     0.031 C 
ATOM     33  C   UNL A   1      44.858  29.869  31.666  1.00  0.00     0.029 A 
ATOM     34  C   UNL A   1      43.849  30.834  31.674  1.00  0.00     0.049 A 
ATOM     35  H   UNL A   1      43.970  32.606  30.541  1.00  0.00     0.167 HD
ATOM     36  C   UNL A   1      41.566  31.721  32.115  1.00  0.00     0.074 A 
ATOM     37  C   UNL A   1      41.292  32.528  30.925  1.00  0.00     0.031 C 
ATOM     38  C   UNL A   1      42.662  30.997  32.484  1.00  0.00     0.034 A 
BRANCH  25  39
ATOM     39  C   UNL A   1      44.423  32.314  27.579  1.00  0.00     0.023 A 
ATOM     40  C   UNL A   1      45.505  32.491  26.682  1.00  0.00     0.012 A 
ATOM     41  C   UNL A   1      43.690  33.476  27.918  1.00  0.00     0.148 A 
ATOM     42  C   UNL A   1      45.898  33.757  26.234  1.00  0.00     0.002 A 
ATOM     43  C   UNL A   1      44.040  34.725  27.413  1.00  0.00     0.091 A 
ATOM     44  F   UNL A   1      42.715  33.422  28.824  1.00  0.00    -0.205 F 
ATOM     45  C   UNL A   1      45.166  34.876  26.603  1.00  0.00     0.022 A 
BRANCH  43  46
ATOM     46  S   UNL A   1      43.100  36.207  27.806  1.00  0.00     0.127 S 
ATOM     47  O   UNL A   1      43.389  36.364  29.229  1.00  0.00    -0.237 OA
ATOM     48  O   UNL A   1      43.731  37.198  26.934  1.00  0.00    -0.237 OA
ATOM     49  O   UNL A   1      41.718  35.904  27.462  1.00  0.00    -0.744 OA
ENDBRANCH  43  46
ENDBRANCH  25  39
BRANCH  26  50
ATOM     50  C   UNL A   1      36.913  31.698  31.403  1.00  0.00     0.023 A 
ATOM     51  C   UNL A   1      36.238  32.042  32.593  1.00  0.00     0.012 A 
ATOM     52  C   UNL A   1      36.463  32.273  30.193  1.00  0.00     0.148 A 
ATOM     53  C   UNL A   1      35.179  32.960  32.584  1.00  0.00     0.002 A 
ATOM     54  C   UNL A   1      35.411  33.185  30.191  1.00  0.00     0.091 A 
ATOM     55  F   UNL A   1      37.126  31.999  29.064  1.00  0.00    -0.205 F 
ATOM     56  C   UNL A   1      34.775  33.541  31.387  1.00  0.00     0.022 A 
BRANCH  54  57
ATOM     57  S   UNL A   1      34.863  34.014  28.692  1.00  0.00     0.127 S 
ATOM     58  O   UNL A   1      35.482  35.332  28.833  1.00  0.00    -0.237 OA
ATOM     59  O   UNL A   1      35.448  33.173  27.651  1.00  0.00    -0.237 OA
ATOM     60  O   UNL A   1      33.407  34.025  28.751  1.00  0.00    -0.744 OA
ENDBRANCH  54  57
ENDBRANCH  26  50
BRANCH  38  61
ATOM     61  C   UNL A   1      42.556  30.079  33.678  1.00  0.00     0.023 A 
ATOM     62  C   UNL A   1      42.005  28.784  33.586  1.00  0.00     0.012 A 
ATOM     63  C   UNL A   1      43.241  30.443  34.849  1.00  0.00     0.148 A 
ATOM     64  C   UNL A   1      42.135  27.873  34.640  1.00  0.00     0.002 A 
ATOM     65  C   UNL A   1      43.420  29.518  35.868  1.00  0.00     0.091 A 
ATOM     66  F   UNL A   1      43.755  31.681  34.921  1.00  0.00    -0.205 F 
ATOM     67  C   UNL A   1      42.860  28.234  35.774  1.00  0.00     0.022 A 
BRANCH  65  68
ATOM     68  S   UNL A   1      44.484  29.866  37.271  1.00  0.00     0.127 S 
ATOM     69  O   UNL A   1      43.838  31.035  37.862  1.00  0.00    -0.237 OA
ATOM     70  O   UNL A   1      44.372  28.638  38.061  1.00  0.00    -0.237 OA
ATOM     71  O   UNL A   1      45.815  30.097  36.719  1.00  0.00    -0.744 OA
ENDBRANCH  65  68
ENDBRANCH  38  61
ENDBRANCH  12  13
ENDBRANCH   5   7
ENDBRANCH   4   5
ENDBRANCH   3   4
ENDBRANCH   2   3
ENDBRANCH   1   2
BRANCH   1  72
ATOM     72  C   UNL A   1      35.845  22.394  25.329  1.00  0.00     0.188 C 
BRANCH  72  73
ATOM     73  C   UNL A   1      34.675  22.465  26.343  1.00  0.00     0.188 C 
BRANCH  73  74
ATOM     74  O   UNL A   1      33.336  22.336  25.881  1.00  0.00    -0.376 OA
BRANCH  74  75
ATOM     75  C   UNL A   1      32.309  22.110  26.833  1.00  0.00     0.202 C 
BRANCH  75  76
ATOM     76  C   UNL A   1      31.080  23.040  26.856  1.00  0.00     0.261 C 
BRANCH  76  77
ATOM     77  O   UNL A   1      30.744  23.703  25.617  1.00  0.00    -0.462 OA
BRANCH  77  78
ATOM     78  C   UNL A   1      30.444  25.028  25.713  1.00  0.00     0.320 C 
ATOM     79  O   UNL A   1      30.099  25.588  26.751  1.00  0.00    -0.251 OA
BRANCH  78  80
ATOM     80  C   UNL A   1      30.647  25.806  24.402  1.00  0.00     0.178 C 
ATOM     81  S   UNL A   1      29.013  26.307  23.747  1.00  0.00    -0.091 SA
ATOM     82  C   UNL A   1      31.869  26.735  24.233  1.00  0.00     0.137 C 
ATOM     83  C   UNL A   1      29.269  27.863  23.140  1.00  0.00     0.091 A 
ATOM     84  C   UNL A   1      31.670  28.235  23.887  1.00  0.00     0.082 C 
ATOM     85  C   UNL A   1      32.940  26.544  25.304  1.00  0.00     0.317 C 
ATOM     86  N   UNL A   1      28.258  28.457  22.447  1.00  0.00    -0.307 N 
ATOM     87  C   UNL A   1      30.378  28.598  23.229  1.00  0.00     0.049 A 
ATOM     88  C   UNL A   1      32.135  29.112  25.038  1.00  0.00     0.007 A 
ATOM     89  O   UNL A   1      33.916  27.514  25.273  1.00  0.00    -0.425 OA
ATOM     90  O   UNL A   1      33.066  25.541  25.994  1.00  0.00    -0.251 OA
ATOM     91  C   UNL A   1      28.534  29.667  21.878  1.00  0.00     0.305 A 
ATOM     92  H   UNL A   1      27.373  28.035  22.361  1.00  0.00     0.171 HD
ATOM     93  S   UNL A   1      30.200  30.073  22.278  1.00  0.00    -0.078 S 
ATOM     94  C   UNL A   1      31.540  30.300  25.478  1.00  0.00     0.024 A 
ATOM     95  C   UNL A   1      33.338  28.722  25.645  1.00  0.00     0.148 A 
ATOM     96  O   UNL A   1      27.774  30.348  21.210  1.00  0.00    -0.257 OA
ATOM     97  C   UNL A   1      32.158  31.070  26.473  1.00  0.00     0.019 A 
ATOM     98  C   UNL A   1      33.977  29.510  26.605  1.00  0.00     0.062 A 
ATOM     99  Br  UNL A   1      31.317  32.651  27.083  1.00  0.00    -0.051 Br
ATOM    100  C   UNL A   1      33.381  30.692  27.026  1.00  0.00     0.035 A 
ATOM    101  Br  UNL A   1      35.632  28.990  27.366  1.00  0.00    -0.047 Br
ENDBRANCH  78  80
ENDBRANCH  77  78
ENDBRANCH  76  77
ENDBRANCH  75  76
ENDBRANCH  74  75
ENDBRANCH  73  74
ENDBRANCH  72  73
ENDBRANCH   1  72
TORSDOF 20
ENDMDL
MODEL 3
REMARK VINA RESULT:     -10.4     10.712     22.140
REMARK SMILES O=C(OCCOCCOCCOC(=O)[C@H]1Sc2[nH]c(=O)sc2[C@H]2c3cc(Br)cc(Br)c3OC(=O)[C@H]21)c1ccc(-c2c3nc(c(-c4cccc(S(=O)(=O)[O-])c4F)c4ccc([nH]4)c(-c4cccc(S(=O)(=O)[O-])c4F)c4nc(c(-c5cccc(S(=O)(=O)[O-])c5F)c5ccc2[nH]5)C=C4)C=C3)cc1
REMARK SMILES IDX 6 1 5 2 4 3 3 4 2 5 1 6 36 7 37 8 98 9 38 10 97 11 39 12
REMARK SMILES IDX 40 13 41 14 91 15 42 16 96 17 90 18 92 19 43 20 95 21 89 22
REMARK SMILES IDX 88 23 44 25 76 26 56 27 75 28 57 29 60 30 74 31 93 32 58 33
REMARK SMILES IDX 59 34 73 36 94 37 61 38 45 39 46 40 54 41 47 42 49 43 55 44
REMARK SMILES IDX 48 45 50 46 51 47 52 48 53 49 77 50 78 51 86 52 79 53 81 54
REMARK SMILES IDX 87 55 80 56 82 57 83 58 84 59 85 60 62 61 63 62 71 63 64 64
REMARK SMILES IDX 66 65 72 66 65 67 67 68 68 69 69 70 70 71 7 72 8 73 9 74
REMARK SMILES IDX 10 75 11 76 12 77 13 78 14 79 15 80 16 81 35 82 17 83 23 84
REMARK SMILES IDX 33 85 18 86 22 87 24 88 32 89 34 90 19 91 21 93 25 94 31 95
REMARK SMILES IDX 20 96 26 97 29 98 27 99 28 100 30 101
REMARK H PARENT 92 24 60 35 18 92
REMARK Flexibility Score: inf
ROOT
ATOM      1  O   UNL A   1      48.771  22.310  40.025  1.00  0.00    -0.376 OA
ENDROOT
BRANCH   1   2
ATOM      2  C   UNL A   1      48.803  23.083  38.840  1.00  0.00     0.202 C 
BRANCH   2   3
ATOM      3  C   UNL A   1      47.888  24.309  38.726  1.00  0.00     0.261 C 
BRANCH   3   4
ATOM      4  O   UNL A   1      47.238  24.534  37.465  1.00  0.00    -0.460 OA
BRANCH   4   5
ATOM      5  C   UNL A   1      46.994  25.627  36.721  1.00  0.00     0.338 C 
ATOM      6  O   UNL A   1      47.090  26.732  37.256  1.00  0.00    -0.246 OA
BRANCH   5   7
ATOM      7  C   UNL A   1      46.483  25.591  35.327  1.00  0.00     0.060 A 
ATOM      8  C   UNL A   1      47.085  26.199  34.227  1.00  0.00     0.016 A 
ATOM      9  C   UNL A   1      45.240  24.942  35.158  1.00  0.00     0.016 A 
ATOM     10  C   UNL A   1      46.386  26.302  33.033  1.00  0.00     0.010 A 
ATOM     11  C   UNL A   1      44.542  25.037  33.967  1.00  0.00     0.010 A 
ATOM     12  C   UNL A   1      45.090  25.789  32.938  1.00  0.00    -0.014 A 
BRANCH  12  13
ATOM     13  C   UNL A   1      44.354  26.028  31.708  1.00  0.00     0.031 A 
ATOM     14  C   UNL A   1      44.565  24.995  30.662  1.00  0.00     0.074 A 
ATOM     15  C   UNL A   1      43.498  27.059  31.562  1.00  0.00     0.049 A 
ATOM     16  N   UNL A   1      45.198  25.106  29.540  1.00  0.00    -0.248 NA
ATOM     17  C   UNL A   1      44.164  23.623  30.988  1.00  0.00     0.031 C 
ATOM     18  C   UNL A   1      42.982  27.965  32.592  1.00  0.00     0.029 A 
ATOM     19  N   UNL A   1      42.810  27.438  30.452  1.00  0.00    -0.354 N 
ATOM     20  C   UNL A   1      45.058  23.867  28.910  1.00  0.00     0.074 A 
ATOM     21  C   UNL A   1      44.610  22.954  29.924  1.00  0.00     0.031 C 
ATOM     22  C   UNL A   1      41.895  28.612  32.112  1.00  0.00     0.029 A 
ATOM     23  C   UNL A   1      41.730  28.279  30.709  1.00  0.00     0.049 A 
ATOM     24  H   UNL A   1      43.054  27.145  29.545  1.00  0.00     0.167 HD
ATOM     25  C   UNL A   1      45.074  23.759  27.553  1.00  0.00     0.034 A 
ATOM     26  C   UNL A   1      40.740  28.601  29.838  1.00  0.00     0.034 A 
ATOM     27  C   UNL A   1      45.676  24.921  26.947  1.00  0.00     0.049 A 
ATOM     28  C   UNL A   1      41.256  28.331  28.475  1.00  0.00     0.074 A 
ATOM     29  C   UNL A   1      46.906  25.542  27.039  1.00  0.00     0.029 A 
ATOM     30  N   UNL A   1      44.831  25.848  26.387  1.00  0.00    -0.354 N 
ATOM     31  N   UNL A   1      42.234  28.999  27.930  1.00  0.00    -0.248 NA
ATOM     32  C   UNL A   1      40.978  27.029  27.893  1.00  0.00     0.031 C 
ATOM     33  C   UNL A   1      46.609  26.936  27.010  1.00  0.00     0.029 A 
ATOM     34  C   UNL A   1      45.232  27.079  26.826  1.00  0.00     0.049 A 
ATOM     35  H   UNL A   1      44.077  25.660  25.783  1.00  0.00     0.167 HD
ATOM     36  C   UNL A   1      42.977  28.035  27.262  1.00  0.00     0.074 A 
ATOM     37  C   UNL A   1      42.104  26.862  27.193  1.00  0.00     0.031 C 
ATOM     38  C   UNL A   1      44.323  28.173  27.087  1.00  0.00     0.034 A 
BRANCH  25  39
ATOM     39  C   UNL A   1      44.206  22.810  26.743  1.00  0.00     0.023 A 
ATOM     40  C   UNL A   1      42.804  22.932  26.908  1.00  0.00     0.012 A 
ATOM     41  C   UNL A   1      44.662  21.648  26.076  1.00  0.00     0.148 A 
ATOM     42  C   UNL A   1      41.922  21.915  26.529  1.00  0.00     0.002 A 
ATOM     43  C   UNL A   1      43.775  20.671  25.635  1.00  0.00     0.091 A 
ATOM     44  F   UNL A   1      45.966  21.404  25.956  1.00  0.00    -0.205 F 
ATOM     45  C   UNL A   1      42.408  20.781  25.895  1.00  0.00     0.022 A 
BRANCH  43  46
ATOM     46  S   UNL A   1      44.334  19.205  24.756  1.00  0.00     0.127 S 
ATOM     47  O   UNL A   1      45.511  18.832  25.535  1.00  0.00    -0.237 OA
ATOM     48  O   UNL A   1      43.184  18.313  24.907  1.00  0.00    -0.237 OA
ATOM     49  O   UNL A   1      44.580  19.633  23.387  1.00  0.00    -0.744 OA
ENDBRANCH  43  46
ENDBRANCH  25  39
BRANCH  26  50
ATOM     50  C   UNL A   1      39.292  28.816  30.086  1.00  0.00     0.023 A 
ATOM     51  C   UNL A   1      38.686  28.224  31.215  1.00  0.00     0.012 A 
ATOM     52  C   UNL A   1      38.587  29.837  29.411  1.00  0.00     0.148 A 
ATOM     53  C   UNL A   1      37.441  28.665  31.681  1.00  0.00     0.002 A 
ATOM     54  C   UNL A   1      37.349  30.271  29.878  1.00  0.00     0.091 A 
ATOM     55  F   UNL A   1      39.170  30.444  28.370  1.00  0.00    -0.205 F 
ATOM     56  C   UNL A   1      36.779  29.696  31.021  1.00  0.00     0.022 A 
BRANCH  54  57
ATOM     57  S   UNL A   1      36.455  31.629  29.109  1.00  0.00     0.127 S 
ATOM     58  O   UNL A   1      37.536  32.567  28.805  1.00  0.00    -0.237 OA
ATOM     59  O   UNL A   1      35.865  30.978  27.942  1.00  0.00    -0.237 OA
ATOM     60  O   UNL A   1      35.511  32.105  30.112  1.00  0.00    -0.744 OA
ENDBRANCH  54  57
ENDBRANCH  26  50
BRANCH  38  61
ATOM     61  C   UNL A   1      44.970  29.487  27.450  1.00  0.00     0.023 A 
ATOM     62  C   UNL A   1      44.941  30.605  26.589  1.00  0.00     0.012 A 
ATOM     63  C   UNL A   1      45.400  29.663  28.775  1.00  0.00     0.148 A 
ATOM     64  C   UNL A   1      45.334  31.868  27.042  1.00  0.00     0.002 A 
ATOM     65  C   UNL A   1      45.731  30.930  29.239  1.00  0.00     0.091 A 
ATOM     66  F   UNL A   1      45.425  28.589  29.580  1.00  0.00    -0.205 F 
ATOM     67  C   UNL A   1      45.709  32.035  28.373  1.00  0.00     0.022 A 
BRANCH  65  68
ATOM     68  S   UNL A   1      46.057  31.234  30.977  1.00  0.00     0.127 S 
ATOM     69  O   UNL A   1      47.287  30.477  31.195  1.00  0.00    -0.237 OA
ATOM     70  O   UNL A   1      46.217  32.689  31.016  1.00  0.00    -0.237 OA
ATOM     71  O   UNL A   1      44.886  30.747  31.697  1.00  0.00    -0.744 OA
ENDBRANCH  65  68
ENDBRANCH  38  61
ENDBRANCH  12  13
ENDBRANCH   5   7
ENDBRANCH   4   5
ENDBRANCH   3   4
ENDBRANCH   2   3
ENDBRANCH   1   2
BRANCH   1  72
ATOM     72  C   UNL A   1      48.590  20.913  39.888  1.00  0.00     0.188 C 
BRANCH  72  73
ATOM     73  C   UNL A   1      49.884  20.079  40.065  1.00  0.00     0.188 C 
BRANCH  73  74
ATOM     74  O   UNL A   1      49.804  18.760  40.590  1.00  0.00    -0.376 OA
BRANCH  74  75
ATOM     75  C   UNL A   1      48.598  18.349  41.214  1.00  0.00     0.202 C 
BRANCH  75  76
ATOM     76  C   UNL A   1      47.509  17.656  40.374  1.00  0.00     0.261 C 
BRANCH  76  77
ATOM     77  O   UNL A   1      46.318  17.232  41.076  1.00  0.00    -0.462 OA
BRANCH  77  78
ATOM     78  C   UNL A   1      45.296  18.132  41.110  1.00  0.00     0.320 C 
ATOM     79  O   UNL A   1      45.394  19.307  40.765  1.00  0.00    -0.251 OA
BRANCH  78  80
ATOM     80  C   UNL A   1      43.954  17.528  41.557  1.00  0.00     0.178 C 
ATOM     81  S   UNL A   1      43.288  16.488  40.206  1.00  0.00    -0.091 SA
ATOM     82  C   UNL A   1      43.744  17.115  43.031  1.00  0.00     0.137 C 
ATOM     83  C   UNL A   1      42.620  15.155  40.999  1.00  0.00     0.091 A 
ATOM     84  C   UNL A   1      43.340  15.658  43.386  1.00  0.00     0.082 C 
ATOM     85  C   UNL A   1      44.815  17.646  43.978  1.00  0.00     0.317 C 
ATOM     86  N   UNL A   1      41.909  14.257  40.262  1.00  0.00    -0.307 N 
ATOM     87  C   UNL A   1      42.675  14.872  42.302  1.00  0.00     0.049 A 
ATOM     88  C   UNL A   1      44.453  14.972  44.159  1.00  0.00     0.007 A 
ATOM     89  O   UNL A   1      44.742  17.100  45.240  1.00  0.00    -0.425 OA
ATOM     90  O   UNL A   1      45.543  18.602  43.744  1.00  0.00    -0.251 OA
ATOM     91  C   UNL A   1      41.293  13.251  40.949  1.00  0.00     0.305 A 
ATOM     92  H   UNL A   1      41.844  14.330  39.282  1.00  0.00     0.171 HD
ATOM     93  S   UNL A   1      41.668  13.467  42.655  1.00  0.00    -0.078 S 
ATOM     94  C   UNL A   1      44.850  13.635  44.046  1.00  0.00     0.024 A 
ATOM     95  C   UNL A   1      45.069  15.752  45.149  1.00  0.00     0.148 A 
ATOM     96  O   UNL A   1      40.602  12.364  40.477  1.00  0.00    -0.257 OA
ATOM     97  C   UNL A   1      45.812  13.109  44.921  1.00  0.00     0.019 A 
ATOM     98  C   UNL A   1      45.995  15.220  46.049  1.00  0.00     0.062 A 
ATOM     99  Br  UNL A   1      46.364  11.311  44.725  1.00  0.00    -0.051 Br
ATOM    100  C   UNL A   1      46.372  13.888  45.932  1.00  0.00     0.035 A 
ATOM    101  Br  UNL A   1      46.767  16.280  47.415  1.00  0.00    -0.047 Br
ENDBRANCH  78  80
ENDBRANCH  77  78
ENDBRANCH  76  77
ENDBRANCH  75  76
ENDBRANCH  74  75
ENDBRANCH  73  74
ENDBRANCH  72  73
ENDBRANCH   1  72
TORSDOF 20
ENDMDL
