MODEL 1
REMARK VINA RESULT:      -8.5      0.000      0.000
REMARK SMILES CCCC[C@@H](Sc1nc(OCCC2CCCCC2)cc(OCCC2CCCCC2)n1)C(=O)OCCOCCOCCOC(=O)c1ccc(-c2c3nc(c(-c4cccc(S(=O)(=O)[O-])c4F)c4ccc([nH]4)c(-c4cccc(S(=O)(=O)[O-])c4F)c4nc(c(-c5cccc(S(=O)(=O)[O-])c5F)c5ccc2[nH]5)C=C4)C=C3)cc1
REMARK SMILES IDX 36 1 35 2 34 3 33 4 31 5 32 6 5 7 4 8 3 9 2 10 1 11 6 12
REMARK SMILES IDX 7 13 8 14 30 15 9 16 20 17 19 18 10 19 11 20 12 21 13 22
REMARK SMILES IDX 14 23 18 24 15 25 17 26 16 27 21 28 22 29 23 30 24 31 25 32
REMARK SMILES IDX 29 33 26 34 28 35 27 36 37 37 38 38 39 39 40 40 41 41 42 42
REMARK SMILES IDX 43 43 44 44 45 45 46 46 107 47 47 48 106 49 48 50 49 51
REMARK SMILES IDX 50 52 100 53 51 54 105 55 99 56 101 57 52 58 104 59 98 60
REMARK SMILES IDX 97 61 53 63 85 64 65 65 84 66 66 67 69 68 83 69 102 70 67 71
REMARK SMILES IDX 68 72 82 74 103 75 70 76 54 77 55 78 63 79 56 80 58 81 64 82
REMARK SMILES IDX 57 83 59 84 60 85 61 86 62 87 86 88 87 89 95 90 88 91 90 92
REMARK SMILES IDX 96 93 89 94 91 95 92 96 93 97 94 98 71 99 72 100 80 101
REMARK SMILES IDX 73 102 75 103 81 104 74 105 76 106 77 107 78 108 79 109
REMARK H PARENT 101 62 69 73
REMARK Flexibility Score: inf
ROOT
ATOM      1  O   UNL A   1      31.774  24.910  26.588  1.00  0.00    -0.376 OA
ENDROOT
BRANCH   1   2
ATOM      2  C   UNL A   1      31.049  23.702  26.782  1.00  0.00     0.202 C 
BRANCH   2   3
ATOM      3  C   UNL A   1      31.702  22.379  26.358  1.00  0.00     0.261 C 
BRANCH   3   4
ATOM      4  O   UNL A   1      31.264  21.834  25.097  1.00  0.00    -0.462 OA
BRANCH   4   5
ATOM      5  C   UNL A   1      32.195  21.084  24.449  1.00  0.00     0.319 C 
ATOM      6  O   UNL A   1      32.233  20.947  23.228  1.00  0.00    -0.251 OA
BRANCH   5   7
ATOM      7  C   UNL A   1      33.175  20.355  25.369  1.00  0.00     0.164 C 
BRANCH   7   8
ATOM      8  C   UNL A   1      32.860  18.869  25.685  1.00  0.00     0.027 C 
BRANCH   8   9
ATOM      9  C   UNL A   1      33.394  17.784  24.716  1.00  0.00     0.001 C 
BRANCH   9  10
ATOM     10  C   UNL A   1      33.751  16.421  25.330  1.00  0.00    -0.003 C 
ATOM     11  C   UNL A   1      32.604  15.430  25.308  1.00  0.00     0.004 C 
ENDBRANCH   9  10
ENDBRANCH   8   9
ENDBRANCH   7   8
BRANCH   7  12
ATOM     12  S   UNL A   1      34.758  20.639  24.483  1.00  0.00    -0.071 SA
BRANCH  12  13
ATOM     13  C   UNL A   1      35.200  22.204  25.109  1.00  0.00     0.195 A 
ATOM     14  N   UNL A   1      34.485  23.194  24.579  1.00  0.00    -0.187 NA
ATOM     15  N   UNL A   1      36.225  22.347  25.956  1.00  0.00    -0.187 NA
ATOM     16  C   UNL A   1      34.853  24.433  24.863  1.00  0.00     0.221 A 
ATOM     17  C   UNL A   1      36.592  23.605  26.216  1.00  0.00     0.221 A 
ATOM     18  C   UNL A   1      35.967  24.681  25.624  1.00  0.00     0.136 A 
BRANCH  16  19
ATOM     19  O   UNL A   1      33.937  25.311  24.389  1.00  0.00    -0.477 OA
BRANCH  19  20
ATOM     20  C   UNL A   1      33.475  25.353  23.055  1.00  0.00     0.231 C 
BRANCH  20  21
ATOM     21  C   UNL A   1      33.129  26.722  22.439  1.00  0.00     0.045 C 
BRANCH  21  22
ATOM     22  C   UNL A   1      31.815  27.372  22.877  1.00  0.00    -0.008 C 
ATOM     23  C   UNL A   1      31.467  28.654  22.114  1.00  0.00     0.004 C 
ATOM     24  C   UNL A   1      30.623  26.408  22.805  1.00  0.00     0.004 C 
ATOM     25  C   UNL A   1      30.226  29.311  22.734  1.00  0.00     0.000 C 
ATOM     26  C   UNL A   1      29.412  27.019  23.499  1.00  0.00     0.000 C 
ATOM     27  C   UNL A   1      29.039  28.356  22.869  1.00  0.00     0.000 C 
ENDBRANCH  21  22
ENDBRANCH  20  21
ENDBRANCH  19  20
ENDBRANCH  16  19
BRANCH  17  28
ATOM     28  O   UNL A   1      37.714  23.711  27.000  1.00  0.00    -0.477 OA
BRANCH  28  29
ATOM     29  C   UNL A   1      38.993  23.486  26.402  1.00  0.00     0.231 C 
BRANCH  29  30
ATOM     30  C   UNL A   1      40.177  23.789  27.348  1.00  0.00     0.045 C 
BRANCH  30  31
ATOM     31  C   UNL A   1      41.443  22.884  27.278  1.00  0.00    -0.008 C 
ATOM     32  C   UNL A   1      41.222  21.535  27.980  1.00  0.00     0.004 C 
ATOM     33  C   UNL A   1      42.040  22.841  25.863  1.00  0.00     0.004 C 
ATOM     34  C   UNL A   1      42.023  20.328  27.514  1.00  0.00     0.000 C 
ATOM     35  C   UNL A   1      42.994  21.677  25.620  1.00  0.00     0.000 C 
ATOM     36  C   UNL A   1      42.402  20.351  26.051  1.00  0.00     0.000 C 
ENDBRANCH  30  31
ENDBRANCH  29  30
ENDBRANCH  28  29
ENDBRANCH  17  28
ENDBRANCH  12  13
ENDBRANCH   7  12
ENDBRANCH   5   7
ENDBRANCH   4   5
ENDBRANCH   3   4
ENDBRANCH   2   3
ENDBRANCH   1   2
BRANCH   1  37
ATOM     37  C   UNL A   1      31.053  26.116  26.393  1.00  0.00     0.188 C 
BRANCH  37  38
ATOM     38  C   UNL A   1      31.657  27.404  26.952  1.00  0.00     0.188 C 
BRANCH  38  39
ATOM     39  O   UNL A   1      31.432  28.574  26.193  1.00  0.00    -0.376 OA
BRANCH  39  40
ATOM     40  C   UNL A   1      32.178  29.742  26.530  1.00  0.00     0.202 C 
BRANCH  40  41
ATOM     41  C   UNL A   1      33.618  29.593  27.086  1.00  0.00     0.261 C 
BRANCH  41  42
ATOM     42  O   UNL A   1      34.528  30.705  26.959  1.00  0.00    -0.460 OA
BRANCH  42  43
ATOM     43  C   UNL A   1      34.811  31.430  28.074  1.00  0.00     0.338 C 
ATOM     44  O   UNL A   1      34.044  32.161  28.663  1.00  0.00    -0.246 OA
BRANCH  43  45
ATOM     45  C   UNL A   1      36.101  30.921  28.642  1.00  0.00     0.060 A 
ATOM     46  C   UNL A   1      36.099  29.640  29.213  1.00  0.00     0.016 A 
ATOM     47  C   UNL A   1      37.302  31.620  28.543  1.00  0.00     0.016 A 
ATOM     48  C   UNL A   1      37.267  29.061  29.717  1.00  0.00     0.010 A 
ATOM     49  C   UNL A   1      38.471  31.060  29.081  1.00  0.00     0.010 A 
ATOM     50  C   UNL A   1      38.454  29.793  29.701  1.00  0.00    -0.014 A 
BRANCH  50  51
ATOM     51  C   UNL A   1      39.608  29.387  30.547  1.00  0.00     0.031 A 
ATOM     52  C   UNL A   1      39.805  30.136  31.837  1.00  0.00     0.074 A 
ATOM     53  C   UNL A   1      40.480  28.427  30.189  1.00  0.00     0.049 A 
ATOM     54  N   UNL A   1      40.840  30.171  32.632  1.00  0.00    -0.248 NA
ATOM     55  C   UNL A   1      38.676  30.974  32.277  1.00  0.00     0.031 C 
ATOM     56  C   UNL A   1      40.368  27.567  29.014  1.00  0.00     0.029 A 
ATOM     57  N   UNL A   1      41.670  28.052  30.769  1.00  0.00    -0.354 N 
ATOM     58  C   UNL A   1      40.516  31.089  33.624  1.00  0.00     0.074 A 
ATOM     59  C   UNL A   1      39.183  31.573  33.343  1.00  0.00     0.031 C 
ATOM     60  C   UNL A   1      41.472  26.802  28.927  1.00  0.00     0.029 A 
ATOM     61  C   UNL A   1      42.392  27.159  30.008  1.00  0.00     0.049 A 
ATOM     62  H   UNL A   1      41.977  28.388  31.642  1.00  0.00     0.167 HD
ATOM     63  C   UNL A   1      41.266  31.500  34.673  1.00  0.00     0.034 A 
ATOM     64  C   UNL A   1      43.665  26.729  30.137  1.00  0.00     0.034 A 
ATOM     65  C   UNL A   1      42.579  30.997  34.960  1.00  0.00     0.049 A 
ATOM     66  C   UNL A   1      44.508  27.242  31.281  1.00  0.00     0.074 A 
ATOM     67  C   UNL A   1      43.413  31.328  36.013  1.00  0.00     0.029 A 
ATOM     68  N   UNL A   1      43.253  30.064  34.188  1.00  0.00    -0.354 N 
ATOM     69  N   UNL A   1      44.183  28.076  32.240  1.00  0.00    -0.248 NA
ATOM     70  C   UNL A   1      45.891  26.743  31.373  1.00  0.00     0.031 C 
ATOM     71  C   UNL A   1      44.609  30.622  35.856  1.00  0.00     0.029 A 
ATOM     72  C   UNL A   1      44.498  29.814  34.735  1.00  0.00     0.049 A 
ATOM     73  H   UNL A   1      42.899  29.643  33.372  1.00  0.00     0.167 HD
ATOM     74  C   UNL A   1      45.295  28.159  33.072  1.00  0.00     0.074 A 
ATOM     75  C   UNL A   1      46.307  27.294  32.506  1.00  0.00     0.031 C 
ATOM     76  C   UNL A   1      45.465  28.891  34.200  1.00  0.00     0.034 A 
BRANCH  63  77
ATOM     77  C   UNL A   1      40.690  32.556  35.575  1.00  0.00     0.023 A 
ATOM     78  C   UNL A   1      41.123  33.893  35.466  1.00  0.00     0.012 A 
ATOM     79  C   UNL A   1      39.684  32.227  36.505  1.00  0.00     0.148 A 
ATOM     80  C   UNL A   1      40.588  34.879  36.294  1.00  0.00     0.002 A 
ATOM     81  C   UNL A   1      39.120  33.224  37.290  1.00  0.00     0.091 A 
ATOM     82  F   UNL A   1      39.305  30.945  36.609  1.00  0.00    -0.205 F 
ATOM     83  C   UNL A   1      39.580  34.547  37.196  1.00  0.00     0.022 A 
BRANCH  81  84
ATOM     84  S   UNL A   1      37.761  32.912  38.422  1.00  0.00     0.127 S 
ATOM     85  O   UNL A   1      38.084  33.815  39.525  1.00  0.00    -0.237 OA
ATOM     86  O   UNL A   1      36.602  33.313  37.625  1.00  0.00    -0.237 OA
ATOM     87  O   UNL A   1      37.819  31.493  38.741  1.00  0.00    -0.744 OA
ENDBRANCH  81  84
ENDBRANCH  63  77
BRANCH  64  88
ATOM     88  C   UNL A   1      44.241  25.768  29.150  1.00  0.00     0.023 A 
ATOM     89  C   UNL A   1      44.155  24.383  29.397  1.00  0.00     0.012 A 
ATOM     90  C   UNL A   1      44.882  26.214  27.977  1.00  0.00     0.148 A 
ATOM     91  C   UNL A   1      44.723  23.464  28.512  1.00  0.00     0.002 A 
ATOM     92  C   UNL A   1      45.397  25.292  27.073  1.00  0.00     0.091 A 
ATOM     93  F   UNL A   1      44.975  27.536  27.770  1.00  0.00    -0.205 F 
ATOM     94  C   UNL A   1      45.334  23.918  27.347  1.00  0.00     0.022 A 
BRANCH  92  95
ATOM     95  S   UNL A   1      46.108  25.775  25.495  1.00  0.00     0.127 S 
ATOM     96  O   UNL A   1      46.260  24.484  24.828  1.00  0.00    -0.237 OA
ATOM     97  O   UNL A   1      45.056  26.631  24.945  1.00  0.00    -0.237 OA
ATOM     98  O   UNL A   1      47.347  26.467  25.815  1.00  0.00    -0.744 OA
ENDBRANCH  92  95
ENDBRANCH  64  88
BRANCH  76  99
ATOM     99  C   UNL A   1      46.751  28.738  34.972  1.00  0.00     0.023 A 
ATOM    100  C   UNL A   1      47.825  29.619  34.748  1.00  0.00     0.012 A 
ATOM    101  C   UNL A   1      46.829  27.801  36.022  1.00  0.00     0.148 A 
ATOM    102  C   UNL A   1      48.965  29.560  35.550  1.00  0.00     0.002 A 
ATOM    103  C   UNL A   1      47.944  27.783  36.850  1.00  0.00     0.091 A 
ATOM    104  F   UNL A   1      45.798  26.964  36.208  1.00  0.00    -0.205 F 
ATOM    105  C   UNL A   1      49.017  28.654  36.610  1.00  0.00     0.022 A 
BRANCH 103 106
ATOM    106  S   UNL A   1      48.053  26.730  38.302  1.00  0.00     0.127 S 
ATOM    107  O   UNL A   1      49.451  26.907  38.694  1.00  0.00    -0.237 OA
ATOM    108  O   UNL A   1      47.082  27.348  39.204  1.00  0.00    -0.237 OA
ATOM    109  O   UNL A   1      47.702  25.388  37.857  1.00  0.00    -0.744 OA
ENDBRANCH 103 106
ENDBRANCH  76  99
ENDBRANCH  50  51
ENDBRANCH  43  45
ENDBRANCH  42  43
ENDBRANCH  41  42
ENDBRANCH  40  41
ENDBRANCH  39  40
ENDBRANCH  38  39
ENDBRANCH  37  38
ENDBRANCH   1  37
TORSDOF 33
ENDMDL
MODEL 2
REMARK VINA RESULT:      -8.2      2.130      2.544
REMARK SMILES CCCC[C@@H](Sc1nc(OCCC2CCCCC2)cc(OCCC2CCCCC2)n1)C(=O)OCCOCCOCCOC(=O)c1ccc(-c2c3nc(c(-c4cccc(S(=O)(=O)[O-])c4F)c4ccc([nH]4)c(-c4cccc(S(=O)(=O)[O-])c4F)c4nc(c(-c5cccc(S(=O)(=O)[O-])c5F)c5ccc2[nH]5)C=C4)C=C3)cc1
REMARK SMILES IDX 36 1 35 2 34 3 33 4 31 5 32 6 5 7 4 8 3 9 2 10 1 11 6 12
REMARK SMILES IDX 7 13 8 14 30 15 9 16 20 17 19 18 10 19 11 20 12 21 13 22
REMARK SMILES IDX 14 23 18 24 15 25 17 26 16 27 21 28 22 29 23 30 24 31 25 32
REMARK SMILES IDX 29 33 26 34 28 35 27 36 37 37 38 38 39 39 40 40 41 41 42 42
REMARK SMILES IDX 43 43 44 44 45 45 46 46 107 47 47 48 106 49 48 50 49 51
REMARK SMILES IDX 50 52 100 53 51 54 105 55 99 56 101 57 52 58 104 59 98 60
REMARK SMILES IDX 97 61 53 63 85 64 65 65 84 66 66 67 69 68 83 69 102 70 67 71
REMARK SMILES IDX 68 72 82 74 103 75 70 76 54 77 55 78 63 79 56 80 58 81 64 82
REMARK SMILES IDX 57 83 59 84 60 85 61 86 62 87 86 88 87 89 95 90 88 91 90 92
REMARK SMILES IDX 96 93 89 94 91 95 92 96 93 97 94 98 71 99 72 100 80 101
REMARK SMILES IDX 73 102 75 103 81 104 74 105 76 106 77 107 78 108 79 109
REMARK H PARENT 101 62 69 73
REMARK Flexibility Score: inf
ROOT
ATOM      1  O   UNL A   1      32.107  24.948  26.365  1.00  0.00    -0.376 OA
ENDROOT
BRANCH   1   2
ATOM      2  C   UNL A   1      31.630  23.762  26.986  1.00  0.00     0.202 C 
BRANCH   2   3
ATOM      3  C   UNL A   1      32.230  22.415  26.553  1.00  0.00     0.261 C 
BRANCH   3   4
ATOM      4  O   UNL A   1      31.631  21.801  25.394  1.00  0.00    -0.462 OA
BRANCH   4   5
ATOM      5  C   UNL A   1      32.440  20.928  24.734  1.00  0.00     0.319 C 
ATOM      6  O   UNL A   1      32.400  20.745  23.519  1.00  0.00    -0.251 OA
BRANCH   5   7
ATOM      7  C   UNL A   1      33.378  20.126  25.636  1.00  0.00     0.164 C 
BRANCH   7   8
ATOM      8  C   UNL A   1      32.855  18.756  26.143  1.00  0.00     0.027 C 
BRANCH   8   9
ATOM      9  C   UNL A   1      32.529  17.663  25.094  1.00  0.00     0.001 C 
BRANCH   9  10
ATOM     10  C   UNL A   1      33.650  16.666  24.760  1.00  0.00    -0.003 C 
ATOM     11  C   UNL A   1      33.981  16.602  23.282  1.00  0.00     0.004 C 
ENDBRANCH   9  10
ENDBRANCH   8   9
ENDBRANCH   7   8
BRANCH   7  12
ATOM     12  S   UNL A   1      34.880  20.040  24.584  1.00  0.00    -0.071 SA
BRANCH  12  13
ATOM     13  C   UNL A   1      35.685  21.514  25.052  1.00  0.00     0.195 A 
ATOM     14  N   UNL A   1      35.063  22.606  24.610  1.00  0.00    -0.187 NA
ATOM     15  N   UNL A   1      36.854  21.489  25.701  1.00  0.00    -0.187 NA
ATOM     16  C   UNL A   1      35.680  23.766  24.769  1.00  0.00     0.221 A 
ATOM     17  C   UNL A   1      37.468  22.668  25.835  1.00  0.00     0.221 A 
ATOM     18  C   UNL A   1      36.938  23.827  25.312  1.00  0.00     0.136 A 
BRANCH  16  19
ATOM     19  O   UNL A   1      34.854  24.782  24.422  1.00  0.00    -0.477 OA
BRANCH  19  20
ATOM     20  C   UNL A   1      33.798  24.681  23.490  1.00  0.00     0.231 C 
BRANCH  20  21
ATOM     21  C   UNL A   1      33.710  25.727  22.362  1.00  0.00     0.045 C 
BRANCH  21  22
ATOM     22  C   UNL A   1      32.542  26.714  22.415  1.00  0.00    -0.008 C 
ATOM     23  C   UNL A   1      31.245  26.118  22.972  1.00  0.00     0.004 C 
ATOM     24  C   UNL A   1      32.879  27.992  23.193  1.00  0.00     0.004 C 
ATOM     25  C   UNL A   1      30.102  27.132  22.832  1.00  0.00     0.000 C 
ATOM     26  C   UNL A   1      31.790  29.036  22.984  1.00  0.00     0.000 C 
ATOM     27  C   UNL A   1      30.432  28.502  23.426  1.00  0.00     0.000 C 
ENDBRANCH  21  22
ENDBRANCH  20  21
ENDBRANCH  19  20
ENDBRANCH  16  19
BRANCH  17  28
ATOM     28  O   UNL A   1      38.714  22.589  26.407  1.00  0.00    -0.477 OA
BRANCH  28  29
ATOM     29  C   UNL A   1      39.616  21.577  25.950  1.00  0.00     0.231 C 
BRANCH  29  30
ATOM     30  C   UNL A   1      40.380  20.872  27.093  1.00  0.00     0.045 C 
BRANCH  30  31
ATOM     31  C   UNL A   1      41.905  20.605  26.920  1.00  0.00    -0.008 C 
ATOM     32  C   UNL A   1      42.201  19.120  26.661  1.00  0.00     0.004 C 
ATOM     33  C   UNL A   1      42.563  21.620  25.973  1.00  0.00     0.004 C 
ATOM     34  C   UNL A   1      43.450  18.750  25.874  1.00  0.00     0.000 C 
ATOM     35  C   UNL A   1      43.919  21.186  25.431  1.00  0.00     0.000 C 
ATOM     36  C   UNL A   1      43.885  19.782  24.860  1.00  0.00     0.000 C 
ENDBRANCH  30  31
ENDBRANCH  29  30
ENDBRANCH  28  29
ENDBRANCH  17  28
ENDBRANCH  12  13
ENDBRANCH   7  12
ENDBRANCH   5   7
ENDBRANCH   4   5
ENDBRANCH   3   4
ENDBRANCH   2   3
ENDBRANCH   1   2
BRANCH   1  37
ATOM     37  C   UNL A   1      31.299  26.114  26.406  1.00  0.00     0.188 C 
BRANCH  37  38
ATOM     38  C   UNL A   1      31.903  27.377  27.020  1.00  0.00     0.188 C 
BRANCH  38  39
ATOM     39  O   UNL A   1      31.405  28.604  26.529  1.00  0.00    -0.376 OA
BRANCH  39  40
ATOM     40  C   UNL A   1      31.944  29.808  27.069  1.00  0.00     0.202 C 
BRANCH  40  41
ATOM     41  C   UNL A   1      33.461  29.891  27.381  1.00  0.00     0.261 C 
BRANCH  41  42
ATOM     42  O   UNL A   1      34.181  31.083  27.006  1.00  0.00    -0.460 OA
BRANCH  42  43
ATOM     43  C   UNL A   1      34.479  31.983  27.981  1.00  0.00     0.338 C 
ATOM     44  O   UNL A   1      33.691  32.714  28.542  1.00  0.00    -0.246 OA
BRANCH  43  45
ATOM     45  C   UNL A   1      35.860  31.685  28.480  1.00  0.00     0.060 A 
ATOM     46  C   UNL A   1      36.180  30.346  28.749  1.00  0.00     0.016 A 
ATOM     47  C   UNL A   1      36.851  32.657  28.597  1.00  0.00     0.016 A 
ATOM     48  C   UNL A   1      37.460  29.967  29.164  1.00  0.00     0.010 A 
ATOM     49  C   UNL A   1      38.127  32.289  29.050  1.00  0.00     0.010 A 
ATOM     50  C   UNL A   1      38.429  30.948  29.368  1.00  0.00    -0.014 A 
BRANCH  50  51
ATOM     51  C   UNL A   1      39.656  30.651  30.155  1.00  0.00     0.031 A 
ATOM     52  C   UNL A   1      39.687  31.132  31.580  1.00  0.00     0.074 A 
ATOM     53  C   UNL A   1      40.726  30.020  29.637  1.00  0.00     0.049 A 
ATOM     54  N   UNL A   1      40.693  31.236  32.405  1.00  0.00    -0.248 NA
ATOM     55  C   UNL A   1      38.396  31.570  32.142  1.00  0.00     0.031 C 
ATOM     56  C   UNL A   1      40.806  29.429  28.304  1.00  0.00     0.029 A 
ATOM     57  N   UNL A   1      41.978  29.817  30.171  1.00  0.00    -0.354 N 
ATOM     58  C   UNL A   1      40.174  31.819  33.554  1.00  0.00     0.074 A 
ATOM     59  C   UNL A   1      38.761  32.028  33.329  1.00  0.00     0.031 C 
ATOM     60  C   UNL A   1      42.058  28.978  28.102  1.00  0.00     0.029 A 
ATOM     61  C   UNL A   1      42.881  29.300  29.268  1.00  0.00     0.049 A 
ATOM     62  H   UNL A   1      42.207  30.021  31.107  1.00  0.00     0.167 HD
ATOM     63  C   UNL A   1      40.818  32.160  34.694  1.00  0.00     0.034 A 
ATOM     64  C   UNL A   1      44.221  29.161  29.354  1.00  0.00     0.034 A 
ATOM     65  C   UNL A   1      42.216  31.927  34.921  1.00  0.00     0.049 A 
ATOM     66  C   UNL A   1      44.932  29.600  30.612  1.00  0.00     0.074 A 
ATOM     67  C   UNL A   1      42.960  32.210  36.051  1.00  0.00     0.029 A 
ATOM     68  N   UNL A   1      43.082  31.364  33.997  1.00  0.00    -0.354 N 
ATOM     69  N   UNL A   1      44.431  30.111  31.711  1.00  0.00    -0.248 NA
ATOM     70  C   UNL A   1      46.395  29.429  30.652  1.00  0.00     0.031 C 
ATOM     71  C   UNL A   1      44.287  31.853  35.797  1.00  0.00     0.029 A 
ATOM     72  C   UNL A   1      44.356  31.300  34.527  1.00  0.00     0.049 A 
ATOM     73  H   UNL A   1      42.827  31.057  33.097  1.00  0.00     0.167 HD
ATOM     74  C   UNL A   1      45.502  30.271  32.586  1.00  0.00     0.074 A 
ATOM     75  C   UNL A   1      46.683  29.806  31.890  1.00  0.00     0.031 C 
ATOM     76  C   UNL A   1      45.508  30.764  33.849  1.00  0.00     0.034 A 
BRANCH  63  77
ATOM     77  C   UNL A   1      40.019  32.836  35.775  1.00  0.00     0.023 A 
ATOM     78  C   UNL A   1      40.021  34.241  35.883  1.00  0.00     0.012 A 
ATOM     79  C   UNL A   1      39.231  32.073  36.659  1.00  0.00     0.148 A 
ATOM     80  C   UNL A   1      39.278  34.875  36.878  1.00  0.00     0.002 A 
ATOM     81  C   UNL A   1      38.454  32.715  37.615  1.00  0.00     0.091 A 
ATOM     82  F   UNL A   1      39.264  30.737  36.555  1.00  0.00    -0.205 F 
ATOM     83  C   UNL A   1      38.486  34.113  37.735  1.00  0.00     0.022 A 
BRANCH  81  84
ATOM     84  S   UNL A   1      37.339  31.829  38.710  1.00  0.00     0.127 S 
ATOM     85  O   UNL A   1      36.163  32.697  38.699  1.00  0.00    -0.237 OA
ATOM     86  O   UNL A   1      37.166  30.558  38.006  1.00  0.00    -0.237 OA
ATOM     87  O   UNL A   1      38.027  31.727  39.989  1.00  0.00    -0.744 OA
ENDBRANCH  81  84
ENDBRANCH  63  77
BRANCH  64  88
ATOM     88  C   UNL A   1      44.995  28.594  28.210  1.00  0.00     0.023 A 
ATOM     89  C   UNL A   1      45.440  29.447  27.180  1.00  0.00     0.012 A 
ATOM     90  C   UNL A   1      45.283  27.217  28.129  1.00  0.00     0.148 A 
ATOM     91  C   UNL A   1      46.129  28.936  26.079  1.00  0.00     0.002 A 
ATOM     92  C   UNL A   1      46.017  26.722  27.057  1.00  0.00     0.091 A 
ATOM     93  F   UNL A   1      44.832  26.417  29.106  1.00  0.00    -0.205 F 
ATOM     94  C   UNL A   1      46.425  27.577  26.022  1.00  0.00     0.022 A 
BRANCH  92  95
ATOM     95  S   UNL A   1      46.539  25.007  26.949  1.00  0.00     0.127 S 
ATOM     96  O   UNL A   1      45.257  24.306  26.916  1.00  0.00    -0.237 OA
ATOM     97  O   UNL A   1      47.277  24.999  25.685  1.00  0.00    -0.237 OA
ATOM     98  O   UNL A   1      47.356  24.767  28.129  1.00  0.00    -0.744 OA
ENDBRANCH  92  95
ENDBRANCH  64  88
BRANCH  76  99
ATOM     99  C   UNL A   1      46.802  30.753  34.621  1.00  0.00     0.023 A 
ATOM    100  C   UNL A   1      47.185  29.613  35.352  1.00  0.00     0.012 A 
ATOM    101  C   UNL A   1      47.700  31.833  34.496  1.00  0.00     0.148 A 
ATOM    102  C   UNL A   1      48.440  29.554  35.960  1.00  0.00     0.002 A 
ATOM    103  C   UNL A   1      48.967  31.746  35.059  1.00  0.00     0.091 A 
ATOM    104  F   UNL A   1      47.306  32.912  33.805  1.00  0.00    -0.205 F 
ATOM    105  C   UNL A   1      49.335  30.612  35.800  1.00  0.00     0.022 A 
BRANCH 103 106
ATOM    106  S   UNL A   1      50.222  33.007  34.813  1.00  0.00     0.127 S 
ATOM    107  O   UNL A   1      51.363  32.435  35.527  1.00  0.00    -0.237 OA
ATOM    108  O   UNL A   1      50.360  33.026  33.357  1.00  0.00    -0.237 OA
ATOM    109  O   UNL A   1      49.685  34.232  35.390  1.00  0.00    -0.744 OA
ENDBRANCH 103 106
ENDBRANCH  76  99
ENDBRANCH  50  51
ENDBRANCH  43  45
ENDBRANCH  42  43
ENDBRANCH  41  42
ENDBRANCH  40  41
ENDBRANCH  39  40
ENDBRANCH  38  39
ENDBRANCH  37  38
ENDBRANCH   1  37
TORSDOF 33
ENDMDL
MODEL 3
REMARK VINA RESULT:      -7.8      1.780      8.685
REMARK SMILES CCCC[C@@H](Sc1nc(OCCC2CCCCC2)cc(OCCC2CCCCC2)n1)C(=O)OCCOCCOCCOC(=O)c1ccc(-c2c3nc(c(-c4cccc(S(=O)(=O)[O-])c4F)c4ccc([nH]4)c(-c4cccc(S(=O)(=O)[O-])c4F)c4nc(c(-c5cccc(S(=O)(=O)[O-])c5F)c5ccc2[nH]5)C=C4)C=C3)cc1
REMARK SMILES IDX 36 1 35 2 34 3 33 4 31 5 32 6 5 7 4 8 3 9 2 10 1 11 6 12
REMARK SMILES IDX 7 13 8 14 30 15 9 16 20 17 19 18 10 19 11 20 12 21 13 22
REMARK SMILES IDX 14 23 18 24 15 25 17 26 16 27 21 28 22 29 23 30 24 31 25 32
REMARK SMILES IDX 29 33 26 34 28 35 27 36 37 37 38 38 39 39 40 40 41 41 42 42
REMARK SMILES IDX 43 43 44 44 45 45 46 46 107 47 47 48 106 49 48 50 49 51
REMARK SMILES IDX 50 52 100 53 51 54 105 55 99 56 101 57 52 58 104 59 98 60
REMARK SMILES IDX 97 61 53 63 85 64 65 65 84 66 66 67 69 68 83 69 102 70 67 71
REMARK SMILES IDX 68 72 82 74 103 75 70 76 54 77 55 78 63 79 56 80 58 81 64 82
REMARK SMILES IDX 57 83 59 84 60 85 61 86 62 87 86 88 87 89 95 90 88 91 90 92
REMARK SMILES IDX 96 93 89 94 91 95 92 96 93 97 94 98 71 99 72 100 80 101
REMARK SMILES IDX 73 102 75 103 81 104 74 105 76 106 77 107 78 108 79 109
REMARK H PARENT 101 62 69 73
REMARK Flexibility Score: inf
ROOT
ATOM      1  O   UNL A   1      32.570  25.015  26.758  1.00  0.00    -0.376 OA
ENDROOT
BRANCH   1   2
ATOM      2  C   UNL A   1      31.683  24.023  26.259  1.00  0.00     0.202 C 
BRANCH   2   3
ATOM      3  C   UNL A   1      32.142  22.558  26.265  1.00  0.00     0.261 C 
BRANCH   3   4
ATOM      4  O   UNL A   1      31.475  21.683  25.333  1.00  0.00    -0.462 OA
BRANCH   4   5
ATOM      5  C   UNL A   1      32.297  20.823  24.675  1.00  0.00     0.319 C 
ATOM      6  O   UNL A   1      32.205  20.573  23.475  1.00  0.00    -0.251 OA
BRANCH   5   7
ATOM      7  C   UNL A   1      33.328  20.123  25.563  1.00  0.00     0.164 C 
BRANCH   7   8
ATOM      8  C   UNL A   1      32.944  18.721  26.104  1.00  0.00     0.027 C 
BRANCH   8   9
ATOM      9  C   UNL A   1      32.358  17.687  25.108  1.00  0.00     0.001 C 
BRANCH   9  10
ATOM     10  C   UNL A   1      33.310  16.588  24.611  1.00  0.00    -0.003 C 
ATOM     11  C   UNL A   1      33.326  15.357  25.495  1.00  0.00     0.004 C 
ENDBRANCH   9  10
ENDBRANCH   8   9
ENDBRANCH   7   8
BRANCH   7  12
ATOM     12  S   UNL A   1      34.804  20.156  24.473  1.00  0.00    -0.071 SA
BRANCH  12  13
ATOM     13  C   UNL A   1      35.073  21.873  24.347  1.00  0.00     0.195 A 
ATOM     14  N   UNL A   1      35.761  22.365  25.375  1.00  0.00    -0.187 NA
ATOM     15  N   UNL A   1      34.536  22.587  23.352  1.00  0.00    -0.187 NA
ATOM     16  C   UNL A   1      35.876  23.681  25.459  1.00  0.00     0.221 A 
ATOM     17  C   UNL A   1      34.647  23.914  23.465  1.00  0.00     0.221 A 
ATOM     18  C   UNL A   1      35.255  24.502  24.553  1.00  0.00     0.136 A 
BRANCH  16  19
ATOM     19  O   UNL A   1      36.734  24.010  26.455  1.00  0.00    -0.477 OA
BRANCH  19  20
ATOM     20  C   UNL A   1      37.998  23.415  26.659  1.00  0.00     0.231 C 
BRANCH  20  21
ATOM     21  C   UNL A   1      39.258  24.278  26.460  1.00  0.00     0.045 C 
BRANCH  21  22
ATOM     22  C   UNL A   1      40.603  23.647  26.828  1.00  0.00    -0.008 C 
ATOM     23  C   UNL A   1      41.493  24.538  27.701  1.00  0.00     0.004 C 
ATOM     24  C   UNL A   1      40.451  22.278  27.503  1.00  0.00     0.004 C 
ATOM     25  C   UNL A   1      42.871  23.887  27.877  1.00  0.00     0.000 C 
ATOM     26  C   UNL A   1      41.805  21.588  27.599  1.00  0.00     0.000 C 
ATOM     27  C   UNL A   1      42.799  22.443  28.377  1.00  0.00     0.000 C 
ENDBRANCH  21  22
ENDBRANCH  20  21
ENDBRANCH  19  20
ENDBRANCH  16  19
BRANCH  17  28
ATOM     28  O   UNL A   1      33.991  24.617  22.485  1.00  0.00    -0.477 OA
BRANCH  28  29
ATOM     29  C   UNL A   1      33.787  26.021  22.668  1.00  0.00     0.231 C 
BRANCH  29  30
ATOM     30  C   UNL A   1      32.468  26.536  22.048  1.00  0.00     0.045 C 
BRANCH  30  31
ATOM     31  C   UNL A   1      31.437  27.251  22.970  1.00  0.00    -0.008 C 
ATOM     32  C   UNL A   1      31.013  28.616  22.405  1.00  0.00     0.004 C 
ATOM     33  C   UNL A   1      30.312  26.305  23.416  1.00  0.00     0.004 C 
ATOM     34  C   UNL A   1      29.638  29.161  22.764  1.00  0.00     0.000 C 
ATOM     35  C   UNL A   1      29.072  27.011  23.950  1.00  0.00     0.000 C 
ATOM     36  C   UNL A   1      28.589  28.104  23.018  1.00  0.00     0.000 C 
ENDBRANCH  30  31
ENDBRANCH  29  30
ENDBRANCH  28  29
ENDBRANCH  17  28
ENDBRANCH  12  13
ENDBRANCH   7  12
ENDBRANCH   5   7
ENDBRANCH   4   5
ENDBRANCH   3   4
ENDBRANCH   2   3
ENDBRANCH   1   2
BRANCH   1  37
ATOM     37  C   UNL A   1      32.567  26.301  26.158  1.00  0.00     0.188 C 
BRANCH  37  38
ATOM     38  C   UNL A   1      31.826  27.423  26.884  1.00  0.00     0.188 C 
BRANCH  38  39
ATOM     39  O   UNL A   1      31.892  28.699  26.282  1.00  0.00    -0.376 OA
BRANCH  39  40
ATOM     40  C   UNL A   1      32.496  29.757  27.023  1.00  0.00     0.202 C 
BRANCH  40  41
ATOM     41  C   UNL A   1      33.955  29.599  27.526  1.00  0.00     0.261 C 
BRANCH  41  42
ATOM     42  O   UNL A   1      34.952  30.534  27.063  1.00  0.00    -0.460 OA
BRANCH  42  43
ATOM     43  C   UNL A   1      35.055  31.727  27.706  1.00  0.00     0.338 C 
ATOM     44  O   UNL A   1      34.160  32.529  27.868  1.00  0.00    -0.246 OA
BRANCH  43  45
ATOM     45  C   UNL A   1      36.347  31.736  28.464  1.00  0.00     0.060 A 
ATOM     46  C   UNL A   1      36.970  30.501  28.700  1.00  0.00     0.016 A 
ATOM     47  C   UNL A   1      36.991  32.908  28.854  1.00  0.00     0.016 A 
ATOM     48  C   UNL A   1      38.205  30.416  29.349  1.00  0.00     0.010 A 
ATOM     49  C   UNL A   1      38.213  32.827  29.539  1.00  0.00     0.010 A 
ATOM     50  C   UNL A   1      38.810  31.581  29.821  1.00  0.00    -0.014 A 
BRANCH  50  51
ATOM     51  C   UNL A   1      39.904  31.514  30.826  1.00  0.00     0.031 A 
ATOM     52  C   UNL A   1      41.169  30.812  30.413  1.00  0.00     0.074 A 
ATOM     53  C   UNL A   1      39.788  32.009  32.072  1.00  0.00     0.049 A 
ATOM     54  N   UNL A   1      42.166  30.390  31.142  1.00  0.00    -0.248 NA
ATOM     55  C   UNL A   1      41.315  30.537  28.972  1.00  0.00     0.031 C 
ATOM     56  C   UNL A   1      38.659  32.783  32.582  1.00  0.00     0.029 A 
ATOM     57  N   UNL A   1      40.629  31.886  33.155  1.00  0.00    -0.354 N 
ATOM     58  C   UNL A   1      43.021  29.736  30.262  1.00  0.00     0.074 A 
ATOM     59  C   UNL A   1      42.436  29.833  28.944  1.00  0.00     0.031 C 
ATOM     60  C   UNL A   1      38.849  33.018  33.893  1.00  0.00     0.029 A 
ATOM     61  C   UNL A   1      40.085  32.364  34.326  1.00  0.00     0.049 A 
ATOM     62  H   UNL A   1      41.531  31.494  33.099  1.00  0.00     0.167 HD
ATOM     63  C   UNL A   1      44.186  29.102  30.530  1.00  0.00     0.034 A 
ATOM     64  C   UNL A   1      40.505  32.235  35.603  1.00  0.00     0.034 A 
ATOM     65  C   UNL A   1      44.773  29.031  31.837  1.00  0.00     0.049 A 
ATOM     66  C   UNL A   1      41.779  31.474  35.889  1.00  0.00     0.074 A 
ATOM     67  C   UNL A   1      45.964  28.434  32.211  1.00  0.00     0.029 A 
ATOM     68  N   UNL A   1      44.210  29.563  32.985  1.00  0.00    -0.354 N 
ATOM     69  N   UNL A   1      42.604  30.895  35.050  1.00  0.00    -0.248 NA
ATOM     70  C   UNL A   1      42.191  31.361  37.299  1.00  0.00     0.031 C 
ATOM     71  C   UNL A   1      46.103  28.574  33.595  1.00  0.00     0.029 A 
ATOM     72  C   UNL A   1      45.023  29.303  34.072  1.00  0.00     0.049 A 
ATOM     73  H   UNL A   1      43.357  30.054  33.022  1.00  0.00     0.167 HD
ATOM     74  C   UNL A   1      43.652  30.399  35.820  1.00  0.00     0.074 A 
ATOM     75  C   UNL A   1      43.359  30.742  37.195  1.00  0.00     0.031 C 
ATOM     76  C   UNL A   1      44.755  29.717  35.425  1.00  0.00     0.034 A 
BRANCH  63  77
ATOM     77  C   UNL A   1      44.891  28.422  29.389  1.00  0.00     0.023 A 
ATOM     78  C   UNL A   1      44.650  27.060  29.119  1.00  0.00     0.012 A 
ATOM     79  C   UNL A   1      45.763  29.150  28.556  1.00  0.00     0.148 A 
ATOM     80  C   UNL A   1      45.295  26.424  28.059  1.00  0.00     0.002 A 
ATOM     81  C   UNL A   1      46.362  28.523  27.471  1.00  0.00     0.091 A 
ATOM     82  F   UNL A   1      45.998  30.437  28.846  1.00  0.00    -0.205 F 
ATOM     83  C   UNL A   1      46.140  27.157  27.229  1.00  0.00     0.022 A 
BRANCH  81  84
ATOM     84  S   UNL A   1      47.401  29.400  26.298  1.00  0.00     0.127 S 
ATOM     85  O   UNL A   1      48.330  30.093  27.189  1.00  0.00    -0.237 OA
ATOM     86  O   UNL A   1      47.994  28.301  25.534  1.00  0.00    -0.237 OA
ATOM     87  O   UNL A   1      46.510  30.261  25.535  1.00  0.00    -0.744 OA
ENDBRANCH  81  84
ENDBRANCH  63  77
BRANCH  64  88
ATOM     88  C   UNL A   1      39.713  32.825  36.722  1.00  0.00     0.023 A 
ATOM     89  C   UNL A   1      38.597  32.128  37.227  1.00  0.00     0.012 A 
ATOM     90  C   UNL A   1      40.048  34.075  37.281  1.00  0.00     0.148 A 
ATOM     91  C   UNL A   1      37.814  32.677  38.244  1.00  0.00     0.002 A 
ATOM     92  C   UNL A   1      39.296  34.591  38.330  1.00  0.00     0.091 A 
ATOM     93  F   UNL A   1      41.099  34.735  36.772  1.00  0.00    -0.205 F 
ATOM     94  C   UNL A   1      38.169  33.901  38.802  1.00  0.00     0.022 A 
BRANCH  92  95
ATOM     95  S   UNL A   1      39.737  36.109  39.184  1.00  0.00     0.127 S 
ATOM     96  O   UNL A   1      39.785  37.068  38.082  1.00  0.00    -0.237 OA
ATOM     97  O   UNL A   1      38.606  36.277  40.097  1.00  0.00    -0.237 OA
ATOM     98  O   UNL A   1      41.010  35.840  39.837  1.00  0.00    -0.744 OA
ENDBRANCH  92  95
ENDBRANCH  64  88
BRANCH  76  99
ATOM     99  C   UNL A   1      45.792  29.361  36.458  1.00  0.00     0.023 A 
ATOM    100  C   UNL A   1      46.888  30.213  36.690  1.00  0.00     0.012 A 
ATOM    101  C   UNL A   1      45.591  28.244  37.296  1.00  0.00     0.148 A 
ATOM    102  C   UNL A   1      47.777  29.952  37.734  1.00  0.00     0.002 A 
ATOM    103  C   UNL A   1      46.449  28.020  38.364  1.00  0.00     0.091 A 
ATOM    104  F   UNL A   1      44.547  27.441  37.046  1.00  0.00    -0.205 F 
ATOM    105  C   UNL A   1      47.548  28.866  38.579  1.00  0.00     0.022 A 
BRANCH 103 106
ATOM    106  S   UNL A   1      46.172  26.715  39.568  1.00  0.00     0.127 S 
ATOM    107  O   UNL A   1      47.245  26.966  40.531  1.00  0.00    -0.237 OA
ATOM    108  O   UNL A   1      44.829  27.025  40.056  1.00  0.00    -0.237 OA
ATOM    109  O   UNL A   1      46.280  25.459  38.838  1.00  0.00    -0.744 OA
ENDBRANCH 103 106
ENDBRANCH  76  99
ENDBRANCH  50  51
ENDBRANCH  43  45
ENDBRANCH  42  43
ENDBRANCH  41  42
ENDBRANCH  40  41
ENDBRANCH  39  40
ENDBRANCH  38  39
ENDBRANCH  37  38
ENDBRANCH   1  37
TORSDOF 33
ENDMDL
