MODEL 1
REMARK VINA RESULT:     -10.6      0.000      0.000
REMARK SMILES CC1(C)C(=O)N([C@H]2COC[C@@H]2C(=O)OCCOCCOCCOC(=O)c2ccc(-c3c4nc(c(-c5cccc(S(=O)(=O)[O-])c5F)c5ccc([nH]5)c(-c5cccc(S(=O)(=O)[O-])c5F)c5nc(c(-c6cccc(S(=O)(=O)[O-])c6F)c6ccc3[nH]6)C=C5)C=C4)cc2)S1(=O)=O
REMARK SMILES IDX 19 1 18 2 17 3 16 4 15 5 14 6 12 7 13 8 11 9 7 10 8 11 9 12
REMARK SMILES IDX 10 13 6 14 1 15 2 16 3 17 4 18 89 19 5 20 90 21 91 22 20 23
REMARK SMILES IDX 21 24 22 25 23 26 24 27 25 28 26 29 27 30 88 31 28 32 87 33
REMARK SMILES IDX 29 34 30 35 31 36 81 37 32 38 86 39 80 40 82 41 33 42 85 43
REMARK SMILES IDX 79 44 78 45 34 47 66 48 46 49 65 50 47 51 50 52 64 53 83 54
REMARK SMILES IDX 48 55 49 56 63 58 84 59 51 60 35 61 36 62 44 63 37 64 39 65
REMARK SMILES IDX 45 66 38 67 40 68 41 69 42 70 43 71 67 72 68 73 76 74 69 75
REMARK SMILES IDX 71 76 77 77 70 78 72 79 73 80 74 81 75 82 52 83 53 84 61 85
REMARK SMILES IDX 54 86 56 87 62 88 55 89 57 90 58 91 59 92 60 93
REMARK H PARENT 82 46 50 57
REMARK Flexibility Score: inf
ROOT
ATOM      1  C   UNL A   1      33.170  29.584  25.937  1.00  0.00     0.188 C 
ENDROOT
BRANCH   1   2
ATOM      2  C   UNL A   1      33.160  28.642  24.710  1.00  0.00     0.188 C 
BRANCH   2   3
ATOM      3  O   UNL A   1      32.355  28.952  23.579  1.00  0.00    -0.376 OA
BRANCH   3   4
ATOM      4  C   UNL A   1      31.288  28.096  23.202  1.00  0.00     0.202 C 
BRANCH   4   5
ATOM      5  C   UNL A   1      30.279  27.581  24.244  1.00  0.00     0.261 C 
BRANCH   5   6
ATOM      6  O   UNL A   1      30.353  26.174  24.527  1.00  0.00    -0.463 OA
BRANCH   6   7
ATOM      7  C   UNL A   1      31.039  25.828  25.651  1.00  0.00     0.313 C 
ATOM      8  O   UNL A   1      31.062  26.488  26.681  1.00  0.00    -0.252 OA
BRANCH   7   9
ATOM      9  C   UNL A   1      31.693  24.464  25.493  1.00  0.00     0.151 C 
ATOM     10  C   UNL A   1      32.914  24.578  24.610  1.00  0.00     0.145 C 
ATOM     11  C   UNL A   1      32.288  24.457  23.225  1.00  0.00     0.187 C 
ATOM     12  O   UNL A   1      31.106  23.643  23.352  1.00  0.00    -0.378 OA
ATOM     13  C   UNL A   1      30.778  23.529  24.744  1.00  0.00     0.177 C 
BRANCH  10  14
ATOM     14  N   UNL A   1      33.933  23.551  24.804  1.00  0.00    -0.231 N 
ATOM     15  C   UNL A   1      36.217  21.040  24.633  1.00  0.00     0.041 C 
ATOM     16  C   UNL A   1      35.809  22.424  25.130  1.00  0.00     0.165 C 
ATOM     17  C   UNL A   1      37.001  23.158  25.748  1.00  0.00     0.041 C 
ATOM     18  C   UNL A   1      35.078  23.268  24.060  1.00  0.00     0.259 C 
ATOM     19  S   UNL A   1      34.294  22.536  26.038  1.00  0.00     0.252 S 
ATOM     20  O   UNL A   1      35.329  23.689  22.949  1.00  0.00    -0.272 OA
ATOM     21  O   UNL A   1      33.461  21.364  25.923  1.00  0.00    -0.205 OA
ATOM     22  O   UNL A   1      34.411  23.295  27.260  1.00  0.00    -0.205 OA
ENDBRANCH  10  14
ENDBRANCH   7   9
ENDBRANCH   6   7
ENDBRANCH   5   6
ENDBRANCH   4   5
ENDBRANCH   3   4
ENDBRANCH   2   3
ENDBRANCH   1   2
BRANCH   1  23
ATOM     23  O   UNL A   1      31.890  29.901  26.427  1.00  0.00    -0.376 OA
BRANCH  23  24
ATOM     24  C   UNL A   1      31.341  31.170  26.124  1.00  0.00     0.202 C 
BRANCH  24  25
ATOM     25  C   UNL A   1      31.534  32.437  26.988  1.00  0.00     0.261 C 
BRANCH  25  26
ATOM     26  O   UNL A   1      32.743  33.193  26.848  1.00  0.00    -0.460 OA
BRANCH  26  27
ATOM     27  C   UNL A   1      33.334  33.597  28.000  1.00  0.00     0.338 C 
ATOM     28  O   UNL A   1      32.860  34.349  28.836  1.00  0.00    -0.246 OA
BRANCH  27  29
ATOM     29  C   UNL A   1      34.585  32.837  28.206  1.00  0.00     0.060 A 
ATOM     30  C   UNL A   1      34.501  31.477  28.540  1.00  0.00     0.016 A 
ATOM     31  C   UNL A   1      35.826  33.473  28.144  1.00  0.00     0.016 A 
ATOM     32  C   UNL A   1      35.654  30.764  28.870  1.00  0.00     0.010 A 
ATOM     33  C   UNL A   1      36.979  32.760  28.496  1.00  0.00     0.010 A 
ATOM     34  C   UNL A   1      36.891  31.417  28.912  1.00  0.00    -0.014 A 
BRANCH  34  35
ATOM     35  C   UNL A   1      38.027  30.780  29.629  1.00  0.00     0.031 A 
ATOM     36  C   UNL A   1      38.281  31.196  31.058  1.00  0.00     0.074 A 
ATOM     37  C   UNL A   1      38.795  29.835  29.057  1.00  0.00     0.049 A 
ATOM     38  N   UNL A   1      39.225  30.818  31.880  1.00  0.00    -0.248 NA
ATOM     39  C   UNL A   1      37.341  32.175  31.635  1.00  0.00     0.031 C 
ATOM     40  C   UNL A   1      38.641  29.322  27.697  1.00  0.00     0.029 A 
ATOM     41  N   UNL A   1      39.879  29.152  29.554  1.00  0.00    -0.354 N 
ATOM     42  C   UNL A   1      39.006  31.525  33.058  1.00  0.00     0.074 A 
ATOM     43  C   UNL A   1      37.858  32.374  32.837  1.00  0.00     0.031 C 
ATOM     44  C   UNL A   1      39.616  28.426  27.457  1.00  0.00     0.029 A 
ATOM     45  C   UNL A   1      40.476  28.320  28.635  1.00  0.00     0.049 A 
ATOM     46  H   UNL A   1      40.198  29.249  30.480  1.00  0.00     0.167 HD
ATOM     47  C   UNL A   1      39.684  31.461  34.229  1.00  0.00     0.034 A 
ATOM     48  C   UNL A   1      41.600  27.581  28.731  1.00  0.00     0.034 A 
ATOM     49  C   UNL A   1      40.823  30.615  34.456  1.00  0.00     0.049 A 
ATOM     50  C   UNL A   1      42.370  27.575  30.031  1.00  0.00     0.074 A 
ATOM     51  C   UNL A   1      41.575  30.474  35.609  1.00  0.00     0.029 A 
ATOM     52  N   UNL A   1      41.378  29.767  33.511  1.00  0.00    -0.354 N 
ATOM     53  N   UNL A   1      42.103  28.187  31.159  1.00  0.00    -0.248 NA
ATOM     54  C   UNL A   1      43.579  26.736  30.080  1.00  0.00     0.031 C 
ATOM     55  C   UNL A   1      42.603  29.562  35.352  1.00  0.00     0.029 A 
ATOM     56  C   UNL A   1      42.460  29.097  34.054  1.00  0.00     0.049 A 
ATOM     57  H   UNL A   1      41.052  29.660  32.588  1.00  0.00     0.167 HD
ATOM     58  C   UNL A   1      43.072  27.759  32.065  1.00  0.00     0.074 A 
ATOM     59  C   UNL A   1      43.919  26.823  31.357  1.00  0.00     0.031 C 
ATOM     60  C   UNL A   1      43.252  28.115  33.362  1.00  0.00     0.034 A 
BRANCH  47  61
ATOM     61  C   UNL A   1      39.192  32.316  35.368  1.00  0.00     0.023 A 
ATOM     62  C   UNL A   1      38.241  31.797  36.271  1.00  0.00     0.012 A 
ATOM     63  C   UNL A   1      39.712  33.608  35.581  1.00  0.00     0.148 A 
ATOM     64  C   UNL A   1      37.794  32.559  37.349  1.00  0.00     0.002 A 
ATOM     65  C   UNL A   1      39.298  34.343  36.686  1.00  0.00     0.091 A 
ATOM     66  F   UNL A   1      40.602  34.091  34.701  1.00  0.00    -0.205 F 
ATOM     67  C   UNL A   1      38.330  33.826  37.562  1.00  0.00     0.022 A 
BRANCH  65  68
ATOM     68  S   UNL A   1      39.984  35.951  37.097  1.00  0.00     0.127 S 
ATOM     69  O   UNL A   1      41.395  35.627  37.300  1.00  0.00    -0.237 OA
ATOM     70  O   UNL A   1      39.702  36.720  35.886  1.00  0.00    -0.237 OA
ATOM     71  O   UNL A   1      39.275  36.401  38.288  1.00  0.00    -0.744 OA
ENDBRANCH  65  68
ENDBRANCH  47  61
BRANCH  48  72
ATOM     72  C   UNL A   1      42.077  26.756  27.582  1.00  0.00     0.023 A 
ATOM     73  C   UNL A   1      42.745  27.378  26.507  1.00  0.00     0.012 A 
ATOM     74  C   UNL A   1      41.819  25.374  27.517  1.00  0.00     0.148 A 
ATOM     75  C   UNL A   1      43.092  26.653  25.367  1.00  0.00     0.002 A 
ATOM     76  C   UNL A   1      42.221  24.645  26.404  1.00  0.00     0.091 A 
ATOM     77  F   UNL A   1      41.168  24.801  28.540  1.00  0.00    -0.205 F 
ATOM     78  C   UNL A   1      42.835  25.285  25.318  1.00  0.00     0.022 A 
BRANCH  76  79
ATOM     79  S   UNL A   1      42.034  22.862  26.301  1.00  0.00     0.127 S 
ATOM     80  O   UNL A   1      40.582  22.711  26.330  1.00  0.00    -0.237 OA
ATOM     81  O   UNL A   1      42.660  22.569  25.012  1.00  0.00    -0.237 OA
ATOM     82  O   UNL A   1      42.749  22.326  27.452  1.00  0.00    -0.744 OA
ENDBRANCH  76  79
ENDBRANCH  48  72
BRANCH  60  83
ATOM     83  C   UNL A   1      44.346  27.419  34.134  1.00  0.00     0.023 A 
ATOM     84  C   UNL A   1      45.629  27.993  34.236  1.00  0.00     0.012 A 
ATOM     85  C   UNL A   1      44.082  26.201  34.794  1.00  0.00     0.148 A 
ATOM     86  C   UNL A   1      46.646  27.336  34.929  1.00  0.00     0.002 A 
ATOM     87  C   UNL A   1      45.083  25.584  35.533  1.00  0.00     0.091 A 
ATOM     88  F   UNL A   1      42.860  25.661  34.677  1.00  0.00    -0.205 F 
ATOM     89  C   UNL A   1      46.371  26.138  35.586  1.00  0.00     0.022 A 
BRANCH  87  90
ATOM     90  S   UNL A   1      44.787  24.094  36.493  1.00  0.00     0.127 S 
ATOM     91  O   UNL A   1      43.903  23.340  35.608  1.00  0.00    -0.237 OA
ATOM     92  O   UNL A   1      46.135  23.539  36.626  1.00  0.00    -0.237 OA
ATOM     93  O   UNL A   1      44.191  24.537  37.746  1.00  0.00    -0.744 OA
ENDBRANCH  87  90
ENDBRANCH  60  83
ENDBRANCH  34  35
ENDBRANCH  27  29
ENDBRANCH  26  27
ENDBRANCH  25  26
ENDBRANCH  24  25
ENDBRANCH  23  24
ENDBRANCH   1  23
TORSDOF 21
ENDMDL
MODEL 2
REMARK VINA RESULT:     -10.3      1.941      2.427
REMARK SMILES CC1(C)C(=O)N([C@H]2COC[C@@H]2C(=O)OCCOCCOCCOC(=O)c2ccc(-c3c4nc(c(-c5cccc(S(=O)(=O)[O-])c5F)c5ccc([nH]5)c(-c5cccc(S(=O)(=O)[O-])c5F)c5nc(c(-c6cccc(S(=O)(=O)[O-])c6F)c6ccc3[nH]6)C=C5)C=C4)cc2)S1(=O)=O
REMARK SMILES IDX 19 1 18 2 17 3 16 4 15 5 14 6 12 7 13 8 11 9 7 10 8 11 9 12
REMARK SMILES IDX 10 13 6 14 1 15 2 16 3 17 4 18 89 19 5 20 90 21 91 22 20 23
REMARK SMILES IDX 21 24 22 25 23 26 24 27 25 28 26 29 27 30 88 31 28 32 87 33
REMARK SMILES IDX 29 34 30 35 31 36 81 37 32 38 86 39 80 40 82 41 33 42 85 43
REMARK SMILES IDX 79 44 78 45 34 47 66 48 46 49 65 50 47 51 50 52 64 53 83 54
REMARK SMILES IDX 48 55 49 56 63 58 84 59 51 60 35 61 36 62 44 63 37 64 39 65
REMARK SMILES IDX 45 66 38 67 40 68 41 69 42 70 43 71 67 72 68 73 76 74 69 75
REMARK SMILES IDX 71 76 77 77 70 78 72 79 73 80 74 81 75 82 52 83 53 84 61 85
REMARK SMILES IDX 54 86 56 87 62 88 55 89 57 90 58 91 59 92 60 93
REMARK H PARENT 82 46 50 57
REMARK Flexibility Score: inf
ROOT
ATOM      1  C   UNL A   1      33.362  29.894  26.154  1.00  0.00     0.188 C 
ENDROOT
BRANCH   1   2
ATOM      2  C   UNL A   1      33.292  28.927  24.949  1.00  0.00     0.188 C 
BRANCH   2   3
ATOM      3  O   UNL A   1      32.647  29.329  23.748  1.00  0.00    -0.376 OA
BRANCH   3   4
ATOM      4  C   UNL A   1      31.447  28.696  23.331  1.00  0.00     0.202 C 
BRANCH   4   5
ATOM      5  C   UNL A   1      30.380  28.268  24.354  1.00  0.00     0.261 C 
BRANCH   5   6
ATOM      6  O   UNL A   1      30.122  26.856  24.420  1.00  0.00    -0.463 OA
BRANCH   6   7
ATOM      7  C   UNL A   1      30.886  26.152  25.302  1.00  0.00     0.313 C 
ATOM      8  O   UNL A   1      31.069  26.470  26.468  1.00  0.00    -0.252 OA
BRANCH   7   9
ATOM      9  C   UNL A   1      31.400  24.866  24.673  1.00  0.00     0.151 C 
ATOM     10  C   UNL A   1      32.908  24.903  24.585  1.00  0.00     0.145 C 
ATOM     11  C   UNL A   1      33.108  25.647  23.269  1.00  0.00     0.187 C 
ATOM     12  O   UNL A   1      31.973  25.357  22.430  1.00  0.00    -0.378 OA
ATOM     13  C   UNL A   1      30.946  24.767  23.239  1.00  0.00     0.177 C 
BRANCH  10  14
ATOM     14  N   UNL A   1      33.571  23.604  24.547  1.00  0.00    -0.231 N 
ATOM     15  C   UNL A   1      35.430  20.791  24.974  1.00  0.00     0.041 C 
ATOM     16  C   UNL A   1      34.093  21.457  24.663  1.00  0.00     0.165 C 
ATOM     17  C   UNL A   1      32.958  20.430  24.657  1.00  0.00     0.041 C 
ATOM     18  C   UNL A   1      33.791  22.676  25.565  1.00  0.00     0.259 C 
ATOM     19  S   UNL A   1      34.068  22.624  23.333  1.00  0.00     0.252 S 
ATOM     20  O   UNL A   1      33.668  22.880  26.756  1.00  0.00    -0.272 OA
ATOM     21  O   UNL A   1      35.381  23.051  22.911  1.00  0.00    -0.205 OA
ATOM     22  O   UNL A   1      32.979  22.420  22.408  1.00  0.00    -0.205 OA
ENDBRANCH  10  14
ENDBRANCH   7   9
ENDBRANCH   6   7
ENDBRANCH   5   6
ENDBRANCH   4   5
ENDBRANCH   3   4
ENDBRANCH   2   3
ENDBRANCH   1   2
BRANCH   1  23
ATOM     23  O   UNL A   1      32.105  30.244  26.683  1.00  0.00    -0.376 OA
BRANCH  23  24
ATOM     24  C   UNL A   1      31.554  31.504  26.349  1.00  0.00     0.202 C 
BRANCH  24  25
ATOM     25  C   UNL A   1      31.750  32.794  27.176  1.00  0.00     0.261 C 
BRANCH  25  26
ATOM     26  O   UNL A   1      33.027  33.443  27.155  1.00  0.00    -0.460 OA
BRANCH  26  27
ATOM     27  C   UNL A   1      33.584  33.708  28.363  1.00  0.00     0.338 C 
ATOM     28  O   UNL A   1      33.092  34.369  29.262  1.00  0.00    -0.246 OA
BRANCH  27  29
ATOM     29  C   UNL A   1      34.820  32.911  28.522  1.00  0.00     0.060 A 
ATOM     30  C   UNL A   1      34.709  31.557  28.873  1.00  0.00     0.016 A 
ATOM     31  C   UNL A   1      36.076  33.507  28.399  1.00  0.00     0.016 A 
ATOM     32  C   UNL A   1      35.853  30.811  29.159  1.00  0.00     0.010 A 
ATOM     33  C   UNL A   1      37.220  32.762  28.707  1.00  0.00     0.010 A 
ATOM     34  C   UNL A   1      37.110  31.426  29.140  1.00  0.00    -0.014 A 
BRANCH  34  35
ATOM     35  C   UNL A   1      38.256  30.760  29.813  1.00  0.00     0.031 A 
ATOM     36  C   UNL A   1      38.555  31.145  31.242  1.00  0.00     0.074 A 
ATOM     37  C   UNL A   1      38.995  29.817  29.202  1.00  0.00     0.049 A 
ATOM     38  N   UNL A   1      39.515  30.737  32.030  1.00  0.00    -0.248 NA
ATOM     39  C   UNL A   1      37.644  32.123  31.864  1.00  0.00     0.031 C 
ATOM     40  C   UNL A   1      38.798  29.334  27.837  1.00  0.00     0.029 A 
ATOM     41  N   UNL A   1      40.084  29.110  29.655  1.00  0.00    -0.354 N 
ATOM     42  C   UNL A   1      39.338  31.424  33.228  1.00  0.00     0.074 A 
ATOM     43  C   UNL A   1      38.196  32.292  33.055  1.00  0.00     0.031 C 
ATOM     44  C   UNL A   1      39.754  28.430  27.552  1.00  0.00     0.029 A 
ATOM     45  C   UNL A   1      40.644  28.289  28.704  1.00  0.00     0.049 A 
ATOM     46  H   UNL A   1      40.429  29.185  30.573  1.00  0.00     0.167 HD
ATOM     47  C   UNL A   1      40.047  31.328  34.378  1.00  0.00     0.034 A 
ATOM     48  C   UNL A   1      41.760  27.534  28.754  1.00  0.00     0.034 A 
ATOM     49  C   UNL A   1      41.180  30.462  34.557  1.00  0.00     0.049 A 
ATOM     50  C   UNL A   1      42.566  27.492  30.032  1.00  0.00     0.074 A 
ATOM     51  C   UNL A   1      41.961  30.289  35.686  1.00  0.00     0.029 A 
ATOM     52  N   UNL A   1      41.698  29.627  33.580  1.00  0.00    -0.354 N 
ATOM     53  N   UNL A   1      42.337  28.085  31.179  1.00  0.00    -0.248 NA
ATOM     54  C   UNL A   1      43.764  26.638  30.031  1.00  0.00     0.031 C 
ATOM     55  C   UNL A   1      42.969  29.369  35.383  1.00  0.00     0.029 A 
ATOM     56  C   UNL A   1      42.785  28.932  34.081  1.00  0.00     0.049 A 
ATOM     57  H   UNL A   1      41.345  29.542  32.665  1.00  0.00     0.167 HD
ATOM     58  C   UNL A   1      43.325  27.627  32.049  1.00  0.00     0.074 A 
ATOM     59  C   UNL A   1      44.139  26.695  31.300  1.00  0.00     0.031 C 
ATOM     60  C   UNL A   1      43.545  27.954  33.348  1.00  0.00     0.034 A 
BRANCH  47  61
ATOM     61  C   UNL A   1      39.597  32.166  35.547  1.00  0.00     0.023 A 
ATOM     62  C   UNL A   1      40.001  33.514  35.636  1.00  0.00     0.012 A 
ATOM     63  C   UNL A   1      38.728  31.640  36.523  1.00  0.00     0.148 A 
ATOM     64  C   UNL A   1      39.573  34.316  36.693  1.00  0.00     0.002 A 
ATOM     65  C   UNL A   1      38.267  32.459  37.546  1.00  0.00     0.091 A 
ATOM     66  F   UNL A   1      38.370  30.351  36.431  1.00  0.00    -0.205 F 
ATOM     67  C   UNL A   1      38.698  33.792  37.640  1.00  0.00     0.022 A 
BRANCH  65  68
ATOM     68  S   UNL A   1      37.075  31.907  38.772  1.00  0.00     0.127 S 
ATOM     69  O   UNL A   1      35.906  32.717  38.432  1.00  0.00    -0.237 OA
ATOM     70  O   UNL A   1      36.947  30.486  38.452  1.00  0.00    -0.237 OA
ATOM     71  O   UNL A   1      37.669  32.192  40.071  1.00  0.00    -0.744 OA
ENDBRANCH  65  68
ENDBRANCH  47  61
BRANCH  48  72
ATOM     72  C   UNL A   1      42.195  26.727  27.576  1.00  0.00     0.023 A 
ATOM     73  C   UNL A   1      42.811  27.366  26.481  1.00  0.00     0.012 A 
ATOM     74  C   UNL A   1      41.946  25.343  27.507  1.00  0.00     0.148 A 
ATOM     75  C   UNL A   1      43.115  26.657  25.319  1.00  0.00     0.002 A 
ATOM     76  C   UNL A   1      42.307  24.630  26.370  1.00  0.00     0.091 A 
ATOM     77  F   UNL A   1      41.346  24.753  28.550  1.00  0.00    -0.205 F 
ATOM     78  C   UNL A   1      42.868  25.288  25.265  1.00  0.00     0.022 A 
BRANCH  76  79
ATOM     79  S   UNL A   1      42.132  22.846  26.255  1.00  0.00     0.127 S 
ATOM     80  O   UNL A   1      42.900  22.395  27.413  1.00  0.00    -0.237 OA
ATOM     81  O   UNL A   1      40.684  22.679  26.371  1.00  0.00    -0.237 OA
ATOM     82  O   UNL A   1      42.677  22.482  24.953  1.00  0.00    -0.744 OA
ENDBRANCH  76  79
ENDBRANCH  48  72
BRANCH  60  83
ATOM     83  C   UNL A   1      44.650  27.229  34.076  1.00  0.00     0.023 A 
ATOM     84  C   UNL A   1      44.391  26.023  34.756  1.00  0.00     0.012 A 
ATOM     85  C   UNL A   1      45.965  27.737  34.051  1.00  0.00     0.148 A 
ATOM     86  C   UNL A   1      45.409  25.367  35.450  1.00  0.00     0.002 A 
ATOM     87  C   UNL A   1      46.985  27.046  34.693  1.00  0.00     0.091 A 
ATOM     88  F   UNL A   1      46.193  28.893  33.411  1.00  0.00    -0.205 F 
ATOM     89  C   UNL A   1      46.707  25.873  35.410  1.00  0.00     0.022 A 
BRANCH  87  90
ATOM     90  S   UNL A   1      48.702  27.570  34.605  1.00  0.00     0.127 S 
ATOM     91  O   UNL A   1      48.674  28.810  35.379  1.00  0.00    -0.237 OA
ATOM     92  O   UNL A   1      49.398  26.460  35.258  1.00  0.00    -0.237 OA
ATOM     93  O   UNL A   1      49.003  27.722  33.189  1.00  0.00    -0.744 OA
ENDBRANCH  87  90
ENDBRANCH  60  83
ENDBRANCH  34  35
ENDBRANCH  27  29
ENDBRANCH  26  27
ENDBRANCH  25  26
ENDBRANCH  24  25
ENDBRANCH  23  24
ENDBRANCH   1  23
TORSDOF 21
ENDMDL
MODEL 3
REMARK VINA RESULT:      -9.7      2.117      2.858
REMARK SMILES CC1(C)C(=O)N([C@H]2COC[C@@H]2C(=O)OCCOCCOCCOC(=O)c2ccc(-c3c4nc(c(-c5cccc(S(=O)(=O)[O-])c5F)c5ccc([nH]5)c(-c5cccc(S(=O)(=O)[O-])c5F)c5nc(c(-c6cccc(S(=O)(=O)[O-])c6F)c6ccc3[nH]6)C=C5)C=C4)cc2)S1(=O)=O
REMARK SMILES IDX 19 1 18 2 17 3 16 4 15 5 14 6 12 7 13 8 11 9 7 10 8 11 9 12
REMARK SMILES IDX 10 13 6 14 1 15 2 16 3 17 4 18 89 19 5 20 90 21 91 22 20 23
REMARK SMILES IDX 21 24 22 25 23 26 24 27 25 28 26 29 27 30 88 31 28 32 87 33
REMARK SMILES IDX 29 34 30 35 31 36 81 37 32 38 86 39 80 40 82 41 33 42 85 43
REMARK SMILES IDX 79 44 78 45 34 47 66 48 46 49 65 50 47 51 50 52 64 53 83 54
REMARK SMILES IDX 48 55 49 56 63 58 84 59 51 60 35 61 36 62 44 63 37 64 39 65
REMARK SMILES IDX 45 66 38 67 40 68 41 69 42 70 43 71 67 72 68 73 76 74 69 75
REMARK SMILES IDX 71 76 77 77 70 78 72 79 73 80 74 81 75 82 52 83 53 84 61 85
REMARK SMILES IDX 54 86 56 87 62 88 55 89 57 90 58 91 59 92 60 93
REMARK H PARENT 82 46 50 57
REMARK Flexibility Score: inf
ROOT
ATOM      1  C   UNL A   1      34.083  29.129  26.645  1.00  0.00     0.188 C 
ENDROOT
BRANCH   1   2
ATOM      2  C   UNL A   1      33.421  27.790  26.242  1.00  0.00     0.188 C 
BRANCH   2   3
ATOM      3  O   UNL A   1      32.090  27.773  25.744  1.00  0.00    -0.376 OA
BRANCH   3   4
ATOM      4  C   UNL A   1      31.815  28.190  24.416  1.00  0.00     0.202 C 
BRANCH   4   5
ATOM      5  C   UNL A   1      31.778  27.177  23.258  1.00  0.00     0.261 C 
BRANCH   5   6
ATOM      6  O   UNL A   1      32.446  25.930  23.511  1.00  0.00    -0.463 OA
BRANCH   6   7
ATOM      7  C   UNL A   1      31.641  24.872  23.805  1.00  0.00     0.313 C 
ATOM      8  O   UNL A   1      30.421  24.880  23.709  1.00  0.00    -0.252 OA
BRANCH   7   9
ATOM      9  C   UNL A   1      32.462  23.648  24.176  1.00  0.00     0.151 C 
ATOM     10  C   UNL A   1      33.768  23.654  23.416  1.00  0.00     0.145 C 
ATOM     11  C   UNL A   1      33.348  22.996  22.105  1.00  0.00     0.187 C 
ATOM     12  O   UNL A   1      32.262  22.097  22.399  1.00  0.00    -0.378 OA
ATOM     13  C   UNL A   1      31.768  22.392  23.713  1.00  0.00     0.177 C 
BRANCH  10  14
ATOM     14  N   UNL A   1      34.864  22.914  24.034  1.00  0.00    -0.231 N 
ATOM     15  C   UNL A   1      37.504  20.950  24.886  1.00  0.00     0.041 C 
ATOM     16  C   UNL A   1      36.762  22.281  24.978  1.00  0.00     0.165 C 
ATOM     17  C   UNL A   1      37.627  23.344  25.659  1.00  0.00     0.041 C 
ATOM     18  C   UNL A   1      36.187  22.757  23.623  1.00  0.00     0.259 C 
ATOM     19  S   UNL A   1      35.074  22.223  25.504  1.00  0.00     0.252 S 
ATOM     20  O   UNL A   1      36.631  23.026  22.525  1.00  0.00    -0.272 OA
ATOM     21  O   UNL A   1      34.501  20.899  25.471  1.00  0.00    -0.205 OA
ATOM     22  O   UNL A   1      34.758  23.186  26.532  1.00  0.00    -0.205 OA
ENDBRANCH  10  14
ENDBRANCH   7   9
ENDBRANCH   6   7
ENDBRANCH   5   6
ENDBRANCH   4   5
ENDBRANCH   3   4
ENDBRANCH   2   3
ENDBRANCH   1   2
BRANCH   1  23
ATOM     23  O   UNL A   1      33.282  30.260  26.401  1.00  0.00    -0.376 OA
BRANCH  23  24
ATOM     24  C   UNL A   1      32.931  31.093  27.491  1.00  0.00     0.202 C 
BRANCH  24  25
ATOM     25  C   UNL A   1      33.447  32.535  27.693  1.00  0.00     0.261 C 
BRANCH  25  26
ATOM     26  O   UNL A   1      34.784  32.733  28.170  1.00  0.00    -0.460 OA
BRANCH  26  27
ATOM     27  C   UNL A   1      35.044  32.290  29.425  1.00  0.00     0.338 C 
ATOM     28  O   UNL A   1      34.355  32.467  30.416  1.00  0.00    -0.246 OA
BRANCH  27  29
ATOM     29  C   UNL A   1      36.208  31.378  29.396  1.00  0.00     0.060 A 
ATOM     30  C   UNL A   1      36.157  30.195  30.146  1.00  0.00     0.016 A 
ATOM     31  C   UNL A   1      37.366  31.721  28.696  1.00  0.00     0.016 A 
ATOM     32  C   UNL A   1      37.284  29.378  30.245  1.00  0.00     0.010 A 
ATOM     33  C   UNL A   1      38.502  30.911  28.815  1.00  0.00     0.010 A 
ATOM     34  C   UNL A   1      38.482  29.765  29.633  1.00  0.00    -0.014 A 
BRANCH  34  35
ATOM     35  C   UNL A   1      39.755  29.124  30.056  1.00  0.00     0.031 A 
ATOM     36  C   UNL A   1      40.430  29.650  31.300  1.00  0.00     0.074 A 
ATOM     37  C   UNL A   1      40.289  28.085  29.389  1.00  0.00     0.049 A 
ATOM     38  N   UNL A   1      41.559  29.288  31.851  1.00  0.00    -0.248 NA
ATOM     39  C   UNL A   1      39.733  30.733  32.018  1.00  0.00     0.031 C 
ATOM     40  C   UNL A   1      39.728  27.464  28.191  1.00  0.00     0.029 A 
ATOM     41  N   UNL A   1      41.448  27.383  29.621  1.00  0.00    -0.354 N 
ATOM     42  C   UNL A   1      41.718  30.110  32.962  1.00  0.00     0.074 A 
ATOM     43  C   UNL A   1      40.585  31.007  32.993  1.00  0.00     0.031 C 
ATOM     44  C   UNL A   1      40.559  26.490  27.775  1.00  0.00     0.029 A 
ATOM     45  C   UNL A   1      41.721  26.436  28.661  1.00  0.00     0.049 A 
ATOM     46  H   UNL A   1      42.026  27.542  30.401  1.00  0.00     0.167 HD
ATOM     47  C   UNL A   1      42.706  30.109  33.889  1.00  0.00     0.034 A 
ATOM     48  C   UNL A   1      42.798  25.640  28.506  1.00  0.00     0.034 A 
ATOM     49  C   UNL A   1      43.832  29.216  33.866  1.00  0.00     0.049 A 
ATOM     50  C   UNL A   1      43.914  25.701  29.523  1.00  0.00     0.074 A 
ATOM     51  C   UNL A   1      44.883  29.132  34.762  1.00  0.00     0.029 A 
ATOM     52  N   UNL A   1      44.058  28.254  32.894  1.00  0.00    -0.354 N 
ATOM     53  N   UNL A   1      44.010  26.427  30.611  1.00  0.00    -0.248 NA
ATOM     54  C   UNL A   1      45.055  24.796  29.310  1.00  0.00     0.031 C 
ATOM     55  C   UNL A   1      45.759  28.138  34.317  1.00  0.00     0.029 A 
ATOM     56  C   UNL A   1      45.227  27.569  33.170  1.00  0.00     0.049 A 
ATOM     57  H   UNL A   1      43.472  28.085  32.120  1.00  0.00     0.167 HD
ATOM     58  C   UNL A   1      45.185  26.023  31.239  1.00  0.00     0.074 A 
ATOM     59  C   UNL A   1      45.756  24.976  30.419  1.00  0.00     0.031 C 
ATOM     60  C   UNL A   1      45.749  26.481  32.386  1.00  0.00     0.034 A 
BRANCH  47  61
ATOM     61  C   UNL A   1      42.598  31.091  35.026  1.00  0.00     0.023 A 
ATOM     62  C   UNL A   1      41.994  30.694  36.237  1.00  0.00     0.012 A 
ATOM     63  C   UNL A   1      43.145  32.385  34.920  1.00  0.00     0.148 A 
ATOM     64  C   UNL A   1      41.909  31.577  37.312  1.00  0.00     0.002 A 
ATOM     65  C   UNL A   1      43.101  33.243  36.013  1.00  0.00     0.091 A 
ATOM     66  F   UNL A   1      43.699  32.750  33.754  1.00  0.00    -0.205 F 
ATOM     67  C   UNL A   1      42.472  32.845  37.204  1.00  0.00     0.022 A 
BRANCH  65  68
ATOM     68  S   UNL A   1      43.866  34.868  36.005  1.00  0.00     0.127 S 
ATOM     69  O   UNL A   1      43.095  35.552  34.969  1.00  0.00    -0.237 OA
ATOM     70  O   UNL A   1      43.605  35.332  37.367  1.00  0.00    -0.237 OA
ATOM     71  O   UNL A   1      45.272  34.653  35.691  1.00  0.00    -0.744 OA
ENDBRANCH  65  68
ENDBRANCH  47  61
BRANCH  48  72
ATOM     72  C   UNL A   1      42.891  24.687  27.360  1.00  0.00     0.023 A 
ATOM     73  C   UNL A   1      43.392  25.134  26.121  1.00  0.00     0.012 A 
ATOM     74  C   UNL A   1      42.428  23.362  27.472  1.00  0.00     0.148 A 
ATOM     75  C   UNL A   1      43.375  24.301  25.002  1.00  0.00     0.002 A 
ATOM     76  C   UNL A   1      42.469  22.518  26.369  1.00  0.00     0.091 A 
ATOM     77  F   UNL A   1      41.939  22.958  28.653  1.00  0.00    -0.205 F 
ATOM     78  C   UNL A   1      42.919  22.991  25.127  1.00  0.00     0.022 A 
BRANCH  76  79
ATOM     79  S   UNL A   1      42.009  20.785  26.464  1.00  0.00     0.127 S 
ATOM     80  O   UNL A   1      40.602  20.827  26.074  1.00  0.00    -0.237 OA
ATOM     81  O   UNL A   1      42.906  20.182  25.478  1.00  0.00    -0.237 OA
ATOM     82  O   UNL A   1      42.273  20.384  27.840  1.00  0.00    -0.744 OA
ENDBRANCH  76  79
ENDBRANCH  48  72
BRANCH  60  83
ATOM     83  C   UNL A   1      46.996  25.790  32.879  1.00  0.00     0.023 A 
ATOM     84  C   UNL A   1      48.272  26.255  32.501  1.00  0.00     0.012 A 
ATOM     85  C   UNL A   1      46.896  24.689  33.755  1.00  0.00     0.148 A 
ATOM     86  C   UNL A   1      49.423  25.599  32.937  1.00  0.00     0.002 A 
ATOM     87  C   UNL A   1      48.049  24.080  34.234  1.00  0.00     0.091 A 
ATOM     88  F   UNL A   1      45.676  24.251  34.095  1.00  0.00    -0.205 F 
ATOM     89  C   UNL A   1      49.313  24.519  33.811  1.00  0.00     0.022 A 
BRANCH  87  90
ATOM     90  S   UNL A   1      48.001  22.751  35.442  1.00  0.00     0.127 S 
ATOM     91  O   UNL A   1      49.357  22.793  35.985  1.00  0.00    -0.237 OA
ATOM     92  O   UNL A   1      46.961  23.209  36.365  1.00  0.00    -0.237 OA
ATOM     93  O   UNL A   1      47.661  21.546  34.699  1.00  0.00    -0.744 OA
ENDBRANCH  87  90
ENDBRANCH  60  83
ENDBRANCH  34  35
ENDBRANCH  27  29
ENDBRANCH  26  27
ENDBRANCH  25  26
ENDBRANCH  24  25
ENDBRANCH  23  24
ENDBRANCH   1  23
TORSDOF 21
ENDMDL
