MODEL 1
REMARK VINA RESULT:      -9.8      0.000      0.000
REMARK SMILES O=C(OCCOCCOCCOC(=O)c1cc(Br)ccc1OC(=O)c1ccc(F)cc1)c1ccc(-c2c3nc(c(-c4cccc(S(=O)(=O)[O-])c4F)c4ccc([nH]4)c(-c4cccc(S(=O)(=O)[O-])c4F)c4nc(c(-c5cccc(S(=O)(=O)[O-])c5F)c5ccc2[nH]5)C=C4)C=C3)cc1
REMARK SMILES IDX 7 1 6 2 5 3 4 4 3 5 2 6 1 7 32 8 33 9 94 10 34 11 93 12
REMARK SMILES IDX 35 13 36 14 37 15 87 16 38 17 92 18 86 19 88 20 39 21 91 22
REMARK SMILES IDX 85 23 84 24 40 26 72 27 52 28 71 29 53 30 56 31 70 32 89 33
REMARK SMILES IDX 54 34 55 35 69 37 90 38 57 39 41 40 42 41 50 42 43 43 45 44
REMARK SMILES IDX 51 45 44 46 46 47 47 48 48 49 49 50 73 51 74 52 82 53 75 54
REMARK SMILES IDX 77 55 83 56 76 57 78 58 79 59 80 60 81 61 58 62 59 63 67 64
REMARK SMILES IDX 60 65 62 66 68 67 61 68 63 69 64 70 65 71 66 72 8 73 9 74
REMARK SMILES IDX 10 75 11 76 12 77 13 78 14 79 15 80 16 81 21 82 17 83 20 84
REMARK SMILES IDX 18 85 19 86 22 87 23 88 24 89 25 90 26 91 31 92 27 93 30 94
REMARK SMILES IDX 28 95 29 96
REMARK H PARENT 88 25 56 36
REMARK Flexibility Score: inf
ROOT
ATOM      1  C   UNL A   1      33.975  31.250  27.788  1.00  0.00     0.188 C 
ENDROOT
BRANCH   1   2
ATOM      2  O   UNL A   1      33.999  32.420  28.601  1.00  0.00    -0.376 OA
BRANCH   2   3
ATOM      3  C   UNL A   1      33.341  33.563  28.067  1.00  0.00     0.202 C 
BRANCH   3   4
ATOM      4  C   UNL A   1      33.562  34.871  28.851  1.00  0.00     0.261 C 
BRANCH   4   5
ATOM      5  O   UNL A   1      32.635  35.022  29.944  1.00  0.00    -0.460 OA
BRANCH   5   6
ATOM      6  C   UNL A   1      32.966  35.158  31.256  1.00  0.00     0.338 C 
ATOM      7  O   UNL A   1      32.267  35.882  31.963  1.00  0.00    -0.246 OA
BRANCH   6   8
ATOM      8  C   UNL A   1      34.240  34.604  31.830  1.00  0.00     0.060 A 
ATOM      9  C   UNL A   1      35.417  35.330  32.000  1.00  0.00     0.016 A 
ATOM     10  C   UNL A   1      34.246  33.258  32.249  1.00  0.00     0.016 A 
ATOM     11  C   UNL A   1      36.573  34.745  32.495  1.00  0.00     0.010 A 
ATOM     12  C   UNL A   1      35.407  32.657  32.762  1.00  0.00     0.010 A 
ATOM     13  C   UNL A   1      36.588  33.399  32.844  1.00  0.00    -0.014 A 
BRANCH  13  14
ATOM     14  C   UNL A   1      37.920  32.810  33.084  1.00  0.00     0.031 A 
ATOM     15  C   UNL A   1      38.600  33.127  34.385  1.00  0.00     0.074 A 
ATOM     16  C   UNL A   1      38.371  31.837  32.272  1.00  0.00     0.049 A 
ATOM     17  N   UNL A   1      39.627  32.546  34.940  1.00  0.00    -0.248 NA
ATOM     18  C   UNL A   1      38.020  34.219  35.188  1.00  0.00     0.031 C 
ATOM     19  C   UNL A   1      37.719  31.402  31.034  1.00  0.00     0.029 A 
ATOM     20  N   UNL A   1      39.449  30.999  32.396  1.00  0.00    -0.354 N 
ATOM     21  C   UNL A   1      39.829  33.210  36.144  1.00  0.00     0.074 A 
ATOM     22  C   UNL A   1      38.818  34.237  36.244  1.00  0.00     0.031 C 
ATOM     23  C   UNL A   1      38.394  30.355  30.530  1.00  0.00     0.029 A 
ATOM     24  C   UNL A   1      39.530  30.059  31.395  1.00  0.00     0.049 A 
ATOM     25  H   UNL A   1      40.101  31.063  33.130  1.00  0.00     0.167 HD
ATOM     26  C   UNL A   1      40.769  32.977  37.087  1.00  0.00     0.034 A 
ATOM     27  C   UNL A   1      40.415  29.061  31.212  1.00  0.00     0.034 A 
ATOM     28  C   UNL A   1      41.762  31.947  36.971  1.00  0.00     0.049 A 
ATOM     29  C   UNL A   1      41.480  28.848  32.253  1.00  0.00     0.074 A 
ATOM     30  C   UNL A   1      42.792  31.645  37.840  1.00  0.00     0.029 A 
ATOM     31  N   UNL A   1      41.849  31.058  35.909  1.00  0.00    -0.354 N 
ATOM     32  N   UNL A   1      41.637  29.460  33.403  1.00  0.00    -0.248 NA
ATOM     33  C   UNL A   1      42.474  27.799  31.987  1.00  0.00     0.031 C 
ATOM     34  C   UNL A   1      43.522  30.589  37.288  1.00  0.00     0.029 A 
ATOM     35  C   UNL A   1      42.929  30.215  36.090  1.00  0.00     0.049 A 
ATOM     36  H   UNL A   1      41.234  31.032  35.142  1.00  0.00     0.167 HD
ATOM     37  C   UNL A   1      42.741  28.870  34.002  1.00  0.00     0.074 A 
ATOM     38  C   UNL A   1      43.200  27.833  33.099  1.00  0.00     0.031 C 
ATOM     39  C   UNL A   1      43.333  29.169  35.184  1.00  0.00     0.034 A 
BRANCH  26  40
ATOM     40  C   UNL A   1      40.772  33.866  38.299  1.00  0.00     0.023 A 
ATOM     41  C   UNL A   1      41.639  34.975  38.356  1.00  0.00     0.012 A 
ATOM     42  C   UNL A   1      39.911  33.602  39.381  1.00  0.00     0.148 A 
ATOM     43  C   UNL A   1      41.669  35.793  39.487  1.00  0.00     0.002 A 
ATOM     44  C   UNL A   1      39.921  34.441  40.489  1.00  0.00     0.091 A 
ATOM     45  F   UNL A   1      39.118  32.523  39.319  1.00  0.00    -0.205 F 
ATOM     46  C   UNL A   1      40.806  35.530  40.548  1.00  0.00     0.022 A 
BRANCH  44  47
ATOM     47  S   UNL A   1      38.811  34.212  41.881  1.00  0.00     0.127 S 
ATOM     48  O   UNL A   1      37.511  34.154  41.215  1.00  0.00    -0.237 OA
ATOM     49  O   UNL A   1      39.269  32.937  42.436  1.00  0.00    -0.237 OA
ATOM     50  O   UNL A   1      39.019  35.360  42.752  1.00  0.00    -0.744 OA
ENDBRANCH  44  47
ENDBRANCH  26  40
BRANCH  27  51
ATOM     51  C   UNL A   1      40.299  28.171  30.023  1.00  0.00     0.023 A 
ATOM     52  C   UNL A   1      39.348  27.134  30.019  1.00  0.00     0.012 A 
ATOM     53  C   UNL A   1      41.101  28.375  28.883  1.00  0.00     0.148 A 
ATOM     54  C   UNL A   1      39.200  26.313  28.900  1.00  0.00     0.002 A 
ATOM     55  C   UNL A   1      40.937  27.564  27.766  1.00  0.00     0.091 A 
ATOM     56  F   UNL A   1      42.013  29.358  28.917  1.00  0.00    -0.205 F 
ATOM     57  C   UNL A   1      39.987  26.532  27.772  1.00  0.00     0.022 A 
BRANCH  55  58
ATOM     58  S   UNL A   1      41.887  27.800  26.257  1.00  0.00     0.127 S 
ATOM     59  O   UNL A   1      41.401  26.701  25.427  1.00  0.00    -0.237 OA
ATOM     60  O   UNL A   1      41.456  29.130  25.828  1.00  0.00    -0.237 OA
ATOM     61  O   UNL A   1      43.285  27.717  26.658  1.00  0.00    -0.744 OA
ENDBRANCH  55  58
ENDBRANCH  27  51
BRANCH  39  62
ATOM     62  C   UNL A   1      44.553  28.385  35.582  1.00  0.00     0.023 A 
ATOM     63  C   UNL A   1      45.828  28.911  35.304  1.00  0.00     0.012 A 
ATOM     64  C   UNL A   1      44.429  27.231  36.380  1.00  0.00     0.148 A 
ATOM     65  C   UNL A   1      46.969  28.296  35.817  1.00  0.00     0.002 A 
ATOM     66  C   UNL A   1      45.566  26.653  36.927  1.00  0.00     0.091 A 
ATOM     67  F   UNL A   1      43.201  26.745  36.613  1.00  0.00    -0.205 F 
ATOM     68  C   UNL A   1      46.837  27.181  36.643  1.00  0.00     0.022 A 
BRANCH  66  69
ATOM     69  S   UNL A   1      45.485  25.288  38.092  1.00  0.00     0.127 S 
ATOM     70  O   UNL A   1      46.896  25.089  38.416  1.00  0.00    -0.237 OA
ATOM     71  O   UNL A   1      44.683  25.855  39.177  1.00  0.00    -0.237 OA
ATOM     72  O   UNL A   1      44.849  24.188  37.379  1.00  0.00    -0.744 OA
ENDBRANCH  66  69
ENDBRANCH  39  62
ENDBRANCH  13  14
ENDBRANCH   6   8
ENDBRANCH   5   6
ENDBRANCH   4   5
ENDBRANCH   3   4
ENDBRANCH   2   3
ENDBRANCH   1   2
BRANCH   1  73
ATOM     73  C   UNL A   1      32.769  31.149  26.856  1.00  0.00     0.188 C 
BRANCH  73  74
ATOM     74  O   UNL A   1      32.488  29.804  26.489  1.00  0.00    -0.376 OA
BRANCH  74  75
ATOM     75  C   UNL A   1      31.966  28.990  27.539  1.00  0.00     0.202 C 
BRANCH  75  76
ATOM     76  C   UNL A   1      31.968  27.484  27.250  1.00  0.00     0.261 C 
BRANCH  76  77
ATOM     77  O   UNL A   1      30.713  26.832  26.969  1.00  0.00    -0.460 OA
BRANCH  77  78
ATOM     78  C   UNL A   1      30.623  25.840  26.058  1.00  0.00     0.342 C 
ATOM     79  O   UNL A   1      30.207  24.711  26.212  1.00  0.00    -0.246 OA
BRANCH  78  80
ATOM     80  C   UNL A   1      31.158  26.370  24.798  1.00  0.00     0.103 A 
ATOM     81  C   UNL A   1      30.420  27.387  24.179  1.00  0.00     0.035 A 
ATOM     82  C   UNL A   1      32.350  25.914  24.229  1.00  0.00     0.145 A 
ATOM     83  C   UNL A   1      30.884  27.942  22.992  1.00  0.00     0.019 A 
ATOM     84  C   UNL A   1      32.790  26.456  23.013  1.00  0.00     0.049 A 
ATOM     85  Br  UNL A   1      29.906  29.340  22.191  1.00  0.00    -0.051 Br
ATOM     86  C   UNL A   1      32.059  27.481  22.403  1.00  0.00     0.019 A 
BRANCH  82  87
ATOM     87  O   UNL A   1      33.086  24.851  24.780  1.00  0.00    -0.422 OA
BRANCH  87  88
ATOM     88  C   UNL A   1      33.052  23.717  23.986  1.00  0.00     0.343 C 
ATOM     89  O   UNL A   1      32.118  23.332  23.299  1.00  0.00    -0.246 OA
BRANCH  88  90
ATOM     90  C   UNL A   1      34.297  22.911  24.148  1.00  0.00     0.060 A 
ATOM     91  C   UNL A   1      35.457  23.369  23.504  1.00  0.00     0.019 A 
ATOM     92  C   UNL A   1      34.367  21.739  24.909  1.00  0.00     0.019 A 
ATOM     93  C   UNL A   1      36.658  22.661  23.614  1.00  0.00     0.040 A 
ATOM     94  C   UNL A   1      35.568  21.029  25.021  1.00  0.00     0.040 A 
ATOM     95  C   UNL A   1      36.703  21.498  24.373  1.00  0.00     0.123 A 
ATOM     96  F   UNL A   1      37.857  20.828  24.487  1.00  0.00    -0.207 F 
ENDBRANCH  88  90
ENDBRANCH  87  88
ENDBRANCH  82  87
ENDBRANCH  78  80
ENDBRANCH  77  78
ENDBRANCH  76  77
ENDBRANCH  75  76
ENDBRANCH  74  75
ENDBRANCH  73  74
ENDBRANCH   1  73
TORSDOF 23
ENDMDL
MODEL 2
REMARK VINA RESULT:      -9.8      6.470     11.505
REMARK SMILES O=C(OCCOCCOCCOC(=O)c1cc(Br)ccc1OC(=O)c1ccc(F)cc1)c1ccc(-c2c3nc(c(-c4cccc(S(=O)(=O)[O-])c4F)c4ccc([nH]4)c(-c4cccc(S(=O)(=O)[O-])c4F)c4nc(c(-c5cccc(S(=O)(=O)[O-])c5F)c5ccc2[nH]5)C=C4)C=C3)cc1
REMARK SMILES IDX 7 1 6 2 5 3 4 4 3 5 2 6 1 7 32 8 33 9 94 10 34 11 93 12
REMARK SMILES IDX 35 13 36 14 37 15 87 16 38 17 92 18 86 19 88 20 39 21 91 22
REMARK SMILES IDX 85 23 84 24 40 26 72 27 52 28 71 29 53 30 56 31 70 32 89 33
REMARK SMILES IDX 54 34 55 35 69 37 90 38 57 39 41 40 42 41 50 42 43 43 45 44
REMARK SMILES IDX 51 45 44 46 46 47 47 48 48 49 49 50 73 51 74 52 82 53 75 54
REMARK SMILES IDX 77 55 83 56 76 57 78 58 79 59 80 60 81 61 58 62 59 63 67 64
REMARK SMILES IDX 60 65 62 66 68 67 61 68 63 69 64 70 65 71 66 72 8 73 9 74
REMARK SMILES IDX 10 75 11 76 12 77 13 78 14 79 15 80 16 81 21 82 17 83 20 84
REMARK SMILES IDX 18 85 19 86 22 87 23 88 24 89 25 90 26 91 31 92 27 93 30 94
REMARK SMILES IDX 28 95 29 96
REMARK H PARENT 88 25 56 36
REMARK Flexibility Score: inf
ROOT
ATOM      1  C   UNL A   1      40.575  22.233  27.486  1.00  0.00     0.188 C 
ENDROOT
BRANCH   1   2
ATOM      2  O   UNL A   1      40.951  20.896  27.170  1.00  0.00    -0.376 OA
BRANCH   2   3
ATOM      3  C   UNL A   1      42.304  20.707  26.772  1.00  0.00     0.202 C 
BRANCH   3   4
ATOM      4  C   UNL A   1      43.146  21.994  26.679  1.00  0.00     0.261 C 
BRANCH   4   5
ATOM      5  O   UNL A   1      44.238  21.872  25.746  1.00  0.00    -0.460 OA
BRANCH   5   6
ATOM      6  C   UNL A   1      45.423  22.536  25.815  1.00  0.00     0.338 C 
ATOM      7  O   UNL A   1      46.453  21.926  25.534  1.00  0.00    -0.246 OA
BRANCH   6   8
ATOM      8  C   UNL A   1      45.541  23.922  26.386  1.00  0.00     0.060 A 
ATOM      9  C   UNL A   1      45.893  24.213  27.701  1.00  0.00     0.016 A 
ATOM     10  C   UNL A   1      45.297  25.013  25.526  1.00  0.00     0.016 A 
ATOM     11  C   UNL A   1      45.940  25.515  28.176  1.00  0.00     0.010 A 
ATOM     12  C   UNL A   1      45.352  26.336  25.992  1.00  0.00     0.010 A 
ATOM     13  C   UNL A   1      45.634  26.582  27.338  1.00  0.00    -0.014 A 
BRANCH  13  14
ATOM     14  C   UNL A   1      45.434  27.885  28.001  1.00  0.00     0.031 A 
ATOM     15  C   UNL A   1      46.553  28.884  27.932  1.00  0.00     0.074 A 
ATOM     16  C   UNL A   1      44.205  28.234  28.422  1.00  0.00     0.049 A 
ATOM     17  N   UNL A   1      46.536  30.161  28.197  1.00  0.00    -0.248 NA
ATOM     18  C   UNL A   1      47.859  28.386  27.461  1.00  0.00     0.031 C 
ATOM     19  C   UNL A   1      43.036  27.350  28.435  1.00  0.00     0.029 A 
ATOM     20  N   UNL A   1      43.719  29.438  28.864  1.00  0.00    -0.354 N 
ATOM     21  C   UNL A   1      47.825  30.615  27.945  1.00  0.00     0.074 A 
ATOM     22  C   UNL A   1      48.602  29.481  27.503  1.00  0.00     0.031 C 
ATOM     23  C   UNL A   1      41.962  28.052  28.833  1.00  0.00     0.029 A 
ATOM     24  C   UNL A   1      42.368  29.424  29.118  1.00  0.00     0.049 A 
ATOM     25  H   UNL A   1      44.284  30.235  28.985  1.00  0.00     0.167 HD
ATOM     26  C   UNL A   1      48.313  31.869  28.063  1.00  0.00     0.034 A 
ATOM     27  C   UNL A   1      41.550  30.416  29.521  1.00  0.00     0.034 A 
ATOM     28  C   UNL A   1      47.523  32.985  28.499  1.00  0.00     0.049 A 
ATOM     29  C   UNL A   1      42.127  31.795  29.687  1.00  0.00     0.074 A 
ATOM     30  C   UNL A   1      47.919  34.293  28.699  1.00  0.00     0.029 A 
ATOM     31  N   UNL A   1      46.172  32.915  28.810  1.00  0.00    -0.354 N 
ATOM     32  N   UNL A   1      43.339  32.217  29.412  1.00  0.00    -0.248 NA
ATOM     33  C   UNL A   1      41.227  32.838  30.198  1.00  0.00     0.031 C 
ATOM     34  C   UNL A   1      46.812  35.010  29.161  1.00  0.00     0.029 A 
ATOM     35  C   UNL A   1      45.720  34.154  29.220  1.00  0.00     0.049 A 
ATOM     36  H   UNL A   1      45.620  32.104  28.748  1.00  0.00     0.167 HD
ATOM     37  C   UNL A   1      43.348  33.573  29.708  1.00  0.00     0.074 A 
ATOM     38  C   UNL A   1      42.012  33.909  30.161  1.00  0.00     0.031 C 
ATOM     39  C   UNL A   1      44.372  34.457  29.630  1.00  0.00     0.034 A 
BRANCH  26  40
ATOM     40  C   UNL A   1      49.766  32.082  27.739  1.00  0.00     0.023 A 
ATOM     41  C   UNL A   1      50.757  31.686  28.658  1.00  0.00     0.012 A 
ATOM     42  C   UNL A   1      50.148  32.672  26.519  1.00  0.00     0.148 A 
ATOM     43  C   UNL A   1      52.109  31.901  28.380  1.00  0.00     0.002 A 
ATOM     44  C   UNL A   1      51.495  32.851  26.234  1.00  0.00     0.091 A 
ATOM     45  F   UNL A   1      49.187  33.071  25.674  1.00  0.00    -0.205 F 
ATOM     46  C   UNL A   1      52.477  32.476  27.166  1.00  0.00     0.022 A 
BRANCH  44  47
ATOM     47  S   UNL A   1      52.067  33.538  24.676  1.00  0.00     0.127 S 
ATOM     48  O   UNL A   1      53.500  33.689  24.929  1.00  0.00    -0.237 OA
ATOM     49  O   UNL A   1      51.727  32.477  23.727  1.00  0.00    -0.237 OA
ATOM     50  O   UNL A   1      51.328  34.778  24.490  1.00  0.00    -0.744 OA
ENDBRANCH  44  47
ENDBRANCH  26  40
BRANCH  27  51
ATOM     51  C   UNL A   1      40.104  30.143  29.745  1.00  0.00     0.023 A 
ATOM     52  C   UNL A   1      39.256  29.925  28.644  1.00  0.00     0.012 A 
ATOM     53  C   UNL A   1      39.575  30.061  31.049  1.00  0.00     0.148 A 
ATOM     54  C   UNL A   1      37.905  29.634  28.837  1.00  0.00     0.002 A 
ATOM     55  C   UNL A   1      38.232  29.754  31.235  1.00  0.00     0.091 A 
ATOM     56  F   UNL A   1      40.398  30.291  32.083  1.00  0.00    -0.205 F 
ATOM     57  C   UNL A   1      37.395  29.539  30.130  1.00  0.00     0.022 A 
BRANCH  55  58
ATOM     58  S   UNL A   1      37.501  29.580  32.869  1.00  0.00     0.127 S 
ATOM     59  O   UNL A   1      36.198  30.212  32.678  1.00  0.00    -0.237 OA
ATOM     60  O   UNL A   1      37.460  28.126  33.033  1.00  0.00    -0.237 OA
ATOM     61  O   UNL A   1      38.409  30.266  33.778  1.00  0.00    -0.744 OA
ENDBRANCH  55  58
ENDBRANCH  27  51
BRANCH  39  62
ATOM     62  C   UNL A   1      44.112  35.878  30.050  1.00  0.00     0.023 A 
ATOM     63  C   UNL A   1      44.519  36.300  31.330  1.00  0.00     0.012 A 
ATOM     64  C   UNL A   1      43.635  36.821  29.120  1.00  0.00     0.148 A 
ATOM     65  C   UNL A   1      44.455  37.647  31.679  1.00  0.00     0.002 A 
ATOM     66  C   UNL A   1      43.620  38.167  29.458  1.00  0.00     0.091 A 
ATOM     67  F   UNL A   1      43.240  36.385  27.915  1.00  0.00    -0.205 F 
ATOM     68  C   UNL A   1      44.024  38.581  30.738  1.00  0.00     0.022 A 
BRANCH  66  69
ATOM     69  S   UNL A   1      43.192  39.450  28.276  1.00  0.00     0.127 S 
ATOM     70  O   UNL A   1      44.087  39.139  27.163  1.00  0.00    -0.237 OA
ATOM     71  O   UNL A   1      41.778  39.175  28.019  1.00  0.00    -0.237 OA
ATOM     72  O   UNL A   1      43.450  40.717  28.947  1.00  0.00    -0.744 OA
ENDBRANCH  66  69
ENDBRANCH  39  62
ENDBRANCH  13  14
ENDBRANCH   6   8
ENDBRANCH   5   6
ENDBRANCH   4   5
ENDBRANCH   3   4
ENDBRANCH   2   3
ENDBRANCH   1   2
BRANCH   1  73
ATOM     73  C   UNL A   1      39.334  22.735  26.749  1.00  0.00     0.188 C 
BRANCH  73  74
ATOM     74  O   UNL A   1      38.830  21.769  25.834  1.00  0.00    -0.376 OA
BRANCH  74  75
ATOM     75  C   UNL A   1      37.644  22.158  25.143  1.00  0.00     0.202 C 
BRANCH  75  76
ATOM     76  C   UNL A   1      36.973  23.429  25.677  1.00  0.00     0.261 C 
BRANCH  76  77
ATOM     77  O   UNL A   1      36.098  24.170  24.802  1.00  0.00    -0.460 OA
BRANCH  77  78
ATOM     78  C   UNL A   1      35.141  23.554  24.076  1.00  0.00     0.342 C 
ATOM     79  O   UNL A   1      35.228  23.083  22.961  1.00  0.00    -0.246 OA
BRANCH  78  80
ATOM     80  C   UNL A   1      33.918  23.568  24.886  1.00  0.00     0.103 A 
ATOM     81  C   UNL A   1      33.410  24.825  25.239  1.00  0.00     0.035 A 
ATOM     82  C   UNL A   1      33.259  22.402  25.286  1.00  0.00     0.145 A 
ATOM     83  C   UNL A   1      32.244  24.905  25.991  1.00  0.00     0.019 A 
ATOM     84  C   UNL A   1      32.104  22.492  26.073  1.00  0.00     0.049 A 
ATOM     85  Br  UNL A   1      31.546  26.601  26.423  1.00  0.00    -0.051 Br
ATOM     86  C   UNL A   1      31.591  23.749  26.415  1.00  0.00     0.019 A 
BRANCH  82  87
ATOM     87  O   UNL A   1      33.769  21.121  25.011  1.00  0.00    -0.422 OA
BRANCH  87  88
ATOM     88  C   UNL A   1      33.022  20.448  24.059  1.00  0.00     0.343 C 
ATOM     89  O   UNL A   1      32.326  20.947  23.187  1.00  0.00    -0.246 OA
BRANCH  88  90
ATOM     90  C   UNL A   1      33.066  18.974  24.285  1.00  0.00     0.060 A 
ATOM     91  C   UNL A   1      32.700  18.500  25.555  1.00  0.00     0.019 A 
ATOM     92  C   UNL A   1      33.440  18.051  23.302  1.00  0.00     0.019 A 
ATOM     93  C   UNL A   1      32.718  17.130  25.834  1.00  0.00     0.040 A 
ATOM     94  C   UNL A   1      33.458  16.679  23.580  1.00  0.00     0.040 A 
ATOM     95  C   UNL A   1      33.096  16.231  24.843  1.00  0.00     0.123 A 
ATOM     96  F   UNL A   1      33.101  14.918  25.109  1.00  0.00    -0.207 F 
ENDBRANCH  88  90
ENDBRANCH  87  88
ENDBRANCH  82  87
ENDBRANCH  78  80
ENDBRANCH  77  78
ENDBRANCH  76  77
ENDBRANCH  75  76
ENDBRANCH  74  75
ENDBRANCH  73  74
ENDBRANCH   1  73
TORSDOF 23
ENDMDL
MODEL 3
REMARK VINA RESULT:      -9.4      5.473     10.496
REMARK SMILES O=C(OCCOCCOCCOC(=O)c1cc(Br)ccc1OC(=O)c1ccc(F)cc1)c1ccc(-c2c3nc(c(-c4cccc(S(=O)(=O)[O-])c4F)c4ccc([nH]4)c(-c4cccc(S(=O)(=O)[O-])c4F)c4nc(c(-c5cccc(S(=O)(=O)[O-])c5F)c5ccc2[nH]5)C=C4)C=C3)cc1
REMARK SMILES IDX 7 1 6 2 5 3 4 4 3 5 2 6 1 7 32 8 33 9 94 10 34 11 93 12
REMARK SMILES IDX 35 13 36 14 37 15 87 16 38 17 92 18 86 19 88 20 39 21 91 22
REMARK SMILES IDX 85 23 84 24 40 26 72 27 52 28 71 29 53 30 56 31 70 32 89 33
REMARK SMILES IDX 54 34 55 35 69 37 90 38 57 39 41 40 42 41 50 42 43 43 45 44
REMARK SMILES IDX 51 45 44 46 46 47 47 48 48 49 49 50 73 51 74 52 82 53 75 54
REMARK SMILES IDX 77 55 83 56 76 57 78 58 79 59 80 60 81 61 58 62 59 63 67 64
REMARK SMILES IDX 60 65 62 66 68 67 61 68 63 69 64 70 65 71 66 72 8 73 9 74
REMARK SMILES IDX 10 75 11 76 12 77 13 78 14 79 15 80 16 81 21 82 17 83 20 84
REMARK SMILES IDX 18 85 19 86 22 87 23 88 24 89 25 90 26 91 31 92 27 93 30 94
REMARK SMILES IDX 28 95 29 96
REMARK H PARENT 88 25 56 36
REMARK Flexibility Score: inf
ROOT
ATOM      1  C   UNL A   1      39.900  21.993  26.551  1.00  0.00     0.188 C 
ENDROOT
BRANCH   1   2
ATOM      2  O   UNL A   1      40.184  20.609  26.369  1.00  0.00    -0.376 OA
BRANCH   2   3
ATOM      3  C   UNL A   1      41.561  20.259  26.300  1.00  0.00     0.202 C 
BRANCH   3   4
ATOM      4  C   UNL A   1      42.539  21.450  26.277  1.00  0.00     0.261 C 
BRANCH   4   5
ATOM      5  O   UNL A   1      42.718  21.991  24.952  1.00  0.00    -0.460 OA
BRANCH   5   6
ATOM      6  C   UNL A   1      43.636  22.926  24.590  1.00  0.00     0.338 C 
ATOM      7  O   UNL A   1      44.357  22.693  23.622  1.00  0.00    -0.246 OA
BRANCH   6   8
ATOM      8  C   UNL A   1      43.923  24.142  25.426  1.00  0.00     0.060 A 
ATOM      9  C   UNL A   1      44.584  24.127  26.651  1.00  0.00     0.016 A 
ATOM     10  C   UNL A   1      43.514  25.397  24.928  1.00  0.00     0.016 A 
ATOM     11  C   UNL A   1      44.778  25.282  27.394  1.00  0.00     0.010 A 
ATOM     12  C   UNL A   1      43.714  26.575  25.665  1.00  0.00     0.010 A 
ATOM     13  C   UNL A   1      44.312  26.506  26.925  1.00  0.00    -0.014 A 
BRANCH  13  14
ATOM     14  C   UNL A   1      44.310  27.612  27.904  1.00  0.00     0.031 A 
ATOM     15  C   UNL A   1      45.561  28.434  28.031  1.00  0.00     0.074 A 
ATOM     16  C   UNL A   1      43.150  28.005  28.459  1.00  0.00     0.049 A 
ATOM     17  N   UNL A   1      45.731  29.591  28.609  1.00  0.00    -0.248 NA
ATOM     18  C   UNL A   1      46.775  27.901  27.387  1.00  0.00     0.031 C 
ATOM     19  C   UNL A   1      41.867  27.314  28.307  1.00  0.00     0.029 A 
ATOM     20  N   UNL A   1      42.848  29.110  29.211  1.00  0.00    -0.354 N 
ATOM     21  C   UNL A   1      47.068  29.915  28.415  1.00  0.00     0.074 A 
ATOM     22  C   UNL A   1      47.668  28.837  27.665  1.00  0.00     0.031 C 
ATOM     23  C   UNL A   1      40.910  28.030  28.922  1.00  0.00     0.029 A 
ATOM     24  C   UNL A   1      41.513  29.215  29.522  1.00  0.00     0.049 A 
ATOM     25  H   UNL A   1      43.524  29.766  29.501  1.00  0.00     0.167 HD
ATOM     26  C   UNL A   1      47.733  31.020  28.819  1.00  0.00     0.034 A 
ATOM     27  C   UNL A   1      40.852  30.173  30.200  1.00  0.00     0.034 A 
ATOM     28  C   UNL A   1      47.118  32.084  29.560  1.00  0.00     0.049 A 
ATOM     29  C   UNL A   1      41.622  31.372  30.678  1.00  0.00     0.074 A 
ATOM     30  C   UNL A   1      47.700  33.231  30.062  1.00  0.00     0.029 A 
ATOM     31  N   UNL A   1      45.775  32.120  29.910  1.00  0.00    -0.354 N 
ATOM     32  N   UNL A   1      42.879  31.682  30.457  1.00  0.00    -0.248 NA
ATOM     33  C   UNL A   1      40.889  32.362  31.478  1.00  0.00     0.031 C 
ATOM     34  C   UNL A   1      46.713  33.949  30.744  1.00  0.00     0.029 A 
ATOM     35  C   UNL A   1      45.511  33.263  30.640  1.00  0.00     0.049 A 
ATOM     36  H   UNL A   1      45.111  31.434  29.674  1.00  0.00     0.167 HD
ATOM     37  C   UNL A   1      43.087  32.904  31.084  1.00  0.00     0.074 A 
ATOM     38  C   UNL A   1      41.819  33.290  31.672  1.00  0.00     0.031 C 
ATOM     39  C   UNL A   1      44.226  33.632  31.179  1.00  0.00     0.034 A 
BRANCH  26  40
ATOM     40  C   UNL A   1      49.197  31.109  28.488  1.00  0.00     0.023 A 
ATOM     41  C   UNL A   1      50.150  30.531  29.349  1.00  0.00     0.012 A 
ATOM     42  C   UNL A   1      49.626  31.765  27.318  1.00  0.00     0.148 A 
ATOM     43  C   UNL A   1      51.514  30.629  29.064  1.00  0.00     0.002 A 
ATOM     44  C   UNL A   1      50.982  31.828  27.023  1.00  0.00     0.091 A 
ATOM     45  F   UNL A   1      48.704  32.336  26.530  1.00  0.00    -0.205 F 
ATOM     46  C   UNL A   1      51.928  31.271  27.899  1.00  0.00     0.022 A 
BRANCH  44  47
ATOM     47  S   UNL A   1      51.608  32.590  25.522  1.00  0.00     0.127 S 
ATOM     48  O   UNL A   1      53.015  32.798  25.861  1.00  0.00    -0.237 OA
ATOM     49  O   UNL A   1      51.371  31.546  24.524  1.00  0.00    -0.237 OA
ATOM     50  O   UNL A   1      50.822  33.801  25.331  1.00  0.00    -0.744 OA
ENDBRANCH  44  47
ENDBRANCH  26  40
BRANCH  27  51
ATOM     51  C   UNL A   1      39.385  30.050  30.420  1.00  0.00     0.023 A 
ATOM     52  C   UNL A   1      38.901  29.219  31.447  1.00  0.00     0.012 A 
ATOM     53  C   UNL A   1      38.470  30.785  29.640  1.00  0.00     0.148 A 
ATOM     54  C   UNL A   1      37.530  29.119  31.692  1.00  0.00     0.002 A 
ATOM     55  C   UNL A   1      37.106  30.693  29.899  1.00  0.00     0.091 A 
ATOM     56  F   UNL A   1      38.953  31.557  28.655  1.00  0.00    -0.205 F 
ATOM     57  C   UNL A   1      36.635  29.861  30.925  1.00  0.00     0.022 A 
BRANCH  55  58
ATOM     58  S   UNL A   1      35.886  31.642  28.981  1.00  0.00     0.127 S 
ATOM     59  O   UNL A   1      35.560  30.727  27.890  1.00  0.00    -0.237 OA
ATOM     60  O   UNL A   1      34.824  31.818  29.972  1.00  0.00    -0.237 OA
ATOM     61  O   UNL A   1      36.560  32.874  28.592  1.00  0.00    -0.744 OA
ENDBRANCH  55  58
ENDBRANCH  27  51
BRANCH  39  62
ATOM     62  C   UNL A   1      44.179  34.919  31.955  1.00  0.00     0.023 A 
ATOM     63  C   UNL A   1      43.900  36.120  31.275  1.00  0.00     0.012 A 
ATOM     64  C   UNL A   1      44.231  34.906  33.362  1.00  0.00     0.148 A 
ATOM     65  C   UNL A   1      43.673  37.295  31.989  1.00  0.00     0.002 A 
ATOM     66  C   UNL A   1      43.956  36.070  34.067  1.00  0.00     0.091 A 
ATOM     67  F   UNL A   1      44.515  33.750  33.979  1.00  0.00    -0.205 F 
ATOM     68  C   UNL A   1      43.682  37.265  33.383  1.00  0.00     0.022 A 
BRANCH  66  69
ATOM     69  S   UNL A   1      43.831  36.101  35.859  1.00  0.00     0.127 S 
ATOM     70  O   UNL A   1      45.192  35.750  36.258  1.00  0.00    -0.237 OA
ATOM     71  O   UNL A   1      43.457  37.491  36.118  1.00  0.00    -0.237 OA
ATOM     72  O   UNL A   1      42.809  35.123  36.207  1.00  0.00    -0.744 OA
ENDBRANCH  66  69
ENDBRANCH  39  62
ENDBRANCH  13  14
ENDBRANCH   6   8
ENDBRANCH   5   6
ENDBRANCH   4   5
ENDBRANCH   3   4
ENDBRANCH   2   3
ENDBRANCH   1   2
BRANCH   1  73
ATOM     73  C   UNL A   1      38.510  22.422  26.085  1.00  0.00     0.188 C 
BRANCH  73  74
ATOM     74  O   UNL A   1      38.013  21.587  25.046  1.00  0.00    -0.376 OA
BRANCH  74  75
ATOM     75  C   UNL A   1      36.986  22.170  24.244  1.00  0.00     0.202 C 
BRANCH  75  76
ATOM     76  C   UNL A   1      36.091  23.178  24.975  1.00  0.00     0.261 C 
BRANCH  76  77
ATOM     77  O   UNL A   1      35.235  24.036  24.194  1.00  0.00    -0.460 OA
BRANCH  77  78
ATOM     78  C   UNL A   1      34.253  23.532  23.416  1.00  0.00     0.342 C 
ATOM     79  O   UNL A   1      34.287  23.281  22.229  1.00  0.00    -0.246 OA
BRANCH  78  80
ATOM     80  C   UNL A   1      33.079  23.351  24.277  1.00  0.00     0.103 A 
ATOM     81  C   UNL A   1      32.352  24.504  24.602  1.00  0.00     0.035 A 
ATOM     82  C   UNL A   1      32.671  22.101  24.750  1.00  0.00     0.145 A 
ATOM     83  C   UNL A   1      31.219  24.395  25.400  1.00  0.00     0.019 A 
ATOM     84  C   UNL A   1      31.548  22.007  25.583  1.00  0.00     0.049 A 
ATOM     85  Br  UNL A   1      30.224  25.946  25.794  1.00  0.00    -0.051 Br
ATOM     86  C   UNL A   1      30.815  23.157  25.897  1.00  0.00     0.019 A 
BRANCH  82  87
ATOM     87  O   UNL A   1      33.407  20.929  24.504  1.00  0.00    -0.422 OA
BRANCH  87  88
ATOM     88  C   UNL A   1      32.752  20.064  23.645  1.00  0.00     0.343 C 
ATOM     89  O   UNL A   1      32.020  20.370  22.715  1.00  0.00    -0.246 OA
BRANCH  88  90
ATOM     90  C   UNL A   1      32.950  18.644  24.057  1.00  0.00     0.060 A 
ATOM     91  C   UNL A   1      32.639  18.302  25.382  1.00  0.00     0.019 A 
ATOM     92  C   UNL A   1      33.418  17.646  23.195  1.00  0.00     0.019 A 
ATOM     93  C   UNL A   1      32.801  16.988  25.834  1.00  0.00     0.040 A 
ATOM     94  C   UNL A   1      33.580  16.331  23.646  1.00  0.00     0.040 A 
ATOM     95  C   UNL A   1      33.269  16.014  24.961  1.00  0.00     0.123 A 
ATOM     96  F   UNL A   1      33.413  14.754  25.393  1.00  0.00    -0.207 F 
ENDBRANCH  88  90
ENDBRANCH  87  88
ENDBRANCH  82  87
ENDBRANCH  78  80
ENDBRANCH  77  78
ENDBRANCH  76  77
ENDBRANCH  75  76
ENDBRANCH  74  75
ENDBRANCH  73  74
ENDBRANCH   1  73
TORSDOF 23
ENDMDL
