MODEL 1
REMARK VINA RESULT:      -8.8      0.000      0.000
REMARK SMILES N#C[C@H]1CN(C(=O)c2csc(/C=C/C(=O)OCCOCCOCCOC(=O)c3ccc(-c4c5nc(c(-c6cccc(S(=O)(=O)[O-])c6F)c6ccc([nH]6)c(-c6cccc(S(=O)(=O)[O-])c6F)c6nc(c(-c7cccc(S(=O)(=O)[O-])c7F)c7ccc4[nH]7)C=C6)C=C5)cc3)c2)CCO1
REMARK SMILES IDX 20 1 19 2 18 3 17 4 16 5 14 6 15 7 13 8 12 9 11 10 8 11 9 12
REMARK SMILES IDX 91 13 10 14 6 15 7 16 5 17 3 18 4 19 94 20 93 21 92 22 2 23
REMARK SMILES IDX 1 24 21 25 22 26 23 27 24 28 25 29 26 30 27 31 28 32 29 33
REMARK SMILES IDX 90 34 30 35 89 36 31 37 32 38 33 39 83 40 34 41 88 42 82 43
REMARK SMILES IDX 84 44 35 45 87 46 81 47 80 48 36 50 68 51 48 52 67 53 49 54
REMARK SMILES IDX 52 55 66 56 85 57 50 58 51 59 65 61 86 62 53 63 37 64 38 65
REMARK SMILES IDX 46 66 39 67 41 68 47 69 40 70 42 71 43 72 44 73 45 74 69 75
REMARK SMILES IDX 70 76 78 77 71 78 73 79 79 80 72 81 74 82 75 83 76 84 77 85
REMARK SMILES IDX 54 86 55 87 63 88 56 89 58 90 64 91 57 92 59 93 60 94 61 95
REMARK SMILES IDX 62 96
REMARK H PARENT 84 49 52 60
REMARK Flexibility Score: inf
ROOT
ATOM      1  C   UNL A   1      38.776  20.687  25.334  1.00  0.00     0.188 C 
ENDROOT
BRANCH   1   2
ATOM      2  O   UNL A   1      37.391  20.635  25.083  1.00  0.00    -0.376 OA
BRANCH   2   3
ATOM      3  C   UNL A   1      36.488  21.431  25.828  1.00  0.00     0.202 C 
BRANCH   3   4
ATOM      4  C   UNL A   1      34.953  21.454  25.663  1.00  0.00     0.261 C 
BRANCH   4   5
ATOM      5  O   UNL A   1      34.284  20.223  25.366  1.00  0.00    -0.460 OA
BRANCH   5   6
ATOM      6  C   UNL A   1      33.294  20.308  24.443  1.00  0.00     0.330 C 
ATOM      7  O   UNL A   1      32.696  19.370  23.939  1.00  0.00    -0.247 OA
BRANCH   6   8
ATOM      8  C   UNL A   1      32.879  21.704  24.191  1.00  0.00     0.095 C 
ATOM      9  C   UNL A   1      32.533  22.198  22.993  1.00  0.00     0.026 C 
BRANCH   9  10
ATOM     10  C   UNL A   1      32.080  23.544  22.807  1.00  0.00     0.028 A 
ATOM     11  C   UNL A   1      30.906  25.576  23.159  1.00  0.00     0.051 A 
ATOM     12  C   UNL A   1      31.777  25.926  22.148  1.00  0.00     0.079 A 
ATOM     13  C   UNL A   1      31.092  24.198  23.525  1.00  0.00     0.033 A 
ATOM     14  S   UNL A   1      32.713  24.606  21.604  1.00  0.00    -0.144 S 
BRANCH  11  15
ATOM     15  C   UNL A   1      30.007  26.495  23.854  1.00  0.00     0.254 C 
ATOM     16  O   UNL A   1      28.803  26.252  23.896  1.00  0.00    -0.269 OA
BRANCH  15  17
ATOM     17  N   UNL A   1      30.532  27.657  24.412  1.00  0.00    -0.333 N 
ATOM     18  C   UNL A   1      32.818  28.310  25.108  1.00  0.00     0.240 C 
ATOM     19  C   UNL A   1      31.453  27.744  25.558  1.00  0.00     0.167 C 
ATOM     20  O   UNL A   1      32.642  29.567  24.410  1.00  0.00    -0.360 OA
ATOM     21  C   UNL A   1      31.790  29.416  23.263  1.00  0.00     0.183 C 
ATOM     22  C   UNL A   1      30.403  28.918  23.678  1.00  0.00     0.148 C 
BRANCH  18  23
ATOM     23  C   UNL A   1      33.691  28.500  26.278  1.00  0.00     0.096 C 
ATOM     24  N   UNL A   1      34.367  28.665  27.210  1.00  0.00    -0.195 NA
ENDBRANCH  18  23
ENDBRANCH  15  17
ENDBRANCH  11  15
ENDBRANCH   9  10
ENDBRANCH   6   8
ENDBRANCH   5   6
ENDBRANCH   4   5
ENDBRANCH   3   4
ENDBRANCH   2   3
ENDBRANCH   1   2
BRANCH   1  25
ATOM     25  C   UNL A   1      39.470  19.369  25.727  1.00  0.00     0.188 C 
BRANCH  25  26
ATOM     26  O   UNL A   1      40.839  19.211  25.427  1.00  0.00    -0.376 OA
BRANCH  26  27
ATOM     27  C   UNL A   1      41.812  19.338  26.453  1.00  0.00     0.202 C 
BRANCH  27  28
ATOM     28  C   UNL A   1      42.057  20.583  27.337  1.00  0.00     0.261 C 
BRANCH  28  29
ATOM     29  O   UNL A   1      41.337  21.783  27.052  1.00  0.00    -0.460 OA
BRANCH  29  30
ATOM     30  C   UNL A   1      41.978  22.676  26.259  1.00  0.00     0.338 C 
ATOM     31  O   UNL A   1      42.451  22.472  25.154  1.00  0.00    -0.246 OA
BRANCH  30  32
ATOM     32  C   UNL A   1      41.852  24.019  26.856  1.00  0.00     0.060 A 
ATOM     33  C   UNL A   1      41.757  25.132  26.008  1.00  0.00     0.016 A 
ATOM     34  C   UNL A   1      41.871  24.180  28.240  1.00  0.00     0.016 A 
ATOM     35  C   UNL A   1      41.698  26.417  26.544  1.00  0.00     0.010 A 
ATOM     36  C   UNL A   1      41.838  25.470  28.775  1.00  0.00     0.010 A 
ATOM     37  C   UNL A   1      41.784  26.595  27.929  1.00  0.00    -0.014 A 
BRANCH  37  38
ATOM     38  C   UNL A   1      41.990  27.953  28.485  1.00  0.00     0.031 A 
ATOM     39  C   UNL A   1      43.397  28.452  28.664  1.00  0.00     0.074 A 
ATOM     40  C   UNL A   1      40.948  28.727  28.836  1.00  0.00     0.049 A 
ATOM     41  N   UNL A   1      43.820  29.577  29.178  1.00  0.00    -0.248 NA
ATOM     42  C   UNL A   1      44.471  27.556  28.208  1.00  0.00     0.031 C 
ATOM     43  C   UNL A   1      39.540  28.367  28.688  1.00  0.00     0.029 A 
ATOM     44  N   UNL A   1      40.922  29.972  29.414  1.00  0.00    -0.354 N 
ATOM     45  C   UNL A   1      45.207  29.506  29.153  1.00  0.00     0.074 A 
ATOM     46  C   UNL A   1      45.553  28.224  28.578  1.00  0.00     0.031 C 
ATOM     47  C   UNL A   1      38.784  29.361  29.184  1.00  0.00     0.029 A 
ATOM     48  C   UNL A   1      39.655  30.408  29.717  1.00  0.00     0.049 A 
ATOM     49  H   UNL A   1      41.733  30.501  29.595  1.00  0.00     0.167 HD
ATOM     50  C   UNL A   1      46.112  30.424  29.568  1.00  0.00     0.034 A 
ATOM     51  C   UNL A   1      39.247  31.512  30.372  1.00  0.00     0.034 A 
ATOM     52  C   UNL A   1      45.761  31.697  30.137  1.00  0.00     0.049 A 
ATOM     53  C   UNL A   1      40.273  32.499  30.868  1.00  0.00     0.074 A 
ATOM     54  C   UNL A   1      46.601  32.721  30.537  1.00  0.00     0.029 A 
ATOM     55  N   UNL A   1      44.467  32.110  30.419  1.00  0.00    -0.354 N 
ATOM     56  N   UNL A   1      41.577  32.468  30.746  1.00  0.00    -0.248 NA
ATOM     57  C   UNL A   1      39.765  33.689  31.567  1.00  0.00     0.031 C 
ATOM     58  C   UNL A   1      45.819  33.724  31.120  1.00  0.00     0.029 A 
ATOM     59  C   UNL A   1      44.487  33.359  31.016  1.00  0.00     0.049 A 
ATOM     60  H   UNL A   1      43.654  31.591  30.223  1.00  0.00     0.167 HD
ATOM     61  C   UNL A   1      42.044  33.652  31.310  1.00  0.00     0.074 A 
ATOM     62  C   UNL A   1      40.878  34.382  31.765  1.00  0.00     0.031 C 
ATOM     63  C   UNL A   1      43.320  34.094  31.436  1.00  0.00     0.034 A 
BRANCH  50  64
ATOM     64  C   UNL A   1      47.571  30.065  29.447  1.00  0.00     0.023 A 
ATOM     65  C   UNL A   1      48.257  29.483  30.533  1.00  0.00     0.012 A 
ATOM     66  C   UNL A   1      48.261  30.292  28.240  1.00  0.00     0.148 A 
ATOM     67  C   UNL A   1      49.618  29.189  30.439  1.00  0.00     0.002 A 
ATOM     68  C   UNL A   1      49.602  29.944  28.134  1.00  0.00     0.091 A 
ATOM     69  F   UNL A   1      47.600  30.864  27.223  1.00  0.00    -0.205 F 
ATOM     70  C   UNL A   1      50.286  29.410  29.238  1.00  0.00     0.022 A 
BRANCH  68  71
ATOM     71  S   UNL A   1      50.526  30.111  26.605  1.00  0.00     0.127 S 
ATOM     72  O   UNL A   1      49.842  29.151  25.739  1.00  0.00    -0.237 OA
ATOM     73  O   UNL A   1      50.297  31.515  26.260  1.00  0.00    -0.237 OA
ATOM     74  O   UNL A   1      51.908  29.785  26.930  1.00  0.00    -0.744 OA
ENDBRANCH  68  71
ENDBRANCH  50  64
BRANCH  51  75
ATOM     75  C   UNL A   1      37.791  31.766  30.567  1.00  0.00     0.023 A 
ATOM     76  C   UNL A   1      37.171  31.344  31.759  1.00  0.00     0.012 A 
ATOM     77  C   UNL A   1      37.028  32.437  29.593  1.00  0.00     0.148 A 
ATOM     78  C   UNL A   1      35.808  31.563  31.966  1.00  0.00     0.002 A 
ATOM     79  C   UNL A   1      35.684  32.700  29.829  1.00  0.00     0.091 A 
ATOM     80  F   UNL A   1      37.639  32.821  28.463  1.00  0.00    -0.205 F 
ATOM     81  C   UNL A   1      35.069  32.249  31.007  1.00  0.00     0.022 A 
BRANCH  79  82
ATOM     82  S   UNL A   1      34.675  33.670  28.705  1.00  0.00     0.127 S 
ATOM     83  O   UNL A   1      33.460  33.872  29.492  1.00  0.00    -0.237 OA
ATOM     84  O   UNL A   1      35.498  34.866  28.525  1.00  0.00    -0.237 OA
ATOM     85  O   UNL A   1      34.514  32.857  27.508  1.00  0.00    -0.744 OA
ENDBRANCH  79  82
ENDBRANCH  51  75
BRANCH  63  86
ATOM     86  C   UNL A   1      43.537  35.462  32.037  1.00  0.00     0.023 A 
ATOM     87  C   UNL A   1      43.598  35.628  33.435  1.00  0.00     0.012 A 
ATOM     88  C   UNL A   1      43.751  36.577  31.201  1.00  0.00     0.148 A 
ATOM     89  C   UNL A   1      43.829  36.888  33.989  1.00  0.00     0.002 A 
ATOM     90  C   UNL A   1      44.037  37.817  31.759  1.00  0.00     0.091 A 
ATOM     91  F   UNL A   1      43.674  36.403  29.874  1.00  0.00    -0.205 F 
ATOM     92  C   UNL A   1      44.060  37.978  33.153  1.00  0.00     0.022 A 
BRANCH  90  93
ATOM     93  S   UNL A   1      44.447  39.252  30.761  1.00  0.00     0.127 S 
ATOM     94  O   UNL A   1      43.239  39.408  29.951  1.00  0.00    -0.237 OA
ATOM     95  O   UNL A   1      44.638  40.288  31.776  1.00  0.00    -0.237 OA
ATOM     96  O   UNL A   1      45.650  38.901  30.019  1.00  0.00    -0.744 OA
ENDBRANCH  90  93
ENDBRANCH  63  86
ENDBRANCH  37  38
ENDBRANCH  30  32
ENDBRANCH  29  30
ENDBRANCH  28  29
ENDBRANCH  27  28
ENDBRANCH  26  27
ENDBRANCH  25  26
ENDBRANCH   1  25
TORSDOF 24
ENDMDL
MODEL 2
REMARK VINA RESULT:      -8.7      1.704      2.053
REMARK SMILES N#C[C@H]1CN(C(=O)c2csc(/C=C/C(=O)OCCOCCOCCOC(=O)c3ccc(-c4c5nc(c(-c6cccc(S(=O)(=O)[O-])c6F)c6ccc([nH]6)c(-c6cccc(S(=O)(=O)[O-])c6F)c6nc(c(-c7cccc(S(=O)(=O)[O-])c7F)c7ccc4[nH]7)C=C6)C=C5)cc3)c2)CCO1
REMARK SMILES IDX 20 1 19 2 18 3 17 4 16 5 14 6 15 7 13 8 12 9 11 10 8 11 9 12
REMARK SMILES IDX 91 13 10 14 6 15 7 16 5 17 3 18 4 19 94 20 93 21 92 22 2 23
REMARK SMILES IDX 1 24 21 25 22 26 23 27 24 28 25 29 26 30 27 31 28 32 29 33
REMARK SMILES IDX 90 34 30 35 89 36 31 37 32 38 33 39 83 40 34 41 88 42 82 43
REMARK SMILES IDX 84 44 35 45 87 46 81 47 80 48 36 50 68 51 48 52 67 53 49 54
REMARK SMILES IDX 52 55 66 56 85 57 50 58 51 59 65 61 86 62 53 63 37 64 38 65
REMARK SMILES IDX 46 66 39 67 41 68 47 69 40 70 42 71 43 72 44 73 45 74 69 75
REMARK SMILES IDX 70 76 78 77 71 78 73 79 79 80 72 81 74 82 75 83 76 84 77 85
REMARK SMILES IDX 54 86 55 87 63 88 56 89 58 90 64 91 57 92 59 93 60 94 61 95
REMARK SMILES IDX 62 96
REMARK H PARENT 84 49 52 60
REMARK Flexibility Score: inf
ROOT
ATOM      1  C   UNL A   1      38.457  20.380  25.275  1.00  0.00     0.188 C 
ENDROOT
BRANCH   1   2
ATOM      2  O   UNL A   1      37.136  20.196  24.823  1.00  0.00    -0.376 OA
BRANCH   2   3
ATOM      3  C   UNL A   1      36.046  20.787  25.507  1.00  0.00     0.202 C 
BRANCH   3   4
ATOM      4  C   UNL A   1      34.743  21.304  24.859  1.00  0.00     0.261 C 
BRANCH   4   5
ATOM      5  O   UNL A   1      33.813  20.343  24.348  1.00  0.00    -0.460 OA
BRANCH   5   6
ATOM      6  C   UNL A   1      32.828  20.849  23.565  1.00  0.00     0.330 C 
ATOM      7  O   UNL A   1      32.089  20.209  22.832  1.00  0.00    -0.247 OA
BRANCH   6   8
ATOM      8  C   UNL A   1      32.617  22.294  23.790  1.00  0.00     0.095 C 
ATOM      9  C   UNL A   1      31.618  23.017  23.260  1.00  0.00     0.026 C 
BRANCH   9  10
ATOM     10  C   UNL A   1      31.420  24.405  23.554  1.00  0.00     0.028 A 
ATOM     11  C   UNL A   1      31.317  26.439  24.772  1.00  0.00     0.051 A 
ATOM     12  C   UNL A   1      31.113  26.875  23.478  1.00  0.00     0.079 A 
ATOM     13  C   UNL A   1      31.490  25.012  24.798  1.00  0.00     0.033 A 
ATOM     14  S   UNL A   1      31.038  25.587  22.359  1.00  0.00    -0.144 S 
BRANCH  11  15
ATOM     15  C   UNL A   1      31.467  27.304  25.939  1.00  0.00     0.254 C 
ATOM     16  O   UNL A   1      30.872  27.030  26.979  1.00  0.00    -0.269 OA
BRANCH  15  17
ATOM     17  N   UNL A   1      32.244  28.454  25.830  1.00  0.00    -0.333 N 
ATOM     18  C   UNL A   1      32.198  30.637  26.999  1.00  0.00     0.240 C 
ATOM     19  C   UNL A   1      31.757  29.841  25.750  1.00  0.00     0.167 C 
ATOM     20  O   UNL A   1      33.630  30.537  27.186  1.00  0.00    -0.360 OA
ATOM     21  C   UNL A   1      34.048  29.169  27.325  1.00  0.00     0.183 C 
ATOM     22  C   UNL A   1      33.685  28.361  26.075  1.00  0.00     0.148 C 
BRANCH  18  23
ATOM     23  C   UNL A   1      31.805  32.049  26.856  1.00  0.00     0.096 C 
ATOM     24  N   UNL A   1      31.511  33.170  26.754  1.00  0.00    -0.195 NA
ENDBRANCH  18  23
ENDBRANCH  15  17
ENDBRANCH  11  15
ENDBRANCH   9  10
ENDBRANCH   6   8
ENDBRANCH   5   6
ENDBRANCH   4   5
ENDBRANCH   3   4
ENDBRANCH   2   3
ENDBRANCH   1   2
BRANCH   1  25
ATOM     25  C   UNL A   1      39.254  19.115  25.651  1.00  0.00     0.188 C 
BRANCH  25  26
ATOM     26  O   UNL A   1      40.649  19.109  25.441  1.00  0.00    -0.376 OA
BRANCH  26  27
ATOM     27  C   UNL A   1      41.527  19.518  26.479  1.00  0.00     0.202 C 
BRANCH  27  28
ATOM     28  C   UNL A   1      41.508  20.878  27.215  1.00  0.00     0.261 C 
BRANCH  28  29
ATOM     29  O   UNL A   1      41.009  22.026  26.528  1.00  0.00    -0.460 OA
BRANCH  29  30
ATOM     30  C   UNL A   1      41.948  22.835  25.980  1.00  0.00     0.338 C 
ATOM     31  O   UNL A   1      42.676  22.581  25.036  1.00  0.00    -0.246 OA
BRANCH  30  32
ATOM     32  C   UNL A   1      41.831  24.176  26.581  1.00  0.00     0.060 A 
ATOM     33  C   UNL A   1      41.997  25.303  25.763  1.00  0.00     0.016 A 
ATOM     34  C   UNL A   1      41.604  24.319  27.948  1.00  0.00     0.016 A 
ATOM     35  C   UNL A   1      41.952  26.582  26.315  1.00  0.00     0.010 A 
ATOM     36  C   UNL A   1      41.585  25.601  28.505  1.00  0.00     0.010 A 
ATOM     37  C   UNL A   1      41.791  26.735  27.696  1.00  0.00    -0.014 A 
BRANCH  37  38
ATOM     38  C   UNL A   1      42.008  28.062  28.320  1.00  0.00     0.031 A 
ATOM     39  C   UNL A   1      43.420  28.532  28.540  1.00  0.00     0.074 A 
ATOM     40  C   UNL A   1      40.973  28.832  28.694  1.00  0.00     0.049 A 
ATOM     41  N   UNL A   1      43.851  29.625  29.112  1.00  0.00    -0.248 NA
ATOM     42  C   UNL A   1      44.487  27.644  28.054  1.00  0.00     0.031 C 
ATOM     43  C   UNL A   1      39.562  28.501  28.512  1.00  0.00     0.029 A 
ATOM     44  N   UNL A   1      40.956  30.048  29.331  1.00  0.00    -0.354 N 
ATOM     45  C   UNL A   1      45.237  29.535  29.101  1.00  0.00     0.074 A 
ATOM     46  C   UNL A   1      45.573  28.277  28.470  1.00  0.00     0.031 C 
ATOM     47  C   UNL A   1      38.813  29.480  29.046  1.00  0.00     0.029 A 
ATOM     48  C   UNL A   1      39.691  30.487  29.639  1.00  0.00     0.049 A 
ATOM     49  H   UNL A   1      41.771  30.556  29.548  1.00  0.00     0.167 HD
ATOM     50  C   UNL A   1      46.149  30.419  29.572  1.00  0.00     0.034 A 
ATOM     51  C   UNL A   1      39.289  31.565  30.342  1.00  0.00     0.034 A 
ATOM     52  C   UNL A   1      45.807  31.669  30.197  1.00  0.00     0.049 A 
ATOM     53  C   UNL A   1      40.322  32.512  30.898  1.00  0.00     0.074 A 
ATOM     54  C   UNL A   1      46.656  32.660  30.656  1.00  0.00     0.029 A 
ATOM     55  N   UNL A   1      44.516  32.085  30.483  1.00  0.00    -0.354 N 
ATOM     56  N   UNL A   1      41.627  32.468  30.791  1.00  0.00    -0.248 NA
ATOM     57  C   UNL A   1      39.821  33.674  31.647  1.00  0.00     0.031 C 
ATOM     58  C   UNL A   1      45.881  33.645  31.277  1.00  0.00     0.029 A 
ATOM     59  C   UNL A   1      44.545  33.304  31.140  1.00  0.00     0.049 A 
ATOM     60  H   UNL A   1      43.698  31.588  30.252  1.00  0.00     0.167 HD
ATOM     61  C   UNL A   1      42.102  33.617  31.417  1.00  0.00     0.074 A 
ATOM     62  C   UNL A   1      40.940  34.341  31.892  1.00  0.00     0.031 C 
ATOM     63  C   UNL A   1      43.383  34.035  31.580  1.00  0.00     0.034 A 
BRANCH  50  64
ATOM     64  C   UNL A   1      47.604  30.046  29.451  1.00  0.00     0.023 A 
ATOM     65  C   UNL A   1      48.273  29.420  30.523  1.00  0.00     0.012 A 
ATOM     66  C   UNL A   1      48.308  30.304  28.258  1.00  0.00     0.148 A 
ATOM     67  C   UNL A   1      49.631  29.111  30.431  1.00  0.00     0.002 A 
ATOM     68  C   UNL A   1      49.645  29.943  28.153  1.00  0.00     0.091 A 
ATOM     69  F   UNL A   1      47.664  30.918  27.255  1.00  0.00    -0.205 F 
ATOM     70  C   UNL A   1      50.313  29.364  29.244  1.00  0.00     0.022 A 
BRANCH  68  71
ATOM     71  S   UNL A   1      50.586  30.149  26.638  1.00  0.00     0.127 S 
ATOM     72  O   UNL A   1      50.293  31.540  26.295  1.00  0.00    -0.237 OA
ATOM     73  O   UNL A   1      51.956  29.909  27.093  1.00  0.00    -0.237 OA
ATOM     74  O   UNL A   1      50.073  29.155  25.706  1.00  0.00    -0.744 OA
ENDBRANCH  68  71
ENDBRANCH  50  64
BRANCH  51  75
ATOM     75  C   UNL A   1      37.835  31.829  30.531  1.00  0.00     0.023 A 
ATOM     76  C   UNL A   1      37.179  31.308  31.664  1.00  0.00     0.012 A 
ATOM     77  C   UNL A   1      37.106  32.607  29.611  1.00  0.00     0.148 A 
ATOM     78  C   UNL A   1      35.817  31.535  31.863  1.00  0.00     0.002 A 
ATOM     79  C   UNL A   1      35.763  32.874  29.844  1.00  0.00     0.091 A 
ATOM     80  F   UNL A   1      37.749  33.085  28.537  1.00  0.00    -0.205 F 
ATOM     81  C   UNL A   1      35.113  32.326  30.961  1.00  0.00     0.022 A 
BRANCH  79  82
ATOM     82  S   UNL A   1      34.798  33.970  28.799  1.00  0.00     0.127 S 
ATOM     83  O   UNL A   1      33.470  33.863  29.400  1.00  0.00    -0.237 OA
ATOM     84  O   UNL A   1      35.469  35.252  29.014  1.00  0.00    -0.237 OA
ATOM     85  O   UNL A   1      34.916  33.440  27.448  1.00  0.00    -0.744 OA
ENDBRANCH  79  82
ENDBRANCH  51  75
BRANCH  63  86
ATOM     86  C   UNL A   1      43.610  35.369  32.249  1.00  0.00     0.023 A 
ATOM     87  C   UNL A   1      43.726  36.544  31.481  1.00  0.00     0.012 A 
ATOM     88  C   UNL A   1      43.637  35.459  33.656  1.00  0.00     0.148 A 
ATOM     89  C   UNL A   1      43.906  37.781  32.102  1.00  0.00     0.002 A 
ATOM     90  C   UNL A   1      43.758  36.700  34.268  1.00  0.00     0.091 A 
ATOM     91  F   UNL A   1      43.540  34.329  34.370  1.00  0.00    -0.205 F 
ATOM     92  C   UNL A   1      43.909  37.861  33.493  1.00  0.00     0.022 A 
BRANCH  90  93
ATOM     93  S   UNL A   1      43.671  36.910  36.050  1.00  0.00     0.127 S 
ATOM     94  O   UNL A   1      42.310  36.457  36.337  1.00  0.00    -0.237 OA
ATOM     95  O   UNL A   1      44.724  36.008  36.517  1.00  0.00    -0.237 OA
ATOM     96  O   UNL A   1      43.922  38.321  36.305  1.00  0.00    -0.744 OA
ENDBRANCH  90  93
ENDBRANCH  63  86
ENDBRANCH  37  38
ENDBRANCH  30  32
ENDBRANCH  29  30
ENDBRANCH  28  29
ENDBRANCH  27  28
ENDBRANCH  26  27
ENDBRANCH  25  26
ENDBRANCH   1  25
TORSDOF 24
ENDMDL
MODEL 3
REMARK VINA RESULT:      -8.5      5.028     10.932
REMARK SMILES N#C[C@H]1CN(C(=O)c2csc(/C=C/C(=O)OCCOCCOCCOC(=O)c3ccc(-c4c5nc(c(-c6cccc(S(=O)(=O)[O-])c6F)c6ccc([nH]6)c(-c6cccc(S(=O)(=O)[O-])c6F)c6nc(c(-c7cccc(S(=O)(=O)[O-])c7F)c7ccc4[nH]7)C=C6)C=C5)cc3)c2)CCO1
REMARK SMILES IDX 20 1 19 2 18 3 17 4 16 5 14 6 15 7 13 8 12 9 11 10 8 11 9 12
REMARK SMILES IDX 91 13 10 14 6 15 7 16 5 17 3 18 4 19 94 20 93 21 92 22 2 23
REMARK SMILES IDX 1 24 21 25 22 26 23 27 24 28 25 29 26 30 27 31 28 32 29 33
REMARK SMILES IDX 90 34 30 35 89 36 31 37 32 38 33 39 83 40 34 41 88 42 82 43
REMARK SMILES IDX 84 44 35 45 87 46 81 47 80 48 36 50 68 51 48 52 67 53 49 54
REMARK SMILES IDX 52 55 66 56 85 57 50 58 51 59 65 61 86 62 53 63 37 64 38 65
REMARK SMILES IDX 46 66 39 67 41 68 47 69 40 70 42 71 43 72 44 73 45 74 69 75
REMARK SMILES IDX 70 76 78 77 71 78 73 79 79 80 72 81 74 82 75 83 76 84 77 85
REMARK SMILES IDX 54 86 55 87 63 88 56 89 58 90 64 91 57 92 59 93 60 94 61 95
REMARK SMILES IDX 62 96
REMARK H PARENT 84 49 52 60
REMARK Flexibility Score: inf
ROOT
ATOM      1  C   UNL A   1      35.607  33.582  31.357  1.00  0.00     0.188 C 
ENDROOT
BRANCH   1   2
ATOM      2  O   UNL A   1      35.823  32.359  32.023  1.00  0.00    -0.376 OA
BRANCH   2   3
ATOM      3  C   UNL A   1      35.647  31.126  31.351  1.00  0.00     0.202 C 
BRANCH   3   4
ATOM      4  C   UNL A   1      36.769  30.139  30.960  1.00  0.00     0.261 C 
BRANCH   4   5
ATOM      5  O   UNL A   1      37.322  30.229  29.642  1.00  0.00    -0.460 OA
BRANCH   5   6
ATOM      6  C   UNL A   1      38.556  30.786  29.568  1.00  0.00     0.330 C 
ATOM      7  O   UNL A   1      38.895  31.854  30.056  1.00  0.00    -0.247 OA
BRANCH   6   8
ATOM      8  C   UNL A   1      39.544  29.883  28.942  1.00  0.00     0.095 C 
ATOM      9  C   UNL A   1      40.117  28.832  29.548  1.00  0.00     0.026 C 
BRANCH   9  10
ATOM     10  C   UNL A   1      41.026  27.948  28.881  1.00  0.00     0.028 A 
ATOM     11  C   UNL A   1      42.145  25.954  28.246  1.00  0.00     0.051 A 
ATOM     12  C   UNL A   1      42.649  26.862  27.336  1.00  0.00     0.079 A 
ATOM     13  C   UNL A   1      41.212  26.599  29.130  1.00  0.00     0.033 A 
ATOM     14  S   UNL A   1      42.083  28.449  27.613  1.00  0.00    -0.144 S 
BRANCH  11  15
ATOM     15  C   UNL A   1      42.412  24.519  28.241  1.00  0.00     0.254 C 
ATOM     16  O   UNL A   1      43.053  24.017  29.162  1.00  0.00    -0.269 OA
BRANCH  15  17
ATOM     17  N   UNL A   1      41.977  23.755  27.161  1.00  0.00    -0.333 N 
ATOM     18  C   UNL A   1      42.200  21.355  26.594  1.00  0.00     0.240 C 
ATOM     19  C   UNL A   1      42.770  22.778  26.398  1.00  0.00     0.167 C 
ATOM     20  O   UNL A   1      40.787  21.326  26.279  1.00  0.00    -0.360 OA
ATOM     21  C   UNL A   1      40.048  22.248  27.096  1.00  0.00     0.183 C 
ATOM     22  C   UNL A   1      40.541  23.682  26.879  1.00  0.00     0.148 C 
BRANCH  18  23
ATOM     23  C   UNL A   1      42.928  20.403  25.738  1.00  0.00     0.096 C 
ATOM     24  N   UNL A   1      43.513  19.667  25.053  1.00  0.00    -0.195 NA
ENDBRANCH  18  23
ENDBRANCH  15  17
ENDBRANCH  11  15
ENDBRANCH   9  10
ENDBRANCH   6   8
ENDBRANCH   5   6
ENDBRANCH   4   5
ENDBRANCH   3   4
ENDBRANCH   2   3
ENDBRANCH   1   2
BRANCH   1  25
ATOM     25  C   UNL A   1      36.102  34.861  32.058  1.00  0.00     0.188 C 
BRANCH  25  26
ATOM     26  O   UNL A   1      35.919  34.981  33.451  1.00  0.00    -0.376 OA
BRANCH  26  27
ATOM     27  C   UNL A   1      36.724  34.223  34.343  1.00  0.00     0.202 C 
BRANCH  27  28
ATOM     28  C   UNL A   1      38.217  34.463  34.662  1.00  0.00     0.261 C 
BRANCH  28  29
ATOM     29  O   UNL A   1      38.760  33.923  35.867  1.00  0.00    -0.460 OA
BRANCH  29  30
ATOM     30  C   UNL A   1      38.572  32.593  36.049  1.00  0.00     0.338 C 
ATOM     31  O   UNL A   1      37.697  32.057  36.707  1.00  0.00    -0.246 OA
BRANCH  30  32
ATOM     32  C   UNL A   1      39.488  31.857  35.158  1.00  0.00     0.060 A 
ATOM     33  C   UNL A   1      40.870  32.065  35.282  1.00  0.00     0.016 A 
ATOM     34  C   UNL A   1      38.985  31.004  34.177  1.00  0.00     0.016 A 
ATOM     35  C   UNL A   1      41.755  31.431  34.413  1.00  0.00     0.010 A 
ATOM     36  C   UNL A   1      39.872  30.389  33.290  1.00  0.00     0.010 A 
ATOM     37  C   UNL A   1      41.257  30.625  33.384  1.00  0.00    -0.014 A 
BRANCH  37  38
ATOM     38  C   UNL A   1      42.162  30.168  32.303  1.00  0.00     0.031 A 
ATOM     39  C   UNL A   1      42.757  28.790  32.397  1.00  0.00     0.074 A 
ATOM     40  C   UNL A   1      42.460  30.964  31.262  1.00  0.00     0.049 A 
ATOM     41  N   UNL A   1      43.611  28.199  31.603  1.00  0.00    -0.248 NA
ATOM     42  C   UNL A   1      42.337  27.973  33.545  1.00  0.00     0.031 C 
ATOM     43  C   UNL A   1      41.928  32.307  31.045  1.00  0.00     0.029 A 
ATOM     44  N   UNL A   1      43.307  30.758  30.201  1.00  0.00    -0.354 N 
ATOM     45  C   UNL A   1      43.869  26.962  32.180  1.00  0.00     0.074 A 
ATOM     46  C   UNL A   1      43.085  26.891  33.393  1.00  0.00     0.031 C 
ATOM     47  C   UNL A   1      42.479  32.817  29.930  1.00  0.00     0.029 A 
ATOM     48  C   UNL A   1      43.428  31.852  29.378  1.00  0.00     0.049 A 
ATOM     49  H   UNL A   1      43.783  29.911  30.046  1.00  0.00     0.167 HD
ATOM     50  C   UNL A   1      44.683  25.973  31.739  1.00  0.00     0.034 A 
ATOM     51  C   UNL A   1      44.231  32.058  28.316  1.00  0.00     0.034 A 
ATOM     52  C   UNL A   1      45.458  26.049  30.531  1.00  0.00     0.049 A 
ATOM     53  C   UNL A   1      45.165  30.962  27.871  1.00  0.00     0.074 A 
ATOM     54  C   UNL A   1      46.270  25.081  29.967  1.00  0.00     0.029 A 
ATOM     55  N   UNL A   1      45.548  27.168  29.716  1.00  0.00    -0.354 N 
ATOM     56  N   UNL A   1      45.323  29.758  28.365  1.00  0.00    -0.248 NA
ATOM     57  C   UNL A   1      46.009  31.244  26.700  1.00  0.00     0.031 C 
ATOM     58  C   UNL A   1      46.899  25.636  28.849  1.00  0.00     0.029 A 
ATOM     59  C   UNL A   1      46.425  26.926  28.672  1.00  0.00     0.049 A 
ATOM     60  H   UNL A   1      45.060  28.011  29.859  1.00  0.00     0.167 HD
ATOM     61  C   UNL A   1      46.248  29.123  27.541  1.00  0.00     0.074 A 
ATOM     62  C   UNL A   1      46.607  30.076  26.509  1.00  0.00     0.031 C 
ATOM     63  C   UNL A   1      46.751  27.867  27.630  1.00  0.00     0.034 A 
BRANCH  50  64
ATOM     64  C   UNL A   1      44.794  24.734  32.592  1.00  0.00     0.023 A 
ATOM     65  C   UNL A   1      43.813  23.725  32.518  1.00  0.00     0.012 A 
ATOM     66  C   UNL A   1      45.890  24.565  33.461  1.00  0.00     0.148 A 
ATOM     67  C   UNL A   1      43.889  22.597  33.336  1.00  0.00     0.002 A 
ATOM     68  C   UNL A   1      45.990  23.414  34.231  1.00  0.00     0.091 A 
ATOM     69  F   UNL A   1      46.805  25.542  33.534  1.00  0.00    -0.205 F 
ATOM     70  C   UNL A   1      44.981  22.438  34.184  1.00  0.00     0.022 A 
BRANCH  68  71
ATOM     71  S   UNL A   1      47.401  23.078  35.289  1.00  0.00     0.127 S 
ATOM     72  O   UNL A   1      47.270  24.128  36.299  1.00  0.00    -0.237 OA
ATOM     73  O   UNL A   1      47.107  21.728  35.772  1.00  0.00    -0.237 OA
ATOM     74  O   UNL A   1      48.577  23.174  34.436  1.00  0.00    -0.744 OA
ENDBRANCH  68  71
ENDBRANCH  50  64
BRANCH  51  75
ATOM     75  C   UNL A   1      44.165  33.349  27.574  1.00  0.00     0.023 A 
ATOM     76  C   UNL A   1      43.487  33.402  26.340  1.00  0.00     0.012 A 
ATOM     77  C   UNL A   1      44.747  34.522  28.090  1.00  0.00     0.148 A 
ATOM     78  C   UNL A   1      43.413  34.595  25.621  1.00  0.00     0.002 A 
ATOM     79  C   UNL A   1      44.624  35.719  27.395  1.00  0.00     0.091 A 
ATOM     80  F   UNL A   1      45.394  34.445  29.261  1.00  0.00    -0.205 F 
ATOM     81  C   UNL A   1      43.971  35.754  26.152  1.00  0.00     0.022 A 
BRANCH  79  82
ATOM     82  S   UNL A   1      45.213  37.284  28.048  1.00  0.00     0.127 S 
ATOM     83  O   UNL A   1      45.032  38.173  26.902  1.00  0.00    -0.237 OA
ATOM     84  O   UNL A   1      44.285  37.511  29.156  1.00  0.00    -0.237 OA
ATOM     85  O   UNL A   1      46.594  37.055  28.449  1.00  0.00    -0.744 OA
ENDBRANCH  79  82
ENDBRANCH  51  75
BRANCH  63  86
ATOM     86  C   UNL A   1      47.703  27.410  26.551  1.00  0.00     0.023 A 
ATOM     87  C   UNL A   1      47.218  26.788  25.384  1.00  0.00     0.012 A 
ATOM     88  C   UNL A   1      49.085  27.667  26.671  1.00  0.00     0.148 A 
ATOM     89  C   UNL A   1      48.096  26.393  24.373  1.00  0.00     0.002 A 
ATOM     90  C   UNL A   1      49.945  27.324  25.636  1.00  0.00     0.091 A 
ATOM     91  F   UNL A   1      49.530  28.247  27.794  1.00  0.00    -0.205 F 
ATOM     92  C   UNL A   1      49.455  26.672  24.493  1.00  0.00     0.022 A 
BRANCH  90  93
ATOM     93  S   UNL A   1      51.694  27.735  25.659  1.00  0.00     0.127 S 
ATOM     94  O   UNL A   1      52.193  26.853  26.714  1.00  0.00    -0.237 OA
ATOM     95  O   UNL A   1      52.114  27.366  24.307  1.00  0.00    -0.237 OA
ATOM     96  O   UNL A   1      51.772  29.159  25.952  1.00  0.00    -0.744 OA
ENDBRANCH  90  93
ENDBRANCH  63  86
ENDBRANCH  37  38
ENDBRANCH  30  32
ENDBRANCH  29  30
ENDBRANCH  28  29
ENDBRANCH  27  28
ENDBRANCH  26  27
ENDBRANCH  25  26
ENDBRANCH   1  25
TORSDOF 24
ENDMDL
