MODEL 1
REMARK VINA RESULT:      -9.0      0.000      0.000
REMARK SMILES O=C(C[C@@H](C(=O)OCCOCCOCCOC(=O)c1ccc(-c2c3nc(c(-c4cccc(S(=O)(=O)[O-])c4F)c4ccc([nH]4)c(-c4cccc(S(=O)(=O)[O-])c4F)c4nc(c(-c5cccc(S(=O)(=O)[O-])c5F)c5ccc2[nH]5)C=C4)C=C3)cc1)c1ccccc1)Nc1cc(C(F)(F)F)ccc1-n1cncn1
REMARK SMILES IDX 11 1 10 2 9 3 8 4 7 5 5 6 6 7 4 8 3 9 2 10 1 11 88 12 89 14
REMARK SMILES IDX 90 15 98 16 91 17 97 18 96 19 99 20 100 21 103 22 101 23
REMARK SMILES IDX 102 24 92 25 93 26 94 27 95 28 82 29 83 30 87 31 84 32 86 33
REMARK SMILES IDX 85 34 12 35 13 36 14 37 15 38 16 39 17 40 18 41 19 42 20 43
REMARK SMILES IDX 81 44 21 45 80 46 22 47 23 48 24 49 74 50 25 51 79 52 73 53
REMARK SMILES IDX 75 54 26 55 78 56 72 57 71 58 27 60 59 61 39 62 58 63 40 64
REMARK SMILES IDX 43 65 57 66 76 67 41 68 42 69 56 71 77 72 44 73 28 74 29 75
REMARK SMILES IDX 37 76 30 77 32 78 38 79 31 80 33 81 34 82 35 83 36 84 60 85
REMARK SMILES IDX 61 86 69 87 62 88 64 89 70 90 63 91 65 92 66 93 67 94 68 95
REMARK SMILES IDX 45 96 46 97 54 98 47 99 49 100 55 101 48 102 50 103 51 104
REMARK SMILES IDX 52 105 53 106
REMARK H PARENT 88 13 75 59 43 70
REMARK Flexibility Score: inf
ROOT
ATOM      1  C   UNL A   1      37.923  31.246  29.966  1.00  0.00     0.188 C 
ENDROOT
BRANCH   1   2
ATOM      2  O   UNL A   1      37.507  29.915  29.691  1.00  0.00    -0.376 OA
BRANCH   2   3
ATOM      3  C   UNL A   1      36.124  29.729  29.389  1.00  0.00     0.202 C 
BRANCH   3   4
ATOM      4  C   UNL A   1      35.731  29.803  27.901  1.00  0.00     0.261 C 
BRANCH   4   5
ATOM      5  O   UNL A   1      34.475  29.128  27.611  1.00  0.00    -0.463 OA
BRANCH   5   6
ATOM      6  C   UNL A   1      33.436  29.938  27.252  1.00  0.00     0.314 C 
ATOM      7  O   UNL A   1      33.511  31.162  27.258  1.00  0.00    -0.252 OA
BRANCH   6   8
ATOM      8  C   UNL A   1      32.190  29.183  26.750  1.00  0.00     0.138 C 
BRANCH   8   9
ATOM      9  C   UNL A   1      31.903  27.827  27.415  1.00  0.00     0.120 C 
BRANCH   9  10
ATOM     10  C   UNL A   1      31.734  26.616  26.534  1.00  0.00     0.225 C 
ATOM     11  O   UNL A   1      30.629  26.129  26.316  1.00  0.00    -0.275 OA
ATOM     12  N   UNL A   1      32.911  26.191  25.951  1.00  0.00    -0.324 N 
ATOM     13  H   UNL A   1      33.758  26.558  26.294  1.00  0.00     0.170 HD
BRANCH  12  14
ATOM     14  C   UNL A   1      32.972  25.264  24.895  1.00  0.00     0.067 A 
ATOM     15  C   UNL A   1      32.740  25.787  23.619  1.00  0.00     0.041 A 
ATOM     16  C   UNL A   1      33.288  23.903  25.039  1.00  0.00     0.090 A 
ATOM     17  C   UNL A   1      32.880  24.991  22.473  1.00  0.00     0.058 A 
ATOM     18  C   UNL A   1      33.461  23.106  23.895  1.00  0.00     0.031 A 
ATOM     19  C   UNL A   1      33.251  23.648  22.622  1.00  0.00     0.015 A 
BRANCH  16  20
ATOM     20  N   UNL A   1      33.298  23.261  26.303  1.00  0.00    -0.219 N 
ATOM     21  C   UNL A   1      32.220  22.842  27.052  1.00  0.00     0.226 A 
ATOM     22  N   UNL A   1      34.440  22.837  26.906  1.00  0.00    -0.155 NA
ATOM     23  N   UNL A   1      32.621  22.334  28.194  1.00  0.00    -0.223 NA
ATOM     24  C   UNL A   1      33.977  22.391  28.075  1.00  0.00     0.246 A 
ENDBRANCH  16  20
BRANCH  17  25
ATOM     25  C   UNL A   1      32.657  25.615  21.118  1.00  0.00     0.416 C 
ATOM     26  F   UNL A   1      32.886  24.734  20.104  1.00  0.00    -0.166 F 
ATOM     27  F   UNL A   1      31.379  26.051  20.950  1.00  0.00    -0.166 F 
ATOM     28  F   UNL A   1      33.456  26.687  20.870  1.00  0.00    -0.166 F 
ENDBRANCH  17  25
ENDBRANCH  12  14
ENDBRANCH   9  10
ENDBRANCH   8   9
BRANCH   8  29
ATOM     29  C   UNL A   1      32.062  29.106  25.209  1.00  0.00    -0.033 A 
ATOM     30  C   UNL A   1      30.801  29.082  24.574  1.00  0.00     0.004 A 
ATOM     31  C   UNL A   1      33.190  29.161  24.373  1.00  0.00     0.004 A 
ATOM     32  C   UNL A   1      30.674  29.091  23.180  1.00  0.00     0.000 A 
ATOM     33  C   UNL A   1      33.063  29.156  22.976  1.00  0.00     0.000 A 
ATOM     34  C   UNL A   1      31.807  29.123  22.380  1.00  0.00     0.000 A 
ENDBRANCH   8  29
ENDBRANCH   6   8
ENDBRANCH   5   6
ENDBRANCH   4   5
ENDBRANCH   3   4
ENDBRANCH   2   3
ENDBRANCH   1   2
BRANCH   1  35
ATOM     35  C   UNL A   1      38.102  31.585  31.449  1.00  0.00     0.188 C 
BRANCH  35  36
ATOM     36  O   UNL A   1      36.945  31.425  32.255  1.00  0.00    -0.376 OA
BRANCH  36  37
ATOM     37  C   UNL A   1      36.002  32.502  32.278  1.00  0.00     0.202 C 
BRANCH  37  38
ATOM     38  C   UNL A   1      35.591  33.142  33.631  1.00  0.00     0.261 C 
BRANCH  38  39
ATOM     39  O   UNL A   1      36.569  33.936  34.334  1.00  0.00    -0.460 OA
BRANCH  39  40
ATOM     40  C   UNL A   1      37.032  33.475  35.529  1.00  0.00     0.338 C 
ATOM     41  O   UNL A   1      36.429  33.490  36.579  1.00  0.00    -0.246 OA
BRANCH  40  42
ATOM     42  C   UNL A   1      38.238  32.632  35.245  1.00  0.00     0.060 A 
ATOM     43  C   UNL A   1      38.180  31.270  35.584  1.00  0.00     0.016 A 
ATOM     44  C   UNL A   1      39.338  33.117  34.534  1.00  0.00     0.016 A 
ATOM     45  C   UNL A   1      39.216  30.401  35.221  1.00  0.00     0.010 A 
ATOM     46  C   UNL A   1      40.387  32.249  34.193  1.00  0.00     0.010 A 
ATOM     47  C   UNL A   1      40.340  30.888  34.543  1.00  0.00    -0.014 A 
BRANCH  47  48
ATOM     48  C   UNL A   1      41.527  30.017  34.329  1.00  0.00     0.031 A 
ATOM     49  C   UNL A   1      42.616  30.021  35.364  1.00  0.00     0.074 A 
ATOM     50  C   UNL A   1      41.665  29.250  33.231  1.00  0.00     0.049 A 
ATOM     51  N   UNL A   1      43.783  29.431  35.348  1.00  0.00    -0.248 NA
ATOM     52  C   UNL A   1      42.350  30.801  36.582  1.00  0.00     0.031 C 
ATOM     53  C   UNL A   1      40.684  29.129  32.156  1.00  0.00     0.029 A 
ATOM     54  N   UNL A   1      42.714  28.457  32.824  1.00  0.00    -0.354 N 
ATOM     55  C   UNL A   1      44.408  29.798  36.534  1.00  0.00     0.074 A 
ATOM     56  C   UNL A   1      43.487  30.663  37.244  1.00  0.00     0.031 C 
ATOM     57  C   UNL A   1      41.196  28.351  31.187  1.00  0.00     0.029 A 
ATOM     58  C   UNL A   1      42.555  27.952  31.554  1.00  0.00     0.049 A 
ATOM     59  H   UNL A   1      43.500  28.270  33.386  1.00  0.00     0.167 HD
ATOM     60  C   UNL A   1      45.633  29.450  36.997  1.00  0.00     0.034 A 
ATOM     61  C   UNL A   1      43.422  27.290  30.757  1.00  0.00     0.034 A 
ATOM     62  C   UNL A   1      46.554  28.599  36.294  1.00  0.00     0.049 A 
ATOM     63  C   UNL A   1      44.806  26.961  31.260  1.00  0.00     0.074 A 
ATOM     64  C   UNL A   1      47.800  28.157  36.704  1.00  0.00     0.029 A 
ATOM     65  N   UNL A   1      46.349  28.085  35.023  1.00  0.00    -0.354 N 
ATOM     66  N   UNL A   1      45.343  27.221  32.427  1.00  0.00    -0.248 NA
ATOM     67  C   UNL A   1      45.696  26.231  30.341  1.00  0.00     0.031 C 
ATOM     68  C   UNL A   1      48.367  27.416  35.662  1.00  0.00     0.029 A 
ATOM     69  C   UNL A   1      47.456  27.356  34.619  1.00  0.00     0.049 A 
ATOM     70  H   UNL A   1      45.534  28.218  34.485  1.00  0.00     0.167 HD
ATOM     71  C   UNL A   1      46.624  26.673  32.391  1.00  0.00     0.074 A 
ATOM     72  C   UNL A   1      46.771  26.043  31.096  1.00  0.00     0.031 C 
ATOM     73  C   UNL A   1      47.591  26.702  33.341  1.00  0.00     0.034 A 
BRANCH  60  74
ATOM     74  C   UNL A   1      46.048  30.012  38.332  1.00  0.00     0.023 A 
ATOM     75  C   UNL A   1      46.771  31.220  38.395  1.00  0.00     0.012 A 
ATOM     76  C   UNL A   1      45.712  29.345  39.526  1.00  0.00     0.148 A 
ATOM     77  C   UNL A   1      47.198  31.729  39.621  1.00  0.00     0.002 A 
ATOM     78  C   UNL A   1      46.098  29.884  40.747  1.00  0.00     0.091 A 
ATOM     79  F   UNL A   1      45.044  28.186  39.446  1.00  0.00    -0.205 F 
ATOM     80  C   UNL A   1      46.854  31.066  40.796  1.00  0.00     0.022 A 
BRANCH  78  81
ATOM     81  S   UNL A   1      45.634  29.146  42.317  1.00  0.00     0.127 S 
ATOM     82  O   UNL A   1      46.148  30.131  43.268  1.00  0.00    -0.237 OA
ATOM     83  O   UNL A   1      44.176  29.099  42.215  1.00  0.00    -0.237 OA
ATOM     84  O   UNL A   1      46.282  27.843  42.353  1.00  0.00    -0.744 OA
ENDBRANCH  78  81
ENDBRANCH  60  74
BRANCH  61  85
ATOM     85  C   UNL A   1      43.008  26.915  29.373  1.00  0.00     0.023 A 
ATOM     86  C   UNL A   1      42.704  25.576  29.066  1.00  0.00     0.012 A 
ATOM     87  C   UNL A   1      42.886  27.896  28.369  1.00  0.00     0.148 A 
ATOM     88  C   UNL A   1      42.299  25.218  27.778  1.00  0.00     0.002 A 
ATOM     89  C   UNL A   1      42.424  27.543  27.107  1.00  0.00     0.091 A 
ATOM     90  F   UNL A   1      43.202  29.161  28.679  1.00  0.00    -0.205 F 
ATOM     91  C   UNL A   1      42.145  26.202  26.804  1.00  0.00     0.022 A 
BRANCH  89  92
ATOM     92  S   UNL A   1      42.070  28.758  25.833  1.00  0.00     0.127 S 
ATOM     93  O   UNL A   1      43.011  29.825  26.166  1.00  0.00    -0.237 OA
ATOM     94  O   UNL A   1      42.388  28.011  24.617  1.00  0.00    -0.237 OA
ATOM     95  O   UNL A   1      40.661  29.094  25.986  1.00  0.00    -0.744 OA
ENDBRANCH  89  92
ENDBRANCH  61  85
BRANCH  73  96
ATOM     96  C   UNL A   1      48.905  26.019  33.040  1.00  0.00     0.023 A 
ATOM     97  C   UNL A   1      49.074  24.655  33.347  1.00  0.00     0.012 A 
ATOM     98  C   UNL A   1      49.938  26.709  32.373  1.00  0.00     0.148 A 
ATOM     99  C   UNL A   1      50.260  23.995  33.021  1.00  0.00     0.002 A 
ATOM    100  C   UNL A   1      51.096  26.032  32.007  1.00  0.00     0.091 A 
ATOM    101  F   UNL A   1      49.764  28.010  32.099  1.00  0.00    -0.205 F 
ATOM    102  C   UNL A   1      51.265  24.679  32.340  1.00  0.00     0.022 A 
BRANCH 100 103
ATOM    103  S   UNL A   1      52.407  26.802  31.046  1.00  0.00     0.127 S 
ATOM    104  O   UNL A   1      51.706  27.153  29.812  1.00  0.00    -0.237 OA
ATOM    105  O   UNL A   1      52.775  27.942  31.886  1.00  0.00    -0.237 OA
ATOM    106  O   UNL A   1      53.448  25.792  30.902  1.00  0.00    -0.744 OA
ENDBRANCH 100 103
ENDBRANCH  73  96
ENDBRANCH  47  48
ENDBRANCH  40  42
ENDBRANCH  39  40
ENDBRANCH  38  39
ENDBRANCH  37  38
ENDBRANCH  36  37
ENDBRANCH  35  36
ENDBRANCH   1  35
TORSDOF 26
ENDMDL
MODEL 2
REMARK VINA RESULT:      -8.1      7.523      9.630
REMARK SMILES O=C(C[C@@H](C(=O)OCCOCCOCCOC(=O)c1ccc(-c2c3nc(c(-c4cccc(S(=O)(=O)[O-])c4F)c4ccc([nH]4)c(-c4cccc(S(=O)(=O)[O-])c4F)c4nc(c(-c5cccc(S(=O)(=O)[O-])c5F)c5ccc2[nH]5)C=C4)C=C3)cc1)c1ccccc1)Nc1cc(C(F)(F)F)ccc1-n1cncn1
REMARK SMILES IDX 11 1 10 2 9 3 8 4 7 5 5 6 6 7 4 8 3 9 2 10 1 11 88 12 89 14
REMARK SMILES IDX 90 15 98 16 91 17 97 18 96 19 99 20 100 21 103 22 101 23
REMARK SMILES IDX 102 24 92 25 93 26 94 27 95 28 82 29 83 30 87 31 84 32 86 33
REMARK SMILES IDX 85 34 12 35 13 36 14 37 15 38 16 39 17 40 18 41 19 42 20 43
REMARK SMILES IDX 81 44 21 45 80 46 22 47 23 48 24 49 74 50 25 51 79 52 73 53
REMARK SMILES IDX 75 54 26 55 78 56 72 57 71 58 27 60 59 61 39 62 58 63 40 64
REMARK SMILES IDX 43 65 57 66 76 67 41 68 42 69 56 71 77 72 44 73 28 74 29 75
REMARK SMILES IDX 37 76 30 77 32 78 38 79 31 80 33 81 34 82 35 83 36 84 60 85
REMARK SMILES IDX 61 86 69 87 62 88 64 89 70 90 63 91 65 92 66 93 67 94 68 95
REMARK SMILES IDX 45 96 46 97 54 98 47 99 49 100 55 101 48 102 50 103 51 104
REMARK SMILES IDX 52 105 53 106
REMARK H PARENT 88 13 75 59 43 70
REMARK Flexibility Score: inf
ROOT
ATOM      1  C   UNL A   1      34.303  30.104  26.952  1.00  0.00     0.188 C 
ENDROOT
BRANCH   1   2
ATOM      2  O   UNL A   1      33.040  29.459  27.040  1.00  0.00    -0.376 OA
BRANCH   2   3
ATOM      3  C   UNL A   1      33.054  28.032  27.090  1.00  0.00     0.202 C 
BRANCH   3   4
ATOM      4  C   UNL A   1      33.754  27.312  25.921  1.00  0.00     0.261 C 
BRANCH   4   5
ATOM      5  O   UNL A   1      34.616  26.225  26.358  1.00  0.00    -0.463 OA
BRANCH   5   6
ATOM      6  C   UNL A   1      34.280  24.983  25.901  1.00  0.00     0.314 C 
ATOM      7  O   UNL A   1      33.349  24.330  26.361  1.00  0.00    -0.252 OA
BRANCH   6   8
ATOM      8  C   UNL A   1      35.114  24.506  24.696  1.00  0.00     0.138 C 
BRANCH   8   9
ATOM      9  C   UNL A   1      34.325  23.965  23.493  1.00  0.00     0.120 C 
BRANCH   9  10
ATOM     10  C   UNL A   1      33.070  24.686  23.074  1.00  0.00     0.225 C 
ATOM     11  O   UNL A   1      32.466  24.383  22.049  1.00  0.00    -0.275 OA
ATOM     12  N   UNL A   1      32.644  25.628  23.989  1.00  0.00    -0.324 N 
ATOM     13  H   UNL A   1      33.266  25.892  24.706  1.00  0.00     0.170 HD
BRANCH  12  14
ATOM     14  C   UNL A   1      31.375  26.233  23.958  1.00  0.00     0.067 A 
ATOM     15  C   UNL A   1      31.313  27.471  23.311  1.00  0.00     0.041 A 
ATOM     16  C   UNL A   1      30.202  25.663  24.479  1.00  0.00     0.090 A 
ATOM     17  C   UNL A   1      30.088  28.126  23.116  1.00  0.00     0.058 A 
ATOM     18  C   UNL A   1      28.967  26.297  24.261  1.00  0.00     0.031 A 
ATOM     19  C   UNL A   1      28.915  27.524  23.589  1.00  0.00     0.015 A 
BRANCH  16  20
ATOM     20  N   UNL A   1      30.229  24.542  25.347  1.00  0.00    -0.219 N 
ATOM     21  C   UNL A   1      29.832  24.477  26.664  1.00  0.00     0.226 A 
ATOM     22  N   UNL A   1      30.543  23.290  24.923  1.00  0.00    -0.155 NA
ATOM     23  N   UNL A   1      30.053  23.281  27.155  1.00  0.00    -0.223 NA
ATOM     24  C   UNL A   1      30.525  22.606  26.069  1.00  0.00     0.246 A 
ENDBRANCH  16  20
BRANCH  17  25
ATOM     25  C   UNL A   1      30.072  29.440  22.376  1.00  0.00     0.416 C 
ATOM     26  F   UNL A   1      29.041  29.517  21.490  1.00  0.00    -0.166 F 
ATOM     27  F   UNL A   1      29.924  30.505  23.211  1.00  0.00    -0.166 F 
ATOM     28  F   UNL A   1      31.202  29.679  21.658  1.00  0.00    -0.166 F 
ENDBRANCH  17  25
ENDBRANCH  12  14
ENDBRANCH   9  10
ENDBRANCH   8   9
BRANCH   8  29
ATOM     29  C   UNL A   1      36.306  23.587  25.062  1.00  0.00    -0.033 A 
ATOM     30  C   UNL A   1      36.493  22.336  24.433  1.00  0.00     0.004 A 
ATOM     31  C   UNL A   1      37.307  24.001  25.957  1.00  0.00     0.004 A 
ATOM     32  C   UNL A   1      37.609  21.534  24.701  1.00  0.00     0.000 A 
ATOM     33  C   UNL A   1      38.417  23.190  26.236  1.00  0.00     0.000 A 
ATOM     34  C   UNL A   1      38.569  21.959  25.607  1.00  0.00     0.000 A 
ENDBRANCH   8  29
ENDBRANCH   6   8
ENDBRANCH   5   6
ENDBRANCH   4   5
ENDBRANCH   3   4
ENDBRANCH   2   3
ENDBRANCH   1   2
BRANCH   1  35
ATOM     35  C   UNL A   1      35.178  30.007  28.205  1.00  0.00     0.188 C 
BRANCH  35  36
ATOM     36  O   UNL A   1      35.683  31.240  28.694  1.00  0.00    -0.376 OA
BRANCH  36  37
ATOM     37  C   UNL A   1      35.294  31.636  30.013  1.00  0.00     0.202 C 
BRANCH  37  38
ATOM     38  C   UNL A   1      35.894  32.921  30.644  1.00  0.00     0.261 C 
BRANCH  38  39
ATOM     39  O   UNL A   1      37.231  32.855  31.184  1.00  0.00    -0.460 OA
BRANCH  39  40
ATOM     40  C   UNL A   1      37.769  33.992  31.704  1.00  0.00     0.338 C 
ATOM     41  O   UNL A   1      37.419  34.543  32.724  1.00  0.00    -0.246 OA
BRANCH  40  42
ATOM     42  C   UNL A   1      39.076  34.226  31.009  1.00  0.00     0.060 A 
ATOM     43  C   UNL A   1      39.046  34.513  29.635  1.00  0.00     0.016 A 
ATOM     44  C   UNL A   1      40.286  34.311  31.703  1.00  0.00     0.016 A 
ATOM     45  C   UNL A   1      40.215  34.878  28.958  1.00  0.00     0.010 A 
ATOM     46  C   UNL A   1      41.462  34.652  31.017  1.00  0.00     0.010 A 
ATOM     47  C   UNL A   1      41.438  34.927  29.637  1.00  0.00    -0.014 A 
BRANCH  47  48
ATOM     48  C   UNL A   1      42.709  35.119  28.889  1.00  0.00     0.031 A 
ATOM     49  C   UNL A   1      43.642  33.948  28.746  1.00  0.00     0.074 A 
ATOM     50  C   UNL A   1      43.059  36.307  28.362  1.00  0.00     0.049 A 
ATOM     51  N   UNL A   1      44.843  33.898  28.232  1.00  0.00    -0.248 NA
ATOM     52  C   UNL A   1      43.147  32.660  29.255  1.00  0.00     0.031 C 
ATOM     53  C   UNL A   1      42.249  37.521  28.404  1.00  0.00     0.029 A 
ATOM     54  N   UNL A   1      44.214  36.693  27.721  1.00  0.00    -0.354 N 
ATOM     55  C   UNL A   1      45.266  32.584  28.390  1.00  0.00     0.074 A 
ATOM     56  C   UNL A   1      44.190  31.872  29.048  1.00  0.00     0.031 C 
ATOM     57  C   UNL A   1      42.950  38.531  27.860  1.00  0.00     0.029 A 
ATOM     58  C   UNL A   1      44.274  38.044  27.468  1.00  0.00     0.049 A 
ATOM     59  H   UNL A   1      44.928  36.064  27.467  1.00  0.00     0.167 HD
ATOM     60  C   UNL A   1      46.439  32.015  28.022  1.00  0.00     0.034 A 
ATOM     61  C   UNL A   1      45.293  38.811  27.022  1.00  0.00     0.034 A 
ATOM     62  C   UNL A   1      47.514  32.718  27.375  1.00  0.00     0.049 A 
ATOM     63  C   UNL A   1      46.616  38.175  26.674  1.00  0.00     0.074 A 
ATOM     64  C   UNL A   1      48.723  32.214  26.927  1.00  0.00     0.029 A 
ATOM     65  N   UNL A   1      47.529  34.079  27.112  1.00  0.00    -0.354 N 
ATOM     66  N   UNL A   1      46.964  36.913  26.725  1.00  0.00    -0.248 NA
ATOM     67  C   UNL A   1      47.680  39.069  26.186  1.00  0.00     0.031 C 
ATOM     68  C   UNL A   1      49.487  33.279  26.437  1.00  0.00     0.029 A 
ATOM     69  C   UNL A   1      48.736  34.440  26.535  1.00  0.00     0.049 A 
ATOM     70  H   UNL A   1      46.788  34.699  27.306  1.00  0.00     0.167 HD
ATOM     71  C   UNL A   1      48.277  36.856  26.263  1.00  0.00     0.074 A 
ATOM     72  C   UNL A   1      48.652  38.210  25.909  1.00  0.00     0.031 C 
ATOM     73  C   UNL A   1      49.098  35.783  26.154  1.00  0.00     0.034 A 
BRANCH  60  74
ATOM     74  C   UNL A   1      46.620  30.552  28.330  1.00  0.00     0.023 A 
ATOM     75  C   UNL A   1      46.229  29.579  27.387  1.00  0.00     0.012 A 
ATOM     76  C   UNL A   1      47.186  30.140  29.552  1.00  0.00     0.148 A 
ATOM     77  C   UNL A   1      46.351  28.220  27.676  1.00  0.00     0.002 A 
ATOM     78  C   UNL A   1      47.351  28.785  29.812  1.00  0.00     0.091 A 
ATOM     79  F   UNL A   1      47.530  31.077  30.446  1.00  0.00    -0.205 F 
ATOM     80  C   UNL A   1      46.919  27.825  28.884  1.00  0.00     0.022 A 
BRANCH  78  81
ATOM     81  S   UNL A   1      48.144  28.179  31.304  1.00  0.00     0.127 S 
ATOM     82  O   UNL A   1      47.246  28.687  32.341  1.00  0.00    -0.237 OA
ATOM     83  O   UNL A   1      48.094  26.730  31.112  1.00  0.00    -0.237 OA
ATOM     84  O   UNL A   1      49.485  28.746  31.304  1.00  0.00    -0.744 OA
ENDBRANCH  78  81
ENDBRANCH  60  74
BRANCH  61  85
ATOM     85  C   UNL A   1      45.105  40.286  26.906  1.00  0.00     0.023 A 
ATOM     86  C   UNL A   1      44.614  40.844  25.711  1.00  0.00     0.012 A 
ATOM     87  C   UNL A   1      45.386  41.134  27.996  1.00  0.00     0.148 A 
ATOM     88  C   UNL A   1      44.418  42.222  25.599  1.00  0.00     0.002 A 
ATOM     89  C   UNL A   1      45.133  42.496  27.898  1.00  0.00     0.091 A 
ATOM     90  F   UNL A   1      45.875  40.584  29.116  1.00  0.00    -0.205 F 
ATOM     91  C   UNL A   1      44.664  43.046  26.695  1.00  0.00     0.022 A 
BRANCH  89  92
ATOM     92  S   UNL A   1      45.292  43.612  29.297  1.00  0.00     0.127 S 
ATOM     93  O   UNL A   1      44.324  43.054  30.238  1.00  0.00    -0.237 OA
ATOM     94  O   UNL A   1      46.694  43.422  29.667  1.00  0.00    -0.237 OA
ATOM     95  O   UNL A   1      44.976  44.938  28.785  1.00  0.00    -0.744 OA
ENDBRANCH  89  92
ENDBRANCH  61  85
BRANCH  73  96
ATOM     96  C   UNL A   1      50.491  36.004  25.614  1.00  0.00     0.023 A 
ATOM     97  C   UNL A   1      50.714  36.003  24.222  1.00  0.00     0.012 A 
ATOM     98  C   UNL A   1      51.562  36.301  26.482  1.00  0.00     0.148 A 
ATOM     99  C   UNL A   1      51.984  36.266  23.705  1.00  0.00     0.002 A 
ATOM    100  C   UNL A   1      52.812  36.610  25.958  1.00  0.00     0.091 A 
ATOM    101  F   UNL A   1      51.335  36.285  27.804  1.00  0.00    -0.205 F 
ATOM    102  C   UNL A   1      53.029  36.581  24.572  1.00  0.00     0.022 A 
BRANCH 100 103
ATOM    103  S   UNL A   1      54.196  37.120  26.987  1.00  0.00     0.127 S 
ATOM    104  O   UNL A   1      55.157  37.582  25.985  1.00  0.00    -0.237 OA
ATOM    105  O   UNL A   1      53.602  38.182  27.799  1.00  0.00    -0.237 OA
ATOM    106  O   UNL A   1      54.601  35.937  27.734  1.00  0.00    -0.744 OA
ENDBRANCH 100 103
ENDBRANCH  73  96
ENDBRANCH  47  48
ENDBRANCH  40  42
ENDBRANCH  39  40
ENDBRANCH  38  39
ENDBRANCH  37  38
ENDBRANCH  36  37
ENDBRANCH  35  36
ENDBRANCH   1  35
TORSDOF 26
ENDMDL
MODEL 3
REMARK VINA RESULT:      -8.1      4.323     10.430
REMARK SMILES O=C(C[C@@H](C(=O)OCCOCCOCCOC(=O)c1ccc(-c2c3nc(c(-c4cccc(S(=O)(=O)[O-])c4F)c4ccc([nH]4)c(-c4cccc(S(=O)(=O)[O-])c4F)c4nc(c(-c5cccc(S(=O)(=O)[O-])c5F)c5ccc2[nH]5)C=C4)C=C3)cc1)c1ccccc1)Nc1cc(C(F)(F)F)ccc1-n1cncn1
REMARK SMILES IDX 11 1 10 2 9 3 8 4 7 5 5 6 6 7 4 8 3 9 2 10 1 11 88 12 89 14
REMARK SMILES IDX 90 15 98 16 91 17 97 18 96 19 99 20 100 21 103 22 101 23
REMARK SMILES IDX 102 24 92 25 93 26 94 27 95 28 82 29 83 30 87 31 84 32 86 33
REMARK SMILES IDX 85 34 12 35 13 36 14 37 15 38 16 39 17 40 18 41 19 42 20 43
REMARK SMILES IDX 81 44 21 45 80 46 22 47 23 48 24 49 74 50 25 51 79 52 73 53
REMARK SMILES IDX 75 54 26 55 78 56 72 57 71 58 27 60 59 61 39 62 58 63 40 64
REMARK SMILES IDX 43 65 57 66 76 67 41 68 42 69 56 71 77 72 44 73 28 74 29 75
REMARK SMILES IDX 37 76 30 77 32 78 38 79 31 80 33 81 34 82 35 83 36 84 60 85
REMARK SMILES IDX 61 86 69 87 62 88 64 89 70 90 63 91 65 92 66 93 67 94 68 95
REMARK SMILES IDX 45 96 46 97 54 98 47 99 49 100 55 101 48 102 50 103 51 104
REMARK SMILES IDX 52 105 53 106
REMARK H PARENT 88 13 75 59 43 70
REMARK Flexibility Score: inf
ROOT
ATOM      1  C   UNL A   1      38.767  22.256  25.876  1.00  0.00     0.188 C 
ENDROOT
BRANCH   1   2
ATOM      2  O   UNL A   1      38.428  23.248  26.834  1.00  0.00    -0.376 OA
BRANCH   2   3
ATOM      3  C   UNL A   1      39.004  24.541  26.643  1.00  0.00     0.202 C 
BRANCH   3   4
ATOM      4  C   UNL A   1      39.909  25.062  27.775  1.00  0.00     0.261 C 
BRANCH   4   5
ATOM      5  O   UNL A   1      39.351  26.217  28.462  1.00  0.00    -0.463 OA
BRANCH   5   6
ATOM      6  C   UNL A   1      39.966  27.410  28.211  1.00  0.00     0.314 C 
ATOM      7  O   UNL A   1      39.911  27.974  27.123  1.00  0.00    -0.252 OA
BRANCH   6   8
ATOM      8  C   UNL A   1      40.662  28.034  29.436  1.00  0.00     0.138 C 
BRANCH   8   9
ATOM      9  C   UNL A   1      39.856  29.087  30.213  1.00  0.00     0.120 C 
BRANCH   9  10
ATOM     10  C   UNL A   1      38.385  29.227  29.920  1.00  0.00     0.225 C 
ATOM     11  O   UNL A   1      37.532  28.775  30.677  1.00  0.00    -0.275 OA
ATOM     12  N   UNL A   1      38.118  29.975  28.791  1.00  0.00    -0.324 N 
ATOM     13  H   UNL A   1      38.864  30.175  28.179  1.00  0.00     0.170 HD
BRANCH  12  14
ATOM     14  C   UNL A   1      36.843  30.468  28.461  1.00  0.00     0.067 A 
ATOM     15  C   UNL A   1      36.064  29.634  27.653  1.00  0.00     0.041 A 
ATOM     16  C   UNL A   1      36.310  31.685  28.918  1.00  0.00     0.090 A 
ATOM     17  C   UNL A   1      34.735  29.959  27.343  1.00  0.00     0.058 A 
ATOM     18  C   UNL A   1      34.970  32.003  28.639  1.00  0.00     0.031 A 
ATOM     19  C   UNL A   1      34.193  31.147  27.851  1.00  0.00     0.015 A 
BRANCH  16  20
ATOM     20  N   UNL A   1      37.115  32.677  29.530  1.00  0.00    -0.219 N 
ATOM     21  C   UNL A   1      37.404  32.831  30.869  1.00  0.00     0.226 A 
ATOM     22  N   UNL A   1      37.852  33.572  28.819  1.00  0.00    -0.155 NA
ATOM     23  N   UNL A   1      38.145  33.897  31.062  1.00  0.00    -0.223 NA
ATOM     24  C   UNL A   1      38.355  34.337  29.790  1.00  0.00     0.246 A 
ENDBRANCH  16  20
BRANCH  17  25
ATOM     25  C   UNL A   1      33.926  29.004  26.502  1.00  0.00     0.416 C 
ATOM     26  F   UNL A   1      33.809  27.779  27.086  1.00  0.00    -0.166 F 
ATOM     27  F   UNL A   1      32.653  29.441  26.298  1.00  0.00    -0.166 F 
ATOM     28  F   UNL A   1      34.451  28.782  25.267  1.00  0.00    -0.166 F 
ENDBRANCH  17  25
ENDBRANCH  12  14
ENDBRANCH   9  10
ENDBRANCH   8   9
BRANCH   8  29
ATOM     29  C   UNL A   1      42.118  28.496  29.183  1.00  0.00    -0.033 A 
ATOM     30  C   UNL A   1      42.515  29.834  29.398  1.00  0.00     0.004 A 
ATOM     31  C   UNL A   1      43.128  27.585  28.828  1.00  0.00     0.004 A 
ATOM     32  C   UNL A   1      43.845  30.244  29.247  1.00  0.00     0.000 A 
ATOM     33  C   UNL A   1      44.458  28.000  28.663  1.00  0.00     0.000 A 
ATOM     34  C   UNL A   1      44.817  29.327  28.874  1.00  0.00     0.000 A 
ENDBRANCH   8  29
ENDBRANCH   6   8
ENDBRANCH   5   6
ENDBRANCH   4   5
ENDBRANCH   3   4
ENDBRANCH   2   3
ENDBRANCH   1   2
BRANCH   1  35
ATOM     35  C   UNL A   1      39.964  21.373  26.241  1.00  0.00     0.188 C 
BRANCH  35  36
ATOM     36  O   UNL A   1      41.239  21.914  25.931  1.00  0.00    -0.376 OA
BRANCH  36  37
ATOM     37  C   UNL A   1      42.158  22.098  27.012  1.00  0.00     0.202 C 
BRANCH  37  38
ATOM     38  C   UNL A   1      43.618  22.539  26.721  1.00  0.00     0.261 C 
BRANCH  38  39
ATOM     39  O   UNL A   1      44.060  23.812  27.234  1.00  0.00    -0.460 OA
BRANCH  39  40
ATOM     40  C   UNL A   1      45.349  23.920  27.659  1.00  0.00     0.338 C 
ATOM     41  O   UNL A   1      46.332  23.945  26.951  1.00  0.00    -0.246 OA
BRANCH  40  42
ATOM     42  C   UNL A   1      45.313  24.363  29.090  1.00  0.00     0.060 A 
ATOM     43  C   UNL A   1      46.386  25.136  29.565  1.00  0.00     0.016 A 
ATOM     44  C   UNL A   1      44.198  24.160  29.907  1.00  0.00     0.016 A 
ATOM     45  C   UNL A   1      46.347  25.697  30.846  1.00  0.00     0.010 A 
ATOM     46  C   UNL A   1      44.172  24.702  31.201  1.00  0.00     0.010 A 
ATOM     47  C   UNL A   1      45.251  25.465  31.685  1.00  0.00    -0.014 A 
BRANCH  47  48
ATOM     48  C   UNL A   1      45.289  25.889  33.111  1.00  0.00     0.031 A 
ATOM     49  C   UNL A   1      44.847  27.283  33.457  1.00  0.00     0.074 A 
ATOM     50  C   UNL A   1      45.728  25.075  34.089  1.00  0.00     0.049 A 
ATOM     51  N   UNL A   1      44.889  27.909  34.605  1.00  0.00    -0.248 NA
ATOM     52  C   UNL A   1      44.284  28.078  32.355  1.00  0.00     0.031 C 
ATOM     53  C   UNL A   1      46.166  23.694  33.906  1.00  0.00     0.029 A 
ATOM     54  N   UNL A   1      45.914  25.314  35.432  1.00  0.00    -0.354 N 
ATOM     55  C   UNL A   1      44.395  29.184  34.357  1.00  0.00     0.074 A 
ATOM     56  C   UNL A   1      44.060  29.239  32.949  1.00  0.00     0.031 C 
ATOM     57  C   UNL A   1      46.618  23.223  35.081  1.00  0.00     0.029 A 
ATOM     58  C   UNL A   1      46.539  24.281  36.090  1.00  0.00     0.049 A 
ATOM     59  H   UNL A   1      45.627  26.144  35.878  1.00  0.00     0.167 HD
ATOM     60  C   UNL A   1      44.230  30.217  35.217  1.00  0.00     0.034 A 
ATOM     61  C   UNL A   1      47.038  24.211  37.343  1.00  0.00     0.034 A 
ATOM     62  C   UNL A   1      44.567  30.172  36.614  1.00  0.00     0.049 A 
ATOM     63  C   UNL A   1      46.904  25.390  38.273  1.00  0.00     0.074 A 
ATOM     64  C   UNL A   1      44.394  31.157  37.572  1.00  0.00     0.029 A 
ATOM     65  N   UNL A   1      45.173  29.100  37.251  1.00  0.00    -0.354 N 
ATOM     66  N   UNL A   1      46.335  26.551  38.057  1.00  0.00    -0.248 NA
ATOM     67  C   UNL A   1      47.463  25.242  39.627  1.00  0.00     0.031 C 
ATOM     68  C   UNL A   1      44.941  30.697  38.776  1.00  0.00     0.029 A 
ATOM     69  C   UNL A   1      45.411  29.408  38.581  1.00  0.00     0.049 A 
ATOM     70  H   UNL A   1      45.402  28.244  36.820  1.00  0.00     0.167 HD
ATOM     71  C   UNL A   1      46.451  27.264  39.249  1.00  0.00     0.074 A 
ATOM     72  C   UNL A   1      47.121  26.393  40.191  1.00  0.00     0.031 C 
ATOM     73  C   UNL A   1      46.050  28.529  39.528  1.00  0.00     0.034 A 
BRANCH  60  74
ATOM     74  C   UNL A   1      43.667  31.497  34.654  1.00  0.00     0.023 A 
ATOM     75  C   UNL A   1      42.275  31.718  34.661  1.00  0.00     0.012 A 
ATOM     76  C   UNL A   1      44.521  32.485  34.127  1.00  0.00     0.148 A 
ATOM     77  C   UNL A   1      41.738  32.879  34.105  1.00  0.00     0.002 A 
ATOM     78  C   UNL A   1      43.982  33.661  33.620  1.00  0.00     0.091 A 
ATOM     79  F   UNL A   1      45.840  32.248  34.108  1.00  0.00    -0.205 F 
ATOM     80  C   UNL A   1      42.591  33.852  33.593  1.00  0.00     0.022 A 
BRANCH  78  81
ATOM     81  S   UNL A   1      45.003  35.006  33.012  1.00  0.00     0.127 S 
ATOM     82  O   UNL A   1      45.592  34.409  31.814  1.00  0.00    -0.237 OA
ATOM     83  O   UNL A   1      44.012  36.049  32.749  1.00  0.00    -0.237 OA
ATOM     84  O   UNL A   1      45.939  35.315  34.083  1.00  0.00    -0.744 OA
ENDBRANCH  78  81
ENDBRANCH  60  74
BRANCH  61  85
ATOM     85  C   UNL A   1      47.744  22.972  37.783  1.00  0.00     0.023 A 
ATOM     86  C   UNL A   1      49.137  22.857  37.620  1.00  0.00     0.012 A 
ATOM     87  C   UNL A   1      47.034  21.918  38.393  1.00  0.00     0.148 A 
ATOM     88  C   UNL A   1      49.809  21.708  38.044  1.00  0.00     0.002 A 
ATOM     89  C   UNL A   1      47.716  20.805  38.867  1.00  0.00     0.091 A 
ATOM     90  F   UNL A   1      45.705  22.040  38.517  1.00  0.00    -0.205 F 
ATOM     91  C   UNL A   1      49.102  20.690  38.679  1.00  0.00     0.022 A 
BRANCH  89  92
ATOM     92  S   UNL A   1      46.910  19.509  39.813  1.00  0.00     0.127 S 
ATOM     93  O   UNL A   1      46.442  20.241  40.987  1.00  0.00    -0.237 OA
ATOM     94  O   UNL A   1      45.858  19.081  38.891  1.00  0.00    -0.237 OA
ATOM     95  O   UNL A   1      47.936  18.507  40.067  1.00  0.00    -0.744 OA
ENDBRANCH  89  92
ENDBRANCH  61  85
BRANCH  73  96
ATOM     96  C   UNL A   1      46.301  29.064  40.919  1.00  0.00     0.023 A 
ATOM     97  C   UNL A   1      47.396  29.919  41.156  1.00  0.00     0.012 A 
ATOM     98  C   UNL A   1      45.401  28.790  41.969  1.00  0.00     0.148 A 
ATOM     99  C   UNL A   1      47.607  30.469  42.421  1.00  0.00     0.002 A 
ATOM    100  C   UNL A   1      45.590  29.381  43.213  1.00  0.00     0.091 A 
ATOM    101  F   UNL A   1      44.372  27.964  41.729  1.00  0.00    -0.205 F 
ATOM    102  C   UNL A   1      46.698  30.210  43.445  1.00  0.00     0.022 A 
BRANCH 100 103
ATOM    103  S   UNL A   1      44.424  29.184  44.568  1.00  0.00     0.127 S 
ATOM    104  O   UNL A   1      43.143  29.215  43.866  1.00  0.00    -0.237 OA
ATOM    105  O   UNL A   1      44.795  27.875  45.105  1.00  0.00    -0.237 OA
ATOM    106  O   UNL A   1      44.663  30.302  45.472  1.00  0.00    -0.744 OA
ENDBRANCH 100 103
ENDBRANCH  73  96
ENDBRANCH  47  48
ENDBRANCH  40  42
ENDBRANCH  39  40
ENDBRANCH  38  39
ENDBRANCH  37  38
ENDBRANCH  36  37
ENDBRANCH  35  36
ENDBRANCH   1  35
TORSDOF 26
ENDMDL
