MODEL 1
REMARK VINA RESULT:     -11.7      0.000      0.000
REMARK SMILES Cc1ccc(NC(=O)C[C@@H](C(=O)OCCOCCOCCOC(=O)c2ccc(-c3c4nc(c(-c5cccc(S(=O)(=O)[O-])c5F)c5ccc([nH]5)c(-c5cccc(S(=O)(=O)[O-])c5F)c5nc(c(-c6cccc(S(=O)(=O)[O-])c6F)c6ccc3[nH]6)C=C5)C=C4)cc2)[NH+]2CCOCC2)cc1
REMARK SMILES IDX 17 1 16 2 15 3 14 4 13 5 11 6 12 7 10 8 9 9 7 10 6 11 8 13
REMARK SMILES IDX 5 14 1 15 2 16 3 17 95 18 4 19 94 20 88 21 89 22 93 23 90 25
REMARK SMILES IDX 92 26 91 27 18 28 19 29 20 30 21 31 22 32 23 33 24 34 25 35
REMARK SMILES IDX 26 36 87 37 27 38 86 39 28 40 29 41 30 42 80 43 31 44 85 45
REMARK SMILES IDX 79 46 81 47 32 48 84 49 78 50 77 51 33 53 65 54 45 55 64 56
REMARK SMILES IDX 46 57 49 58 63 59 82 60 47 61 48 62 62 64 83 65 50 66 34 67
REMARK SMILES IDX 35 68 43 69 36 70 38 71 44 72 37 73 39 74 40 75 41 76 42 77
REMARK SMILES IDX 66 78 67 79 75 80 68 81 70 82 76 83 69 84 71 85 72 86 73 87
REMARK SMILES IDX 74 88 51 89 52 90 60 91 53 92 55 93 61 94 54 95 56 96 57 97
REMARK SMILES IDX 58 98 59 99
REMARK H PARENT 6 12 88 24 81 52 49 63
REMARK Flexibility Score: inf
ROOT
ATOM      1  C   UNL A   1      41.176  26.229  28.171  1.00  0.00     0.188 C 
ENDROOT
BRANCH   1   2
ATOM      2  O   UNL A   1      41.028  25.241  27.083  1.00  0.00    -0.376 OA
BRANCH   2   3
ATOM      3  C   UNL A   1      39.579  24.890  26.204  1.00  0.00     0.202 C 
BRANCH   3   4
ATOM      4  C   UNL A   1      38.358  23.031  26.169  1.00  0.00     0.261 C 
BRANCH   4   5
ATOM      5  O   UNL A   1      36.537  22.587  26.170  1.00  0.00    -0.459 OA
BRANCH   5   6
ATOM      6  C   UNL A   1      34.962  21.981  26.380  1.00  0.00     0.365 C 
ATOM      7  O   UNL A   1      34.569  21.741  27.520  1.00  0.00    -0.245 OA
BRANCH   6   8
ATOM      8  C   UNL A   1      33.621  21.825  25.039  1.00  0.00     0.304 C 
BRANCH   8   9
ATOM      9  C   UNL A   1      32.257  23.032  24.646  1.00  0.00     0.177 C 
BRANCH   9  10
ATOM     10  C   UNL A   1      30.880  23.759  25.744  1.00  0.00     0.231 C 
ATOM     11  N   UNL A   1      29.832  24.864  25.477  1.00  0.00    -0.326 N 
ATOM     12  H   UNL A   1      29.003  24.678  25.975  1.00  0.00     0.169 HD
ATOM     13  O   UNL A   1      30.675  23.136  26.809  1.00  0.00    -0.274 OA
BRANCH  11  14
ATOM     14  C   UNL A   1      29.687  26.187  24.655  1.00  0.00     0.041 A 
ATOM     15  C   UNL A   1      28.998  30.388  21.798  1.00  0.00     0.044 C 
ATOM     16  C   UNL A   1      29.263  29.443  22.947  1.00  0.00    -0.051 A 
ATOM     17  C   UNL A   1      27.915  28.367  23.112  1.00  0.00     0.005 A 
ATOM     18  C   UNL A   1      30.809  28.959  23.666  1.00  0.00     0.005 A 
ATOM     19  C   UNL A   1      28.161  26.712  23.841  1.00  0.00     0.026 A 
ATOM     20  C   UNL A   1      31.039  27.337  24.453  1.00  0.00     0.026 A 
ENDBRANCH  11  14
ENDBRANCH   9  10
ENDBRANCH   8   9
BRANCH   8  21
ATOM     21  N   UNL A   1      33.268  20.351  24.700  1.00  0.00    -0.319 N 
ATOM     22  C   UNL A   1      32.734  19.529  25.814  1.00  0.00     0.291 C 
ATOM     23  C   UNL A   1      32.423  20.043  23.531  1.00  0.00     0.291 C 
ATOM     24  H   UNL A   1      34.226  20.097  24.460  1.00  0.00     0.348 HD
ATOM     25  C   UNL A   1      32.759  18.025  25.481  1.00  0.00     0.221 C 
ATOM     26  C   UNL A   1      32.398  18.517  23.219  1.00  0.00     0.221 C 
ATOM     27  O   UNL A   1      31.972  17.718  24.329  1.00  0.00    -0.370 OA
ENDBRANCH   8  21
ENDBRANCH   6   8
ENDBRANCH   5   6
ENDBRANCH   4   5
ENDBRANCH   3   4
ENDBRANCH   2   3
ENDBRANCH   1   2
BRANCH   1  28
ATOM     28  C   UNL A   1      42.499  26.934  28.317  1.00  0.00     0.188 C 
BRANCH  28  29
ATOM     29  O   UNL A   1      43.413  26.360  27.417  1.00  0.00    -0.376 OA
BRANCH  29  30
ATOM     30  C   UNL A   1      43.908  27.257  26.454  1.00  0.00     0.202 C 
BRANCH  30  31
ATOM     31  C   UNL A   1      44.871  26.522  25.509  1.00  0.00     0.261 C 
BRANCH  31  32
ATOM     32  O   UNL A   1      46.114  26.202  26.196  1.00  0.00    -0.460 OA
BRANCH  32  33
ATOM     33  C   UNL A   1      46.476  24.869  26.280  1.00  0.00     0.338 C 
ATOM     34  O   UNL A   1      46.715  24.181  25.303  1.00  0.00    -0.246 OA
BRANCH  33  35
ATOM     35  C   UNL A   1      46.329  24.366  27.704  1.00  0.00     0.060 A 
ATOM     36  C   UNL A   1      45.212  23.689  28.222  1.00  0.00     0.016 A 
ATOM     37  C   UNL A   1      47.090  25.019  28.614  1.00  0.00     0.016 A 
ATOM     38  C   UNL A   1      44.726  23.935  29.572  1.00  0.00     0.010 A 
ATOM     39  C   UNL A   1      46.396  25.466  29.728  1.00  0.00     0.010 A 
ATOM     40  C   UNL A   1      45.243  24.957  30.370  1.00  0.00    -0.014 A 
BRANCH  40  41
ATOM     41  C   UNL A   1      44.635  25.672  31.873  1.00  0.00     0.031 A 
ATOM     42  C   UNL A   1      43.496  27.351  31.907  1.00  0.00     0.074 A 
ATOM     43  C   UNL A   1      44.932  24.676  33.049  1.00  0.00     0.049 A 
ATOM     44  N   UNL A   1      42.511  27.709  32.766  1.00  0.00    -0.248 NA
ATOM     45  C   UNL A   1      43.556  28.832  31.212  1.00  0.00     0.031 C 
ATOM     46  C   UNL A   1      44.158  24.505  34.441  1.00  0.00     0.029 A 
ATOM     47  N   UNL A   1      45.692  23.501  33.253  1.00  0.00    -0.354 N 
ATOM     48  C   UNL A   1      42.305  29.032  33.010  1.00  0.00     0.074 A 
ATOM     49  C   UNL A   1      42.659  29.628  31.788  1.00  0.00     0.031 C 
ATOM     50  C   UNL A   1      44.183  23.317  35.003  1.00  0.00     0.029 A 
ATOM     51  C   UNL A   1      45.437  22.908  34.544  1.00  0.00     0.049 A 
ATOM     52  H   UNL A   1      46.323  23.132  32.592  1.00  0.00     0.167 HD
ATOM     53  C   UNL A   1      42.044  29.565  34.247  1.00  0.00     0.034 A 
ATOM     54  C   UNL A   1      46.253  22.711  35.613  1.00  0.00     0.034 A 
ATOM     55  C   UNL A   1      42.217  28.630  35.417  1.00  0.00     0.049 A 
ATOM     56  C   UNL A   1      46.053  23.781  36.798  1.00  0.00     0.074 A 
ATOM     57  C   UNL A   1      41.422  27.652  35.996  1.00  0.00     0.029 A 
ATOM     58  N   UNL A   1      43.437  28.521  36.126  1.00  0.00    -0.354 N 
ATOM     59  N   UNL A   1      45.217  24.817  36.734  1.00  0.00    -0.248 NA
ATOM     60  C   UNL A   1      46.717  23.806  38.094  1.00  0.00     0.031 C 
ATOM     61  C   UNL A   1      42.202  26.884  36.939  1.00  0.00     0.029 A 
ATOM     62  C   UNL A   1      43.500  27.380  37.002  1.00  0.00     0.049 A 
ATOM     63  H   UNL A   1      44.175  29.164  36.028  1.00  0.00     0.167 HD
ATOM     64  C   UNL A   1      45.317  25.709  37.772  1.00  0.00     0.074 A 
ATOM     65  C   UNL A   1      46.246  24.957  38.637  1.00  0.00     0.031 C 
ATOM     66  C   UNL A   1      44.756  27.002  37.810  1.00  0.00     0.034 A 
BRANCH  53  67
ATOM     67  C   UNL A   1      41.314  30.927  34.301  1.00  0.00     0.023 A 
ATOM     68  C   UNL A   1      41.942  31.949  35.040  1.00  0.00     0.012 A 
ATOM     69  C   UNL A   1      39.994  31.223  33.853  1.00  0.00     0.148 A 
ATOM     70  C   UNL A   1      41.268  33.124  35.417  1.00  0.00     0.002 A 
ATOM     71  C   UNL A   1      39.283  32.334  34.330  1.00  0.00     0.091 A 
ATOM     72  F   UNL A   1      39.442  30.487  32.879  1.00  0.00    -0.205 F 
ATOM     73  C   UNL A   1      39.923  33.291  35.114  1.00  0.00     0.022 A 
BRANCH  71  74
ATOM     74  S   UNL A   1      37.495  32.521  34.113  1.00  0.00     0.127 S 
ATOM     75  O   UNL A   1      37.410  33.613  33.138  1.00  0.00    -0.237 OA
ATOM     76  O   UNL A   1      37.092  31.217  33.592  1.00  0.00    -0.237 OA
ATOM     77  O   UNL A   1      36.970  32.870  35.429  1.00  0.00    -0.744 OA
ENDBRANCH  71  74
ENDBRANCH  53  67
BRANCH  54  78
ATOM     78  C   UNL A   1      46.923  21.398  35.303  1.00  0.00     0.023 A 
ATOM     79  C   UNL A   1      48.332  21.460  34.994  1.00  0.00     0.012 A 
ATOM     80  C   UNL A   1      46.530  20.420  36.222  1.00  0.00     0.148 A 
ATOM     81  C   UNL A   1      49.293  20.798  35.793  1.00  0.00     0.002 A 
ATOM     82  C   UNL A   1      47.492  19.842  37.066  1.00  0.00     0.091 A 
ATOM     83  F   UNL A   1      45.222  20.344  36.516  1.00  0.00    -0.205 F 
ATOM     84  C   UNL A   1      48.869  20.035  36.873  1.00  0.00     0.022 A 
BRANCH  82  85
ATOM     85  S   UNL A   1      46.918  19.352  38.694  1.00  0.00     0.127 S 
ATOM     86  O   UNL A   1      48.145  19.015  39.398  1.00  0.00    -0.237 OA
ATOM     87  O   UNL A   1      46.220  20.536  39.183  1.00  0.00    -0.237 OA
ATOM     88  O   UNL A   1      46.037  18.243  38.349  1.00  0.00    -0.744 OA
ENDBRANCH  82  85
ENDBRANCH  54  78
BRANCH  66  89
ATOM     89  C   UNL A   1      45.437  28.120  38.647  1.00  0.00     0.023 A 
ATOM     90  C   UNL A   1      45.308  28.180  40.052  1.00  0.00     0.012 A 
ATOM     91  C   UNL A   1      46.353  29.055  38.089  1.00  0.00     0.148 A 
ATOM     92  C   UNL A   1      45.928  29.156  40.842  1.00  0.00     0.002 A 
ATOM     93  C   UNL A   1      47.083  29.932  38.898  1.00  0.00     0.091 A 
ATOM     94  F   UNL A   1      46.516  29.136  36.764  1.00  0.00    -0.205 F 
ATOM     95  C   UNL A   1      46.834  30.022  40.266  1.00  0.00     0.022 A 
BRANCH  93  96
ATOM     96  S   UNL A   1      48.480  30.882  38.271  1.00  0.00     0.127 S 
ATOM     97  O   UNL A   1      47.811  31.871  37.429  1.00  0.00    -0.237 OA
ATOM     98  O   UNL A   1      49.057  31.422  39.505  1.00  0.00    -0.237 OA
ATOM     99  O   UNL A   1      49.327  29.920  37.584  1.00  0.00    -0.744 OA
ENDBRANCH  93  96
ENDBRANCH  66  89
ENDBRANCH  40  41
ENDBRANCH  33  35
ENDBRANCH  32  33
ENDBRANCH  31  32
ENDBRANCH  30  31
ENDBRANCH  29  30
ENDBRANCH  28  29
ENDBRANCH   1  28
TORSDOF 24
ENDMDL
MODEL 2
REMARK VINA RESULT:     -11.3      7.428     12.498
REMARK SMILES Cc1ccc(NC(=O)C[C@@H](C(=O)OCCOCCOCCOC(=O)c2ccc(-c3c4nc(c(-c5cccc(S(=O)(=O)[O-])c5F)c5ccc([nH]5)c(-c5cccc(S(=O)(=O)[O-])c5F)c5nc(c(-c6cccc(S(=O)(=O)[O-])c6F)c6ccc3[nH]6)C=C5)C=C4)cc2)[NH+]2CCOCC2)cc1
REMARK SMILES IDX 17 1 16 2 15 3 14 4 13 5 11 6 12 7 10 8 9 9 7 10 6 11 8 13
REMARK SMILES IDX 5 14 1 15 2 16 3 17 95 18 4 19 94 20 88 21 89 22 93 23 90 25
REMARK SMILES IDX 92 26 91 27 18 28 19 29 20 30 21 31 22 32 23 33 24 34 25 35
REMARK SMILES IDX 26 36 87 37 27 38 86 39 28 40 29 41 30 42 80 43 31 44 85 45
REMARK SMILES IDX 79 46 81 47 32 48 84 49 78 50 77 51 33 53 65 54 45 55 64 56
REMARK SMILES IDX 46 57 49 58 63 59 82 60 47 61 48 62 62 64 83 65 50 66 34 67
REMARK SMILES IDX 35 68 43 69 36 70 38 71 44 72 37 73 39 74 40 75 41 76 42 77
REMARK SMILES IDX 66 78 67 79 75 80 68 81 70 82 76 83 69 84 71 85 72 86 73 87
REMARK SMILES IDX 74 88 51 89 52 90 60 91 53 92 55 93 61 94 54 95 56 96 57 97
REMARK SMILES IDX 58 98 59 99
REMARK H PARENT 6 12 88 24 81 52 49 63
REMARK Flexibility Score: inf
ROOT
ATOM      1  C   UNL A   1      46.425  30.311  26.904  1.00  0.00     0.188 C 
ENDROOT
BRANCH   1   2
ATOM      2  O   UNL A   1      46.573  31.470  26.000  1.00  0.00    -0.376 OA
BRANCH   2   3
ATOM      3  C   UNL A   1      45.452  32.774  25.809  1.00  0.00     0.202 C 
BRANCH   3   4
ATOM      4  C   UNL A   1      44.188  33.790  27.332  1.00  0.00     0.261 C 
BRANCH   4   5
ATOM      5  O   UNL A   1      44.076  35.493  28.105  1.00  0.00    -0.459 OA
BRANCH   5   6
ATOM      6  C   UNL A   1      43.892  37.130  28.529  1.00  0.00     0.365 C 
ATOM      7  O   UNL A   1      43.216  37.412  29.518  1.00  0.00    -0.245 OA
BRANCH   6   8
ATOM      8  C   UNL A   1      44.810  38.609  27.760  1.00  0.00     0.304 C 
BRANCH   8   9
ATOM      9  C   UNL A   1      44.081  40.028  26.798  1.00  0.00     0.177 C 
BRANCH   9  10
ATOM     10  C   UNL A   1      44.627  41.847  26.653  1.00  0.00     0.231 C 
ATOM     11  N   UNL A   1      44.179  42.980  25.700  1.00  0.00    -0.326 N 
ATOM     12  H   UNL A   1      44.236  43.852  26.153  1.00  0.00     0.169 HD
ATOM     13  O   UNL A   1      45.356  42.252  27.585  1.00  0.00    -0.274 OA
BRANCH  11  14
ATOM     14  C   UNL A   1      43.662  43.160  24.234  1.00  0.00     0.041 A 
ATOM     15  C   UNL A   1      42.103  44.019  19.427  1.00  0.00     0.044 C 
ATOM     16  C   UNL A   1      42.599  43.365  20.695  1.00  0.00    -0.051 A 
ATOM     17  C   UNL A   1      44.041  44.172  21.217  1.00  0.00     0.005 A 
ATOM     18  C   UNL A   1      41.702  42.407  21.886  1.00  0.00     0.005 A 
ATOM     19  C   UNL A   1      44.490  44.171  22.985  1.00  0.00     0.026 A 
ATOM     20  C   UNL A   1      42.186  42.351  23.637  1.00  0.00     0.026 A 
ENDBRANCH  11  14
ENDBRANCH   9  10
ENDBRANCH   8   9
BRANCH   8  21
ATOM     21  N   UNL A   1      46.277  38.278  27.369  1.00  0.00    -0.319 N 
ATOM     22  C   UNL A   1      46.613  38.375  25.928  1.00  0.00     0.291 C 
ATOM     23  C   UNL A   1      47.395  38.917  28.088  1.00  0.00     0.291 C 
ATOM     24  H   UNL A   1      46.223  37.310  27.688  1.00  0.00     0.348 HD
ATOM     25  C   UNL A   1      47.955  37.692  25.604  1.00  0.00     0.221 C 
ATOM     26  C   UNL A   1      48.764  38.268  27.726  1.00  0.00     0.221 C 
ATOM     27  O   UNL A   1      49.042  38.280  26.321  1.00  0.00    -0.370 OA
ENDBRANCH   8  21
ENDBRANCH   6   8
ENDBRANCH   5   6
ENDBRANCH   4   5
ENDBRANCH   3   4
ENDBRANCH   2   3
ENDBRANCH   1   2
BRANCH   1  28
ATOM     28  C   UNL A   1      45.585  29.150  26.441  1.00  0.00     0.188 C 
BRANCH  28  29
ATOM     29  O   UNL A   1      46.024  28.762  25.164  1.00  0.00    -0.376 OA
BRANCH  29  30
ATOM     30  C   UNL A   1      46.002  27.373  24.948  1.00  0.00     0.202 C 
BRANCH  30  31
ATOM     31  C   UNL A   1      44.900  26.734  25.806  1.00  0.00     0.261 C 
BRANCH  31  32
ATOM     32  O   UNL A   1      43.818  26.243  24.965  1.00  0.00    -0.460 OA
BRANCH  32  33
ATOM     33  C   UNL A   1      42.727  25.669  25.592  1.00  0.00     0.338 C 
ATOM     34  O   UNL A   1      42.641  24.476  25.819  1.00  0.00    -0.246 OA
BRANCH  33  35
ATOM     35  C   UNL A   1      41.610  26.684  25.753  1.00  0.00     0.060 A 
ATOM     36  C   UNL A   1      41.746  28.078  25.625  1.00  0.00     0.016 A 
ATOM     37  C   UNL A   1      40.574  26.266  26.517  1.00  0.00     0.016 A 
ATOM     38  C   UNL A   1      41.034  28.999  26.500  1.00  0.00     0.010 A 
ATOM     39  C   UNL A   1      40.210  27.147  27.524  1.00  0.00     0.010 A 
ATOM     40  C   UNL A   1      40.302  28.556  27.604  1.00  0.00    -0.014 A 
BRANCH  40  41
ATOM     41  C   UNL A   1      39.636  29.446  28.983  1.00  0.00     0.031 A 
ATOM     42  C   UNL A   1      37.926  30.532  28.866  1.00  0.00     0.074 A 
ATOM     43  C   UNL A   1      40.448  29.048  30.266  1.00  0.00     0.049 A 
ATOM     44  N   UNL A   1      36.987  30.770  29.814  1.00  0.00    -0.248 NA
ATOM     45  C   UNL A   1      37.297  31.635  27.833  1.00  0.00     0.031 C 
ATOM     46  C   UNL A   1      39.978  29.066  31.798  1.00  0.00     0.029 A 
ATOM     47  N   UNL A   1      41.638  28.349  30.572  1.00  0.00    -0.354 N 
ATOM     48  C   UNL A   1      36.291  31.938  29.766  1.00  0.00     0.074 A 
ATOM     49  C   UNL A   1      36.227  32.200  28.387  1.00  0.00     0.031 C 
ATOM     50  C   UNL A   1      40.550  28.208  32.613  1.00  0.00     0.029 A 
ATOM     51  C   UNL A   1      41.799  28.146  31.992  1.00  0.00     0.049 A 
ATOM     52  H   UNL A   1      42.282  28.037  29.894  1.00  0.00     0.167 HD
ATOM     53  C   UNL A   1      35.982  32.708  30.859  1.00  0.00     0.034 A 
ATOM     54  C   UNL A   1      42.743  28.600  32.857  1.00  0.00     0.034 A 
ATOM     55  C   UNL A   1      36.656  32.318  32.151  1.00  0.00     0.049 A 
ATOM     56  C   UNL A   1      42.265  29.848  33.755  1.00  0.00     0.074 A 
ATOM     57  C   UNL A   1      36.401  31.359  33.121  1.00  0.00     0.029 A 
ATOM     58  N   UNL A   1      37.889  32.878  32.562  1.00  0.00    -0.354 N 
ATOM     59  N   UNL A   1      41.079  30.443  33.634  1.00  0.00    -0.248 NA
ATOM     60  C   UNL A   1      43.008  30.516  34.814  1.00  0.00     0.031 C 
ATOM     61  C   UNL A   1      37.530  31.259  34.016  1.00  0.00     0.029 A 
ATOM     62  C   UNL A   1      38.512  32.175  33.653  1.00  0.00     0.049 A 
ATOM     63  H   UNL A   1      38.285  33.675  32.141  1.00  0.00     0.167 HD
ATOM     64  C   UNL A   1      40.928  31.592  34.368  1.00  0.00     0.074 A 
ATOM     65  C   UNL A   1      42.176  31.534  35.151  1.00  0.00     0.031 C 
ATOM     66  C   UNL A   1      39.898  32.543  34.215  1.00  0.00     0.034 A 
BRANCH  53  67
ATOM     67  C   UNL A   1      34.774  33.665  30.744  1.00  0.00     0.023 A 
ATOM     68  C   UNL A   1      34.204  33.809  29.464  1.00  0.00     0.012 A 
ATOM     69  C   UNL A   1      34.283  34.564  31.735  1.00  0.00     0.148 A 
ATOM     70  C   UNL A   1      33.308  34.848  29.155  1.00  0.00     0.002 A 
ATOM     71  C   UNL A   1      33.487  35.671  31.400  1.00  0.00     0.091 A 
ATOM     72  F   UNL A   1      34.493  34.305  33.032  1.00  0.00    -0.205 F 
ATOM     73  C   UNL A   1      32.995  35.812  30.104  1.00  0.00     0.022 A 
BRANCH  71  74
ATOM     74  S   UNL A   1      33.187  37.044  32.542  1.00  0.00     0.127 S 
ATOM     75  O   UNL A   1      31.983  36.602  33.253  1.00  0.00    -0.237 OA
ATOM     76  O   UNL A   1      34.396  37.058  33.360  1.00  0.00    -0.237 OA
ATOM     77  O   UNL A   1      32.973  38.218  31.702  1.00  0.00    -0.744 OA
ENDBRANCH  71  74
ENDBRANCH  53  67
BRANCH  54  78
ATOM     78  C   UNL A   1      43.848  27.584  32.734  1.00  0.00     0.023 A 
ATOM     79  C   UNL A   1      43.706  26.618  31.670  1.00  0.00     0.012 A 
ATOM     80  C   UNL A   1      45.096  28.202  32.850  1.00  0.00     0.148 A 
ATOM     81  C   UNL A   1      44.653  26.528  30.623  1.00  0.00     0.002 A 
ATOM     82  C   UNL A   1      45.982  28.174  31.761  1.00  0.00     0.091 A 
ATOM     83  F   UNL A   1      45.247  29.099  33.838  1.00  0.00    -0.205 F 
ATOM     84  C   UNL A   1      45.766  27.359  30.641  1.00  0.00     0.022 A 
BRANCH  82  85
ATOM     85  S   UNL A   1      47.055  29.602  31.584  1.00  0.00     0.127 S 
ATOM     86  O   UNL A   1      48.144  29.324  32.507  1.00  0.00    -0.237 OA
ATOM     87  O   UNL A   1      47.414  29.588  30.169  1.00  0.00    -0.237 OA
ATOM     88  O   UNL A   1      46.142  30.677  31.954  1.00  0.00    -0.744 OA
ENDBRANCH  82  85
ENDBRANCH  54  78
BRANCH  66  89
ATOM     89  C   UNL A   1      40.158  34.033  34.570  1.00  0.00     0.023 A 
ATOM     90  C   UNL A   1      39.444  34.689  35.597  1.00  0.00     0.012 A 
ATOM     91  C   UNL A   1      41.224  34.788  34.006  1.00  0.00     0.148 A 
ATOM     92  C   UNL A   1      39.669  36.022  35.963  1.00  0.00     0.002 A 
ATOM     93  C   UNL A   1      41.541  36.067  34.477  1.00  0.00     0.091 A 
ATOM     94  F   UNL A   1      41.936  34.298  32.985  1.00  0.00    -0.205 F 
ATOM     95  C   UNL A   1      40.734  36.706  35.415  1.00  0.00     0.022 A 
BRANCH  93  96
ATOM     96  S   UNL A   1      43.072  36.905  34.029  1.00  0.00     0.127 S 
ATOM     97  O   UNL A   1      42.694  38.309  34.174  1.00  0.00    -0.237 OA
ATOM     98  O   UNL A   1      43.998  36.414  35.051  1.00  0.00    -0.237 OA
ATOM     99  O   UNL A   1      43.378  36.458  32.678  1.00  0.00    -0.744 OA
ENDBRANCH  93  96
ENDBRANCH  66  89
ENDBRANCH  40  41
ENDBRANCH  33  35
ENDBRANCH  32  33
ENDBRANCH  31  32
ENDBRANCH  30  31
ENDBRANCH  29  30
ENDBRANCH  28  29
ENDBRANCH   1  28
TORSDOF 24
ENDMDL
MODEL 3
REMARK VINA RESULT:     -10.9      5.323      7.222
REMARK SMILES Cc1ccc(NC(=O)C[C@@H](C(=O)OCCOCCOCCOC(=O)c2ccc(-c3c4nc(c(-c5cccc(S(=O)(=O)[O-])c5F)c5ccc([nH]5)c(-c5cccc(S(=O)(=O)[O-])c5F)c5nc(c(-c6cccc(S(=O)(=O)[O-])c6F)c6ccc3[nH]6)C=C5)C=C4)cc2)[NH+]2CCOCC2)cc1
REMARK SMILES IDX 17 1 16 2 15 3 14 4 13 5 11 6 12 7 10 8 9 9 7 10 6 11 8 13
REMARK SMILES IDX 5 14 1 15 2 16 3 17 95 18 4 19 94 20 88 21 89 22 93 23 90 25
REMARK SMILES IDX 92 26 91 27 18 28 19 29 20 30 21 31 22 32 23 33 24 34 25 35
REMARK SMILES IDX 26 36 87 37 27 38 86 39 28 40 29 41 30 42 80 43 31 44 85 45
REMARK SMILES IDX 79 46 81 47 32 48 84 49 78 50 77 51 33 53 65 54 45 55 64 56
REMARK SMILES IDX 46 57 49 58 63 59 82 60 47 61 48 62 62 64 83 65 50 66 34 67
REMARK SMILES IDX 35 68 43 69 36 70 38 71 44 72 37 73 39 74 40 75 41 76 42 77
REMARK SMILES IDX 66 78 67 79 75 80 68 81 70 82 76 83 69 84 71 85 72 86 73 87
REMARK SMILES IDX 74 88 51 89 52 90 60 91 53 92 55 93 61 94 54 95 56 96 57 97
REMARK SMILES IDX 58 98 59 99
REMARK H PARENT 6 12 88 24 81 52 49 63
REMARK Flexibility Score: inf
ROOT
ATOM      1  C   UNL A   1      46.800  30.595  27.160  1.00  0.00     0.188 C 
ENDROOT
BRANCH   1   2
ATOM      2  O   UNL A   1      45.721  30.780  28.153  1.00  0.00    -0.376 OA
BRANCH   2   3
ATOM      3  C   UNL A   1      44.552  32.055  28.173  1.00  0.00     0.202 C 
BRANCH   3   4
ATOM      4  C   UNL A   1      43.307  32.809  29.855  1.00  0.00     0.261 C 
BRANCH   4   5
ATOM      5  O   UNL A   1      41.531  33.351  30.110  1.00  0.00    -0.459 OA
BRANCH   5   6
ATOM      6  C   UNL A   1      39.887  33.781  30.047  1.00  0.00     0.365 C 
ATOM      7  O   UNL A   1      39.552  34.730  29.340  1.00  0.00    -0.245 OA
BRANCH   6   8
ATOM      8  C   UNL A   1      38.432  32.808  30.794  1.00  0.00     0.304 C 
BRANCH   8   9
ATOM      9  C   UNL A   1      38.428  31.043  31.391  1.00  0.00     0.177 C 
BRANCH   9  10
ATOM     10  C   UNL A   1      37.557  29.496  30.702  1.00  0.00     0.231 C 
ATOM     11  N   UNL A   1      38.081  28.319  29.847  1.00  0.00    -0.326 N 
ATOM     12  H   UNL A   1      37.595  27.492  30.067  1.00  0.00     0.169 HD
ATOM     13  O   UNL A   1      36.401  29.305  31.141  1.00  0.00    -0.274 OA
BRANCH  11  14
ATOM     14  C   UNL A   1      39.151  28.043  28.739  1.00  0.00     0.041 A 
ATOM     15  C   UNL A   1      42.630  27.428  25.025  1.00  0.00     0.044 C 
ATOM     16  C   UNL A   1      41.867  27.339  26.325  1.00  0.00    -0.051 A 
ATOM     17  C   UNL A   1      41.674  28.934  26.975  1.00  0.00     0.005 A 
ATOM     18  C   UNL A   1      40.771  26.068  26.896  1.00  0.00     0.005 A 
ATOM     19  C   UNL A   1      40.258  29.303  28.065  1.00  0.00     0.026 A 
ATOM     20  C   UNL A   1      39.399  26.421  28.035  1.00  0.00     0.026 A 
ENDBRANCH  11  14
ENDBRANCH   9  10
ENDBRANCH   8   9
BRANCH   8  21
ATOM     21  N   UNL A   1      37.047  33.300  30.289  1.00  0.00    -0.319 N 
ATOM     22  C   UNL A   1      36.555  32.697  29.026  1.00  0.00     0.291 C 
ATOM     23  C   UNL A   1      35.891  33.320  31.204  1.00  0.00     0.291 C 
ATOM     24  H   UNL A   1      37.353  34.265  30.162  1.00  0.00     0.348 HD
ATOM     25  C   UNL A   1      35.379  33.493  28.431  1.00  0.00     0.221 C 
ATOM     26  C   UNL A   1      34.677  34.077  30.588  1.00  0.00     0.221 C 
ATOM     27  O   UNL A   1      34.264  33.550  29.322  1.00  0.00    -0.370 OA
ENDBRANCH   8  21
ENDBRANCH   6   8
ENDBRANCH   5   6
ENDBRANCH   4   5
ENDBRANCH   3   4
ENDBRANCH   2   3
ENDBRANCH   1   2
BRANCH   1  28
ATOM     28  C   UNL A   1      46.919  29.256  26.480  1.00  0.00     0.188 C 
BRANCH  28  29
ATOM     29  O   UNL A   1      48.275  29.016  26.200  1.00  0.00    -0.376 OA
BRANCH  29  30
ATOM     30  C   UNL A   1      49.085  28.900  27.344  1.00  0.00     0.202 C 
BRANCH  30  31
ATOM     31  C   UNL A   1      50.336  28.074  27.011  1.00  0.00     0.261 C 
BRANCH  31  32
ATOM     32  O   UNL A   1      50.258  26.758  27.627  1.00  0.00    -0.460 OA
BRANCH  32  33
ATOM     33  C   UNL A   1      50.615  26.649  28.958  1.00  0.00     0.338 C 
ATOM     34  O   UNL A   1      51.673  27.062  29.400  1.00  0.00    -0.246 OA
BRANCH  33  35
ATOM     35  C   UNL A   1      49.620  25.784  29.708  1.00  0.00     0.060 A 
ATOM     36  C   UNL A   1      48.255  25.650  29.400  1.00  0.00     0.016 A 
ATOM     37  C   UNL A   1      49.956  25.522  30.993  1.00  0.00     0.016 A 
ATOM     38  C   UNL A   1      47.241  25.558  30.440  1.00  0.00     0.010 A 
ATOM     39  C   UNL A   1      48.953  25.784  31.915  1.00  0.00     0.010 A 
ATOM     40  C   UNL A   1      47.545  25.748  31.790  1.00  0.00    -0.014 A 
BRANCH  40  41
ATOM     41  C   UNL A   1      46.489  26.013  33.188  1.00  0.00     0.031 A 
ATOM     42  C   UNL A   1      45.196  27.572  33.305  1.00  0.00     0.074 A 
ATOM     43  C   UNL A   1      46.584  24.757  34.123  1.00  0.00     0.049 A 
ATOM     44  N   UNL A   1      43.987  27.647  33.912  1.00  0.00    -0.248 NA
ATOM     45  C   UNL A   1      45.264  29.185  33.033  1.00  0.00     0.031 C 
ATOM     46  C   UNL A   1      45.499  24.191  35.159  1.00  0.00     0.029 A 
ATOM     47  N   UNL A   1      47.394  23.604  34.244  1.00  0.00    -0.354 N 
ATOM     48  C   UNL A   1      43.574  28.848  34.400  1.00  0.00     0.074 A 
ATOM     49  C   UNL A   1      44.162  29.760  33.508  1.00  0.00     0.031 C 
ATOM     50  C   UNL A   1      45.514  22.899  35.401  1.00  0.00     0.029 A 
ATOM     51  C   UNL A   1      46.882  22.681  35.228  1.00  0.00     0.049 A 
ATOM     52  H   UNL A   1      48.213  23.451  33.717  1.00  0.00     0.167 HD
ATOM     53  C   UNL A   1      42.941  29.025  35.605  1.00  0.00     0.034 A 
ATOM     54  C   UNL A   1      47.410  22.246  36.403  1.00  0.00     0.034 A 
ATOM     55  C   UNL A   1      42.910  27.823  36.515  1.00  0.00     0.049 A 
ATOM     56  C   UNL A   1      46.787  22.956  37.706  1.00  0.00     0.074 A 
ATOM     57  C   UNL A   1      42.110  26.693  36.594  1.00  0.00     0.029 A 
ATOM     58  N   UNL A   1      43.909  27.585  37.490  1.00  0.00    -0.354 N 
ATOM     59  N   UNL A   1      45.883  23.935  37.662  1.00  0.00    -0.248 NA
ATOM     60  C   UNL A   1      47.084  22.669  39.102  1.00  0.00     0.031 C 
ATOM     61  C   UNL A   1      42.701  25.739  37.504  1.00  0.00     0.029 A 
ATOM     62  C   UNL A   1      43.872  26.258  38.047  1.00  0.00     0.049 A 
ATOM     63  H   UNL A   1      44.568  28.264  37.761  1.00  0.00     0.167 HD
ATOM     64  C   UNL A   1      45.607  24.525  38.869  1.00  0.00     0.074 A 
ATOM     65  C   UNL A   1      46.359  23.614  39.752  1.00  0.00     0.031 C 
ATOM     66  C   UNL A   1      44.910  25.736  39.058  1.00  0.00     0.034 A 
BRANCH  53  67
ATOM     67  C   UNL A   1      42.071  30.291  35.779  1.00  0.00     0.023 A 
ATOM     68  C   UNL A   1      42.499  31.222  36.745  1.00  0.00     0.012 A 
ATOM     69  C   UNL A   1      40.786  30.545  35.216  1.00  0.00     0.148 A 
ATOM     70  C   UNL A   1      41.667  32.254  37.213  1.00  0.00     0.002 A 
ATOM     71  C   UNL A   1      39.912  31.495  35.767  1.00  0.00     0.091 A 
ATOM     72  F   UNL A   1      40.429  29.942  34.075  1.00  0.00    -0.205 F 
ATOM     73  C   UNL A   1      40.355  32.356  36.768  1.00  0.00     0.022 A 
BRANCH  71  74
ATOM     74  S   UNL A   1      38.151  31.563  35.352  1.00  0.00     0.127 S 
ATOM     75  O   UNL A   1      37.914  30.239  34.769  1.00  0.00    -0.237 OA
ATOM     76  O   UNL A   1      37.518  31.768  36.652  1.00  0.00    -0.237 OA
ATOM     77  O   UNL A   1      38.011  32.657  34.397  1.00  0.00    -0.744 OA
ENDBRANCH  71  74
ENDBRANCH  53  67
BRANCH  54  78
ATOM     78  C   UNL A   1      48.283  21.092  35.986  1.00  0.00     0.023 A 
ATOM     79  C   UNL A   1      47.710  20.173  35.031  1.00  0.00     0.012 A 
ATOM     80  C   UNL A   1      49.583  21.533  35.722  1.00  0.00     0.148 A 
ATOM     81  C   UNL A   1      48.290  19.976  33.756  1.00  0.00     0.002 A 
ATOM     82  C   UNL A   1      50.103  21.406  34.423  1.00  0.00     0.091 A 
ATOM     83  F   UNL A   1      50.134  22.383  36.603  1.00  0.00    -0.205 F 
ATOM     84  C   UNL A   1      49.462  20.648  33.432  1.00  0.00     0.022 A 
BRANCH  82  85
ATOM     85  S   UNL A   1      51.260  22.678  33.910  1.00  0.00     0.127 S 
ATOM     86  O   UNL A   1      50.566  23.915  34.230  1.00  0.00    -0.237 OA
ATOM     87  O   UNL A   1      52.450  22.402  34.710  1.00  0.00    -0.237 OA
ATOM     88  O   UNL A   1      51.407  22.358  32.496  1.00  0.00    -0.744 OA
ENDBRANCH  82  85
ENDBRANCH  54  78
BRANCH  66  89
ATOM     89  C   UNL A   1      45.217  26.623  40.296  1.00  0.00     0.023 A 
ATOM     90  C   UNL A   1      44.307  26.743  41.370  1.00  0.00     0.012 A 
ATOM     91  C   UNL A   1      46.480  27.242  40.511  1.00  0.00     0.148 A 
ATOM     92  C   UNL A   1      44.559  27.511  42.513  1.00  0.00     0.002 A 
ATOM     93  C   UNL A   1      46.783  27.883  41.717  1.00  0.00     0.091 A 
ATOM     94  F   UNL A   1      47.405  27.248  39.545  1.00  0.00    -0.205 F 
ATOM     95  C   UNL A   1      45.809  28.066  42.696  1.00  0.00     0.022 A 
BRANCH  93  96
ATOM     96  S   UNL A   1      48.460  28.376  42.151  1.00  0.00     0.127 S 
ATOM     97  O   UNL A   1      49.187  27.117  42.004  1.00  0.00    -0.237 OA
ATOM     98  O   UNL A   1      48.758  29.375  41.122  1.00  0.00    -0.237 OA
ATOM     99  O   UNL A   1      48.371  28.913  43.500  1.00  0.00    -0.744 OA
ENDBRANCH  93  96
ENDBRANCH  66  89
ENDBRANCH  40  41
ENDBRANCH  33  35
ENDBRANCH  32  33
ENDBRANCH  31  32
ENDBRANCH  30  31
ENDBRANCH  29  30
ENDBRANCH  28  29
ENDBRANCH   1  28
TORSDOF 24
ENDMDL
