MODEL 1
REMARK VINA RESULT:     -12.0      0.000      0.000
REMARK SMILES O=C(OCCOCCOCCOC(=O)c1ccc(-c2c3nc(c(-c4cccc(S(=O)(=O)[O-])c4F)c4ccc([nH]4)c(-c4cccc(S(=O)(=O)[O-])c4F)c4nc(c(-c5cccc(S(=O)(=O)[O-])c5F)c5ccc2[nH]5)C=C4)C=C3)cc1)C1=Cc2c(Cl)cc(Cl)cc2O[C@@H]1C(F)(F)F
REMARK SMILES IDX 8 1 7 2 6 3 5 4 4 5 3 6 2 7 1 8 78 9 79 10 89 11 80 12 88 13
REMARK SMILES IDX 81 14 87 15 82 16 83 17 86 18 84 19 85 20 90 21 91 22 92 23
REMARK SMILES IDX 93 24 9 25 10 26 11 27 12 28 13 29 14 30 15 31 16 32 77 33
REMARK SMILES IDX 17 34 76 35 18 36 19 37 20 38 70 39 21 40 75 41 69 42 71 43
REMARK SMILES IDX 22 44 74 45 68 46 67 47 23 49 55 50 35 51 54 52 36 53 39 54
REMARK SMILES IDX 53 55 72 56 37 57 38 58 52 60 73 61 40 62 24 63 25 64 33 65
REMARK SMILES IDX 26 66 28 67 34 68 27 69 29 70 30 71 31 72 32 73 56 74 57 75
REMARK SMILES IDX 65 76 58 77 60 78 66 79 59 80 61 81 62 82 63 83 64 84 41 85
REMARK SMILES IDX 42 86 50 87 43 88 45 89 51 90 44 91 46 92 47 93 48 94 49 95
REMARK H PARENT 71 48 39 59
REMARK Flexibility Score: inf
ROOT
ATOM      1  C   UNL A   1      35.749  21.921  26.158  1.00  0.00     0.188 C 
ENDROOT
BRANCH   1   2
ATOM      2  C   UNL A   1      34.386  21.480  26.716  1.00  0.00     0.188 C 
BRANCH   2   3
ATOM      3  O   UNL A   1      33.202  21.262  25.831  1.00  0.00    -0.376 OA
BRANCH   3   4
ATOM      4  C   UNL A   1      31.761  22.211  25.732  1.00  0.00     0.202 C 
BRANCH   4   5
ATOM      5  C   UNL A   1      31.445  24.068  26.812  1.00  0.00     0.261 C 
BRANCH   5   6
ATOM      6  O   UNL A   1      30.470  25.164  26.451  1.00  0.00    -0.460 OA
BRANCH   6   7
ATOM      7  C   UNL A   1      31.079  26.167  25.800  1.00  0.00     0.338 C 
ATOM      8  O   UNL A   1      31.528  27.177  26.284  1.00  0.00    -0.246 OA
BRANCH   7   9
ATOM      9  C   UNL A   1      30.515  25.906  24.478  1.00  0.00     0.087 C 
ATOM     10  C   UNL A   1      29.187  26.457  24.213  1.00  0.00     0.029 C 
ATOM     11  C   UNL A   1      32.119  26.493  23.612  1.00  0.00     0.316 C 
ATOM     12  C   UNL A   1      28.861  27.966  23.274  1.00  0.00     0.036 A 
ATOM     13  O   UNL A   1      31.851  28.221  22.747  1.00  0.00    -0.475 OA
ATOM     14  C   UNL A   1      27.597  28.479  23.142  1.00  0.00     0.053 A 
ATOM     15  C   UNL A   1      30.153  28.889  22.578  1.00  0.00     0.130 A 
ATOM     16  Cl  UNL A   1      26.209  27.764  23.848  1.00  0.00    -0.083 Cl
ATOM     17  C   UNL A   1      27.489  29.676  22.409  1.00  0.00     0.042 A 
ATOM     18  C   UNL A   1      29.973  30.044  21.870  1.00  0.00     0.067 A 
ATOM     19  C   UNL A   1      28.605  30.400  21.804  1.00  0.00     0.046 A 
ATOM     20  Cl  UNL A   1      28.179  31.837  20.929  1.00  0.00    -0.084 Cl
BRANCH  11  21
ATOM     21  C   UNL A   1      32.451  24.963  22.979  1.00  0.00     0.430 C 
ATOM     22  F   UNL A   1      32.830  23.957  23.769  1.00  0.00    -0.167 F 
ATOM     23  F   UNL A   1      31.372  24.532  22.280  1.00  0.00    -0.167 F 
ATOM     24  F   UNL A   1      33.465  25.028  22.060  1.00  0.00    -0.167 F 
ENDBRANCH  11  21
ENDBRANCH   7   9
ENDBRANCH   6   7
ENDBRANCH   5   6
ENDBRANCH   4   5
ENDBRANCH   3   4
ENDBRANCH   2   3
ENDBRANCH   1   2
BRANCH   1  25
ATOM     25  O   UNL A   1      36.480  21.021  25.363  1.00  0.00    -0.376 OA
BRANCH  25  26
ATOM     26  C   UNL A   1      37.750  21.495  24.930  1.00  0.00     0.202 C 
BRANCH  26  27
ATOM     27  C   UNL A   1      38.908  21.502  25.942  1.00  0.00     0.261 C 
BRANCH  27  28
ATOM     28  O   UNL A   1      39.459  20.198  26.229  1.00  0.00    -0.460 OA
BRANCH  28  29
ATOM     29  C   UNL A   1      40.800  20.103  26.420  1.00  0.00     0.338 C 
ATOM     30  O   UNL A   1      41.497  19.114  26.267  1.00  0.00    -0.246 OA
BRANCH  29  31
ATOM     31  C   UNL A   1      41.347  21.444  26.718  1.00  0.00     0.060 A 
ATOM     32  C   UNL A   1      41.344  21.933  28.036  1.00  0.00     0.016 A 
ATOM     33  C   UNL A   1      41.829  22.231  25.675  1.00  0.00     0.016 A 
ATOM     34  C   UNL A   1      41.873  23.197  28.317  1.00  0.00     0.010 A 
ATOM     35  C   UNL A   1      42.305  23.514  25.950  1.00  0.00     0.010 A 
ATOM     36  C   UNL A   1      42.320  24.007  27.269  1.00  0.00    -0.014 A 
BRANCH  36  37
ATOM     37  C   UNL A   1      42.553  25.457  27.478  1.00  0.00     0.031 A 
ATOM     38  C   UNL A   1      43.966  25.948  27.356  1.00  0.00     0.074 A 
ATOM     39  C   UNL A   1      41.573  26.292  27.863  1.00  0.00     0.049 A 
ATOM     40  N   UNL A   1      44.467  27.119  27.641  1.00  0.00    -0.248 NA
ATOM     41  C   UNL A   1      44.951  24.969  26.864  1.00  0.00     0.031 C 
ATOM     42  C   UNL A   1      40.166  25.934  28.011  1.00  0.00     0.029 A 
ATOM     43  N   UNL A   1      41.632  27.610  28.249  1.00  0.00    -0.354 N 
ATOM     44  C   UNL A   1      45.832  27.004  27.412  1.00  0.00     0.074 A 
ATOM     45  C   UNL A   1      46.079  25.653  26.961  1.00  0.00     0.031 C 
ATOM     46  C   UNL A   1      39.500  26.991  28.506  1.00  0.00     0.029 A 
ATOM     47  C   UNL A   1      40.441  28.085  28.748  1.00  0.00     0.049 A 
ATOM     48  H   UNL A   1      42.445  28.161  28.175  1.00  0.00     0.167 HD
ATOM     49  C   UNL A   1      46.799  27.936  27.577  1.00  0.00     0.034 A 
ATOM     50  C   UNL A   1      40.159  29.244  29.379  1.00  0.00     0.034 A 
ATOM     51  C   UNL A   1      46.550  29.265  28.056  1.00  0.00     0.049 A 
ATOM     52  C   UNL A   1      41.253  30.262  29.587  1.00  0.00     0.074 A 
ATOM     53  C   UNL A   1      47.449  30.305  28.208  1.00  0.00     0.029 A 
ATOM     54  N   UNL A   1      45.322  29.726  28.506  1.00  0.00    -0.354 N 
ATOM     55  N   UNL A   1      42.522  30.185  29.266  1.00  0.00    -0.248 NA
ATOM     56  C   UNL A   1      40.876  31.534  30.224  1.00  0.00     0.031 C 
ATOM     57  C   UNL A   1      46.781  31.369  28.819  1.00  0.00     0.029 A 
ATOM     58  C   UNL A   1      45.446  31.024  28.968  1.00  0.00     0.049 A 
ATOM     59  H   UNL A   1      44.486  29.206  28.500  1.00  0.00     0.167 HD
ATOM     60  C   UNL A   1      43.085  31.406  29.622  1.00  0.00     0.074 A 
ATOM     61  C   UNL A   1      42.019  32.208  30.184  1.00  0.00     0.031 C 
ATOM     62  C   UNL A   1      44.368  31.825  29.492  1.00  0.00     0.034 A 
BRANCH  49  63
ATOM     63  C   UNL A   1      48.215  27.521  27.281  1.00  0.00     0.023 A 
ATOM     64  C   UNL A   1      49.034  26.995  28.302  1.00  0.00     0.012 A 
ATOM     65  C   UNL A   1      48.735  27.657  25.979  1.00  0.00     0.148 A 
ATOM     66  C   UNL A   1      50.365  26.668  28.044  1.00  0.00     0.002 A 
ATOM     67  C   UNL A   1      50.043  27.273  25.718  1.00  0.00     0.091 A 
ATOM     68  F   UNL A   1      47.949  28.180  25.028  1.00  0.00    -0.205 F 
ATOM     69  C   UNL A   1      50.865  26.798  26.752  1.00  0.00     0.022 A 
BRANCH  67  70
ATOM     70  S   UNL A   1      50.750  27.322  24.069  1.00  0.00     0.127 S 
ATOM     71  O   UNL A   1      50.983  28.755  23.890  1.00  0.00    -0.237 OA
ATOM     72  O   UNL A   1      51.965  26.524  24.236  1.00  0.00    -0.237 OA
ATOM     73  O   UNL A   1      49.755  26.737  23.183  1.00  0.00    -0.744 OA
ENDBRANCH  67  70
ENDBRANCH  49  63
BRANCH  50  74
ATOM     74  C   UNL A   1      38.777  29.494  29.880  1.00  0.00     0.023 A 
ATOM     75  C   UNL A   1      38.409  29.086  31.177  1.00  0.00     0.012 A 
ATOM     76  C   UNL A   1      37.835  30.171  29.080  1.00  0.00     0.148 A 
ATOM     77  C   UNL A   1      37.121  29.329  31.659  1.00  0.00     0.002 A 
ATOM     78  C   UNL A   1      36.575  30.464  29.589  1.00  0.00     0.091 A 
ATOM     79  F   UNL A   1      38.201  30.535  27.844  1.00  0.00    -0.205 F 
ATOM     80  C   UNL A   1      36.210  30.029  30.872  1.00  0.00     0.022 A 
BRANCH  78  81
ATOM     81  S   UNL A   1      35.382  31.465  28.694  1.00  0.00     0.127 S 
ATOM     82  O   UNL A   1      34.704  30.462  27.874  1.00  0.00    -0.237 OA
ATOM     83  O   UNL A   1      34.578  32.015  29.784  1.00  0.00    -0.237 OA
ATOM     84  O   UNL A   1      36.160  32.451  27.956  1.00  0.00    -0.744 OA
ENDBRANCH  78  81
ENDBRANCH  50  74
BRANCH  62  85
ATOM     85  C   UNL A   1      44.705  33.239  29.891  1.00  0.00     0.023 A 
ATOM     86  C   UNL A   1      45.209  33.524  31.174  1.00  0.00     0.012 A 
ATOM     87  C   UNL A   1      44.634  34.268  28.930  1.00  0.00     0.148 A 
ATOM     88  C   UNL A   1      45.620  34.818  31.500  1.00  0.00     0.002 A 
ATOM     89  C   UNL A   1      45.097  35.539  29.242  1.00  0.00     0.091 A 
ATOM     90  F   UNL A   1      44.139  33.976  27.719  1.00  0.00    -0.205 F 
ATOM     91  C   UNL A   1      45.578  35.820  30.531  1.00  0.00     0.022 A 
BRANCH  89  92
ATOM     92  S   UNL A   1      45.180  36.860  28.028  1.00  0.00     0.127 S 
ATOM     93  O   UNL A   1      45.755  37.951  28.816  1.00  0.00    -0.237 OA
ATOM     94  O   UNL A   1      46.078  36.295  27.021  1.00  0.00    -0.237 OA
ATOM     95  O   UNL A   1      43.815  37.083  27.573  1.00  0.00    -0.744 OA
ENDBRANCH  89  92
ENDBRANCH  62  85
ENDBRANCH  36  37
ENDBRANCH  29  31
ENDBRANCH  28  29
ENDBRANCH  27  28
ENDBRANCH  26  27
ENDBRANCH  25  26
ENDBRANCH   1  25
TORSDOF 21
ENDMDL
MODEL 2
REMARK VINA RESULT:     -11.8      5.822      9.513
REMARK SMILES O=C(OCCOCCOCCOC(=O)c1ccc(-c2c3nc(c(-c4cccc(S(=O)(=O)[O-])c4F)c4ccc([nH]4)c(-c4cccc(S(=O)(=O)[O-])c4F)c4nc(c(-c5cccc(S(=O)(=O)[O-])c5F)c5ccc2[nH]5)C=C4)C=C3)cc1)C1=Cc2c(Cl)cc(Cl)cc2O[C@@H]1C(F)(F)F
REMARK SMILES IDX 8 1 7 2 6 3 5 4 4 5 3 6 2 7 1 8 78 9 79 10 89 11 80 12 88 13
REMARK SMILES IDX 81 14 87 15 82 16 83 17 86 18 84 19 85 20 90 21 91 22 92 23
REMARK SMILES IDX 93 24 9 25 10 26 11 27 12 28 13 29 14 30 15 31 16 32 77 33
REMARK SMILES IDX 17 34 76 35 18 36 19 37 20 38 70 39 21 40 75 41 69 42 71 43
REMARK SMILES IDX 22 44 74 45 68 46 67 47 23 49 55 50 35 51 54 52 36 53 39 54
REMARK SMILES IDX 53 55 72 56 37 57 38 58 52 60 73 61 40 62 24 63 25 64 33 65
REMARK SMILES IDX 26 66 28 67 34 68 27 69 29 70 30 71 31 72 32 73 56 74 57 75
REMARK SMILES IDX 65 76 58 77 60 78 66 79 59 80 61 81 62 82 63 83 64 84 41 85
REMARK SMILES IDX 42 86 50 87 43 88 45 89 51 90 44 91 46 92 47 93 48 94 49 95
REMARK H PARENT 71 48 39 59
REMARK Flexibility Score: inf
ROOT
ATOM      1  C   UNL A   1      31.134  29.999  25.157  1.00  0.00     0.188 C 
ENDROOT
BRANCH   1   2
ATOM      2  C   UNL A   1      30.035  30.740  24.377  1.00  0.00     0.188 C 
BRANCH   2   3
ATOM      3  O   UNL A   1      29.464  30.198  23.107  1.00  0.00    -0.376 OA
BRANCH   3   4
ATOM      4  C   UNL A   1      29.470  28.561  22.554  1.00  0.00     0.202 C 
BRANCH   4   5
ATOM      5  C   UNL A   1      29.356  26.830  23.859  1.00  0.00     0.261 C 
BRANCH   5   6
ATOM      6  O   UNL A   1      30.478  26.256  24.692  1.00  0.00    -0.460 OA
BRANCH   6   7
ATOM      7  C   UNL A   1      31.282  25.472  23.957  1.00  0.00     0.338 C 
ATOM      8  O   UNL A   1      30.963  24.484  23.340  1.00  0.00    -0.246 OA
BRANCH   7   9
ATOM      9  C   UNL A   1      32.542  25.836  24.599  1.00  0.00     0.087 C 
ATOM     10  C   UNL A   1      33.030  24.933  25.641  1.00  0.00     0.029 C 
ATOM     11  C   UNL A   1      33.400  26.093  22.907  1.00  0.00     0.316 C 
ATOM     12  C   UNL A   1      34.324  23.691  25.411  1.00  0.00     0.036 A 
ATOM     13  O   UNL A   1      34.669  24.658  22.543  1.00  0.00    -0.475 OA
ATOM     14  C   UNL A   1      34.669  22.812  26.405  1.00  0.00     0.053 A 
ATOM     15  C   UNL A   1      35.121  23.493  23.885  1.00  0.00     0.130 A 
ATOM     16  Cl  UNL A   1      33.920  22.786  27.945  1.00  0.00    -0.083 Cl
ATOM     17  C   UNL A   1      35.672  21.879  26.083  1.00  0.00     0.042 A 
ATOM     18  C   UNL A   1      36.095  22.565  23.645  1.00  0.00     0.067 A 
ATOM     19  C   UNL A   1      36.346  21.775  24.790  1.00  0.00     0.046 A 
ATOM     20  Cl  UNL A   1      37.568  20.547  24.680  1.00  0.00    -0.084 Cl
BRANCH  11  21
ATOM     21  C   UNL A   1      33.624  27.748  23.164  1.00  0.00     0.430 C 
ATOM     22  F   UNL A   1      33.803  28.236  24.392  1.00  0.00    -0.167 F 
ATOM     23  F   UNL A   1      34.670  28.171  22.413  1.00  0.00    -0.167 F 
ATOM     24  F   UNL A   1      32.548  28.461  22.706  1.00  0.00    -0.167 F 
ENDBRANCH  11  21
ENDBRANCH   7   9
ENDBRANCH   6   7
ENDBRANCH   5   6
ENDBRANCH   4   5
ENDBRANCH   3   4
ENDBRANCH   2   3
ENDBRANCH   1   2
BRANCH   1  25
ATOM     25  O   UNL A   1      31.541  30.507  26.403  1.00  0.00    -0.376 OA
BRANCH  25  26
ATOM     26  C   UNL A   1      32.425  31.620  26.339  1.00  0.00     0.202 C 
BRANCH  26  27
ATOM     27  C   UNL A   1      32.855  32.286  27.658  1.00  0.00     0.261 C 
BRANCH  27  28
ATOM     28  O   UNL A   1      32.548  33.695  27.744  1.00  0.00    -0.460 OA
BRANCH  28  29
ATOM     29  C   UNL A   1      33.175  34.424  28.701  1.00  0.00     0.338 C 
ATOM     30  O   UNL A   1      32.777  35.453  29.223  1.00  0.00    -0.246 OA
BRANCH  29  31
ATOM     31  C   UNL A   1      34.388  33.706  29.147  1.00  0.00     0.060 A 
ATOM     32  C   UNL A   1      34.297  32.705  30.131  1.00  0.00     0.016 A 
ATOM     33  C   UNL A   1      35.624  34.055  28.610  1.00  0.00     0.016 A 
ATOM     34  C   UNL A   1      35.443  32.018  30.543  1.00  0.00     0.010 A 
ATOM     35  C   UNL A   1      36.775  33.407  29.062  1.00  0.00     0.010 A 
ATOM     36  C   UNL A   1      36.692  32.394  30.037  1.00  0.00    -0.014 A 
BRANCH  36  37
ATOM     37  C   UNL A   1      37.942  31.943  30.695  1.00  0.00     0.031 A 
ATOM     38  C   UNL A   1      38.753  30.900  29.983  1.00  0.00     0.074 A 
ATOM     39  C   UNL A   1      38.298  32.360  31.922  1.00  0.00     0.049 A 
ATOM     40  N   UNL A   1      39.788  30.223  30.399  1.00  0.00    -0.248 NA
ATOM     41  C   UNL A   1      38.316  30.561  28.617  1.00  0.00     0.031 C 
ATOM     42  C   UNL A   1      37.595  33.369  32.708  1.00  0.00     0.029 A 
ATOM     43  N   UNL A   1      39.319  31.940  32.740  1.00  0.00    -0.354 N 
ATOM     44  C   UNL A   1      40.096  29.343  29.369  1.00  0.00     0.074 A 
ATOM     45  C   UNL A   1      39.141  29.576  28.308  1.00  0.00     0.031 C 
ATOM     46  C   UNL A   1      38.175  33.456  33.918  1.00  0.00     0.029 A 
ATOM     47  C   UNL A   1      39.260  32.479  34.005  1.00  0.00     0.049 A 
ATOM     48  H   UNL A   1      40.025  31.316  32.450  1.00  0.00     0.167 HD
ATOM     49  C   UNL A   1      41.077  28.413  29.316  1.00  0.00     0.034 A 
ATOM     50  C   UNL A   1      39.964  32.177  35.116  1.00  0.00     0.034 A 
ATOM     51  C   UNL A   1      41.999  28.166  30.387  1.00  0.00     0.049 A 
ATOM     52  C   UNL A   1      41.032  31.113  35.053  1.00  0.00     0.074 A 
ATOM     53  C   UNL A   1      43.064  27.286  30.415  1.00  0.00     0.029 A 
ATOM     54  N   UNL A   1      41.939  28.766  31.635  1.00  0.00    -0.354 N 
ATOM     55  N   UNL A   1      41.388  30.363  34.039  1.00  0.00    -0.248 NA
ATOM     56  C   UNL A   1      41.811  30.868  36.278  1.00  0.00     0.031 C 
ATOM     57  C   UNL A   1      43.602  27.298  31.704  1.00  0.00     0.029 A 
ATOM     58  C   UNL A   1      42.927  28.251  32.454  1.00  0.00     0.049 A 
ATOM     59  H   UNL A   1      41.289  29.455  31.901  1.00  0.00     0.167 HD
ATOM     60  C   UNL A   1      42.454  29.588  34.487  1.00  0.00     0.074 A 
ATOM     61  C   UNL A   1      42.688  29.960  35.866  1.00  0.00     0.031 C 
ATOM     62  C   UNL A   1      43.174  28.656  33.815  1.00  0.00     0.034 A 
BRANCH  49  63
ATOM     63  C   UNL A   1      41.158  27.566  28.074  1.00  0.00     0.023 A 
ATOM     64  C   UNL A   1      41.776  28.063  26.908  1.00  0.00     0.012 A 
ATOM     65  C   UNL A   1      40.615  26.267  28.068  1.00  0.00     0.148 A 
ATOM     66  C   UNL A   1      41.797  27.303  25.739  1.00  0.00     0.002 A 
ATOM     67  C   UNL A   1      40.694  25.494  26.918  1.00  0.00     0.091 A 
ATOM     68  F   UNL A   1      40.012  25.820  29.178  1.00  0.00    -0.205 F 
ATOM     69  C   UNL A   1      41.265  26.018  25.747  1.00  0.00     0.022 A 
BRANCH  67  70
ATOM     70  S   UNL A   1      40.114  23.796  26.855  1.00  0.00     0.127 S 
ATOM     71  O   UNL A   1      38.718  23.975  26.460  1.00  0.00    -0.237 OA
ATOM     72  O   UNL A   1      40.972  23.220  25.819  1.00  0.00    -0.237 OA
ATOM     73  O   UNL A   1      40.319  23.248  28.189  1.00  0.00    -0.744 OA
ENDBRANCH  67  70
ENDBRANCH  49  63
BRANCH  50  74
ATOM     74  C   UNL A   1      39.661  32.881  36.395  1.00  0.00     0.023 A 
ATOM     75  C   UNL A   1      40.292  34.103  36.698  1.00  0.00     0.012 A 
ATOM     76  C   UNL A   1      38.718  32.352  37.300  1.00  0.00     0.148 A 
ATOM     77  C   UNL A   1      40.003  34.776  37.888  1.00  0.00     0.002 A 
ATOM     78  C   UNL A   1      38.391  33.056  38.452  1.00  0.00     0.091 A 
ATOM     79  F   UNL A   1      38.144  31.179  37.000  1.00  0.00    -0.205 F 
ATOM     80  C   UNL A   1      39.045  34.260  38.757  1.00  0.00     0.022 A 
BRANCH  78  81
ATOM     81  S   UNL A   1      37.083  32.531  39.565  1.00  0.00     0.127 S 
ATOM     82  O   UNL A   1      37.483  31.159  39.871  1.00  0.00    -0.237 OA
ATOM     83  O   UNL A   1      37.235  33.478  40.669  1.00  0.00    -0.237 OA
ATOM     84  O   UNL A   1      35.842  32.666  38.816  1.00  0.00    -0.744 OA
ENDBRANCH  78  81
ENDBRANCH  50  74
BRANCH  62  85
ATOM     85  C   UNL A   1      44.339  28.007  34.517  1.00  0.00     0.023 A 
ATOM     86  C   UNL A   1      45.641  28.525  34.382  1.00  0.00     0.012 A 
ATOM     87  C   UNL A   1      44.105  26.948  35.418  1.00  0.00     0.148 A 
ATOM     88  C   UNL A   1      46.696  27.985  35.119  1.00  0.00     0.002 A 
ATOM     89  C   UNL A   1      45.147  26.455  36.190  1.00  0.00     0.091 A 
ATOM     90  F   UNL A   1      42.859  26.462  35.522  1.00  0.00    -0.205 F 
ATOM     91  C   UNL A   1      46.446  26.962  36.034  1.00  0.00     0.022 A 
BRANCH  89  92
ATOM     92  S   UNL A   1      44.899  25.214  37.466  1.00  0.00     0.127 S 
ATOM     93  O   UNL A   1      44.405  24.080  36.685  1.00  0.00    -0.237 OA
ATOM     94  O   UNL A   1      46.251  25.046  37.997  1.00  0.00    -0.237 OA
ATOM     95  O   UNL A   1      43.940  25.780  38.404  1.00  0.00    -0.744 OA
ENDBRANCH  89  92
ENDBRANCH  62  85
ENDBRANCH  36  37
ENDBRANCH  29  31
ENDBRANCH  28  29
ENDBRANCH  27  28
ENDBRANCH  26  27
ENDBRANCH  25  26
ENDBRANCH   1  25
TORSDOF 21
ENDMDL
MODEL 3
REMARK VINA RESULT:     -11.6      1.360      7.446
REMARK SMILES O=C(OCCOCCOCCOC(=O)c1ccc(-c2c3nc(c(-c4cccc(S(=O)(=O)[O-])c4F)c4ccc([nH]4)c(-c4cccc(S(=O)(=O)[O-])c4F)c4nc(c(-c5cccc(S(=O)(=O)[O-])c5F)c5ccc2[nH]5)C=C4)C=C3)cc1)C1=Cc2c(Cl)cc(Cl)cc2O[C@@H]1C(F)(F)F
REMARK SMILES IDX 8 1 7 2 6 3 5 4 4 5 3 6 2 7 1 8 78 9 79 10 89 11 80 12 88 13
REMARK SMILES IDX 81 14 87 15 82 16 83 17 86 18 84 19 85 20 90 21 91 22 92 23
REMARK SMILES IDX 93 24 9 25 10 26 11 27 12 28 13 29 14 30 15 31 16 32 77 33
REMARK SMILES IDX 17 34 76 35 18 36 19 37 20 38 70 39 21 40 75 41 69 42 71 43
REMARK SMILES IDX 22 44 74 45 68 46 67 47 23 49 55 50 35 51 54 52 36 53 39 54
REMARK SMILES IDX 53 55 72 56 37 57 38 58 52 60 73 61 40 62 24 63 25 64 33 65
REMARK SMILES IDX 26 66 28 67 34 68 27 69 29 70 30 71 31 72 32 73 56 74 57 75
REMARK SMILES IDX 65 76 58 77 60 78 66 79 59 80 61 81 62 82 63 83 64 84 41 85
REMARK SMILES IDX 42 86 50 87 43 88 45 89 51 90 44 91 46 92 47 93 48 94 49 95
REMARK H PARENT 71 48 39 59
REMARK Flexibility Score: inf
ROOT
ATOM      1  C   UNL A   1      35.372  21.295  25.149  1.00  0.00     0.188 C 
ENDROOT
BRANCH   1   2
ATOM      2  C   UNL A   1      34.056  20.710  24.611  1.00  0.00     0.188 C 
BRANCH   2   3
ATOM      3  O   UNL A   1      32.732  21.331  24.915  1.00  0.00    -0.376 OA
BRANCH   3   4
ATOM      4  C   UNL A   1      32.171  21.952  26.427  1.00  0.00     0.202 C 
BRANCH   4   5
ATOM      5  C   UNL A   1      31.760  24.049  26.810  1.00  0.00     0.261 C 
BRANCH   5   6
ATOM      6  O   UNL A   1      30.582  24.843  26.297  1.00  0.00    -0.460 OA
BRANCH   6   7
ATOM      7  C   UNL A   1      30.976  25.999  25.741  1.00  0.00     0.338 C 
ATOM      8  O   UNL A   1      31.272  27.017  26.318  1.00  0.00    -0.246 OA
BRANCH   7   9
ATOM      9  C   UNL A   1      30.395  25.782  24.418  1.00  0.00     0.087 C 
ATOM     10  C   UNL A   1      29.096  26.402  24.164  1.00  0.00     0.029 C 
ATOM     11  C   UNL A   1      32.023  26.295  23.552  1.00  0.00     0.316 C 
ATOM     12  C   UNL A   1      28.844  27.937  23.242  1.00  0.00     0.036 A 
ATOM     13  O   UNL A   1      31.841  28.044  22.706  1.00  0.00    -0.475 OA
ATOM     14  C   UNL A   1      27.607  28.515  23.120  1.00  0.00     0.053 A 
ATOM     15  C   UNL A   1      30.179  28.800  22.550  1.00  0.00     0.130 A 
ATOM     16  Cl  UNL A   1      26.187  27.865  23.824  1.00  0.00    -0.083 Cl
ATOM     17  C   UNL A   1      27.558  29.723  22.400  1.00  0.00     0.042 A 
ATOM     18  C   UNL A   1      30.056  29.970  21.856  1.00  0.00     0.067 A 
ATOM     19  C   UNL A   1      28.708  30.396  21.799  1.00  0.00     0.046 A 
ATOM     20  Cl  UNL A   1      28.353  31.862  20.940  1.00  0.00    -0.084 Cl
BRANCH  11  21
ATOM     21  C   UNL A   1      32.275  24.758  22.901  1.00  0.00     0.430 C 
ATOM     22  F   UNL A   1      32.689  24.602  21.642  1.00  0.00    -0.167 F 
ATOM     23  F   UNL A   1      33.147  24.083  23.690  1.00  0.00    -0.167 F 
ATOM     24  F   UNL A   1      31.122  24.020  22.936  1.00  0.00    -0.167 F 
ENDBRANCH  11  21
ENDBRANCH   7   9
ENDBRANCH   6   7
ENDBRANCH   5   6
ENDBRANCH   4   5
ENDBRANCH   3   4
ENDBRANCH   2   3
ENDBRANCH   1   2
BRANCH   1  25
ATOM     25  O   UNL A   1      36.203  22.014  24.272  1.00  0.00    -0.376 OA
BRANCH  25  26
ATOM     26  C   UNL A   1      37.393  22.530  24.857  1.00  0.00     0.202 C 
BRANCH  26  27
ATOM     27  C   UNL A   1      38.120  21.671  25.906  1.00  0.00     0.261 C 
BRANCH  27  28
ATOM     28  O   UNL A   1      39.161  20.825  25.368  1.00  0.00    -0.460 OA
BRANCH  28  29
ATOM     29  C   UNL A   1      40.132  20.397  26.214  1.00  0.00     0.338 C 
ATOM     30  O   UNL A   1      40.383  19.245  26.526  1.00  0.00    -0.246 OA
BRANCH  29  31
ATOM     31  C   UNL A   1      40.970  21.548  26.616  1.00  0.00     0.060 A 
ATOM     32  C   UNL A   1      41.207  21.809  27.977  1.00  0.00     0.016 A 
ATOM     33  C   UNL A   1      41.489  22.390  25.637  1.00  0.00     0.016 A 
ATOM     34  C   UNL A   1      42.009  22.890  28.356  1.00  0.00     0.010 A 
ATOM     35  C   UNL A   1      42.243  23.501  26.018  1.00  0.00     0.010 A 
ATOM     36  C   UNL A   1      42.497  23.762  27.378  1.00  0.00    -0.014 A 
BRANCH  36  37
ATOM     37  C   UNL A   1      43.042  25.090  27.752  1.00  0.00     0.031 A 
ATOM     38  C   UNL A   1      42.091  26.069  28.379  1.00  0.00     0.074 A 
ATOM     39  C   UNL A   1      44.301  25.459  27.458  1.00  0.00     0.049 A 
ATOM     40  N   UNL A   1      42.259  27.334  28.653  1.00  0.00    -0.248 NA
ATOM     41  C   UNL A   1      40.757  25.546  28.721  1.00  0.00     0.031 C 
ATOM     42  C   UNL A   1      45.314  24.598  26.857  1.00  0.00     0.029 A 
ATOM     43  N   UNL A   1      44.921  26.679  27.584  1.00  0.00    -0.354 N 
ATOM     44  C   UNL A   1      41.040  27.772  29.152  1.00  0.00     0.074 A 
ATOM     45  C   UNL A   1      40.143  26.637  29.147  1.00  0.00     0.031 C 
ATOM     46  C   UNL A   1      46.416  25.329  26.617  1.00  0.00     0.029 A 
ATOM     47  C   UNL A   1      46.169  26.717  27.009  1.00  0.00     0.049 A 
ATOM     48  H   UNL A   1      44.512  27.450  28.042  1.00  0.00     0.167 HD
ATOM     49  C   UNL A   1      40.690  29.011  29.564  1.00  0.00     0.034 A 
ATOM     50  C   UNL A   1      46.992  27.761  26.775  1.00  0.00     0.034 A 
ATOM     51  C   UNL A   1      41.576  30.140  29.535  1.00  0.00     0.049 A 
ATOM     52  C   UNL A   1      46.576  29.145  27.209  1.00  0.00     0.074 A 
ATOM     53  C   UNL A   1      41.341  31.427  29.980  1.00  0.00     0.029 A 
ATOM     54  N   UNL A   1      42.851  30.129  28.990  1.00  0.00    -0.354 N 
ATOM     55  N   UNL A   1      45.461  29.529  27.782  1.00  0.00    -0.248 NA
ATOM     56  C   UNL A   1      47.537  30.237  26.986  1.00  0.00     0.031 C 
ATOM     57  C   UNL A   1      42.444  32.212  29.637  1.00  0.00     0.029 A 
ATOM     58  C   UNL A   1      43.403  31.395  29.056  1.00  0.00     0.049 A 
ATOM     59  H   UNL A   1      43.297  29.338  28.610  1.00  0.00     0.167 HD
ATOM     60  C   UNL A   1      45.600  30.892  28.024  1.00  0.00     0.074 A 
ATOM     61  C   UNL A   1      46.910  31.270  27.537  1.00  0.00     0.031 C 
ATOM     62  C   UNL A   1      44.723  31.751  28.601  1.00  0.00     0.034 A 
BRANCH  49  63
ATOM     63  C   UNL A   1      39.273  29.210  30.031  1.00  0.00     0.023 A 
ATOM     64  C   UNL A   1      38.899  28.868  31.347  1.00  0.00     0.012 A 
ATOM     65  C   UNL A   1      38.307  29.740  29.153  1.00  0.00     0.148 A 
ATOM     66  C   UNL A   1      37.573  28.993  31.761  1.00  0.00     0.002 A 
ATOM     67  C   UNL A   1      37.003  29.918  29.593  1.00  0.00     0.091 A 
ATOM     68  F   UNL A   1      38.676  30.038  27.900  1.00  0.00    -0.205 F 
ATOM     69  C   UNL A   1      36.629  29.526  30.889  1.00  0.00     0.022 A 
BRANCH  67  70
ATOM     70  S   UNL A   1      35.736  30.675  28.572  1.00  0.00     0.127 S 
ATOM     71  O   UNL A   1      36.537  31.518  27.685  1.00  0.00    -0.237 OA
ATOM     72  O   UNL A   1      35.132  29.511  27.924  1.00  0.00    -0.237 OA
ATOM     73  O   UNL A   1      34.855  31.391  29.483  1.00  0.00    -0.744 OA
ENDBRANCH  67  70
ENDBRANCH  49  63
BRANCH  50  74
ATOM     74  C   UNL A   1      48.288  27.538  26.073  1.00  0.00     0.023 A 
ATOM     75  C   UNL A   1      49.443  27.203  26.806  1.00  0.00     0.012 A 
ATOM     76  C   UNL A   1      48.367  27.625  24.668  1.00  0.00     0.148 A 
ATOM     77  C   UNL A   1      50.657  26.978  26.154  1.00  0.00     0.002 A 
ATOM     78  C   UNL A   1      49.563  27.340  24.022  1.00  0.00     0.091 A 
ATOM     79  F   UNL A   1      47.260  27.962  23.993  1.00  0.00    -0.205 F 
ATOM     80  C   UNL A   1      50.715  27.034  24.763  1.00  0.00     0.022 A 
BRANCH  78  81
ATOM     81  S   UNL A   1      49.700  27.268  22.232  1.00  0.00     0.127 S 
ATOM     82  O   UNL A   1      51.103  26.903  22.053  1.00  0.00    -0.237 OA
ATOM     83  O   UNL A   1      48.742  26.214  21.904  1.00  0.00    -0.237 OA
ATOM     84  O   UNL A   1      49.333  28.592  21.749  1.00  0.00    -0.744 OA
ENDBRANCH  78  81
ENDBRANCH  50  74
BRANCH  62  85
ATOM     85  C   UNL A   1      45.155  33.179  28.816  1.00  0.00     0.023 A 
ATOM     86  C   UNL A   1      44.807  34.183  27.893  1.00  0.00     0.012 A 
ATOM     87  C   UNL A   1      45.804  33.535  30.016  1.00  0.00     0.148 A 
ATOM     88  C   UNL A   1      45.117  35.519  28.153  1.00  0.00     0.002 A 
ATOM     89  C   UNL A   1      46.057  34.871  30.294  1.00  0.00     0.091 A 
ATOM     90  F   UNL A   1      46.136  32.561  30.875  1.00  0.00    -0.205 F 
ATOM     91  C   UNL A   1      45.727  35.864  29.359  1.00  0.00     0.022 A 
BRANCH  89  92
ATOM     92  S   UNL A   1      46.741  35.417  31.864  1.00  0.00     0.127 S 
ATOM     93  O   UNL A   1      45.756  34.898  32.812  1.00  0.00    -0.237 OA
ATOM     94  O   UNL A   1      48.033  34.732  31.889  1.00  0.00    -0.237 OA
ATOM     95  O   UNL A   1      46.821  36.869  31.791  1.00  0.00    -0.744 OA
ENDBRANCH  89  92
ENDBRANCH  62  85
ENDBRANCH  36  37
ENDBRANCH  29  31
ENDBRANCH  28  29
ENDBRANCH  27  28
ENDBRANCH  26  27
ENDBRANCH  25  26
ENDBRANCH   1  25
TORSDOF 21
ENDMDL
