MODEL 1
REMARK VINA RESULT:     -10.2      0.000      0.000
REMARK SMILES C=CCc1cccc(-c2ccc([C@@H](C)C(=O)OCCOCCOCCOC(=O)c3ccc(-c4c5nc(c(-c6cccc(S(=O)(=O)[O-])c6F)c6ccc([nH]6)c(-c6cccc(S(=O)(=O)[O-])c6F)c6nc(c(-c7cccc(S(=O)(=O)[O-])c7F)c7ccc4[nH]7)C=C6)C=C5)cc3)cc2)c1
REMARK SMILES IDX 21 1 20 2 19 3 18 4 17 5 15 6 16 7 13 8 14 9 12 10 9 11
REMARK SMILES IDX 10 12 93 13 11 14 92 15 8 16 4 17 5 18 94 19 6 20 7 21 3 22
REMARK SMILES IDX 2 23 1 24 22 25 23 26 24 27 25 28 26 29 27 30 28 31 29 32
REMARK SMILES IDX 30 33 91 34 31 35 90 36 32 37 33 38 34 39 84 40 35 41 89 42
REMARK SMILES IDX 83 43 85 44 36 45 88 46 82 47 81 48 37 50 69 51 49 52 68 53
REMARK SMILES IDX 50 54 53 55 67 56 86 57 51 58 52 59 66 61 87 62 54 63 38 64
REMARK SMILES IDX 39 65 47 66 40 67 42 68 48 69 41 70 43 71 44 72 45 73 46 74
REMARK SMILES IDX 70 75 71 76 79 77 72 78 74 79 80 80 73 81 75 82 76 83 77 84
REMARK SMILES IDX 78 85 55 86 56 87 64 88 57 89 59 90 65 91 58 92 60 93 61 94
REMARK SMILES IDX 62 95 63 96
REMARK H PARENT 85 49 53 60
REMARK Flexibility Score: inf
ROOT
ATOM      1  C   UNL A   1      31.640  26.644  26.776  1.00  0.00     0.188 C 
ENDROOT
BRANCH   1   2
ATOM      2  O   UNL A   1      32.249  25.473  26.244  1.00  0.00    -0.376 OA
BRANCH   2   3
ATOM      3  C   UNL A   1      31.932  24.207  26.809  1.00  0.00     0.202 C 
BRANCH   3   4
ATOM      4  C   UNL A   1      32.819  22.999  26.462  1.00  0.00     0.261 C 
BRANCH   4   5
ATOM      5  O   UNL A   1      32.544  22.367  25.189  1.00  0.00    -0.463 OA
BRANCH   5   6
ATOM      6  C   UNL A   1      33.313  22.760  24.142  1.00  0.00     0.313 C 
ATOM      7  O   UNL A   1      34.540  22.676  24.146  1.00  0.00    -0.252 OA
BRANCH   6   8
ATOM      8  C   UNL A   1      32.573  23.301  22.912  1.00  0.00     0.126 C 
ATOM      9  C   UNL A   1      33.599  23.528  21.801  1.00  0.00     0.025 C 
BRANCH   8  10
ATOM     10  C   UNL A   1      31.629  24.500  22.998  1.00  0.00    -0.034 A 
ATOM     11  C   UNL A   1      29.947  26.821  23.090  1.00  0.00    -0.018 A 
ATOM     12  C   UNL A   1      29.549  25.596  23.654  1.00  0.00     0.009 A 
ATOM     13  C   UNL A   1      31.208  26.867  22.483  1.00  0.00     0.009 A 
ATOM     14  C   UNL A   1      30.375  24.456  23.618  1.00  0.00     0.005 A 
ATOM     15  C   UNL A   1      32.036  25.733  22.446  1.00  0.00     0.005 A 
BRANCH  11  16
ATOM     16  C   UNL A   1      29.099  28.029  23.185  1.00  0.00    -0.018 A 
ATOM     17  C   UNL A   1      28.827  30.475  23.328  1.00  0.00    -0.044 A 
ATOM     18  C   UNL A   1      27.440  30.294  23.447  1.00  0.00     0.004 A 
ATOM     19  C   UNL A   1      29.644  29.332  23.201  1.00  0.00     0.012 A 
ATOM     20  C   UNL A   1      26.881  29.018  23.430  1.00  0.00     0.001 A 
ATOM     21  C   UNL A   1      27.705  27.900  23.301  1.00  0.00     0.009 A 
BRANCH  17  22
ATOM     22  C   UNL A   1      29.349  31.899  23.399  1.00  0.00     0.062 C 
BRANCH  22  23
ATOM     23  C   UNL A   1      28.677  32.918  22.526  1.00  0.00    -0.030 C 
ATOM     24  C   UNL A   1      28.174  32.664  21.311  1.00  0.00     0.004 C 
ENDBRANCH  22  23
ENDBRANCH  17  22
ENDBRANCH  11  16
ENDBRANCH   8  10
ENDBRANCH   6   8
ENDBRANCH   5   6
ENDBRANCH   4   5
ENDBRANCH   3   4
ENDBRANCH   2   3
ENDBRANCH   1   2
BRANCH   1  25
ATOM     25  C   UNL A   1      31.844  27.979  26.045  1.00  0.00     0.188 C 
BRANCH  25  26
ATOM     26  O   UNL A   1      32.448  28.988  26.825  1.00  0.00    -0.376 OA
BRANCH  26  27
ATOM     27  C   UNL A   1      32.080  30.323  26.542  1.00  0.00     0.202 C 
BRANCH  27  28
ATOM     28  C   UNL A   1      33.056  31.420  26.991  1.00  0.00     0.261 C 
BRANCH  28  29
ATOM     29  O   UNL A   1      32.527  32.756  27.072  1.00  0.00    -0.460 OA
BRANCH  29  30
ATOM     30  C   UNL A   1      33.193  33.643  27.845  1.00  0.00     0.338 C 
ATOM     31  O   UNL A   1      32.791  34.738  28.215  1.00  0.00    -0.246 OA
BRANCH  30  32
ATOM     32  C   UNL A   1      34.413  32.979  28.360  1.00  0.00     0.060 A 
ATOM     33  C   UNL A   1      34.285  31.820  29.140  1.00  0.00     0.016 A 
ATOM     34  C   UNL A   1      35.676  33.495  28.068  1.00  0.00     0.016 A 
ATOM     35  C   UNL A   1      35.422  31.194  29.660  1.00  0.00     0.010 A 
ATOM     36  C   UNL A   1      36.811  32.879  28.607  1.00  0.00     0.010 A 
ATOM     37  C   UNL A   1      36.688  31.746  29.432  1.00  0.00    -0.014 A 
BRANCH  37  38
ATOM     38  C   UNL A   1      37.867  31.263  30.198  1.00  0.00     0.031 A 
ATOM     39  C   UNL A   1      38.774  30.249  29.551  1.00  0.00     0.074 A 
ATOM     40  C   UNL A   1      38.121  31.687  31.449  1.00  0.00     0.049 A 
ATOM     41  N   UNL A   1      39.809  29.623  30.048  1.00  0.00    -0.248 NA
ATOM     42  C   UNL A   1      38.464  29.888  28.157  1.00  0.00     0.031 C 
ATOM     43  C   UNL A   1      37.328  32.668  32.188  1.00  0.00     0.029 A 
ATOM     44  N   UNL A   1      39.104  31.312  32.333  1.00  0.00    -0.354 N 
ATOM     45  C   UNL A   1      40.250  28.767  29.045  1.00  0.00     0.074 A 
ATOM     46  C   UNL A   1      39.367  28.951  27.914  1.00  0.00     0.031 C 
ATOM     47  C   UNL A   1      37.835  32.791  33.428  1.00  0.00     0.029 A 
ATOM     48  C   UNL A   1      38.965  31.875  33.580  1.00  0.00     0.049 A 
ATOM     49  H   UNL A   1      39.837  30.698  32.097  1.00  0.00     0.167 HD
ATOM     50  C   UNL A   1      41.298  27.910  29.060  1.00  0.00     0.034 A 
ATOM     51  C   UNL A   1      39.650  31.653  34.721  1.00  0.00     0.034 A 
ATOM     52  C   UNL A   1      42.185  27.737  30.179  1.00  0.00     0.049 A 
ATOM     53  C   UNL A   1      40.798  30.674  34.721  1.00  0.00     0.074 A 
ATOM     54  C   UNL A   1      43.306  26.931  30.268  1.00  0.00     0.029 A 
ATOM     55  N   UNL A   1      42.040  28.360  31.408  1.00  0.00    -0.354 N 
ATOM     56  N   UNL A   1      41.273  29.955  33.732  1.00  0.00    -0.248 NA
ATOM     57  C   UNL A   1      41.524  30.497  35.989  1.00  0.00     0.031 C 
ATOM     58  C   UNL A   1      43.815  27.035  31.567  1.00  0.00     0.029 A 
ATOM     59  C   UNL A   1      43.041  27.943  32.270  1.00  0.00     0.049 A 
ATOM     60  H   UNL A   1      41.330  29.002  31.636  1.00  0.00     0.167 HD
ATOM     61  C   UNL A   1      42.374  29.277  34.245  1.00  0.00     0.074 A 
ATOM     62  C   UNL A   1      42.507  29.683  35.628  1.00  0.00     0.031 C 
ATOM     63  C   UNL A   1      43.197  28.390  33.630  1.00  0.00     0.034 A 
BRANCH  50  64
ATOM     64  C   UNL A   1      41.552  27.094  27.820  1.00  0.00     0.023 A 
ATOM     65  C   UNL A   1      42.150  27.691  26.692  1.00  0.00     0.012 A 
ATOM     66  C   UNL A   1      41.248  25.718  27.794  1.00  0.00     0.148 A 
ATOM     67  C   UNL A   1      42.411  26.941  25.546  1.00  0.00     0.002 A 
ATOM     68  C   UNL A   1      41.555  24.967  26.666  1.00  0.00     0.091 A 
ATOM     69  F   UNL A   1      40.659  25.173  28.868  1.00  0.00    -0.205 F 
ATOM     70  C   UNL A   1      42.124  25.579  25.538  1.00  0.00     0.022 A 
BRANCH  68  71
ATOM     71  S   UNL A   1      41.302  23.191  26.587  1.00  0.00     0.127 S 
ATOM     72  O   UNL A   1      39.853  23.108  26.405  1.00  0.00    -0.237 OA
ATOM     73  O   UNL A   1      42.087  22.822  25.409  1.00  0.00    -0.237 OA
ATOM     74  O   UNL A   1      41.802  22.655  27.845  1.00  0.00    -0.744 OA
ENDBRANCH  68  71
ENDBRANCH  50  64
BRANCH  51  75
ATOM     75  C   UNL A   1      39.281  32.383  35.968  1.00  0.00     0.023 A 
ATOM     76  C   UNL A   1      38.342  31.820  36.856  1.00  0.00     0.012 A 
ATOM     77  C   UNL A   1      39.852  33.633  36.276  1.00  0.00     0.148 A 
ATOM     78  C   UNL A   1      37.956  32.504  38.010  1.00  0.00     0.002 A 
ATOM     79  C   UNL A   1      39.506  34.282  37.455  1.00  0.00     0.091 A 
ATOM     80  F   UNL A   1      40.729  34.159  35.410  1.00  0.00    -0.205 F 
ATOM     81  C   UNL A   1      38.544  33.728  38.314  1.00  0.00     0.022 A 
BRANCH  79  82
ATOM     82  S   UNL A   1      40.296  35.804  37.989  1.00  0.00     0.127 S 
ATOM     83  O   UNL A   1      39.859  36.745  36.960  1.00  0.00    -0.237 OA
ATOM     84  O   UNL A   1      39.691  36.007  39.306  1.00  0.00    -0.237 OA
ATOM     85  O   UNL A   1      41.723  35.519  38.017  1.00  0.00    -0.744 OA
ENDBRANCH  79  82
ENDBRANCH  51  75
BRANCH  63  86
ATOM     86  C   UNL A   1      44.355  27.834  34.420  1.00  0.00     0.023 A 
ATOM     87  C   UNL A   1      45.587  28.516  34.452  1.00  0.00     0.012 A 
ATOM     88  C   UNL A   1      44.193  26.667  35.195  1.00  0.00     0.148 A 
ATOM     89  C   UNL A   1      46.651  28.024  35.211  1.00  0.00     0.002 A 
ATOM     90  C   UNL A   1      45.239  26.214  35.990  1.00  0.00     0.091 A 
ATOM     91  F   UNL A   1      43.018  26.023  35.142  1.00  0.00    -0.205 F 
ATOM     92  C   UNL A   1      46.473  26.882  35.988  1.00  0.00     0.022 A 
BRANCH  90  93
ATOM     93  S   UNL A   1      45.069  24.810  37.100  1.00  0.00     0.127 S 
ATOM     94  O   UNL A   1      43.854  25.157  37.835  1.00  0.00    -0.237 OA
ATOM     95  O   UNL A   1      44.920  23.694  36.165  1.00  0.00    -0.237 OA
ATOM     96  O   UNL A   1      46.290  24.773  37.894  1.00  0.00    -0.744 OA
ENDBRANCH  90  93
ENDBRANCH  63  86
ENDBRANCH  37  38
ENDBRANCH  30  32
ENDBRANCH  29  30
ENDBRANCH  28  29
ENDBRANCH  27  28
ENDBRANCH  26  27
ENDBRANCH  25  26
ENDBRANCH   1  25
TORSDOF 24
ENDMDL
MODEL 2
REMARK VINA RESULT:      -9.9      5.445     10.213
REMARK SMILES C=CCc1cccc(-c2ccc([C@@H](C)C(=O)OCCOCCOCCOC(=O)c3ccc(-c4c5nc(c(-c6cccc(S(=O)(=O)[O-])c6F)c6ccc([nH]6)c(-c6cccc(S(=O)(=O)[O-])c6F)c6nc(c(-c7cccc(S(=O)(=O)[O-])c7F)c7ccc4[nH]7)C=C6)C=C5)cc3)cc2)c1
REMARK SMILES IDX 21 1 20 2 19 3 18 4 17 5 15 6 16 7 13 8 14 9 12 10 9 11
REMARK SMILES IDX 10 12 93 13 11 14 92 15 8 16 4 17 5 18 94 19 6 20 7 21 3 22
REMARK SMILES IDX 2 23 1 24 22 25 23 26 24 27 25 28 26 29 27 30 28 31 29 32
REMARK SMILES IDX 30 33 91 34 31 35 90 36 32 37 33 38 34 39 84 40 35 41 89 42
REMARK SMILES IDX 83 43 85 44 36 45 88 46 82 47 81 48 37 50 69 51 49 52 68 53
REMARK SMILES IDX 50 54 53 55 67 56 86 57 51 58 52 59 66 61 87 62 54 63 38 64
REMARK SMILES IDX 39 65 47 66 40 67 42 68 48 69 41 70 43 71 44 72 45 73 46 74
REMARK SMILES IDX 70 75 71 76 79 77 72 78 74 79 80 80 73 81 75 82 76 83 77 84
REMARK SMILES IDX 78 85 55 86 56 87 64 88 57 89 59 90 65 91 58 92 60 93 61 94
REMARK SMILES IDX 62 95 63 96
REMARK H PARENT 85 49 53 60
REMARK Flexibility Score: inf
ROOT
ATOM      1  C   UNL A   1      34.732  33.001  31.613  1.00  0.00     0.188 C 
ENDROOT
BRANCH   1   2
ATOM      2  O   UNL A   1      34.085  33.275  30.376  1.00  0.00    -0.376 OA
BRANCH   2   3
ATOM      3  C   UNL A   1      34.858  33.742  29.277  1.00  0.00     0.202 C 
BRANCH   3   4
ATOM      4  C   UNL A   1      34.933  32.879  28.006  1.00  0.00     0.261 C 
BRANCH   4   5
ATOM      5  O   UNL A   1      36.135  32.087  27.860  1.00  0.00    -0.463 OA
BRANCH   5   6
ATOM      6  C   UNL A   1      36.130  30.868  28.457  1.00  0.00     0.313 C 
ATOM      7  O   UNL A   1      35.239  30.039  28.275  1.00  0.00    -0.252 OA
BRANCH   6   8
ATOM      8  C   UNL A   1      37.321  30.544  29.367  1.00  0.00     0.126 C 
ATOM      9  C   UNL A   1      38.093  31.839  29.620  1.00  0.00     0.025 C 
BRANCH   8  10
ATOM     10  C   UNL A   1      38.299  29.412  29.047  1.00  0.00    -0.034 A 
ATOM     11  C   UNL A   1      40.086  27.224  28.554  1.00  0.00    -0.018 A 
ATOM     12  C   UNL A   1      40.019  28.334  27.692  1.00  0.00     0.009 A 
ATOM     13  C   UNL A   1      39.245  27.232  29.674  1.00  0.00     0.009 A 
ATOM     14  C   UNL A   1      39.149  29.414  27.935  1.00  0.00     0.005 A 
ATOM     15  C   UNL A   1      38.376  28.307  29.920  1.00  0.00     0.005 A 
BRANCH  11  16
ATOM     16  C   UNL A   1      41.046  26.122  28.326  1.00  0.00    -0.018 A 
ATOM     17  C   UNL A   1      41.584  23.851  27.534  1.00  0.00    -0.044 A 
ATOM     18  C   UNL A   1      42.902  24.027  27.985  1.00  0.00     0.004 A 
ATOM     19  C   UNL A   1      40.667  24.907  27.715  1.00  0.00     0.012 A 
ATOM     20  C   UNL A   1      43.298  25.219  28.586  1.00  0.00     0.001 A 
ATOM     21  C   UNL A   1      42.378  26.254  28.754  1.00  0.00     0.009 A 
BRANCH  17  22
ATOM     22  C   UNL A   1      41.232  22.503  26.930  1.00  0.00     0.062 C 
BRANCH  22  23
ATOM     23  C   UNL A   1      39.797  22.071  27.011  1.00  0.00    -0.030 C 
ATOM     24  C   UNL A   1      38.918  22.160  26.004  1.00  0.00     0.004 C 
ENDBRANCH  22  23
ENDBRANCH  17  22
ENDBRANCH  11  16
ENDBRANCH   8  10
ENDBRANCH   6   8
ENDBRANCH   5   6
ENDBRANCH   4   5
ENDBRANCH   3   4
ENDBRANCH   2   3
ENDBRANCH   1   2
BRANCH   1  25
ATOM     25  C   UNL A   1      34.313  33.800  32.857  1.00  0.00     0.188 C 
BRANCH  25  26
ATOM     26  O   UNL A   1      34.758  33.255  34.080  1.00  0.00    -0.376 OA
BRANCH  26  27
ATOM     27  C   UNL A   1      35.513  34.102  34.923  1.00  0.00     0.202 C 
BRANCH  27  28
ATOM     28  C   UNL A   1      36.799  33.516  35.523  1.00  0.00     0.261 C 
BRANCH  28  29
ATOM     29  O   UNL A   1      37.132  32.169  35.139  1.00  0.00    -0.460 OA
BRANCH  29  30
ATOM     30  C   UNL A   1      38.217  31.607  35.715  1.00  0.00     0.338 C 
ATOM     31  O   UNL A   1      38.309  31.206  36.867  1.00  0.00    -0.246 OA
BRANCH  30  32
ATOM     32  C   UNL A   1      39.218  31.350  34.654  1.00  0.00     0.060 A 
ATOM     33  C   UNL A   1      38.821  30.687  33.483  1.00  0.00     0.016 A 
ATOM     34  C   UNL A   1      40.541  31.765  34.813  1.00  0.00     0.016 A 
ATOM     35  C   UNL A   1      39.757  30.409  32.481  1.00  0.00     0.010 A 
ATOM     36  C   UNL A   1      41.479  31.467  33.820  1.00  0.00     0.010 A 
ATOM     37  C   UNL A   1      41.100  30.758  32.665  1.00  0.00    -0.014 A 
BRANCH  37  38
ATOM     38  C   UNL A   1      42.146  30.229  31.750  1.00  0.00     0.031 A 
ATOM     39  C   UNL A   1      42.756  28.887  32.059  1.00  0.00     0.074 A 
ATOM     40  C   UNL A   1      42.572  30.929  30.683  1.00  0.00     0.049 A 
ATOM     41  N   UNL A   1      43.734  28.261  31.459  1.00  0.00    -0.248 NA
ATOM     42  C   UNL A   1      42.188  28.158  33.205  1.00  0.00     0.031 C 
ATOM     43  C   UNL A   1      42.063  32.235  30.269  1.00  0.00     0.029 A 
ATOM     44  N   UNL A   1      43.561  30.648  29.772  1.00  0.00    -0.354 N 
ATOM     45  C   UNL A   1      43.926  27.086  32.176  1.00  0.00     0.074 A 
ATOM     46  C   UNL A   1      42.966  27.088  33.258  1.00  0.00     0.031 C 
ATOM     47  C   UNL A   1      42.769  32.660  29.206  1.00  0.00     0.029 A 
ATOM     48  C   UNL A   1      43.799  31.672  28.886  1.00  0.00     0.049 A 
ATOM     49  H   UNL A   1      44.054  29.795  29.756  1.00  0.00     0.167 HD
ATOM     50  C   UNL A   1      44.815  26.089  31.951  1.00  0.00     0.034 A 
ATOM     51  C   UNL A   1      44.759  31.811  27.947  1.00  0.00     0.034 A 
ATOM     52  C   UNL A   1      45.761  26.079  30.868  1.00  0.00     0.049 A 
ATOM     53  C   UNL A   1      45.756  30.700  27.732  1.00  0.00     0.074 A 
ATOM     54  C   UNL A   1      46.666  25.089  30.529  1.00  0.00     0.029 A 
ATOM     55  N   UNL A   1      45.940  27.113  29.963  1.00  0.00    -0.354 N 
ATOM     56  N   UNL A   1      45.852  29.545  28.346  1.00  0.00    -0.248 NA
ATOM     57  C   UNL A   1      46.758  30.898  26.674  1.00  0.00     0.031 C 
ATOM     58  C   UNL A   1      47.422  25.543  29.443  1.00  0.00     0.029 A 
ATOM     59  C   UNL A   1      46.954  26.794  29.075  1.00  0.00     0.049 A 
ATOM     60  H   UNL A   1      45.425  27.951  29.953  1.00  0.00     0.167 HD
ATOM     61  C   UNL A   1      46.895  28.865  27.722  1.00  0.00     0.074 A 
ATOM     62  C   UNL A   1      47.387  29.731  26.672  1.00  0.00     0.031 C 
ATOM     63  C   UNL A   1      47.405  27.638  27.999  1.00  0.00     0.034 A 
BRANCH  50  64
ATOM     64  C   UNL A   1      44.806  24.917  32.896  1.00  0.00     0.023 A 
ATOM     65  C   UNL A   1      43.876  23.873  32.715  1.00  0.00     0.012 A 
ATOM     66  C   UNL A   1      45.756  24.823  33.931  1.00  0.00     0.148 A 
ATOM     67  C   UNL A   1      43.870  22.771  33.569  1.00  0.00     0.002 A 
ATOM     68  C   UNL A   1      45.776  23.699  34.748  1.00  0.00     0.091 A 
ATOM     69  F   UNL A   1      46.619  25.836  34.102  1.00  0.00    -0.205 F 
ATOM     70  C   UNL A   1      44.827  22.679  34.576  1.00  0.00     0.022 A 
BRANCH  68  71
ATOM     71  S   UNL A   1      47.019  23.447  36.019  1.00  0.00     0.127 S 
ATOM     72  O   UNL A   1      46.977  24.724  36.730  1.00  0.00    -0.237 OA
ATOM     73  O   UNL A   1      46.469  22.315  36.765  1.00  0.00    -0.237 OA
ATOM     74  O   UNL A   1      48.264  23.167  35.318  1.00  0.00    -0.744 OA
ENDBRANCH  68  71
ENDBRANCH  50  64
BRANCH  51  75
ATOM     75  C   UNL A   1      44.820  33.051  27.120  1.00  0.00     0.023 A 
ATOM     76  C   UNL A   1      44.076  33.132  25.927  1.00  0.00     0.012 A 
ATOM     77  C   UNL A   1      45.617  34.145  27.508  1.00  0.00     0.148 A 
ATOM     78  C   UNL A   1      44.149  34.269  25.119  1.00  0.00     0.002 A 
ATOM     79  C   UNL A   1      45.640  35.296  26.729  1.00  0.00     0.091 A 
ATOM     80  F   UNL A   1      46.331  34.041  28.637  1.00  0.00    -0.205 F 
ATOM     81  C   UNL A   1      44.922  35.353  25.525  1.00  0.00     0.022 A 
BRANCH  79  82
ATOM     82  S   UNL A   1      46.512  36.784  27.228  1.00  0.00     0.127 S 
ATOM     83  O   UNL A   1      47.904  36.340  27.200  1.00  0.00    -0.237 OA
ATOM     84  O   UNL A   1      46.142  37.718  26.164  1.00  0.00    -0.237 OA
ATOM     85  O   UNL A   1      45.988  37.127  28.542  1.00  0.00    -0.744 OA
ENDBRANCH  79  82
ENDBRANCH  51  75
BRANCH  63  86
ATOM     86  C   UNL A   1      48.519  27.121  27.124  1.00  0.00     0.023 A 
ATOM     87  C   UNL A   1      48.224  26.429  25.933  1.00  0.00     0.012 A 
ATOM     88  C   UNL A   1      49.864  27.391  27.450  1.00  0.00     0.148 A 
ATOM     89  C   UNL A   1      49.251  25.980  25.101  1.00  0.00     0.002 A 
ATOM     90  C   UNL A   1      50.878  26.989  26.589  1.00  0.00     0.091 A 
ATOM     91  F   UNL A   1      50.127  28.039  28.594  1.00  0.00    -0.205 F 
ATOM     92  C   UNL A   1      50.575  26.270  25.422  1.00  0.00     0.022 A 
BRANCH  90  93
ATOM     93  S   UNL A   1      52.604  27.405  26.870  1.00  0.00     0.127 S 
ATOM     94  O   UNL A   1      52.982  26.432  27.893  1.00  0.00    -0.237 OA
ATOM     95  O   UNL A   1      53.197  27.167  25.553  1.00  0.00    -0.237 OA
ATOM     96  O   UNL A   1      52.619  28.797  27.297  1.00  0.00    -0.744 OA
ENDBRANCH  90  93
ENDBRANCH  63  86
ENDBRANCH  37  38
ENDBRANCH  30  32
ENDBRANCH  29  30
ENDBRANCH  28  29
ENDBRANCH  27  28
ENDBRANCH  26  27
ENDBRANCH  25  26
ENDBRANCH   1  25
TORSDOF 24
ENDMDL
MODEL 3
REMARK VINA RESULT:      -9.7      4.752     11.634
REMARK SMILES C=CCc1cccc(-c2ccc([C@@H](C)C(=O)OCCOCCOCCOC(=O)c3ccc(-c4c5nc(c(-c6cccc(S(=O)(=O)[O-])c6F)c6ccc([nH]6)c(-c6cccc(S(=O)(=O)[O-])c6F)c6nc(c(-c7cccc(S(=O)(=O)[O-])c7F)c7ccc4[nH]7)C=C6)C=C5)cc3)cc2)c1
REMARK SMILES IDX 21 1 20 2 19 3 18 4 17 5 15 6 16 7 13 8 14 9 12 10 9 11
REMARK SMILES IDX 10 12 93 13 11 14 92 15 8 16 4 17 5 18 94 19 6 20 7 21 3 22
REMARK SMILES IDX 2 23 1 24 22 25 23 26 24 27 25 28 26 29 27 30 28 31 29 32
REMARK SMILES IDX 30 33 91 34 31 35 90 36 32 37 33 38 34 39 84 40 35 41 89 42
REMARK SMILES IDX 83 43 85 44 36 45 88 46 82 47 81 48 37 50 69 51 49 52 68 53
REMARK SMILES IDX 50 54 53 55 67 56 86 57 51 58 52 59 66 61 87 62 54 63 38 64
REMARK SMILES IDX 39 65 47 66 40 67 42 68 48 69 41 70 43 71 44 72 45 73 46 74
REMARK SMILES IDX 70 75 71 76 79 77 72 78 74 79 80 80 73 81 75 82 76 83 77 84
REMARK SMILES IDX 78 85 55 86 56 87 64 88 57 89 59 90 65 91 58 92 60 93 61 94
REMARK SMILES IDX 62 95 63 96
REMARK H PARENT 85 49 53 60
REMARK Flexibility Score: inf
ROOT
ATOM      1  C   UNL A   1      36.106  32.655  33.318  1.00  0.00     0.188 C 
ENDROOT
BRANCH   1   2
ATOM      2  O   UNL A   1      36.293  32.739  34.726  1.00  0.00    -0.376 OA
BRANCH   2   3
ATOM      3  C   UNL A   1      36.959  33.871  35.272  1.00  0.00     0.202 C 
BRANCH   3   4
ATOM      4  C   UNL A   1      38.497  33.897  35.267  1.00  0.00     0.261 C 
BRANCH   4   5
ATOM      5  O   UNL A   1      39.102  34.839  34.351  1.00  0.00    -0.463 OA
BRANCH   5   6
ATOM      6  C   UNL A   1      39.984  35.721  34.887  1.00  0.00     0.313 C 
ATOM      7  O   UNL A   1      39.642  36.640  35.629  1.00  0.00    -0.252 OA
BRANCH   6   8
ATOM      8  C   UNL A   1      41.464  35.505  34.546  1.00  0.00     0.126 C 
ATOM      9  C   UNL A   1      42.171  36.859  34.612  1.00  0.00     0.025 C 
BRANCH   8  10
ATOM     10  C   UNL A   1      41.903  34.752  33.290  1.00  0.00    -0.034 A 
ATOM     11  C   UNL A   1      42.797  33.449  30.897  1.00  0.00    -0.018 A 
ATOM     12  C   UNL A   1      41.980  32.793  31.836  1.00  0.00     0.009 A 
ATOM     13  C   UNL A   1      43.153  34.774  31.173  1.00  0.00     0.009 A 
ATOM     14  C   UNL A   1      41.533  33.432  33.008  1.00  0.00     0.005 A 
ATOM     15  C   UNL A   1      42.708  35.416  32.341  1.00  0.00     0.005 A 
BRANCH  11  16
ATOM     16  C   UNL A   1      43.212  32.791  29.639  1.00  0.00    -0.018 A 
ATOM     17  C   UNL A   1      43.268  30.839  28.135  1.00  0.00    -0.044 A 
ATOM     18  C   UNL A   1      44.097  31.561  27.261  1.00  0.00     0.004 A 
ATOM     19  C   UNL A   1      42.837  31.467  29.321  1.00  0.00     0.012 A 
ATOM     20  C   UNL A   1      44.476  32.869  27.552  1.00  0.00     0.001 A 
ATOM     21  C   UNL A   1      44.037  33.475  28.730  1.00  0.00     0.009 A 
BRANCH  17  22
ATOM     22  C   UNL A   1      42.942  29.405  27.755  1.00  0.00     0.062 C 
BRANCH  22  23
ATOM     23  C   UNL A   1      43.026  29.048  26.300  1.00  0.00    -0.030 C 
ATOM     24  C   UNL A   1      42.072  28.398  25.620  1.00  0.00     0.004 C 
ENDBRANCH  22  23
ENDBRANCH  17  22
ENDBRANCH  11  16
ENDBRANCH   8  10
ENDBRANCH   6   8
ENDBRANCH   5   6
ENDBRANCH   4   5
ENDBRANCH   3   4
ENDBRANCH   2   3
ENDBRANCH   1   2
BRANCH   1  25
ATOM     25  C   UNL A   1      35.526  33.868  32.576  1.00  0.00     0.188 C 
BRANCH  25  26
ATOM     26  O   UNL A   1      35.639  33.805  31.171  1.00  0.00    -0.376 OA
BRANCH  26  27
ATOM     27  C   UNL A   1      34.652  34.480  30.418  1.00  0.00     0.202 C 
BRANCH  27  28
ATOM     28  C   UNL A   1      34.350  33.926  29.018  1.00  0.00     0.261 C 
BRANCH  28  29
ATOM     29  O   UNL A   1      35.294  32.980  28.484  1.00  0.00    -0.460 OA
BRANCH  29  30
ATOM     30  C   UNL A   1      34.892  31.695  28.370  1.00  0.00     0.338 C 
ATOM     31  O   UNL A   1      33.822  31.299  27.927  1.00  0.00    -0.246 OA
BRANCH  30  32
ATOM     32  C   UNL A   1      36.051  30.823  28.668  1.00  0.00     0.060 A 
ATOM     33  C   UNL A   1      35.889  29.743  29.549  1.00  0.00     0.016 A 
ATOM     34  C   UNL A   1      37.291  31.066  28.075  1.00  0.00     0.016 A 
ATOM     35  C   UNL A   1      36.978  28.924  29.866  1.00  0.00     0.010 A 
ATOM     36  C   UNL A   1      38.383  30.260  28.409  1.00  0.00     0.010 A 
ATOM     37  C   UNL A   1      38.242  29.206  29.332  1.00  0.00    -0.014 A 
BRANCH  37  38
ATOM     38  C   UNL A   1      39.452  28.529  29.867  1.00  0.00     0.031 A 
ATOM     39  C   UNL A   1      40.062  29.052  31.140  1.00  0.00     0.074 A 
ATOM     40  C   UNL A   1      40.020  27.489  29.229  1.00  0.00     0.049 A 
ATOM     41  N   UNL A   1      41.156  28.682  31.751  1.00  0.00    -0.248 NA
ATOM     42  C   UNL A   1      39.340  30.149  31.809  1.00  0.00     0.031 C 
ATOM     43  C   UNL A   1      39.529  26.882  27.994  1.00  0.00     0.029 A 
ATOM     44  N   UNL A   1      41.163  26.785  29.521  1.00  0.00    -0.354 N 
ATOM     45  C   UNL A   1      41.278  29.522  32.852  1.00  0.00     0.074 A 
ATOM     46  C   UNL A   1      40.148  30.425  32.822  1.00  0.00     0.031 C 
ATOM     47  C   UNL A   1      40.386  25.918  27.613  1.00  0.00     0.029 A 
ATOM     48  C   UNL A   1      41.501  25.863  28.558  1.00  0.00     0.049 A 
ATOM     49  H   UNL A   1      41.691  26.926  30.341  1.00  0.00     0.167 HD
ATOM     50  C   UNL A   1      42.238  29.538  33.807  1.00  0.00     0.034 A 
ATOM     51  C   UNL A   1      42.599  25.088  28.436  1.00  0.00     0.034 A 
ATOM     52  C   UNL A   1      43.354  28.632  33.846  1.00  0.00     0.049 A 
ATOM     53  C   UNL A   1      43.669  25.142  29.498  1.00  0.00     0.074 A 
ATOM     54  C   UNL A   1      44.349  28.537  34.802  1.00  0.00     0.029 A 
ATOM     55  N   UNL A   1      43.637  27.681  32.878  1.00  0.00    -0.354 N 
ATOM     56  N   UNL A   1      43.713  25.863  30.592  1.00  0.00    -0.248 NA
ATOM     57  C   UNL A   1      44.828  24.252  29.323  1.00  0.00     0.031 C 
ATOM     58  C   UNL A   1      45.258  27.557  34.391  1.00  0.00     0.029 A 
ATOM     59  C   UNL A   1      44.801  27.006  33.204  1.00  0.00     0.049 A 
ATOM     60  H   UNL A   1      43.092  27.512  32.076  1.00  0.00     0.167 HD
ATOM     61  C   UNL A   1      44.878  25.484  31.255  1.00  0.00     0.074 A 
ATOM     62  C   UNL A   1      45.501  24.458  30.447  1.00  0.00     0.031 C 
ATOM     63  C   UNL A   1      45.389  25.950  32.422  1.00  0.00     0.034 A 
BRANCH  50  64
ATOM     64  C   UNL A   1      42.121  30.568  34.899  1.00  0.00     0.023 A 
ATOM     65  C   UNL A   1      41.045  30.514  35.808  1.00  0.00     0.012 A 
ATOM     66  C   UNL A   1      43.111  31.558  35.059  1.00  0.00     0.148 A 
ATOM     67  C   UNL A   1      40.937  31.448  36.837  1.00  0.00     0.002 A 
ATOM     68  C   UNL A   1      43.023  32.455  36.116  1.00  0.00     0.091 A 
ATOM     69  F   UNL A   1      44.115  31.607  34.172  1.00  0.00    -0.205 F 
ATOM     70  C   UNL A   1      41.931  32.409  36.997  1.00  0.00     0.022 A 
BRANCH  68  71
ATOM     71  S   UNL A   1      44.293  33.677  36.458  1.00  0.00     0.127 S 
ATOM     72  O   UNL A   1      43.605  34.561  37.399  1.00  0.00    -0.237 OA
ATOM     73  O   UNL A   1      45.352  32.860  37.052  1.00  0.00    -0.237 OA
ATOM     74  O   UNL A   1      44.633  34.277  35.176  1.00  0.00    -0.744 OA
ENDBRANCH  68  71
ENDBRANCH  50  64
BRANCH  51  75
ATOM     75  C   UNL A   1      42.744  24.176  27.265  1.00  0.00     0.023 A 
ATOM     76  C   UNL A   1      43.354  24.646  26.085  1.00  0.00     0.012 A 
ATOM     77  C   UNL A   1      42.275  22.849  27.314  1.00  0.00     0.148 A 
ATOM     78  C   UNL A   1      43.465  23.819  24.965  1.00  0.00     0.002 A 
ATOM     79  C   UNL A   1      42.441  22.014  26.215  1.00  0.00     0.091 A 
ATOM     80  F   UNL A   1      41.682  22.428  28.439  1.00  0.00    -0.205 F 
ATOM     81  C   UNL A   1      43.019  22.503  25.033  1.00  0.00     0.022 A 
BRANCH  79  82
ATOM     82  S   UNL A   1      42.005  20.273  26.250  1.00  0.00     0.127 S 
ATOM     83  O   UNL A   1      42.840  19.734  25.178  1.00  0.00    -0.237 OA
ATOM     84  O   UNL A   1      42.414  19.889  27.601  1.00  0.00    -0.237 OA
ATOM     85  O   UNL A   1      40.569  20.220  26.015  1.00  0.00    -0.744 OA
ENDBRANCH  79  82
ENDBRANCH  51  75
BRANCH  63  86
ATOM     86  C   UNL A   1      46.660  25.322  32.938  1.00  0.00     0.023 A 
ATOM     87  C   UNL A   1      47.912  25.874  32.605  1.00  0.00     0.012 A 
ATOM     88  C   UNL A   1      46.603  24.223  33.819  1.00  0.00     0.148 A 
ATOM     89  C   UNL A   1      49.090  25.319  33.110  1.00  0.00     0.002 A 
ATOM     90  C   UNL A   1      47.776  23.709  34.361  1.00  0.00     0.091 A 
ATOM     91  F   UNL A   1      45.405  23.701  34.115  1.00  0.00    -0.205 F 
ATOM     92  C   UNL A   1      49.021  24.246  33.995  1.00  0.00     0.022 A 
BRANCH  90  93
ATOM     93  S   UNL A   1      47.779  22.394  35.586  1.00  0.00     0.127 S 
ATOM     94  O   UNL A   1      47.380  21.239  34.783  1.00  0.00    -0.237 OA
ATOM     95  O   UNL A   1      49.176  22.381  36.022  1.00  0.00    -0.237 OA
ATOM     96  O   UNL A   1      46.829  22.798  36.613  1.00  0.00    -0.744 OA
ENDBRANCH  90  93
ENDBRANCH  63  86
ENDBRANCH  37  38
ENDBRANCH  30  32
ENDBRANCH  29  30
ENDBRANCH  28  29
ENDBRANCH  27  28
ENDBRANCH  26  27
ENDBRANCH  25  26
ENDBRANCH   1  25
TORSDOF 24
ENDMDL
