MODEL 1
REMARK VINA RESULT:     -10.3      0.000      0.000
REMARK SMILES C[C@@H](C(=O)OCCOCCOCCOC(=O)c1ccc(-c2c3nc(c(-c4cccc(S(=O)(=O)[O-])c4F)c4ccc([nH]4)c(-c4cccc(S(=O)(=O)[O-])c4F)c4nc(c(-c5cccc(S(=O)(=O)[O-])c5F)c5ccc2[nH]5)C=C4)C=C3)cc1)[C@H](C)[S@@](=O)c1ccc(F)c(F)c1
REMARK SMILES IDX 9 1 8 2 7 3 6 4 5 5 3 6 4 7 2 8 1 9 80 10 81 11 82 12 83 13
REMARK SMILES IDX 84 14 85 15 91 16 86 17 89 18 87 19 90 20 88 21 10 22 11 23
REMARK SMILES IDX 12 24 13 25 14 26 15 27 16 28 17 29 18 30 79 31 19 32 78 33
REMARK SMILES IDX 20 34 21 35 22 36 72 37 23 38 77 39 71 40 73 41 24 42 76 43
REMARK SMILES IDX 70 44 69 45 25 47 57 48 37 49 56 50 38 51 41 52 55 53 74 54
REMARK SMILES IDX 39 55 40 56 54 58 75 59 42 60 26 61 27 62 35 63 28 64 30 65
REMARK SMILES IDX 36 66 29 67 31 68 32 69 33 70 34 71 58 72 59 73 67 74 60 75
REMARK SMILES IDX 62 76 68 77 61 78 63 79 64 80 65 81 66 82 43 83 44 84 52 85
REMARK SMILES IDX 45 86 47 87 53 88 46 89 48 90 49 91 50 92 51 93
REMARK H PARENT 73 46 41 57
REMARK Flexibility Score: inf
ROOT
ATOM      1  C   UNL A   1      32.119  28.198  27.148  1.00  0.00     0.188 C 
ENDROOT
BRANCH   1   2
ATOM      2  O   UNL A   1      31.196  27.115  27.060  1.00  0.00    -0.376 OA
BRANCH   2   3
ATOM      3  C   UNL A   1      31.514  26.044  26.180  1.00  0.00     0.202 C 
BRANCH   3   4
ATOM      4  C   UNL A   1      30.509  24.903  26.257  1.00  0.00     0.261 C 
BRANCH   4   5
ATOM      5  O   UNL A   1      31.092  23.859  27.048  1.00  0.00    -0.463 OA
BRANCH   5   6
ATOM      6  C   UNL A   1      31.145  22.635  26.471  1.00  0.00     0.309 C 
ATOM      7  O   UNL A   1      30.155  22.018  26.093  1.00  0.00    -0.252 OA
BRANCH   6   8
ATOM      8  C   UNL A   1      32.567  22.100  26.432  1.00  0.00     0.112 C 
ATOM      9  C   UNL A   1      33.347  22.539  27.694  1.00  0.00     0.021 C 
BRANCH   8  10
ATOM     10  C   UNL A   1      33.386  22.230  25.114  1.00  0.00     0.095 C 
ATOM     11  C   UNL A   1      32.623  22.651  23.862  1.00  0.00     0.023 C 
BRANCH  10  12
ATOM     12  S   UNL A   1      34.745  21.075  24.727  1.00  0.00     0.057 S 
ATOM     13  O   UNL A   1      35.693  21.074  25.883  1.00  0.00    -0.254 OA
BRANCH  12  14
ATOM     14  C   UNL A   1      34.092  19.395  24.585  1.00  0.00     0.042 A 
ATOM     15  C   UNL A   1      32.725  19.139  24.759  1.00  0.00     0.021 A 
ATOM     16  C   UNL A   1      34.955  18.292  24.562  1.00  0.00     0.060 A 
ATOM     17  C   UNL A   1      32.228  17.829  24.840  1.00  0.00     0.043 A 
ATOM     18  C   UNL A   1      34.463  16.988  24.693  1.00  0.00     0.160 A 
ATOM     19  C   UNL A   1      33.104  16.755  24.809  1.00  0.00     0.158 A 
ATOM     20  F   UNL A   1      35.318  15.956  24.720  1.00  0.00    -0.204 F 
ATOM     21  F   UNL A   1      32.631  15.503  24.893  1.00  0.00    -0.204 F 
ENDBRANCH  12  14
ENDBRANCH  10  12
ENDBRANCH   8  10
ENDBRANCH   6   8
ENDBRANCH   5   6
ENDBRANCH   4   5
ENDBRANCH   3   4
ENDBRANCH   2   3
ENDBRANCH   1   2
BRANCH   1  22
ATOM     22  C   UNL A   1      32.348  29.033  25.885  1.00  0.00     0.188 C 
BRANCH  22  23
ATOM     23  O   UNL A   1      32.172  30.439  25.981  1.00  0.00    -0.376 OA
BRANCH  23  24
ATOM     24  C   UNL A   1      32.657  31.098  27.147  1.00  0.00     0.202 C 
BRANCH  24  25
ATOM     25  C   UNL A   1      32.305  32.582  27.279  1.00  0.00     0.261 C 
BRANCH  25  26
ATOM     26  O   UNL A   1      33.454  33.443  27.420  1.00  0.00    -0.460 OA
BRANCH  26  27
ATOM     27  C   UNL A   1      33.421  34.297  28.470  1.00  0.00     0.338 C 
ATOM     28  O   UNL A   1      32.510  35.058  28.764  1.00  0.00    -0.246 OA
BRANCH  27  29
ATOM     29  C   UNL A   1      34.596  34.127  29.346  1.00  0.00     0.060 A 
ATOM     30  C   UNL A   1      35.863  34.312  28.781  1.00  0.00     0.016 A 
ATOM     31  C   UNL A   1      34.477  33.630  30.644  1.00  0.00     0.016 A 
ATOM     32  C   UNL A   1      37.018  33.980  29.499  1.00  0.00     0.010 A 
ATOM     33  C   UNL A   1      35.636  33.295  31.361  1.00  0.00     0.010 A 
ATOM     34  C   UNL A   1      36.915  33.440  30.785  1.00  0.00    -0.014 A 
BRANCH  34  35
ATOM     35  C   UNL A   1      38.107  32.849  31.457  1.00  0.00     0.031 A 
ATOM     36  C   UNL A   1      38.740  31.630  30.841  1.00  0.00     0.074 A 
ATOM     37  C   UNL A   1      38.621  33.359  32.593  1.00  0.00     0.049 A 
ATOM     38  N   UNL A   1      39.697  30.870  31.304  1.00  0.00    -0.248 NA
ATOM     39  C   UNL A   1      38.235  31.224  29.518  1.00  0.00     0.031 C 
ATOM     40  C   UNL A   1      38.171  34.576  33.255  1.00  0.00     0.029 A 
ATOM     41  N   UNL A   1      39.616  32.890  33.419  1.00  0.00    -0.354 N 
ATOM     42  C   UNL A   1      39.888  29.879  30.349  1.00  0.00     0.074 A 
ATOM     43  C   UNL A   1      38.940  30.128  29.284  1.00  0.00     0.031 C 
ATOM     44  C   UNL A   1      38.816  34.720  34.423  1.00  0.00     0.029 A 
ATOM     45  C   UNL A   1      39.720  33.591  34.601  1.00  0.00     0.049 A 
ATOM     46  H   UNL A   1      40.196  32.129  33.189  1.00  0.00     0.167 HD
ATOM     47  C   UNL A   1      40.780  28.862  30.350  1.00  0.00     0.034 A 
ATOM     48  C   UNL A   1      40.429  33.338  35.718  1.00  0.00     0.034 A 
ATOM     49  C   UNL A   1      41.726  28.624  31.406  1.00  0.00     0.049 A 
ATOM     50  C   UNL A   1      41.358  32.157  35.734  1.00  0.00     0.074 A 
ATOM     51  C   UNL A   1      42.691  27.635  31.490  1.00  0.00     0.029 A 
ATOM     52  N   UNL A   1      41.816  29.369  32.572  1.00  0.00    -0.354 N 
ATOM     53  N   UNL A   1      41.584  31.276  34.790  1.00  0.00    -0.248 NA
ATOM     54  C   UNL A   1      42.168  31.961  36.946  1.00  0.00     0.031 C 
ATOM     55  C   UNL A   1      43.339  27.760  32.723  1.00  0.00     0.029 A 
ATOM     56  C   UNL A   1      42.809  28.854  33.388  1.00  0.00     0.049 A 
ATOM     57  H   UNL A   1      41.256  30.149  32.787  1.00  0.00     0.167 HD
ATOM     58  C   UNL A   1      42.595  30.452  35.271  1.00  0.00     0.074 A 
ATOM     59  C   UNL A   1      42.944  30.948  36.587  1.00  0.00     0.031 C 
ATOM     60  C   UNL A   1      43.178  29.383  34.677  1.00  0.00     0.034 A 
BRANCH  47  61
ATOM     61  C   UNL A   1      40.777  27.930  29.167  1.00  0.00     0.023 A 
ATOM     62  C   UNL A   1      39.873  26.848  29.126  1.00  0.00     0.012 A 
ATOM     63  C   UNL A   1      41.642  28.149  28.077  1.00  0.00     0.148 A 
ATOM     64  C   UNL A   1      39.857  25.978  28.036  1.00  0.00     0.002 A 
ATOM     65  C   UNL A   1      41.588  27.305  26.975  1.00  0.00     0.091 A 
ATOM     66  F   UNL A   1      42.509  29.170  28.146  1.00  0.00    -0.205 F 
ATOM     67  C   UNL A   1      40.706  26.212  26.958  1.00  0.00     0.022 A 
BRANCH  65  68
ATOM     68  S   UNL A   1      42.585  27.567  25.504  1.00  0.00     0.127 S 
ATOM     69  O   UNL A   1      42.300  26.355  24.737  1.00  0.00    -0.237 OA
ATOM     70  O   UNL A   1      42.000  28.790  24.952  1.00  0.00    -0.237 OA
ATOM     71  O   UNL A   1      43.958  27.703  25.966  1.00  0.00    -0.744 OA
ENDBRANCH  65  68
ENDBRANCH  47  61
BRANCH  48  72
ATOM     72  C   UNL A   1      40.304  34.233  36.904  1.00  0.00     0.023 A 
ATOM     73  C   UNL A   1      39.174  34.137  37.739  1.00  0.00     0.012 A 
ATOM     74  C   UNL A   1      41.308  35.173  37.215  1.00  0.00     0.148 A 
ATOM     75  C   UNL A   1      39.030  34.981  38.841  1.00  0.00     0.002 A 
ATOM     76  C   UNL A   1      41.180  35.978  38.341  1.00  0.00     0.091 A 
ATOM     77  F   UNL A   1      42.372  35.256  36.403  1.00  0.00    -0.205 F 
ATOM     78  C   UNL A   1      40.035  35.895  39.147  1.00  0.00     0.022 A 
BRANCH  76  79
ATOM     79  S   UNL A   1      42.469  37.112  38.872  1.00  0.00     0.127 S 
ATOM     80  O   UNL A   1      43.416  36.206  39.519  1.00  0.00    -0.237 OA
ATOM     81  O   UNL A   1      42.923  37.671  37.599  1.00  0.00    -0.237 OA
ATOM     82  O   UNL A   1      41.812  38.070  39.751  1.00  0.00    -0.744 OA
ENDBRANCH  76  79
ENDBRANCH  48  72
BRANCH  60  83
ATOM     83  C   UNL A   1      44.297  28.698  35.418  1.00  0.00     0.023 A 
ATOM     84  C   UNL A   1      45.617  29.176  35.308  1.00  0.00     0.012 A 
ATOM     85  C   UNL A   1      44.020  27.619  36.281  1.00  0.00     0.148 A 
ATOM     86  C   UNL A   1      46.651  28.566  36.017  1.00  0.00     0.002 A 
ATOM     87  C   UNL A   1      45.046  27.052  37.026  1.00  0.00     0.091 A 
ATOM     88  F   UNL A   1      42.760  27.167  36.357  1.00  0.00    -0.205 F 
ATOM     89  C   UNL A   1      46.364  27.515  36.884  1.00  0.00     0.022 A 
BRANCH  87  90
ATOM     90  S   UNL A   1      44.755  25.764  38.242  1.00  0.00     0.127 S 
ATOM     91  O   UNL A   1      46.116  25.440  38.666  1.00  0.00    -0.237 OA
ATOM     92  O   UNL A   1      43.953  26.464  39.247  1.00  0.00    -0.237 OA
ATOM     93  O   UNL A   1      44.051  24.698  37.541  1.00  0.00    -0.744 OA
ENDBRANCH  87  90
ENDBRANCH  60  83
ENDBRANCH  34  35
ENDBRANCH  27  29
ENDBRANCH  26  27
ENDBRANCH  25  26
ENDBRANCH  24  25
ENDBRANCH  23  24
ENDBRANCH  22  23
ENDBRANCH   1  22
TORSDOF 23
ENDMDL
MODEL 2
REMARK VINA RESULT:      -9.6      3.095      3.829
REMARK SMILES C[C@@H](C(=O)OCCOCCOCCOC(=O)c1ccc(-c2c3nc(c(-c4cccc(S(=O)(=O)[O-])c4F)c4ccc([nH]4)c(-c4cccc(S(=O)(=O)[O-])c4F)c4nc(c(-c5cccc(S(=O)(=O)[O-])c5F)c5ccc2[nH]5)C=C4)C=C3)cc1)[C@H](C)[S@@](=O)c1ccc(F)c(F)c1
REMARK SMILES IDX 9 1 8 2 7 3 6 4 5 5 3 6 4 7 2 8 1 9 80 10 81 11 82 12 83 13
REMARK SMILES IDX 84 14 85 15 91 16 86 17 89 18 87 19 90 20 88 21 10 22 11 23
REMARK SMILES IDX 12 24 13 25 14 26 15 27 16 28 17 29 18 30 79 31 19 32 78 33
REMARK SMILES IDX 20 34 21 35 22 36 72 37 23 38 77 39 71 40 73 41 24 42 76 43
REMARK SMILES IDX 70 44 69 45 25 47 57 48 37 49 56 50 38 51 41 52 55 53 74 54
REMARK SMILES IDX 39 55 40 56 54 58 75 59 42 60 26 61 27 62 35 63 28 64 30 65
REMARK SMILES IDX 36 66 29 67 31 68 32 69 33 70 34 71 58 72 59 73 67 74 60 75
REMARK SMILES IDX 62 76 68 77 61 78 63 79 64 80 65 81 66 82 43 83 44 84 52 85
REMARK SMILES IDX 45 86 47 87 53 88 46 89 48 90 49 91 50 92 51 93
REMARK H PARENT 73 46 41 57
REMARK Flexibility Score: inf
ROOT
ATOM      1  C   UNL A   1      31.455  27.722  26.897  1.00  0.00     0.188 C 
ENDROOT
BRANCH   1   2
ATOM      2  O   UNL A   1      30.829  26.442  26.896  1.00  0.00    -0.376 OA
BRANCH   2   3
ATOM      3  C   UNL A   1      31.420  25.417  26.107  1.00  0.00     0.202 C 
BRANCH   3   4
ATOM      4  C   UNL A   1      31.573  24.106  26.866  1.00  0.00     0.261 C 
BRANCH   4   5
ATOM      5  O   UNL A   1      32.968  23.776  26.889  1.00  0.00    -0.463 OA
BRANCH   5   6
ATOM      6  C   UNL A   1      33.353  22.766  26.072  1.00  0.00     0.309 C 
ATOM      7  O   UNL A   1      32.785  21.682  26.017  1.00  0.00    -0.252 OA
BRANCH   6   8
ATOM      8  C   UNL A   1      34.617  23.123  25.307  1.00  0.00     0.112 C 
ATOM      9  C   UNL A   1      35.025  24.589  25.587  1.00  0.00     0.021 C 
BRANCH   8  10
ATOM     10  C   UNL A   1      34.730  22.717  23.808  1.00  0.00     0.095 C 
ATOM     11  C   UNL A   1      36.075  22.950  23.127  1.00  0.00     0.023 C 
BRANCH  10  12
ATOM     12  S   UNL A   1      33.334  22.950  22.657  1.00  0.00     0.057 S 
ATOM     13  O   UNL A   1      32.201  22.094  23.127  1.00  0.00    -0.254 OA
BRANCH  12  14
ATOM     14  C   UNL A   1      32.762  24.663  22.733  1.00  0.00     0.042 A 
ATOM     15  C   UNL A   1      31.394  24.965  22.705  1.00  0.00     0.021 A 
ATOM     16  C   UNL A   1      33.659  25.724  22.555  1.00  0.00     0.060 A 
ATOM     17  C   UNL A   1      30.936  26.285  22.573  1.00  0.00     0.043 A 
ATOM     18  C   UNL A   1      33.199  27.034  22.374  1.00  0.00     0.160 A 
ATOM     19  C   UNL A   1      31.845  27.318  22.406  1.00  0.00     0.158 A 
ATOM     20  F   UNL A   1      34.079  28.022  22.155  1.00  0.00    -0.204 F 
ATOM     21  F   UNL A   1      31.408  28.579  22.272  1.00  0.00    -0.204 F 
ENDBRANCH  12  14
ENDBRANCH  10  12
ENDBRANCH   8  10
ENDBRANCH   6   8
ENDBRANCH   5   6
ENDBRANCH   4   5
ENDBRANCH   3   4
ENDBRANCH   2   3
ENDBRANCH   1   2
BRANCH   1  22
ATOM     22  C   UNL A   1      31.388  28.541  25.605  1.00  0.00     0.188 C 
BRANCH  22  23
ATOM     23  O   UNL A   1      31.455  29.956  25.713  1.00  0.00    -0.376 OA
BRANCH  23  24
ATOM     24  C   UNL A   1      32.403  30.515  26.618  1.00  0.00     0.202 C 
BRANCH  24  25
ATOM     25  C   UNL A   1      32.112  31.936  27.107  1.00  0.00     0.261 C 
BRANCH  25  26
ATOM     26  O   UNL A   1      33.260  32.809  27.077  1.00  0.00    -0.460 OA
BRANCH  26  27
ATOM     27  C   UNL A   1      33.289  33.770  28.029  1.00  0.00     0.338 C 
ATOM     28  O   UNL A   1      32.481  34.676  28.178  1.00  0.00    -0.246 OA
BRANCH  27  29
ATOM     29  C   UNL A   1      34.376  33.540  29.001  1.00  0.00     0.060 A 
ATOM     30  C   UNL A   1      35.610  34.154  28.756  1.00  0.00     0.016 A 
ATOM     31  C   UNL A   1      34.251  32.611  30.034  1.00  0.00     0.016 A 
ATOM     32  C   UNL A   1      36.732  33.826  29.525  1.00  0.00     0.010 A 
ATOM     33  C   UNL A   1      35.379  32.281  30.802  1.00  0.00     0.010 A 
ATOM     34  C   UNL A   1      36.635  32.864  30.537  1.00  0.00    -0.014 A 
BRANCH  34  35
ATOM     35  C   UNL A   1      37.861  32.322  31.188  1.00  0.00     0.031 A 
ATOM     36  C   UNL A   1      38.661  31.283  30.448  1.00  0.00     0.074 A 
ATOM     37  C   UNL A   1      38.264  32.719  32.410  1.00  0.00     0.049 A 
ATOM     38  N   UNL A   1      39.682  30.578  30.856  1.00  0.00    -0.248 NA
ATOM     39  C   UNL A   1      38.262  31.016  29.055  1.00  0.00     0.031 C 
ATOM     40  C   UNL A   1      37.644  33.771  33.206  1.00  0.00     0.029 A 
ATOM     41  N   UNL A   1      39.274  32.252  33.220  1.00  0.00    -0.354 N 
ATOM     42  C   UNL A   1      40.029  29.761  29.786  1.00  0.00     0.074 A 
ATOM     43  C   UNL A   1      39.102  30.051  28.714  1.00  0.00     0.031 C 
ATOM     44  C   UNL A   1      38.220  33.818  34.418  1.00  0.00     0.029 A 
ATOM     45  C   UNL A   1      39.244  32.784  34.490  1.00  0.00     0.049 A 
ATOM     46  H   UNL A   1      39.950  31.603  32.921  1.00  0.00     0.167 HD
ATOM     47  C   UNL A   1      41.036  28.862  29.699  1.00  0.00     0.034 A 
ATOM     48  C   UNL A   1      39.933  32.456  35.601  1.00  0.00     0.034 A 
ATOM     49  C   UNL A   1      41.960  28.584  30.765  1.00  0.00     0.049 A 
ATOM     50  C   UNL A   1      40.996  31.398  35.508  1.00  0.00     0.074 A 
ATOM     51  C   UNL A   1      43.033  27.709  30.767  1.00  0.00     0.029 A 
ATOM     52  N   UNL A   1      41.913  29.160  32.025  1.00  0.00    -0.354 N 
ATOM     53  N   UNL A   1      41.364  30.692  34.467  1.00  0.00    -0.248 NA
ATOM     54  C   UNL A   1      41.773  31.124  36.726  1.00  0.00     0.031 C 
ATOM     55  C   UNL A   1      43.610  27.729  32.041  1.00  0.00     0.029 A 
ATOM     56  C   UNL A   1      42.926  28.650  32.818  1.00  0.00     0.049 A 
ATOM     57  H   UNL A   1      41.255  29.833  32.313  1.00  0.00     0.167 HD
ATOM     58  C   UNL A   1      42.446  29.928  34.887  1.00  0.00     0.074 A 
ATOM     59  C   UNL A   1      42.680  30.267  36.276  1.00  0.00     0.031 C 
ATOM     60  C   UNL A   1      43.177  29.028  34.186  1.00  0.00     0.034 A 
BRANCH  47  61
ATOM     61  C   UNL A   1      41.193  28.114  28.401  1.00  0.00     0.023 A 
ATOM     62  C   UNL A   1      41.849  28.724  27.313  1.00  0.00     0.012 A 
ATOM     63  C   UNL A   1      40.723  26.792  28.272  1.00  0.00     0.148 A 
ATOM     64  C   UNL A   1      42.003  28.043  26.105  1.00  0.00     0.002 A 
ATOM     65  C   UNL A   1      40.921  26.104  27.082  1.00  0.00     0.091 A 
ATOM     66  F   UNL A   1      40.082  26.238  29.312  1.00  0.00    -0.205 F 
ATOM     67  C   UNL A   1      41.549  26.732  25.993  1.00  0.00     0.022 A 
BRANCH  65  68
ATOM     68  S   UNL A   1      40.443  24.387  26.863  1.00  0.00     0.127 S 
ATOM     69  O   UNL A   1      40.772  23.821  28.171  1.00  0.00    -0.237 OA
ATOM     70  O   UNL A   1      39.010  24.501  26.592  1.00  0.00    -0.237 OA
ATOM     71  O   UNL A   1      41.236  23.885  25.751  1.00  0.00    -0.744 OA
ENDBRANCH  65  68
ENDBRANCH  47  61
BRANCH  48  72
ATOM     72  C   UNL A   1      39.654  33.153  36.890  1.00  0.00     0.023 A 
ATOM     73  C   UNL A   1      40.339  34.342  37.206  1.00  0.00     0.012 A 
ATOM     74  C   UNL A   1      38.703  32.647  37.800  1.00  0.00     0.148 A 
ATOM     75  C   UNL A   1      40.106  34.997  38.417  1.00  0.00     0.002 A 
ATOM     76  C   UNL A   1      38.443  33.329  38.982  1.00  0.00     0.091 A 
ATOM     77  F   UNL A   1      38.069  31.508  37.486  1.00  0.00    -0.205 F 
ATOM     78  C   UNL A   1      39.154  34.496  39.300  1.00  0.00     0.022 A 
BRANCH  76  79
ATOM     79  S   UNL A   1      37.162  32.817  40.134  1.00  0.00     0.127 S 
ATOM     80  O   UNL A   1      36.006  32.675  39.251  1.00  0.00    -0.237 OA
ATOM     81  O   UNL A   1      37.703  31.558  40.647  1.00  0.00    -0.237 OA
ATOM     82  O   UNL A   1      37.073  33.883  41.123  1.00  0.00    -0.744 OA
ENDBRANCH  76  79
ENDBRANCH  48  72
BRANCH  60  83
ATOM     83  C   UNL A   1      44.338  28.375  34.889  1.00  0.00     0.023 A 
ATOM     84  C   UNL A   1      45.598  29.004  34.910  1.00  0.00     0.012 A 
ATOM     85  C   UNL A   1      44.156  27.166  35.589  1.00  0.00     0.148 A 
ATOM     86  C   UNL A   1      46.668  28.420  35.587  1.00  0.00     0.002 A 
ATOM     87  C   UNL A   1      45.212  26.618  36.307  1.00  0.00     0.091 A 
ATOM     88  F   UNL A   1      42.954  26.573  35.540  1.00  0.00    -0.205 F 
ATOM     89  C   UNL A   1      46.473  27.236  36.295  1.00  0.00     0.022 A 
BRANCH  87  90
ATOM     90  S   UNL A   1      45.026  25.154  37.328  1.00  0.00     0.127 S 
ATOM     91  O   UNL A   1      45.420  24.092  36.403  1.00  0.00    -0.237 OA
ATOM     92  O   UNL A   1      45.981  25.408  38.408  1.00  0.00    -0.237 OA
ATOM     93  O   UNL A   1      43.631  25.128  37.748  1.00  0.00    -0.744 OA
ENDBRANCH  87  90
ENDBRANCH  60  83
ENDBRANCH  34  35
ENDBRANCH  27  29
ENDBRANCH  26  27
ENDBRANCH  25  26
ENDBRANCH  24  25
ENDBRANCH  23  24
ENDBRANCH  22  23
ENDBRANCH   1  22
TORSDOF 23
ENDMDL
MODEL 3
REMARK VINA RESULT:      -9.3      2.989      3.746
REMARK SMILES C[C@@H](C(=O)OCCOCCOCCOC(=O)c1ccc(-c2c3nc(c(-c4cccc(S(=O)(=O)[O-])c4F)c4ccc([nH]4)c(-c4cccc(S(=O)(=O)[O-])c4F)c4nc(c(-c5cccc(S(=O)(=O)[O-])c5F)c5ccc2[nH]5)C=C4)C=C3)cc1)[C@H](C)[S@@](=O)c1ccc(F)c(F)c1
REMARK SMILES IDX 9 1 8 2 7 3 6 4 5 5 3 6 4 7 2 8 1 9 80 10 81 11 82 12 83 13
REMARK SMILES IDX 84 14 85 15 91 16 86 17 89 18 87 19 90 20 88 21 10 22 11 23
REMARK SMILES IDX 12 24 13 25 14 26 15 27 16 28 17 29 18 30 79 31 19 32 78 33
REMARK SMILES IDX 20 34 21 35 22 36 72 37 23 38 77 39 71 40 73 41 24 42 76 43
REMARK SMILES IDX 70 44 69 45 25 47 57 48 37 49 56 50 38 51 41 52 55 53 74 54
REMARK SMILES IDX 39 55 40 56 54 58 75 59 42 60 26 61 27 62 35 63 28 64 30 65
REMARK SMILES IDX 36 66 29 67 31 68 32 69 33 70 34 71 58 72 59 73 67 74 60 75
REMARK SMILES IDX 62 76 68 77 61 78 63 79 64 80 65 81 66 82 43 83 44 84 52 85
REMARK SMILES IDX 45 86 47 87 53 88 46 89 48 90 49 91 50 92 51 93
REMARK H PARENT 73 46 41 57
REMARK Flexibility Score: inf
ROOT
ATOM      1  C   UNL A   1      31.701  28.193  27.301  1.00  0.00     0.188 C 
ENDROOT
BRANCH   1   2
ATOM      2  O   UNL A   1      31.236  26.847  27.222  1.00  0.00    -0.376 OA
BRANCH   2   3
ATOM      3  C   UNL A   1      31.793  26.013  26.213  1.00  0.00     0.202 C 
BRANCH   3   4
ATOM      4  C   UNL A   1      31.591  24.532  26.500  1.00  0.00     0.261 C 
BRANCH   4   5
ATOM      5  O   UNL A   1      32.886  23.934  26.644  1.00  0.00    -0.463 OA
BRANCH   5   6
ATOM      6  C   UNL A   1      33.181  22.938  25.775  1.00  0.00     0.309 C 
ATOM      7  O   UNL A   1      32.453  21.973  25.575  1.00  0.00    -0.252 OA
BRANCH   6   8
ATOM      8  C   UNL A   1      34.554  23.131  25.153  1.00  0.00     0.112 C 
ATOM      9  C   UNL A   1      35.113  24.533  25.497  1.00  0.00     0.021 C 
BRANCH   8  10
ATOM     10  C   UNL A   1      34.776  22.716  23.670  1.00  0.00     0.095 C 
ATOM     11  C   UNL A   1      36.195  22.834  23.121  1.00  0.00     0.023 C 
BRANCH  10  12
ATOM     12  S   UNL A   1      33.521  23.066  22.391  1.00  0.00     0.057 S 
ATOM     13  O   UNL A   1      32.390  22.106  22.582  1.00  0.00    -0.254 OA
BRANCH  12  14
ATOM     14  C   UNL A   1      32.847  24.725  22.639  1.00  0.00     0.042 A 
ATOM     15  C   UNL A   1      31.464  24.928  22.750  1.00  0.00     0.021 A 
ATOM     16  C   UNL A   1      33.652  25.857  22.464  1.00  0.00     0.060 A 
ATOM     17  C   UNL A   1      30.910  26.218  22.753  1.00  0.00     0.043 A 
ATOM     18  C   UNL A   1      33.093  27.140  22.417  1.00  0.00     0.160 A 
ATOM     19  C   UNL A   1      31.731  27.323  22.583  1.00  0.00     0.158 A 
ATOM     20  F   UNL A   1      33.883  28.200  22.196  1.00  0.00    -0.204 F 
ATOM     21  F   UNL A   1      31.202  28.554  22.579  1.00  0.00    -0.204 F 
ENDBRANCH  12  14
ENDBRANCH  10  12
ENDBRANCH   8  10
ENDBRANCH   6   8
ENDBRANCH   5   6
ENDBRANCH   4   5
ENDBRANCH   3   4
ENDBRANCH   2   3
ENDBRANCH   1   2
BRANCH   1  22
ATOM     22  C   UNL A   1      31.763  28.994  25.998  1.00  0.00     0.188 C 
BRANCH  22  23
ATOM     23  O   UNL A   1      31.636  30.407  26.083  1.00  0.00    -0.376 OA
BRANCH  23  24
ATOM     24  C   UNL A   1      32.442  31.097  27.033  1.00  0.00     0.202 C 
BRANCH  24  25
ATOM     25  C   UNL A   1      32.176  32.597  27.181  1.00  0.00     0.261 C 
BRANCH  25  26
ATOM     26  O   UNL A   1      33.371  33.387  27.344  1.00  0.00    -0.460 OA
BRANCH  26  27
ATOM     27  C   UNL A   1      33.387  34.211  28.419  1.00  0.00     0.338 C 
ATOM     28  O   UNL A   1      32.531  35.030  28.724  1.00  0.00    -0.246 OA
BRANCH  27  29
ATOM     29  C   UNL A   1      34.532  33.926  29.305  1.00  0.00     0.060 A 
ATOM     30  C   UNL A   1      35.806  34.305  28.867  1.00  0.00     0.016 A 
ATOM     31  C   UNL A   1      34.392  33.155  30.459  1.00  0.00     0.016 A 
ATOM     32  C   UNL A   1      36.949  33.895  29.562  1.00  0.00     0.010 A 
ATOM     33  C   UNL A   1      35.539  32.742  31.154  1.00  0.00     0.010 A 
ATOM     34  C   UNL A   1      36.829  33.084  30.697  1.00  0.00    -0.014 A 
BRANCH  34  35
ATOM     35  C   UNL A   1      38.029  32.435  31.295  1.00  0.00     0.031 A 
ATOM     36  C   UNL A   1      38.697  31.327  30.525  1.00  0.00     0.074 A 
ATOM     37  C   UNL A   1      38.521  32.796  32.496  1.00  0.00     0.049 A 
ATOM     38  N   UNL A   1      39.669  30.533  30.891  1.00  0.00    -0.248 NA
ATOM     39  C   UNL A   1      38.213  31.095  29.154  1.00  0.00     0.031 C 
ATOM     40  C   UNL A   1      38.035  33.900  33.313  1.00  0.00     0.029 A 
ATOM     41  N   UNL A   1      39.521  32.241  33.262  1.00  0.00    -0.354 N 
ATOM     42  C   UNL A   1      39.891  29.687  29.811  1.00  0.00     0.074 A 
ATOM     43  C   UNL A   1      38.947  30.058  28.780  1.00  0.00     0.031 C 
ATOM     44  C   UNL A   1      38.667  33.896  34.497  1.00  0.00     0.029 A 
ATOM     45  C   UNL A   1      39.596  32.775  34.529  1.00  0.00     0.049 A 
ATOM     46  H   UNL A   1      40.120  31.532  32.936  1.00  0.00     0.167 HD
ATOM     47  C   UNL A   1      40.809  28.700  29.684  1.00  0.00     0.034 A 
ATOM     48  C   UNL A   1      40.302  32.387  35.610  1.00  0.00     0.034 A 
ATOM     49  C   UNL A   1      41.751  28.341  30.708  1.00  0.00     0.049 A 
ATOM     50  C   UNL A   1      41.260  31.238  35.475  1.00  0.00     0.074 A 
ATOM     51  C   UNL A   1      42.740  27.373  30.667  1.00  0.00     0.029 A 
ATOM     52  N   UNL A   1      41.813  28.921  31.966  1.00  0.00    -0.354 N 
ATOM     53  N   UNL A   1      41.515  30.500  34.422  1.00  0.00    -0.248 NA
ATOM     54  C   UNL A   1      42.064  30.896  36.658  1.00  0.00     0.031 C 
ATOM     55  C   UNL A   1      43.373  27.343  31.913  1.00  0.00     0.029 A 
ATOM     56  C   UNL A   1      42.811  28.323  32.716  1.00  0.00     0.049 A 
ATOM     57  H   UNL A   1      41.233  29.652  32.280  1.00  0.00     0.167 HD
ATOM     58  C   UNL A   1      42.542  29.642  34.797  1.00  0.00     0.074 A 
ATOM     59  C   UNL A   1      42.868  29.960  36.173  1.00  0.00     0.031 C 
ATOM     60  C   UNL A   1      43.157  28.678  34.069  1.00  0.00     0.034 A 
BRANCH  47  61
ATOM     61  C   UNL A   1      40.838  27.940  28.384  1.00  0.00     0.023 A 
ATOM     62  C   UNL A   1      41.494  28.488  27.263  1.00  0.00     0.012 A 
ATOM     63  C   UNL A   1      40.249  26.664  28.285  1.00  0.00     0.148 A 
ATOM     64  C   UNL A   1      41.531  27.794  26.053  1.00  0.00     0.002 A 
ATOM     65  C   UNL A   1      40.330  25.960  27.090  1.00  0.00     0.091 A 
ATOM     66  F   UNL A   1      39.611  26.170  29.356  1.00  0.00    -0.205 F 
ATOM     67  C   UNL A   1      40.959  26.528  25.970  1.00  0.00     0.022 A 
BRANCH  65  68
ATOM     68  S   UNL A   1      39.694  24.291  26.904  1.00  0.00     0.127 S 
ATOM     69  O   UNL A   1      39.186  24.018  28.248  1.00  0.00    -0.237 OA
ATOM     70  O   UNL A   1      38.658  24.470  25.886  1.00  0.00    -0.237 OA
ATOM     71  O   UNL A   1      40.823  23.472  26.488  1.00  0.00    -0.744 OA
ENDBRANCH  65  68
ENDBRANCH  47  61
BRANCH  48  72
ATOM     72  C   UNL A   1      40.146  33.108  36.906  1.00  0.00     0.023 A 
ATOM     73  C   UNL A   1      39.106  32.750  37.786  1.00  0.00     0.012 A 
ATOM     74  C   UNL A   1      41.031  34.142  37.275  1.00  0.00     0.148 A 
ATOM     75  C   UNL A   1      38.931  33.428  38.993  1.00  0.00     0.002 A 
ATOM     76  C   UNL A   1      40.879  34.781  38.500  1.00  0.00     0.091 A 
ATOM     77  F   UNL A   1      42.008  34.476  36.420  1.00  0.00    -0.205 F 
ATOM     78  C   UNL A   1      39.820  34.436  39.354  1.00  0.00     0.022 A 
BRANCH  76  79
ATOM     79  S   UNL A   1      42.036  36.021  39.096  1.00  0.00     0.127 S 
ATOM     80  O   UNL A   1      41.451  37.252  38.568  1.00  0.00    -0.237 OA
ATOM     81  O   UNL A   1      41.929  35.861  40.546  1.00  0.00    -0.237 OA
ATOM     82  O   UNL A   1      43.330  35.649  38.541  1.00  0.00    -0.744 OA
ENDBRANCH  76  79
ENDBRANCH  48  72
BRANCH  60  83
ATOM     83  C   UNL A   1      44.285  27.924  34.722  1.00  0.00     0.023 A 
ATOM     84  C   UNL A   1      44.033  26.711  35.392  1.00  0.00     0.012 A 
ATOM     85  C   UNL A   1      45.610  28.390  34.609  1.00  0.00     0.148 A 
ATOM     86  C   UNL A   1      45.078  25.992  35.970  1.00  0.00     0.002 A 
ATOM     87  C   UNL A   1      46.652  27.641  35.140  1.00  0.00     0.091 A 
ATOM     88  F   UNL A   1      45.827  29.558  33.985  1.00  0.00    -0.205 F 
ATOM     89  C   UNL A   1      46.387  26.450  35.834  1.00  0.00     0.022 A 
BRANCH  87  90
ATOM     90  S   UNL A   1      48.375  28.099  34.926  1.00  0.00     0.127 S 
ATOM     91  O   UNL A   1      48.380  29.478  35.411  1.00  0.00    -0.237 OA
ATOM     92  O   UNL A   1      49.059  27.143  35.797  1.00  0.00    -0.237 OA
ATOM     93  O   UNL A   1      48.662  27.938  33.507  1.00  0.00    -0.744 OA
ENDBRANCH  87  90
ENDBRANCH  60  83
ENDBRANCH  34  35
ENDBRANCH  27  29
ENDBRANCH  26  27
ENDBRANCH  25  26
ENDBRANCH  24  25
ENDBRANCH  23  24
ENDBRANCH  22  23
ENDBRANCH   1  22
TORSDOF 23
ENDMDL
