MODEL 1
REMARK VINA RESULT:     -10.3      0.000      0.000
REMARK SMILES O=C(OCCOCCOCCOC(=O)[C@@H]1Nc2c(cccc2C(F)(F)F)[C@@H]2C=CC[C@@H]12)c1ccc(-c2c3nc(c(-c4cccc(S(=O)(=O)[O-])c4F)c4ccc([nH]4)c(-c4cccc(S(=O)(=O)[O-])c4F)c4nc(c(-c5cccc(S(=O)(=O)[O-])c5F)c5ccc2[nH]5)C=C4)C=C3)cc1
REMARK SMILES IDX 7 1 6 2 5 3 4 4 3 5 2 6 1 7 32 8 33 9 94 10 34 11 93 12
REMARK SMILES IDX 35 13 36 14 37 15 87 16 38 17 92 18 86 19 88 20 39 21 91 22
REMARK SMILES IDX 85 23 84 24 40 26 72 27 52 28 71 29 53 30 56 31 70 32 89 33
REMARK SMILES IDX 54 34 55 35 69 37 90 38 57 39 41 40 42 41 50 42 43 43 45 44
REMARK SMILES IDX 51 45 44 46 46 47 47 48 48 49 49 50 73 51 74 52 82 53 75 54
REMARK SMILES IDX 77 55 83 56 76 57 78 58 79 59 80 60 81 61 58 62 59 63 67 64
REMARK SMILES IDX 60 65 62 66 68 67 61 68 63 69 64 70 65 71 66 72 8 73 9 74
REMARK SMILES IDX 10 75 11 76 12 77 13 78 14 79 15 80 16 81 31 82 17 83 27 85
REMARK SMILES IDX 30 86 18 87 22 88 28 89 29 90 19 91 21 92 20 93 23 94 24 95
REMARK SMILES IDX 25 96 26 97
REMARK H PARENT 88 25 56 36 16 84
REMARK Flexibility Score: inf
ROOT
ATOM      1  C   UNL A   1      34.358  32.926  28.497  1.00  0.00     0.188 C 
ENDROOT
BRANCH   1   2
ATOM      2  O   UNL A   1      33.264  33.830  28.382  1.00  0.00    -0.376 OA
BRANCH   2   3
ATOM      3  C   UNL A   1      33.656  35.203  28.394  1.00  0.00     0.202 C 
BRANCH   3   4
ATOM      4  C   UNL A   1      32.737  36.175  29.157  1.00  0.00     0.261 C 
BRANCH   4   5
ATOM      5  O   UNL A   1      32.200  35.683  30.398  1.00  0.00    -0.460 OA
BRANCH   5   6
ATOM      6  C   UNL A   1      32.706  35.675  31.652  1.00  0.00     0.338 C 
ATOM      7  O   UNL A   1      32.241  36.496  32.445  1.00  0.00    -0.246 OA
BRANCH   6   8
ATOM      8  C   UNL A   1      33.848  34.822  32.130  1.00  0.00     0.060 A 
ATOM      9  C   UNL A   1      35.082  35.023  31.489  1.00  0.00     0.016 A 
ATOM     10  C   UNL A   1      33.790  33.806  33.084  1.00  0.00     0.016 A 
ATOM     11  C   UNL A   1      36.194  34.211  31.762  1.00  0.00     0.010 A 
ATOM     12  C   UNL A   1      34.911  33.012  33.387  1.00  0.00     0.010 A 
ATOM     13  C   UNL A   1      36.128  33.195  32.729  1.00  0.00    -0.014 A 
BRANCH  13  14
ATOM     14  C   UNL A   1      37.376  32.572  33.252  1.00  0.00     0.031 A 
ATOM     15  C   UNL A   1      38.263  33.156  34.330  1.00  0.00     0.074 A 
ATOM     16  C   UNL A   1      37.804  31.485  32.581  1.00  0.00     0.049 A 
ATOM     17  N   UNL A   1      39.211  32.565  35.022  1.00  0.00    -0.248 NA
ATOM     18  C   UNL A   1      38.108  34.579  34.657  1.00  0.00     0.031 C 
ATOM     19  C   UNL A   1      37.150  30.905  31.399  1.00  0.00     0.029 A 
ATOM     20  N   UNL A   1      38.923  30.717  32.749  1.00  0.00    -0.354 N 
ATOM     21  C   UNL A   1      39.678  33.509  35.944  1.00  0.00     0.074 A 
ATOM     22  C   UNL A   1      39.012  34.739  35.624  1.00  0.00     0.031 C 
ATOM     23  C   UNL A   1      37.903  29.904  30.926  1.00  0.00     0.029 A 
ATOM     24  C   UNL A   1      39.086  29.775  31.765  1.00  0.00     0.049 A 
ATOM     25  H   UNL A   1      39.548  30.829  33.500  1.00  0.00     0.167 HD
ATOM     26  C   UNL A   1      40.565  33.330  36.957  1.00  0.00     0.034 A 
ATOM     27  C   UNL A   1      40.089  28.908  31.548  1.00  0.00     0.034 A 
ATOM     28  C   UNL A   1      41.433  32.188  37.016  1.00  0.00     0.049 A 
ATOM     29  C   UNL A   1      41.205  28.840  32.538  1.00  0.00     0.074 A 
ATOM     30  C   UNL A   1      42.413  31.909  37.953  1.00  0.00     0.029 A 
ATOM     31  N   UNL A   1      41.514  31.223  36.035  1.00  0.00    -0.354 N 
ATOM     32  N   UNL A   1      41.353  29.521  33.646  1.00  0.00    -0.248 NA
ATOM     33  C   UNL A   1      42.268  27.861  32.279  1.00  0.00     0.031 C 
ATOM     34  C   UNL A   1      43.144  30.822  37.491  1.00  0.00     0.029 A 
ATOM     35  C   UNL A   1      42.589  30.406  36.290  1.00  0.00     0.049 A 
ATOM     36  H   UNL A   1      40.898  31.134  35.272  1.00  0.00     0.167 HD
ATOM     37  C   UNL A   1      42.491  29.008  34.249  1.00  0.00     0.074 A 
ATOM     38  C   UNL A   1      43.010  27.982  33.372  1.00  0.00     0.031 C 
ATOM     39  C   UNL A   1      43.044  29.351  35.431  1.00  0.00     0.034 A 
BRANCH  26  40
ATOM     40  C   UNL A   1      40.688  34.266  38.148  1.00  0.00     0.023 A 
ATOM     41  C   UNL A   1      41.498  35.418  37.936  1.00  0.00     0.012 A 
ATOM     42  C   UNL A   1      39.901  34.219  39.310  1.00  0.00     0.148 A 
ATOM     43  C   UNL A   1      41.573  36.457  38.864  1.00  0.00     0.002 A 
ATOM     44  C   UNL A   1      39.968  35.272  40.233  1.00  0.00     0.091 A 
ATOM     45  F   UNL A   1      39.089  33.168  39.489  1.00  0.00    -0.205 F 
ATOM     46  C   UNL A   1      40.811  36.379  40.019  1.00  0.00     0.022 A 
BRANCH  44  47
ATOM     47  S   UNL A   1      38.962  35.348  41.724  1.00  0.00     0.127 S 
ATOM     48  O   UNL A   1      39.566  34.302  42.540  1.00  0.00    -0.237 OA
ATOM     49  O   UNL A   1      39.207  36.709  42.196  1.00  0.00    -0.237 OA
ATOM     50  O   UNL A   1      37.590  35.094  41.289  1.00  0.00    -0.744 OA
ENDBRANCH  44  47
ENDBRANCH  26  40
BRANCH  27  51
ATOM     51  C   UNL A   1      40.006  27.995  30.386  1.00  0.00     0.023 A 
ATOM     52  C   UNL A   1      39.090  26.930  30.420  1.00  0.00     0.012 A 
ATOM     53  C   UNL A   1      40.747  28.244  29.215  1.00  0.00     0.148 A 
ATOM     54  C   UNL A   1      38.919  26.115  29.302  1.00  0.00     0.002 A 
ATOM     55  C   UNL A   1      40.544  27.451  28.094  1.00  0.00     0.091 A 
ATOM     56  F   UNL A   1      41.609  29.271  29.214  1.00  0.00    -0.205 F 
ATOM     57  C   UNL A   1      39.637  26.380  28.138  1.00  0.00     0.022 A 
BRANCH  55  58
ATOM     58  S   UNL A   1      41.345  27.792  26.523  1.00  0.00     0.127 S 
ATOM     59  O   UNL A   1      40.955  26.627  25.733  1.00  0.00    -0.237 OA
ATOM     60  O   UNL A   1      40.710  29.049  26.123  1.00  0.00    -0.237 OA
ATOM     61  O   UNL A   1      42.765  27.908  26.823  1.00  0.00    -0.744 OA
ENDBRANCH  55  58
ENDBRANCH  27  51
BRANCH  39  62
ATOM     62  C   UNL A   1      44.248  28.609  35.912  1.00  0.00     0.023 A 
ATOM     63  C   UNL A   1      45.530  29.116  35.638  1.00  0.00     0.012 A 
ATOM     64  C   UNL A   1      44.078  27.571  36.847  1.00  0.00     0.148 A 
ATOM     65  C   UNL A   1      46.636  28.601  36.308  1.00  0.00     0.002 A 
ATOM     66  C   UNL A   1      45.176  27.103  37.550  1.00  0.00     0.091 A 
ATOM     67  F   UNL A   1      42.837  27.115  37.078  1.00  0.00    -0.205 F 
ATOM     68  C   UNL A   1      46.457  27.613  37.279  1.00  0.00     0.022 A 
BRANCH  66  69
ATOM     69  S   UNL A   1      44.999  25.949  38.912  1.00  0.00     0.127 S 
ATOM     70  O   UNL A   1      44.077  26.668  39.790  1.00  0.00    -0.237 OA
ATOM     71  O   UNL A   1      44.429  24.773  38.253  1.00  0.00    -0.237 OA
ATOM     72  O   UNL A   1      46.342  25.748  39.442  1.00  0.00    -0.744 OA
ENDBRANCH  66  69
ENDBRANCH  39  62
ENDBRANCH  13  14
ENDBRANCH   6   8
ENDBRANCH   5   6
ENDBRANCH   4   5
ENDBRANCH   3   4
ENDBRANCH   2   3
ENDBRANCH   1   2
BRANCH   1  73
ATOM     73  C   UNL A   1      34.131  31.481  28.053  1.00  0.00     0.188 C 
BRANCH  73  74
ATOM     74  O   UNL A   1      35.055  30.848  27.185  1.00  0.00    -0.376 OA
BRANCH  74  75
ATOM     75  C   UNL A   1      35.058  29.431  27.096  1.00  0.00     0.202 C 
BRANCH  75  76
ATOM     76  C   UNL A   1      33.818  28.621  27.508  1.00  0.00     0.261 C 
BRANCH  76  77
ATOM     77  O   UNL A   1      32.592  28.913  26.826  1.00  0.00    -0.462 OA
BRANCH  77  78
ATOM     78  C   UNL A   1      31.806  27.821  26.620  1.00  0.00     0.328 C 
ATOM     79  O   UNL A   1      31.034  27.353  27.456  1.00  0.00    -0.250 OA
BRANCH  78  80
ATOM     80  C   UNL A   1      32.139  27.082  25.333  1.00  0.00     0.194 C 
ATOM     81  N   UNL A   1      32.646  25.771  25.741  1.00  0.00    -0.371 N 
ATOM     82  C   UNL A   1      33.120  27.625  24.302  1.00  0.00     0.038 C 
ATOM     83  C   UNL A   1      32.931  24.816  24.784  1.00  0.00     0.051 A 
ATOM     84  H   UNL A   1      32.782  25.569  26.695  1.00  0.00     0.161 HD
ATOM     85  C   UNL A   1      33.012  26.663  23.101  1.00  0.00     0.050 C 
ATOM     86  C   UNL A   1      32.922  28.965  23.593  1.00  0.00     0.034 C 
ATOM     87  C   UNL A   1      33.216  25.224  23.454  1.00  0.00    -0.017 A 
ATOM     88  C   UNL A   1      32.852  23.458  25.106  1.00  0.00     0.079 A 
ATOM     89  C   UNL A   1      33.805  27.390  22.072  1.00  0.00    -0.023 C 
ATOM     90  C   UNL A   1      33.657  28.707  22.294  1.00  0.00    -0.030 C 
ATOM     91  C   UNL A   1      33.411  24.276  22.453  1.00  0.00     0.006 A 
ATOM     92  C   UNL A   1      32.934  22.538  24.060  1.00  0.00     0.015 A 
ATOM     93  C   UNL A   1      33.220  22.938  22.753  1.00  0.00     0.001 A 
BRANCH  88  94
ATOM     94  C   UNL A   1      32.708  22.952  26.524  1.00  0.00     0.418 C 
ATOM     95  F   UNL A   1      33.660  23.437  27.360  1.00  0.00    -0.166 F 
ATOM     96  F   UNL A   1      31.500  23.260  27.068  1.00  0.00    -0.166 F 
ATOM     97  F   UNL A   1      32.799  21.587  26.633  1.00  0.00    -0.166 F 
ENDBRANCH  88  94
ENDBRANCH  78  80
ENDBRANCH  77  78
ENDBRANCH  76  77
ENDBRANCH  75  76
ENDBRANCH  74  75
ENDBRANCH  73  74
ENDBRANCH   1  73
TORSDOF 21
ENDMDL
MODEL 2
REMARK VINA RESULT:     -10.1      4.532     11.607
REMARK SMILES O=C(OCCOCCOCCOC(=O)[C@@H]1Nc2c(cccc2C(F)(F)F)[C@@H]2C=CC[C@@H]12)c1ccc(-c2c3nc(c(-c4cccc(S(=O)(=O)[O-])c4F)c4ccc([nH]4)c(-c4cccc(S(=O)(=O)[O-])c4F)c4nc(c(-c5cccc(S(=O)(=O)[O-])c5F)c5ccc2[nH]5)C=C4)C=C3)cc1
REMARK SMILES IDX 7 1 6 2 5 3 4 4 3 5 2 6 1 7 32 8 33 9 94 10 34 11 93 12
REMARK SMILES IDX 35 13 36 14 37 15 87 16 38 17 92 18 86 19 88 20 39 21 91 22
REMARK SMILES IDX 85 23 84 24 40 26 72 27 52 28 71 29 53 30 56 31 70 32 89 33
REMARK SMILES IDX 54 34 55 35 69 37 90 38 57 39 41 40 42 41 50 42 43 43 45 44
REMARK SMILES IDX 51 45 44 46 46 47 47 48 48 49 49 50 73 51 74 52 82 53 75 54
REMARK SMILES IDX 77 55 83 56 76 57 78 58 79 59 80 60 81 61 58 62 59 63 67 64
REMARK SMILES IDX 60 65 62 66 68 67 61 68 63 69 64 70 65 71 66 72 8 73 9 74
REMARK SMILES IDX 10 75 11 76 12 77 13 78 14 79 15 80 16 81 31 82 17 83 27 85
REMARK SMILES IDX 30 86 18 87 22 88 28 89 29 90 19 91 21 92 20 93 23 94 24 95
REMARK SMILES IDX 25 96 26 97
REMARK H PARENT 88 25 56 36 16 84
REMARK Flexibility Score: inf
ROOT
ATOM      1  C   UNL A   1      34.437  34.697  31.510  1.00  0.00     0.188 C 
ENDROOT
BRANCH   1   2
ATOM      2  O   UNL A   1      34.644  34.474  30.119  1.00  0.00    -0.376 OA
BRANCH   2   3
ATOM      3  C   UNL A   1      33.461  34.625  29.335  1.00  0.00     0.202 C 
BRANCH   3   4
ATOM      4  C   UNL A   1      33.400  33.832  28.016  1.00  0.00     0.261 C 
BRANCH   4   5
ATOM      5  O   UNL A   1      34.581  33.077  27.687  1.00  0.00    -0.460 OA
BRANCH   5   6
ATOM      6  C   UNL A   1      34.894  31.776  27.880  1.00  0.00     0.338 C 
ATOM      7  O   UNL A   1      34.014  30.949  27.635  1.00  0.00    -0.246 OA
BRANCH   6   8
ATOM      8  C   UNL A   1      36.184  31.263  28.457  1.00  0.00     0.060 A 
ATOM      9  C   UNL A   1      36.203  29.907  28.821  1.00  0.00     0.016 A 
ATOM     10  C   UNL A   1      37.330  32.007  28.736  1.00  0.00     0.016 A 
ATOM     11  C   UNL A   1      37.305  29.335  29.477  1.00  0.00     0.010 A 
ATOM     12  C   UNL A   1      38.452  31.432  29.361  1.00  0.00     0.010 A 
ATOM     13  C   UNL A   1      38.457  30.091  29.748  1.00  0.00    -0.014 A 
BRANCH  13  14
ATOM     14  C   UNL A   1      39.729  29.414  30.126  1.00  0.00     0.031 A 
ATOM     15  C   UNL A   1      40.233  28.109  29.550  1.00  0.00     0.074 A 
ATOM     16  C   UNL A   1      40.378  29.951  31.178  1.00  0.00     0.049 A 
ATOM     17  N   UNL A   1      41.437  27.589  29.627  1.00  0.00    -0.248 NA
ATOM     18  C   UNL A   1      39.279  27.255  28.833  1.00  0.00     0.031 C 
ATOM     19  C   UNL A   1      39.920  31.110  31.956  1.00  0.00     0.029 A 
ATOM     20  N   UNL A   1      41.521  29.555  31.816  1.00  0.00    -0.354 N 
ATOM     21  C   UNL A   1      41.412  26.412  28.870  1.00  0.00     0.074 A 
ATOM     22  C   UNL A   1      40.047  26.229  28.467  1.00  0.00     0.031 C 
ATOM     23  C   UNL A   1      40.748  31.301  32.991  1.00  0.00     0.029 A 
ATOM     24  C   UNL A   1      41.787  30.282  32.949  1.00  0.00     0.049 A 
ATOM     25  H   UNL A   1      42.093  28.823  31.496  1.00  0.00     0.167 HD
ATOM     26  C   UNL A   1      42.449  25.595  28.546  1.00  0.00     0.034 A 
ATOM     27  C   UNL A   1      42.755  30.136  33.868  1.00  0.00     0.034 A 
ATOM     28  C   UNL A   1      43.703  25.645  29.243  1.00  0.00     0.049 A 
ATOM     29  C   UNL A   1      43.797  29.088  33.653  1.00  0.00     0.074 A 
ATOM     30  C   UNL A   1      44.815  24.843  29.056  1.00  0.00     0.029 A 
ATOM     31  N   UNL A   1      43.952  26.447  30.337  1.00  0.00    -0.354 N 
ATOM     32  N   UNL A   1      43.923  28.260  32.647  1.00  0.00    -0.248 NA
ATOM     33  C   UNL A   1      44.853  28.979  34.667  1.00  0.00     0.031 C 
ATOM     34  C   UNL A   1      45.703  25.100  30.093  1.00  0.00     0.029 A 
ATOM     35  C   UNL A   1      45.157  26.090  30.895  1.00  0.00     0.049 A 
ATOM     36  H   UNL A   1      43.360  27.161  30.666  1.00  0.00     0.167 HD
ATOM     37  C   UNL A   1      45.106  27.575  32.875  1.00  0.00     0.074 A 
ATOM     38  C   UNL A   1      45.645  28.062  34.126  1.00  0.00     0.031 C 
ATOM     39  C   UNL A   1      45.697  26.637  32.106  1.00  0.00     0.034 A 
BRANCH  26  40
ATOM     40  C   UNL A   1      42.416  24.606  27.394  1.00  0.00     0.023 A 
ATOM     41  C   UNL A   1      43.091  25.023  26.213  1.00  0.00     0.012 A 
ATOM     42  C   UNL A   1      42.005  23.265  27.479  1.00  0.00     0.148 A 
ATOM     43  C   UNL A   1      43.302  24.167  25.131  1.00  0.00     0.002 A 
ATOM     44  C   UNL A   1      42.231  22.404  26.397  1.00  0.00     0.091 A 
ATOM     45  F   UNL A   1      41.423  22.847  28.611  1.00  0.00    -0.205 F 
ATOM     46  C   UNL A   1      42.864  22.855  25.222  1.00  0.00     0.022 A 
BRANCH  44  47
ATOM     47  S   UNL A   1      41.803  20.656  26.415  1.00  0.00     0.127 S 
ATOM     48  O   UNL A   1      42.660  20.131  25.358  1.00  0.00    -0.237 OA
ATOM     49  O   UNL A   1      42.186  20.254  27.767  1.00  0.00    -0.237 OA
ATOM     50  O   UNL A   1      40.367  20.597  26.148  1.00  0.00    -0.744 OA
ENDBRANCH  44  47
ENDBRANCH  26  40
BRANCH  27  51
ATOM     51  C   UNL A   1      42.802  31.075  35.013  1.00  0.00     0.023 A 
ATOM     52  C   UNL A   1      42.163  30.719  36.213  1.00  0.00     0.012 A 
ATOM     53  C   UNL A   1      43.565  32.256  34.949  1.00  0.00     0.148 A 
ATOM     54  C   UNL A   1      42.274  31.535  37.336  1.00  0.00     0.002 A 
ATOM     55  C   UNL A   1      43.701  33.046  36.083  1.00  0.00     0.091 A 
ATOM     56  F   UNL A   1      44.164  32.564  33.791  1.00  0.00    -0.205 F 
ATOM     57  C   UNL A   1      43.050  32.691  37.276  1.00  0.00     0.022 A 
BRANCH  55  58
ATOM     58  S   UNL A   1      44.768  34.488  36.121  1.00  0.00     0.127 S 
ATOM     59  O   UNL A   1      44.786  34.882  34.714  1.00  0.00    -0.237 OA
ATOM     60  O   UNL A   1      44.030  35.392  37.005  1.00  0.00    -0.237 OA
ATOM     61  O   UNL A   1      46.037  34.024  36.665  1.00  0.00    -0.744 OA
ENDBRANCH  55  58
ENDBRANCH  27  51
BRANCH  39  62
ATOM     62  C   UNL A   1      47.017  26.078  32.527  1.00  0.00     0.023 A 
ATOM     63  C   UNL A   1      48.195  26.783  32.228  1.00  0.00     0.012 A 
ATOM     64  C   UNL A   1      47.041  25.006  33.438  1.00  0.00     0.148 A 
ATOM     65  C   UNL A   1      49.390  26.430  32.848  1.00  0.00     0.002 A 
ATOM     66  C   UNL A   1      48.222  24.698  34.093  1.00  0.00     0.091 A 
ATOM     67  F   UNL A   1      45.894  24.358  33.695  1.00  0.00    -0.205 F 
ATOM     68  C   UNL A   1      49.399  25.405  33.796  1.00  0.00     0.022 A 
BRANCH  66  69
ATOM     69  S   UNL A   1      48.273  23.499  35.427  1.00  0.00     0.127 S 
ATOM     70  O   UNL A   1      47.921  22.265  34.729  1.00  0.00    -0.237 OA
ATOM     71  O   UNL A   1      49.667  23.581  35.867  1.00  0.00    -0.237 OA
ATOM     72  O   UNL A   1      47.305  23.960  36.415  1.00  0.00    -0.744 OA
ENDBRANCH  66  69
ENDBRANCH  39  62
ENDBRANCH  13  14
ENDBRANCH   6   8
ENDBRANCH   5   6
ENDBRANCH   4   5
ENDBRANCH   3   4
ENDBRANCH   2   3
ENDBRANCH   1   2
BRANCH   1  73
ATOM     73  C   UNL A   1      34.865  33.591  32.474  1.00  0.00     0.188 C 
BRANCH  73  74
ATOM     74  O   UNL A   1      35.190  32.302  31.981  1.00  0.00    -0.376 OA
BRANCH  74  75
ATOM     75  C   UNL A   1      36.237  31.571  32.602  1.00  0.00     0.202 C 
BRANCH  75  76
ATOM     76  C   UNL A   1      37.171  32.253  33.614  1.00  0.00     0.261 C 
BRANCH  76  77
ATOM     77  O   UNL A   1      36.956  31.962  35.001  1.00  0.00    -0.462 OA
BRANCH  77  78
ATOM     78  C   UNL A   1      38.049  31.451  35.631  1.00  0.00     0.328 C 
ATOM     79  O   UNL A   1      38.461  30.301  35.481  1.00  0.00    -0.250 OA
BRANCH  78  80
ATOM     80  C   UNL A   1      38.586  32.361  36.724  1.00  0.00     0.194 C 
ATOM     81  N   UNL A   1      37.522  32.457  37.726  1.00  0.00    -0.371 N 
ATOM     82  C   UNL A   1      39.058  33.783  36.454  1.00  0.00     0.038 C 
ATOM     83  C   UNL A   1      37.753  33.131  38.909  1.00  0.00     0.051 A 
ATOM     84  H   UNL A   1      36.646  32.041  37.557  1.00  0.00     0.161 HD
ATOM     85  C   UNL A   1      39.680  34.258  37.784  1.00  0.00     0.050 C 
ATOM     86  C   UNL A   1      40.200  34.110  35.491  1.00  0.00     0.034 C 
ATOM     87  C   UNL A   1      38.771  34.120  38.964  1.00  0.00    -0.017 A 
ATOM     88  C   UNL A   1      37.047  32.778  40.063  1.00  0.00     0.079 A 
ATOM     89  C   UNL A   1      40.317  35.538  37.368  1.00  0.00    -0.023 C 
ATOM     90  C   UNL A   1      40.711  35.404  36.090  1.00  0.00    -0.030 C 
ATOM     91  C   UNL A   1      39.084  34.742  40.169  1.00  0.00     0.006 A 
ATOM     92  C   UNL A   1      37.465  33.333  41.274  1.00  0.00     0.015 A 
ATOM     93  C   UNL A   1      38.462  34.310  41.327  1.00  0.00     0.001 A 
BRANCH  88  94
ATOM     94  C   UNL A   1      35.850  31.853  40.051  1.00  0.00     0.418 C 
ATOM     95  F   UNL A   1      34.807  32.345  39.336  1.00  0.00    -0.166 F 
ATOM     96  F   UNL A   1      36.145  30.627  39.541  1.00  0.00    -0.166 F 
ATOM     97  F   UNL A   1      35.340  31.597  41.298  1.00  0.00    -0.166 F 
ENDBRANCH  88  94
ENDBRANCH  78  80
ENDBRANCH  77  78
ENDBRANCH  76  77
ENDBRANCH  75  76
ENDBRANCH  74  75
ENDBRANCH  73  74
ENDBRANCH   1  73
TORSDOF 21
ENDMDL
MODEL 3
REMARK VINA RESULT:      -9.9      3.261      8.965
REMARK SMILES O=C(OCCOCCOCCOC(=O)[C@@H]1Nc2c(cccc2C(F)(F)F)[C@@H]2C=CC[C@@H]12)c1ccc(-c2c3nc(c(-c4cccc(S(=O)(=O)[O-])c4F)c4ccc([nH]4)c(-c4cccc(S(=O)(=O)[O-])c4F)c4nc(c(-c5cccc(S(=O)(=O)[O-])c5F)c5ccc2[nH]5)C=C4)C=C3)cc1
REMARK SMILES IDX 7 1 6 2 5 3 4 4 3 5 2 6 1 7 32 8 33 9 94 10 34 11 93 12
REMARK SMILES IDX 35 13 36 14 37 15 87 16 38 17 92 18 86 19 88 20 39 21 91 22
REMARK SMILES IDX 85 23 84 24 40 26 72 27 52 28 71 29 53 30 56 31 70 32 89 33
REMARK SMILES IDX 54 34 55 35 69 37 90 38 57 39 41 40 42 41 50 42 43 43 45 44
REMARK SMILES IDX 51 45 44 46 46 47 47 48 48 49 49 50 73 51 74 52 82 53 75 54
REMARK SMILES IDX 77 55 83 56 76 57 78 58 79 59 80 60 81 61 58 62 59 63 67 64
REMARK SMILES IDX 60 65 62 66 68 67 61 68 63 69 64 70 65 71 66 72 8 73 9 74
REMARK SMILES IDX 10 75 11 76 12 77 13 78 14 79 15 80 16 81 31 82 17 83 27 85
REMARK SMILES IDX 30 86 18 87 22 88 28 89 29 90 19 91 21 92 20 93 23 94 24 95
REMARK SMILES IDX 25 96 26 97
REMARK H PARENT 88 25 56 36 16 84
REMARK Flexibility Score: inf
ROOT
ATOM      1  C   UNL A   1      32.679  26.660  26.050  1.00  0.00     0.188 C 
ENDROOT
BRANCH   1   2
ATOM      2  O   UNL A   1      32.059  27.941  26.073  1.00  0.00    -0.376 OA
BRANCH   2   3
ATOM      3  C   UNL A   1      32.756  28.898  26.870  1.00  0.00     0.202 C 
BRANCH   3   4
ATOM      4  C   UNL A   1      32.841  30.331  26.312  1.00  0.00     0.261 C 
BRANCH   4   5
ATOM      5  O   UNL A   1      32.788  31.386  27.288  1.00  0.00    -0.460 OA
BRANCH   5   6
ATOM      6  C   UNL A   1      33.727  32.263  27.710  1.00  0.00     0.338 C 
ATOM      7  O   UNL A   1      33.489  33.460  27.536  1.00  0.00    -0.246 OA
BRANCH   6   8
ATOM      8  C   UNL A   1      35.069  31.900  28.282  1.00  0.00     0.060 A 
ATOM      9  C   UNL A   1      35.086  30.826  29.188  1.00  0.00     0.016 A 
ATOM     10  C   UNL A   1      36.277  32.563  28.067  1.00  0.00     0.016 A 
ATOM     11  C   UNL A   1      36.253  30.464  29.880  1.00  0.00     0.010 A 
ATOM     12  C   UNL A   1      37.458  32.182  28.731  1.00  0.00     0.010 A 
ATOM     13  C   UNL A   1      37.466  31.133  29.651  1.00  0.00    -0.014 A 
BRANCH  13  14
ATOM     14  C   UNL A   1      38.751  30.542  30.118  1.00  0.00     0.031 A 
ATOM     15  C   UNL A   1      39.420  29.321  29.526  1.00  0.00     0.074 A 
ATOM     16  C   UNL A   1      39.247  31.064  31.257  1.00  0.00     0.049 A 
ATOM     17  N   UNL A   1      40.653  28.898  29.696  1.00  0.00    -0.248 NA
ATOM     18  C   UNL A   1      38.618  28.437  28.672  1.00  0.00     0.031 C 
ATOM     19  C   UNL A   1      38.616  32.130  32.047  1.00  0.00     0.029 A 
ATOM     20  N   UNL A   1      40.354  30.725  31.985  1.00  0.00    -0.354 N 
ATOM     21  C   UNL A   1      40.804  27.773  28.878  1.00  0.00     0.074 A 
ATOM     22  C   UNL A   1      39.505  27.503  28.331  1.00  0.00     0.031 C 
ATOM     23  C   UNL A   1      39.321  32.324  33.168  1.00  0.00     0.029 A 
ATOM     24  C   UNL A   1      40.445  31.399  33.176  1.00  0.00     0.049 A 
ATOM     25  H   UNL A   1      41.017  30.064  31.684  1.00  0.00     0.167 HD
ATOM     26  C   UNL A   1      41.935  27.066  28.616  1.00  0.00     0.034 A 
ATOM     27  C   UNL A   1      41.331  31.277  34.178  1.00  0.00     0.034 A 
ATOM     28  C   UNL A   1      43.109  27.176  29.436  1.00  0.00     0.049 A 
ATOM     29  C   UNL A   1      42.477  30.334  34.013  1.00  0.00     0.074 A 
ATOM     30  C   UNL A   1      44.299  26.481  29.319  1.00  0.00     0.029 A 
ATOM     31  N   UNL A   1      43.180  27.926  30.591  1.00  0.00    -0.354 N 
ATOM     32  N   UNL A   1      42.771  29.583  32.982  1.00  0.00    -0.248 NA
ATOM     33  C   UNL A   1      43.437  30.249  35.120  1.00  0.00     0.031 C 
ATOM     34  C   UNL A   1      45.058  26.746  30.452  1.00  0.00     0.029 A 
ATOM     35  C   UNL A   1      44.353  27.636  31.248  1.00  0.00     0.049 A 
ATOM     36  H   UNL A   1      42.499  28.567  30.897  1.00  0.00     0.167 HD
ATOM     37  C   UNL A   1      43.983  28.985  33.290  1.00  0.00     0.074 A 
ATOM     38  C   UNL A   1      44.355  29.437  34.612  1.00  0.00     0.031 C 
ATOM     39  C   UNL A   1      44.725  28.149  32.534  1.00  0.00     0.034 A 
BRANCH  26  40
ATOM     40  C   UNL A   1      42.100  26.151  27.415  1.00  0.00     0.023 A 
ATOM     41  C   UNL A   1      42.643  26.764  26.251  1.00  0.00     0.012 A 
ATOM     42  C   UNL A   1      41.997  24.750  27.434  1.00  0.00     0.148 A 
ATOM     43  C   UNL A   1      43.018  26.029  25.125  1.00  0.00     0.002 A 
ATOM     44  C   UNL A   1      42.388  24.014  26.307  1.00  0.00     0.091 A 
ATOM     45  F   UNL A   1      41.545  24.158  28.548  1.00  0.00    -0.205 F 
ATOM     46  C   UNL A   1      42.882  24.650  25.152  1.00  0.00     0.022 A 
BRANCH  44  47
ATOM     47  S   UNL A   1      42.358  22.215  26.240  1.00  0.00     0.127 S 
ATOM     48  O   UNL A   1      42.846  21.862  27.568  1.00  0.00    -0.237 OA
ATOM     49  O   UNL A   1      40.943  21.934  26.014  1.00  0.00    -0.237 OA
ATOM     50  O   UNL A   1      43.235  21.846  25.130  1.00  0.00    -0.744 OA
ENDBRANCH  44  47
ENDBRANCH  26  40
BRANCH  27  51
ATOM     51  C   UNL A   1      41.185  32.143  35.371  1.00  0.00     0.023 A 
ATOM     52  C   UNL A   1      41.995  33.285  35.486  1.00  0.00     0.012 A 
ATOM     53  C   UNL A   1      40.178  31.900  36.324  1.00  0.00     0.148 A 
ATOM     54  C   UNL A   1      41.812  34.172  36.546  1.00  0.00     0.002 A 
ATOM     55  C   UNL A   1      39.977  32.806  37.356  1.00  0.00     0.091 A 
ATOM     56  F   UNL A   1      39.420  30.803  36.182  1.00  0.00    -0.205 F 
ATOM     57  C   UNL A   1      40.799  33.939  37.473  1.00  0.00     0.022 A 
BRANCH  55  58
ATOM     58  S   UNL A   1      38.627  32.639  38.527  1.00  0.00     0.127 S 
ATOM     59  O   UNL A   1      38.067  33.989  38.528  1.00  0.00    -0.237 OA
ATOM     60  O   UNL A   1      37.789  31.625  37.885  1.00  0.00    -0.237 OA
ATOM     61  O   UNL A   1      39.240  32.207  39.775  1.00  0.00    -0.744 OA
ENDBRANCH  55  58
ENDBRANCH  27  51
BRANCH  39  62
ATOM     62  C   UNL A   1      46.043  27.677  33.055  1.00  0.00     0.023 A 
ATOM     63  C   UNL A   1      47.172  28.503  32.933  1.00  0.00     0.012 A 
ATOM     64  C   UNL A   1      46.077  26.542  33.887  1.00  0.00     0.148 A 
ATOM     65  C   UNL A   1      48.327  28.208  33.652  1.00  0.00     0.002 A 
ATOM     66  C   UNL A   1      47.210  26.288  34.642  1.00  0.00     0.091 A 
ATOM     67  F   UNL A   1      44.977  25.779  33.974  1.00  0.00    -0.205 F 
ATOM     68  C   UNL A   1      48.338  27.117  34.523  1.00  0.00     0.022 A 
BRANCH  66  69
ATOM     69  S   UNL A   1      47.240  24.998  35.889  1.00  0.00     0.127 S 
ATOM     70  O   UNL A   1      48.572  25.173  36.462  1.00  0.00    -0.237 OA
ATOM     71  O   UNL A   1      46.136  25.387  36.768  1.00  0.00    -0.237 OA
ATOM     72  O   UNL A   1      47.024  23.746  35.174  1.00  0.00    -0.744 OA
ENDBRANCH  66  69
ENDBRANCH  39  62
ENDBRANCH  13  14
ENDBRANCH   6   8
ENDBRANCH   5   6
ENDBRANCH   4   5
ENDBRANCH   3   4
ENDBRANCH   2   3
ENDBRANCH   1   2
BRANCH   1  73
ATOM     73  C   UNL A   1      32.955  26.032  24.684  1.00  0.00     0.188 C 
BRANCH  73  74
ATOM     74  O   UNL A   1      31.907  25.889  23.741  1.00  0.00    -0.376 OA
BRANCH  74  75
ATOM     75  C   UNL A   1      30.811  25.041  24.052  1.00  0.00     0.202 C 
BRANCH  75  76
ATOM     76  C   UNL A   1      30.941  23.516  23.914  1.00  0.00     0.261 C 
BRANCH  76  77
ATOM     77  O   UNL A   1      32.124  22.910  24.452  1.00  0.00    -0.462 OA
BRANCH  77  78
ATOM     78  C   UNL A   1      31.896  21.728  25.087  1.00  0.00     0.328 C 
ATOM     79  O   UNL A   1      30.891  21.482  25.753  1.00  0.00    -0.250 OA
BRANCH  78  80
ATOM     80  C   UNL A   1      33.110  20.813  25.096  1.00  0.00     0.194 C 
ATOM     81  N   UNL A   1      34.258  21.664  24.777  1.00  0.00    -0.371 N 
ATOM     82  C   UNL A   1      33.221  19.583  24.206  1.00  0.00     0.038 C 
ATOM     83  C   UNL A   1      35.535  21.140  24.821  1.00  0.00     0.051 A 
ATOM     84  H   UNL A   1      34.120  22.608  24.533  1.00  0.00     0.161 HD
ATOM     85  C   UNL A   1      34.505  18.866  24.670  1.00  0.00     0.050 C 
ATOM     86  C   UNL A   1      32.227  18.422  24.267  1.00  0.00     0.034 C 
ATOM     87  C   UNL A   1      35.720  19.739  24.676  1.00  0.00    -0.017 A 
ATOM     88  C   UNL A   1      36.624  21.973  25.092  1.00  0.00     0.079 A 
ATOM     89  C   UNL A   1      34.406  17.579  23.928  1.00  0.00    -0.023 C 
ATOM     90  C   UNL A   1      33.103  17.278  23.800  1.00  0.00    -0.030 C 
ATOM     91  C   UNL A   1      36.988  19.178  24.813  1.00  0.00     0.006 A 
ATOM     92  C   UNL A   1      37.857  21.368  25.340  1.00  0.00     0.015 A 
ATOM     93  C   UNL A   1      38.041  19.991  25.193  1.00  0.00     0.001 A 
BRANCH  88  94
ATOM     94  C   UNL A   1      36.528  23.483  25.103  1.00  0.00     0.418 C 
ATOM     95  F   UNL A   1      35.788  23.974  24.078  1.00  0.00    -0.166 F 
ATOM     96  F   UNL A   1      35.988  23.962  26.255  1.00  0.00    -0.166 F 
ATOM     97  F   UNL A   1      37.743  24.112  25.000  1.00  0.00    -0.166 F 
ENDBRANCH  88  94
ENDBRANCH  78  80
ENDBRANCH  77  78
ENDBRANCH  76  77
ENDBRANCH  75  76
ENDBRANCH  74  75
ENDBRANCH  73  74
ENDBRANCH   1  73
TORSDOF 21
ENDMDL
