MODEL 1
REMARK VINA RESULT:      -9.2      0.000      0.000
REMARK SMILES COc1ccc(N(CN2C(=O)CC[C@H]2C(=O)OCCOCCOCCOC(=O)c2ccc(-c3c4nc(c(-c5cccc(S(=O)(=O)[O-])c5F)c5ccc([nH]5)c(-c5cccc(S(=O)(=O)[O-])c5F)c5nc(c(-c6cccc(S(=O)(=O)[O-])c6F)c6ccc3[nH]6)C=C5)C=C4)cc2)C(C)=O)cc1
REMARK SMILES IDX 21 1 20 2 19 3 18 4 17 5 15 6 16 7 14 8 9 9 10 10 11 11
REMARK SMILES IDX 12 12 13 13 8 14 7 15 6 16 3 17 4 18 96 19 5 20 95 21 2 22
REMARK SMILES IDX 1 23 92 24 93 25 94 26 22 27 23 28 24 29 25 30 26 31 27 32
REMARK SMILES IDX 28 33 29 34 30 35 91 36 31 37 90 38 32 39 33 40 34 41 84 42
REMARK SMILES IDX 35 43 89 44 83 45 85 46 36 47 88 48 82 49 81 50 37 52 69 53
REMARK SMILES IDX 49 54 68 55 50 56 53 57 67 58 86 59 51 60 52 61 66 63 87 64
REMARK SMILES IDX 54 65 38 66 39 67 47 68 40 69 42 70 48 71 41 72 43 73 44 74
REMARK SMILES IDX 45 75 46 76 70 77 71 78 79 79 72 80 74 81 80 82 73 83 75 84
REMARK SMILES IDX 76 85 77 86 78 87 55 88 56 89 64 90 57 91 59 92 65 93 58 94
REMARK SMILES IDX 60 95 61 96 62 97 63 98
REMARK H PARENT 85 51 53 62
REMARK Flexibility Score: inf
ROOT
ATOM      1  C   UNL A   1      39.637  21.660  26.111  1.00  0.00     0.188 C 
ENDROOT
BRANCH   1   2
ATOM      2  O   UNL A   1      38.266  21.989  25.979  1.00  0.00    -0.376 OA
BRANCH   2   3
ATOM      3  C   UNL A   1      37.488  21.404  24.955  1.00  0.00     0.202 C 
BRANCH   3   4
ATOM      4  C   UNL A   1      36.728  22.288  23.962  1.00  0.00     0.261 C 
BRANCH   4   5
ATOM      5  O   UNL A   1      35.292  22.249  24.011  1.00  0.00    -0.462 OA
BRANCH   5   6
ATOM      6  C   UNL A   1      34.714  23.094  24.915  1.00  0.00     0.329 C 
ATOM      7  O   UNL A   1      34.729  22.925  26.128  1.00  0.00    -0.250 OA
BRANCH   6   8
ATOM      8  C   UNL A   1      34.053  24.291  24.221  1.00  0.00     0.197 C 
ATOM      9  N   UNL A   1      32.608  24.194  24.316  1.00  0.00    -0.311 N 
ATOM     10  C   UNL A   1      32.017  25.309  24.875  1.00  0.00     0.224 C 
ATOM     11  O   UNL A   1      30.842  25.451  25.165  1.00  0.00    -0.275 OA
ATOM     12  C   UNL A   1      33.064  26.383  24.974  1.00  0.00     0.103 C 
ATOM     13  C   UNL A   1      34.377  25.620  24.898  1.00  0.00     0.047 C 
BRANCH   9  14
ATOM     14  C   UNL A   1      31.852  23.030  23.873  1.00  0.00     0.249 C 
BRANCH  14  15
ATOM     15  N   UNL A   1      31.809  21.994  24.914  1.00  0.00    -0.294 N 
BRANCH  15  16
ATOM     16  C   UNL A   1      32.301  20.656  24.650  1.00  0.00     0.046 A 
ATOM     17  C   UNL A   1      33.475  18.097  24.079  1.00  0.00     0.119 A 
ATOM     18  C   UNL A   1      33.451  18.598  25.370  1.00  0.00     0.048 A 
ATOM     19  C   UNL A   1      32.818  18.813  23.092  1.00  0.00     0.048 A 
ATOM     20  C   UNL A   1      32.874  19.851  25.650  1.00  0.00     0.030 A 
ATOM     21  C   UNL A   1      32.215  20.050  23.389  1.00  0.00     0.030 A 
BRANCH  17  22
ATOM     22  O   UNL A   1      34.092  16.892  23.913  1.00  0.00    -0.497 OA
ATOM     23  C   UNL A   1      34.441  16.202  25.109  1.00  0.00     0.278 C 
ENDBRANCH  17  22
ENDBRANCH  15  16
BRANCH  15  24
ATOM     24  C   UNL A   1      31.222  22.470  26.097  1.00  0.00     0.225 C 
ATOM     25  C   UNL A   1      32.046  22.683  27.338  1.00  0.00     0.115 C 
ATOM     26  O   UNL A   1      30.003  22.642  26.211  1.00  0.00    -0.275 OA
ENDBRANCH  15  24
ENDBRANCH  14  15
ENDBRANCH   9  14
ENDBRANCH   6   8
ENDBRANCH   5   6
ENDBRANCH   4   5
ENDBRANCH   3   4
ENDBRANCH   2   3
ENDBRANCH   1   2
BRANCH   1  27
ATOM     27  C   UNL A   1      40.382  21.935  27.436  1.00  0.00     0.188 C 
BRANCH  27  28
ATOM     28  O   UNL A   1      41.592  21.252  27.629  1.00  0.00    -0.376 OA
BRANCH  28  29
ATOM     29  C   UNL A   1      42.326  20.749  26.533  1.00  0.00     0.202 C 
BRANCH  29  30
ATOM     30  C   UNL A   1      43.348  21.529  25.680  1.00  0.00     0.261 C 
BRANCH  30  31
ATOM     31  O   UNL A   1      42.995  22.805  25.146  1.00  0.00    -0.460 OA
BRANCH  31  32
ATOM     32  C   UNL A   1      44.015  23.658  24.872  1.00  0.00     0.338 C 
ATOM     33  O   UNL A   1      44.854  23.532  24.004  1.00  0.00    -0.246 OA
BRANCH  32  34
ATOM     34  C   UNL A   1      43.827  24.892  25.675  1.00  0.00     0.060 A 
ATOM     35  C   UNL A   1      43.561  26.099  25.011  1.00  0.00     0.016 A 
ATOM     36  C   UNL A   1      43.917  24.861  27.067  1.00  0.00     0.016 A 
ATOM     37  C   UNL A   1      43.425  27.286  25.738  1.00  0.00     0.010 A 
ATOM     38  C   UNL A   1      43.800  26.054  27.791  1.00  0.00     0.010 A 
ATOM     39  C   UNL A   1      43.589  27.278  27.130  1.00  0.00    -0.014 A 
BRANCH  39  40
ATOM     40  C   UNL A   1      43.728  28.554  27.879  1.00  0.00     0.031 A 
ATOM     41  C   UNL A   1      42.495  29.165  28.493  1.00  0.00     0.074 A 
ATOM     42  C   UNL A   1      44.912  29.182  28.001  1.00  0.00     0.049 A 
ATOM     43  N   UNL A   1      42.353  30.301  29.125  1.00  0.00    -0.248 NA
ATOM     44  C   UNL A   1      41.252  28.386  28.368  1.00  0.00     0.031 C 
ATOM     45  C   UNL A   1      46.186  28.696  27.479  1.00  0.00     0.029 A 
ATOM     46  N   UNL A   1      45.222  30.388  28.584  1.00  0.00    -0.354 N 
ATOM     47  C   UNL A   1      41.003  30.392  29.442  1.00  0.00     0.074 A 
ATOM     48  C   UNL A   1      40.367  29.200  28.922  1.00  0.00     0.031 C 
ATOM     49  C   UNL A   1      47.140  29.608  27.741  1.00  0.00     0.029 A 
ATOM     50  C   UNL A   1      46.537  30.756  28.418  1.00  0.00     0.049 A 
ATOM     51  H   UNL A   1      44.566  30.936  29.072  1.00  0.00     0.167 HD
ATOM     52  C   UNL A   1      40.348  31.371  30.112  1.00  0.00     0.034 A 
ATOM     53  C   UNL A   1      47.175  31.898  28.751  1.00  0.00     0.034 A 
ATOM     54  C   UNL A   1      40.977  32.555  30.631  1.00  0.00     0.049 A 
ATOM     55  C   UNL A   1      46.416  32.999  29.450  1.00  0.00     0.074 A 
ATOM     56  C   UNL A   1      40.404  33.585  31.358  1.00  0.00     0.029 A 
ATOM     57  N   UNL A   1      42.313  32.883  30.461  1.00  0.00    -0.354 N 
ATOM     58  N   UNL A   1      45.162  33.028  29.832  1.00  0.00    -0.248 NA
ATOM     59  C   UNL A   1      47.171  34.216  29.789  1.00  0.00     0.031 C 
ATOM     60  C   UNL A   1      41.385  34.555  31.589  1.00  0.00     0.029 A 
ATOM     61  C   UNL A   1      42.580  34.108  31.050  1.00  0.00     0.049 A 
ATOM     62  H   UNL A   1      42.975  32.326  29.991  1.00  0.00     0.167 HD
ATOM     63  C   UNL A   1      44.989  34.242  30.491  1.00  0.00     0.074 A 
ATOM     64  C   UNL A   1      46.271  34.916  30.467  1.00  0.00     0.031 C 
ATOM     65  C   UNL A   1      43.869  34.755  31.060  1.00  0.00     0.034 A 
BRANCH  52  66
ATOM     66  C   UNL A   1      38.865  31.193  30.315  1.00  0.00     0.023 A 
ATOM     67  C   UNL A   1      38.388  30.230  31.229  1.00  0.00     0.012 A 
ATOM     68  C   UNL A   1      37.941  31.992  29.612  1.00  0.00     0.148 A 
ATOM     69  C   UNL A   1      37.019  30.028  31.401  1.00  0.00     0.002 A 
ATOM     70  C   UNL A   1      36.579  31.820  29.826  1.00  0.00     0.091 A 
ATOM     71  F   UNL A   1      38.408  32.888  28.732  1.00  0.00    -0.205 F 
ATOM     72  C   UNL A   1      36.115  30.828  30.706  1.00  0.00     0.022 A 
BRANCH  70  73
ATOM     73  S   UNL A   1      35.339  32.854  29.040  1.00  0.00     0.127 S 
ATOM     74  O   UNL A   1      35.913  34.187  29.212  1.00  0.00    -0.237 OA
ATOM     75  O   UNL A   1      35.353  32.357  27.663  1.00  0.00    -0.237 OA
ATOM     76  O   UNL A   1      34.096  32.608  29.759  1.00  0.00    -0.744 OA
ENDBRANCH  70  73
ENDBRANCH  52  66
BRANCH  53  77
ATOM     77  C   UNL A   1      48.628  32.051  28.455  1.00  0.00     0.023 A 
ATOM     78  C   UNL A   1      49.578  31.553  29.368  1.00  0.00     0.012 A 
ATOM     79  C   UNL A   1      49.074  32.672  27.271  1.00  0.00     0.148 A 
ATOM     80  C   UNL A   1      50.944  31.691  29.120  1.00  0.00     0.002 A 
ATOM     81  C   UNL A   1      50.436  32.759  27.006  1.00  0.00     0.091 A 
ATOM     82  F   UNL A   1      48.155  33.153  26.423  1.00  0.00    -0.205 F 
ATOM     83  C   UNL A   1      51.373  32.283  27.936  1.00  0.00     0.022 A 
BRANCH  81  84
ATOM     84  S   UNL A   1      51.084  33.408  25.460  1.00  0.00     0.127 S 
ATOM     85  O   UNL A   1      52.326  34.041  25.898  1.00  0.00    -0.237 OA
ATOM     86  O   UNL A   1      51.259  32.187  24.674  1.00  0.00    -0.237 OA
ATOM     87  O   UNL A   1      50.065  34.316  24.952  1.00  0.00    -0.744 OA
ENDBRANCH  81  84
ENDBRANCH  53  77
BRANCH  65  88
ATOM     88  C   UNL A   1      43.972  36.094  31.751  1.00  0.00     0.023 A 
ATOM     89  C   UNL A   1      44.236  36.160  33.134  1.00  0.00     0.012 A 
ATOM     90  C   UNL A   1      43.887  37.290  31.010  1.00  0.00     0.148 A 
ATOM     91  C   UNL A   1      44.377  37.393  33.772  1.00  0.00     0.002 A 
ATOM     92  C   UNL A   1      44.082  38.513  31.642  1.00  0.00     0.091 A 
ATOM     93  F   UNL A   1      43.622  37.211  29.697  1.00  0.00    -0.205 F 
ATOM     94  C   UNL A   1      44.312  38.567  33.026  1.00  0.00     0.022 A 
BRANCH  92  95
ATOM     95  S   UNL A   1      44.117  40.070  30.746  1.00  0.00     0.127 S 
ATOM     96  O   UNL A   1      42.872  40.004  29.982  1.00  0.00    -0.237 OA
ATOM     97  O   UNL A   1      44.113  41.050  31.833  1.00  0.00    -0.237 OA
ATOM     98  O   UNL A   1      45.338  40.052  29.953  1.00  0.00    -0.744 OA
ENDBRANCH  92  95
ENDBRANCH  65  88
ENDBRANCH  39  40
ENDBRANCH  32  34
ENDBRANCH  31  32
ENDBRANCH  30  31
ENDBRANCH  29  30
ENDBRANCH  28  29
ENDBRANCH  27  28
ENDBRANCH   1  27
TORSDOF 25
ENDMDL
MODEL 2
REMARK VINA RESULT:      -9.1      4.580     10.035
REMARK SMILES COc1ccc(N(CN2C(=O)CC[C@H]2C(=O)OCCOCCOCCOC(=O)c2ccc(-c3c4nc(c(-c5cccc(S(=O)(=O)[O-])c5F)c5ccc([nH]5)c(-c5cccc(S(=O)(=O)[O-])c5F)c5nc(c(-c6cccc(S(=O)(=O)[O-])c6F)c6ccc3[nH]6)C=C5)C=C4)cc2)C(C)=O)cc1
REMARK SMILES IDX 21 1 20 2 19 3 18 4 17 5 15 6 16 7 14 8 9 9 10 10 11 11
REMARK SMILES IDX 12 12 13 13 8 14 7 15 6 16 3 17 4 18 96 19 5 20 95 21 2 22
REMARK SMILES IDX 1 23 92 24 93 25 94 26 22 27 23 28 24 29 25 30 26 31 27 32
REMARK SMILES IDX 28 33 29 34 30 35 91 36 31 37 90 38 32 39 33 40 34 41 84 42
REMARK SMILES IDX 35 43 89 44 83 45 85 46 36 47 88 48 82 49 81 50 37 52 69 53
REMARK SMILES IDX 49 54 68 55 50 56 53 57 67 58 86 59 51 60 52 61 66 63 87 64
REMARK SMILES IDX 54 65 38 66 39 67 47 68 40 69 42 70 48 71 41 72 43 73 44 74
REMARK SMILES IDX 45 75 46 76 70 77 71 78 79 79 72 80 74 81 80 82 73 83 75 84
REMARK SMILES IDX 76 85 77 86 78 87 55 88 56 89 64 90 57 91 59 92 65 93 58 94
REMARK SMILES IDX 60 95 61 96 62 97 63 98
REMARK H PARENT 85 51 53 62
REMARK Flexibility Score: inf
ROOT
ATOM      1  C   UNL A   1      33.725  30.058  27.195  1.00  0.00     0.188 C 
ENDROOT
BRANCH   1   2
ATOM      2  O   UNL A   1      32.317  30.123  27.058  1.00  0.00    -0.376 OA
BRANCH   2   3
ATOM      3  C   UNL A   1      31.575  28.959  26.762  1.00  0.00     0.202 C 
BRANCH   3   4
ATOM      4  C   UNL A   1      31.632  28.342  25.361  1.00  0.00     0.261 C 
BRANCH   4   5
ATOM      5  O   UNL A   1      31.076  27.027  25.198  1.00  0.00    -0.462 OA
BRANCH   5   6
ATOM      6  C   UNL A   1      31.837  26.004  25.685  1.00  0.00     0.329 C 
ATOM      7  O   UNL A   1      32.971  26.135  26.129  1.00  0.00    -0.250 OA
BRANCH   6   8
ATOM      8  C   UNL A   1      31.088  24.667  25.621  1.00  0.00     0.197 C 
ATOM      9  N   UNL A   1      31.674  23.808  24.609  1.00  0.00    -0.311 N 
ATOM     10  C   UNL A   1      32.054  22.571  25.090  1.00  0.00     0.224 C 
ATOM     11  O   UNL A   1      32.660  21.703  24.487  1.00  0.00    -0.275 OA
ATOM     12  C   UNL A   1      31.495  22.426  26.477  1.00  0.00     0.103 C 
ATOM     13  C   UNL A   1      31.213  23.856  26.908  1.00  0.00     0.047 C 
BRANCH   9  14
ATOM     14  C   UNL A   1      31.855  24.213  23.221  1.00  0.00     0.249 C 
BRANCH  14  15
ATOM     15  N   UNL A   1      33.164  24.847  23.016  1.00  0.00    -0.294 N 
BRANCH  15  16
ATOM     16  C   UNL A   1      34.370  24.253  23.563  1.00  0.00     0.046 A 
ATOM     17  C   UNL A   1      36.625  22.930  24.750  1.00  0.00     0.119 A 
ATOM     18  C   UNL A   1      36.178  22.580  23.487  1.00  0.00     0.048 A 
ATOM     19  C   UNL A   1      36.025  24.010  25.377  1.00  0.00     0.048 A 
ATOM     20  C   UNL A   1      35.074  23.231  22.905  1.00  0.00     0.030 A 
ATOM     21  C   UNL A   1      34.942  24.675  24.771  1.00  0.00     0.030 A 
BRANCH  17  22
ATOM     22  O   UNL A   1      37.678  22.210  25.235  1.00  0.00    -0.497 OA
ATOM     23  C   UNL A   1      37.661  20.815  24.952  1.00  0.00     0.278 C 
ENDBRANCH  17  22
ENDBRANCH  15  16
BRANCH  15  24
ATOM     24  C   UNL A   1      33.054  26.045  22.295  1.00  0.00     0.225 C 
ATOM     25  C   UNL A   1      31.706  26.637  21.979  1.00  0.00     0.115 C 
ATOM     26  O   UNL A   1      34.033  26.617  21.802  1.00  0.00    -0.275 OA
ENDBRANCH  15  24
ENDBRANCH  14  15
ENDBRANCH   9  14
ENDBRANCH   6   8
ENDBRANCH   5   6
ENDBRANCH   4   5
ENDBRANCH   3   4
ENDBRANCH   2   3
ENDBRANCH   1   2
BRANCH   1  27
ATOM     27  C   UNL A   1      34.483  31.142  27.992  1.00  0.00     0.188 C 
BRANCH  27  28
ATOM     28  O   UNL A   1      34.580  32.408  27.395  1.00  0.00    -0.376 OA
BRANCH  28  29
ATOM     29  C   UNL A   1      35.262  33.465  28.036  1.00  0.00     0.202 C 
BRANCH  29  30
ATOM     30  C   UNL A   1      35.107  33.896  29.509  1.00  0.00     0.261 C 
BRANCH  30  31
ATOM     31  O   UNL A   1      36.119  33.550  30.456  1.00  0.00    -0.460 OA
BRANCH  31  32
ATOM     32  C   UNL A   1      35.949  32.387  31.135  1.00  0.00     0.338 C 
ATOM     33  O   UNL A   1      34.926  31.994  31.658  1.00  0.00    -0.246 OA
BRANCH  32  34
ATOM     34  C   UNL A   1      37.168  31.558  30.964  1.00  0.00     0.060 A 
ATOM     35  C   UNL A   1      37.279  30.358  31.680  1.00  0.00     0.016 A 
ATOM     36  C   UNL A   1      38.195  31.964  30.110  1.00  0.00     0.016 A 
ATOM     37  C   UNL A   1      38.437  29.580  31.574  1.00  0.00     0.010 A 
ATOM     38  C   UNL A   1      39.361  31.194  30.020  1.00  0.00     0.010 A 
ATOM     39  C   UNL A   1      39.504  30.016  30.777  1.00  0.00    -0.014 A 
BRANCH  39  40
ATOM     40  C   UNL A   1      40.833  29.358  30.872  1.00  0.00     0.031 A 
ATOM     41  C   UNL A   1      41.842  29.914  31.842  1.00  0.00     0.074 A 
ATOM     42  C   UNL A   1      41.161  28.304  30.103  1.00  0.00     0.049 A 
ATOM     43  N   UNL A   1      43.084  29.559  32.050  1.00  0.00    -0.248 NA
ATOM     44  C   UNL A   1      41.385  31.028  32.690  1.00  0.00     0.031 C 
ATOM     45  C   UNL A   1      40.279  27.650  29.140  1.00  0.00     0.029 A 
ATOM     46  N   UNL A   1      42.348  27.617  29.996  1.00  0.00    -0.354 N 
ATOM     47  C   UNL A   1      43.568  30.426  33.022  1.00  0.00     0.074 A 
ATOM     48  C   UNL A   1      42.489  31.330  33.356  1.00  0.00     0.031 C 
ATOM     49  C   UNL A   1      40.962  26.672  28.519  1.00  0.00     0.029 A 
ATOM     50  C   UNL A   1      42.338  26.653  29.015  1.00  0.00     0.049 A 
ATOM     51  H   UNL A   1      43.129  27.798  30.566  1.00  0.00     0.167 HD
ATOM     52  C   UNL A   1      44.795  30.465  33.595  1.00  0.00     0.034 A 
ATOM     53  C   UNL A   1      43.331  25.865  28.553  1.00  0.00     0.034 A 
ATOM     54  C   UNL A   1      45.869  29.567  33.268  1.00  0.00     0.049 A 
ATOM     55  C   UNL A   1      44.705  25.959  29.169  1.00  0.00     0.074 A 
ATOM     56  C   UNL A   1      47.136  29.503  33.823  1.00  0.00     0.029 A 
ATOM     57  N   UNL A   1      45.815  28.592  32.284  1.00  0.00    -0.354 N 
ATOM     58  N   UNL A   1      45.121  26.714  30.156  1.00  0.00    -0.248 NA
ATOM     59  C   UNL A   1      45.741  25.068  28.622  1.00  0.00     0.031 C 
ATOM     60  C   UNL A   1      47.861  28.517  33.144  1.00  0.00     0.029 A 
ATOM     61  C   UNL A   1      47.032  27.934  32.200  1.00  0.00     0.049 A 
ATOM     62  H   UNL A   1      45.028  28.395  31.727  1.00  0.00     0.167 HD
ATOM     63  C   UNL A   1      46.450  26.362  30.377  1.00  0.00     0.074 A 
ATOM     64  C   UNL A   1      46.767  25.316  29.426  1.00  0.00     0.031 C 
ATOM     65  C   UNL A   1      47.329  26.863  31.281  1.00  0.00     0.034 A 
BRANCH  52  66
ATOM     66  C   UNL A   1      45.035  31.525  34.640  1.00  0.00     0.023 A 
ATOM     67  C   UNL A   1      44.669  31.289  35.982  1.00  0.00     0.012 A 
ATOM     68  C   UNL A   1      45.637  32.752  34.297  1.00  0.00     0.148 A 
ATOM     69  C   UNL A   1      44.850  32.274  36.953  1.00  0.00     0.002 A 
ATOM     70  C   UNL A   1      45.861  33.708  35.279  1.00  0.00     0.091 A 
ATOM     71  F   UNL A   1      45.960  32.970  33.014  1.00  0.00    -0.205 F 
ATOM     72  C   UNL A   1      45.452  33.479  36.604  1.00  0.00     0.022 A 
BRANCH  70  73
ATOM     73  S   UNL A   1      46.702  35.259  34.944  1.00  0.00     0.127 S 
ATOM     74  O   UNL A   1      46.596  35.938  36.235  1.00  0.00    -0.237 OA
ATOM     75  O   UNL A   1      48.051  34.810  34.602  1.00  0.00    -0.237 OA
ATOM     76  O   UNL A   1      45.974  35.882  33.847  1.00  0.00    -0.744 OA
ENDBRANCH  70  73
ENDBRANCH  52  66
BRANCH  53  77
ATOM     77  C   UNL A   1      43.056  24.886  27.462  1.00  0.00     0.023 A 
ATOM     78  C   UNL A   1      43.450  25.188  26.144  1.00  0.00     0.012 A 
ATOM     79  C   UNL A   1      42.421  23.656  27.724  1.00  0.00     0.148 A 
ATOM     80  C   UNL A   1      43.197  24.294  25.103  1.00  0.00     0.002 A 
ATOM     81  C   UNL A   1      42.219  22.747  26.691  1.00  0.00     0.091 A 
ATOM     82  F   UNL A   1      42.039  23.395  28.981  1.00  0.00    -0.205 F 
ATOM     83  C   UNL A   1      42.592  23.071  25.377  1.00  0.00     0.022 A 
BRANCH  81  84
ATOM     84  S   UNL A   1      41.545  21.104  26.962  1.00  0.00     0.127 S 
ATOM     85  O   UNL A   1      40.186  21.406  27.406  1.00  0.00    -0.237 OA
ATOM     86  O   UNL A   1      41.641  20.518  25.626  1.00  0.00    -0.237 OA
ATOM     87  O   UNL A   1      42.404  20.481  27.960  1.00  0.00    -0.744 OA
ENDBRANCH  81  84
ENDBRANCH  53  77
BRANCH  65  88
ATOM     88  C   UNL A   1      48.714  26.264  31.331  1.00  0.00     0.023 A 
ATOM     89  C   UNL A   1      49.729  26.753  30.486  1.00  0.00     0.012 A 
ATOM     90  C   UNL A   1      49.028  25.266  32.277  1.00  0.00     0.148 A 
ATOM     91  C   UNL A   1      51.024  26.235  30.556  1.00  0.00     0.002 A 
ATOM     92  C   UNL A   1      50.331  24.793  32.379  1.00  0.00     0.091 A 
ATOM     93  F   UNL A   1      48.048  24.802  33.065  1.00  0.00    -0.205 F 
ATOM     94  C   UNL A   1      51.327  25.266  31.509  1.00  0.00     0.022 A 
BRANCH  92  95
ATOM     95  S   UNL A   1      50.839  23.619  33.641  1.00  0.00     0.127 S 
ATOM     96  O   UNL A   1      50.276  22.370  33.131  1.00  0.00    -0.237 OA
ATOM     97  O   UNL A   1      52.298  23.703  33.571  1.00  0.00    -0.237 OA
ATOM     98  O   UNL A   1      50.265  24.097  34.891  1.00  0.00    -0.744 OA
ENDBRANCH  92  95
ENDBRANCH  65  88
ENDBRANCH  39  40
ENDBRANCH  32  34
ENDBRANCH  31  32
ENDBRANCH  30  31
ENDBRANCH  29  30
ENDBRANCH  28  29
ENDBRANCH  27  28
ENDBRANCH   1  27
TORSDOF 25
ENDMDL
MODEL 3
REMARK VINA RESULT:      -9.0      1.610      7.487
REMARK SMILES COc1ccc(N(CN2C(=O)CC[C@H]2C(=O)OCCOCCOCCOC(=O)c2ccc(-c3c4nc(c(-c5cccc(S(=O)(=O)[O-])c5F)c5ccc([nH]5)c(-c5cccc(S(=O)(=O)[O-])c5F)c5nc(c(-c6cccc(S(=O)(=O)[O-])c6F)c6ccc3[nH]6)C=C5)C=C4)cc2)C(C)=O)cc1
REMARK SMILES IDX 21 1 20 2 19 3 18 4 17 5 15 6 16 7 14 8 9 9 10 10 11 11
REMARK SMILES IDX 12 12 13 13 8 14 7 15 6 16 3 17 4 18 96 19 5 20 95 21 2 22
REMARK SMILES IDX 1 23 92 24 93 25 94 26 22 27 23 28 24 29 25 30 26 31 27 32
REMARK SMILES IDX 28 33 29 34 30 35 91 36 31 37 90 38 32 39 33 40 34 41 84 42
REMARK SMILES IDX 35 43 89 44 83 45 85 46 36 47 88 48 82 49 81 50 37 52 69 53
REMARK SMILES IDX 49 54 68 55 50 56 53 57 67 58 86 59 51 60 52 61 66 63 87 64
REMARK SMILES IDX 54 65 38 66 39 67 47 68 40 69 42 70 48 71 41 72 43 73 44 74
REMARK SMILES IDX 45 75 46 76 70 77 71 78 79 79 72 80 74 81 80 82 73 83 75 84
REMARK SMILES IDX 76 85 77 86 78 87 55 88 56 89 64 90 57 91 59 92 65 93 58 94
REMARK SMILES IDX 60 95 61 96 62 97 63 98
REMARK H PARENT 85 51 53 62
REMARK Flexibility Score: inf
ROOT
ATOM      1  C   UNL A   1      40.889  20.445  27.090  1.00  0.00     0.188 C 
ENDROOT
BRANCH   1   2
ATOM      2  O   UNL A   1      39.814  20.228  26.194  1.00  0.00    -0.376 OA
BRANCH   2   3
ATOM      3  C   UNL A   1      38.922  21.278  25.883  1.00  0.00     0.202 C 
BRANCH   3   4
ATOM      4  C   UNL A   1      37.581  20.978  25.208  1.00  0.00     0.261 C 
BRANCH   4   5
ATOM      5  O   UNL A   1      36.401  21.536  25.810  1.00  0.00    -0.462 OA
BRANCH   5   6
ATOM      6  C   UNL A   1      36.055  22.783  25.375  1.00  0.00     0.329 C 
ATOM      7  O   UNL A   1      36.522  23.825  25.818  1.00  0.00    -0.250 OA
BRANCH   6   8
ATOM      8  C   UNL A   1      35.016  22.717  24.249  1.00  0.00     0.197 C 
ATOM      9  N   UNL A   1      33.802  23.410  24.641  1.00  0.00    -0.311 N 
ATOM     10  C   UNL A   1      33.418  24.392  23.749  1.00  0.00     0.224 C 
ATOM     11  O   UNL A   1      32.506  25.189  23.883  1.00  0.00    -0.275 OA
ATOM     12  C   UNL A   1      34.262  24.247  22.514  1.00  0.00     0.103 C 
ATOM     13  C   UNL A   1      35.465  23.447  22.986  1.00  0.00     0.047 C 
BRANCH   9  14
ATOM     14  C   UNL A   1      33.065  23.109  25.861  1.00  0.00     0.249 C 
BRANCH  14  15
ATOM     15  N   UNL A   1      31.948  22.192  25.596  1.00  0.00    -0.294 N 
BRANCH  15  16
ATOM     16  C   UNL A   1      32.149  20.982  24.823  1.00  0.00     0.046 A 
ATOM     17  C   UNL A   1      32.759  18.650  23.262  1.00  0.00     0.119 A 
ATOM     18  C   UNL A   1      32.860  18.629  24.643  1.00  0.00     0.048 A 
ATOM     19  C   UNL A   1      32.249  19.791  22.664  1.00  0.00     0.048 A 
ATOM     20  C   UNL A   1      32.559  19.771  25.407  1.00  0.00     0.030 A 
ATOM     21  C   UNL A   1      31.920  20.916  23.441  1.00  0.00     0.030 A 
BRANCH  17  22
ATOM     22  O   UNL A   1      33.112  17.500  22.616  1.00  0.00    -0.497 OA
ATOM     23  C   UNL A   1      33.901  16.582  23.366  1.00  0.00     0.278 C 
ENDBRANCH  17  22
ENDBRANCH  15  16
BRANCH  15  24
ATOM     24  C   UNL A   1      30.745  22.668  26.140  1.00  0.00     0.225 C 
ATOM     25  C   UNL A   1      30.614  24.097  26.594  1.00  0.00     0.115 C 
ATOM     26  O   UNL A   1      29.780  21.930  26.365  1.00  0.00    -0.275 OA
ENDBRANCH  15  24
ENDBRANCH  14  15
ENDBRANCH   9  14
ENDBRANCH   6   8
ENDBRANCH   5   6
ENDBRANCH   4   5
ENDBRANCH   3   4
ENDBRANCH   2   3
ENDBRANCH   1   2
BRANCH   1  27
ATOM     27  C   UNL A   1      42.048  21.390  26.705  1.00  0.00     0.188 C 
BRANCH  27  28
ATOM     28  O   UNL A   1      42.813  21.022  25.589  1.00  0.00    -0.376 OA
BRANCH  28  29
ATOM     29  C   UNL A   1      44.186  21.342  25.510  1.00  0.00     0.202 C 
BRANCH  29  30
ATOM     30  C   UNL A   1      44.795  22.619  24.895  1.00  0.00     0.261 C 
BRANCH  30  31
ATOM     31  O   UNL A   1      44.689  23.860  25.595  1.00  0.00    -0.460 OA
BRANCH  31  32
ATOM     32  C   UNL A   1      43.555  24.578  25.398  1.00  0.00     0.338 C 
ATOM     33  O   UNL A   1      42.482  24.153  25.021  1.00  0.00    -0.246 OA
BRANCH  32  34
ATOM     34  C   UNL A   1      43.769  25.951  25.919  1.00  0.00     0.060 A 
ATOM     35  C   UNL A   1      44.531  26.123  27.084  1.00  0.00     0.016 A 
ATOM     36  C   UNL A   1      43.220  27.057  25.269  1.00  0.00     0.016 A 
ATOM     37  C   UNL A   1      44.711  27.401  27.624  1.00  0.00     0.010 A 
ATOM     38  C   UNL A   1      43.384  28.333  25.823  1.00  0.00     0.010 A 
ATOM     39  C   UNL A   1      44.101  28.509  27.021  1.00  0.00    -0.014 A 
BRANCH  39  40
ATOM     40  C   UNL A   1      44.044  29.815  27.728  1.00  0.00     0.031 A 
ATOM     41  C   UNL A   1      45.182  30.784  27.538  1.00  0.00     0.074 A 
ATOM     42  C   UNL A   1      43.024  30.140  28.544  1.00  0.00     0.049 A 
ATOM     43  N   UNL A   1      45.393  31.945  28.103  1.00  0.00    -0.248 NA
ATOM     44  C   UNL A   1      46.228  30.380  26.584  1.00  0.00     0.031 C 
ATOM     45  C   UNL A   1      41.849  29.311  28.801  1.00  0.00     0.029 A 
ATOM     46  N   UNL A   1      42.834  31.252  29.329  1.00  0.00    -0.354 N 
ATOM     47  C   UNL A   1      46.609  32.394  27.602  1.00  0.00     0.074 A 
ATOM     48  C   UNL A   1      47.094  31.375  26.697  1.00  0.00     0.031 C 
ATOM     49  C   UNL A   1      41.071  29.932  29.706  1.00  0.00     0.029 A 
ATOM     50  C   UNL A   1      41.708  31.183  30.116  1.00  0.00     0.049 A 
ATOM     51  H   UNL A   1      43.445  32.024  29.328  1.00  0.00     0.167 HD
ATOM     52  C   UNL A   1      47.263  33.552  27.862  1.00  0.00     0.034 A 
ATOM     53  C   UNL A   1      41.258  32.019  31.075  1.00  0.00     0.034 A 
ATOM     54  C   UNL A   1      46.783  34.568  28.759  1.00  0.00     0.049 A 
ATOM     55  C   UNL A   1      42.027  33.279  31.386  1.00  0.00     0.074 A 
ATOM     56  C   UNL A   1      47.355  35.793  29.057  1.00  0.00     0.029 A 
ATOM     57  N   UNL A   1      45.630  34.471  29.522  1.00  0.00    -0.354 N 
ATOM     58  N   UNL A   1      43.123  33.739  30.833  1.00  0.00    -0.248 NA
ATOM     59  C   UNL A   1      41.479  34.149  32.439  1.00  0.00     0.031 C 
ATOM     60  C   UNL A   1      46.570  36.416  30.033  1.00  0.00     0.029 A 
ATOM     61  C   UNL A   1      45.482  35.603  30.307  1.00  0.00     0.049 A 
ATOM     62  H   UNL A   1      45.006  33.709  29.508  1.00  0.00     0.167 HD
ATOM     63  C   UNL A   1      43.373  34.968  31.438  1.00  0.00     0.074 A 
ATOM     64  C   UNL A   1      42.306  35.186  32.393  1.00  0.00     0.031 C 
ATOM     65  C   UNL A   1      44.395  35.835  31.226  1.00  0.00     0.034 A 
BRANCH  52  66
ATOM     66  C   UNL A   1      48.578  33.774  27.159  1.00  0.00     0.023 A 
ATOM     67  C   UNL A   1      48.612  34.461  25.927  1.00  0.00     0.012 A 
ATOM     68  C   UNL A   1      49.784  33.316  27.725  1.00  0.00     0.148 A 
ATOM     69  C   UNL A   1      49.816  34.642  25.246  1.00  0.00     0.002 A 
ATOM     70  C   UNL A   1      50.985  33.545  27.065  1.00  0.00     0.091 A 
ATOM     71  F   UNL A   1      49.733  32.647  28.885  1.00  0.00    -0.205 F 
ATOM     72  C   UNL A   1      51.002  34.191  25.818  1.00  0.00     0.022 A 
BRANCH  70  73
ATOM     73  S   UNL A   1      52.573  33.073  27.759  1.00  0.00     0.127 S 
ATOM     74  O   UNL A   1      52.697  34.009  28.876  1.00  0.00    -0.237 OA
ATOM     75  O   UNL A   1      52.337  31.684  28.152  1.00  0.00    -0.237 OA
ATOM     76  O   UNL A   1      53.545  33.243  26.687  1.00  0.00    -0.744 OA
ENDBRANCH  70  73
ENDBRANCH  52  66
BRANCH  53  77
ATOM     77  C   UNL A   1      39.989  31.710  31.794  1.00  0.00     0.023 A 
ATOM     78  C   UNL A   1      40.025  30.905  32.949  1.00  0.00     0.012 A 
ATOM     79  C   UNL A   1      38.752  32.218  31.351  1.00  0.00     0.148 A 
ATOM     80  C   UNL A   1      38.852  30.592  33.636  1.00  0.00     0.002 A 
ATOM     81  C   UNL A   1      37.594  31.946  32.070  1.00  0.00     0.091 A 
ATOM     82  F   UNL A   1      38.737  32.969  30.241  1.00  0.00    -0.205 F 
ATOM     83  C   UNL A   1      37.639  31.120  33.204  1.00  0.00     0.022 A 
BRANCH  81  84
ATOM     84  S   UNL A   1      36.001  32.668  31.654  1.00  0.00     0.127 S 
ATOM     85  O   UNL A   1      36.337  34.085  31.528  1.00  0.00    -0.237 OA
ATOM     86  O   UNL A   1      35.688  31.995  30.394  1.00  0.00    -0.237 OA
ATOM     87  O   UNL A   1      35.112  32.332  32.758  1.00  0.00    -0.744 OA
ENDBRANCH  81  84
ENDBRANCH  53  77
BRANCH  65  88
ATOM     88  C   UNL A   1      44.400  37.130  32.001  1.00  0.00     0.023 A 
ATOM     89  C   UNL A   1      44.908  37.169  33.314  1.00  0.00     0.012 A 
ATOM     90  C   UNL A   1      43.972  38.329  31.394  1.00  0.00     0.148 A 
ATOM     91  C   UNL A   1      44.958  38.370  34.023  1.00  0.00     0.002 A 
ATOM     92  C   UNL A   1      44.073  39.531  32.086  1.00  0.00     0.091 A 
ATOM     93  F   UNL A   1      43.477  38.274  30.149  1.00  0.00    -0.205 F 
ATOM     94  C   UNL A   1      44.552  39.551  33.405  1.00  0.00     0.022 A 
BRANCH  92  95
ATOM     95  S   UNL A   1      43.670  41.114  31.339  1.00  0.00     0.127 S 
ATOM     96  O   UNL A   1      44.530  41.115  30.156  1.00  0.00    -0.237 OA
ATOM     97  O   UNL A   1      42.243  40.967  31.053  1.00  0.00    -0.237 OA
ATOM     98  O   UNL A   1      43.986  42.125  32.339  1.00  0.00    -0.744 OA
ENDBRANCH  92  95
ENDBRANCH  65  88
ENDBRANCH  39  40
ENDBRANCH  32  34
ENDBRANCH  31  32
ENDBRANCH  30  31
ENDBRANCH  29  30
ENDBRANCH  28  29
ENDBRANCH  27  28
ENDBRANCH   1  27
TORSDOF 25
ENDMDL
