MODEL 1
REMARK VINA RESULT:      -7.0      0.000      0.000
REMARK SMILES CC(=O)N[C@H](C(=O)NC1(CC(=O)OCCOCCOCCOC(=O)c2ccc(-c3c4nc(c(-c5cccc(S(=O)(=O)[O-])c5F)c5ccc([nH]5)c(-c5cccc(S(=O)(=O)[O-])c5F)c5nc(c(-c6cccc(S(=O)(=O)[O-])c6F)c6ccc3[nH]6)C=C5)C=C4)cc2)CCC1)C(C)C
REMARK SMILES IDX 17 1 16 2 15 3 14 4 13 5 11 6 12 7 10 8 9 9 88 10 90 11
REMARK SMILES IDX 89 12 8 13 6 14 7 15 5 17 4 18 1 19 2 20 3 21 91 23 92 24
REMARK SMILES IDX 93 25 18 26 19 27 20 28 21 29 22 30 23 31 24 32 25 33 26 34
REMARK SMILES IDX 87 35 27 36 86 37 28 38 29 39 30 40 80 41 31 42 85 43 79 44
REMARK SMILES IDX 81 45 32 46 84 47 78 48 77 49 33 51 65 52 45 53 64 54 46 55
REMARK SMILES IDX 49 56 63 57 82 58 47 59 48 60 62 62 83 63 50 64 34 65 35 66
REMARK SMILES IDX 43 67 36 68 38 69 44 70 37 71 39 72 40 73 41 74 42 75 66 76
REMARK SMILES IDX 67 77 75 78 68 79 70 80 76 81 69 82 71 83 72 84 73 85 74 86
REMARK SMILES IDX 51 87 52 88 60 89 53 90 55 91 61 92 54 93 56 94 57 95 58 96
REMARK SMILES IDX 59 97
REMARK H PARENT 8 16 4 22 81 50 49 61
REMARK Flexibility Score: inf
ROOT
ATOM      1  C   UNL A   1      37.933  33.547  29.495  1.00  0.00     0.188 C 
ENDROOT
BRANCH   1   2
ATOM      2  O   UNL A   1      38.679  34.348  30.393  1.00  0.00    -0.376 OA
BRANCH   2   3
ATOM      3  C   UNL A   1      39.617  33.630  31.171  1.00  0.00     0.202 C 
BRANCH   3   4
ATOM      4  C   UNL A   1      40.256  34.343  32.435  1.00  0.00     0.261 C 
BRANCH   4   5
ATOM      5  O   UNL A   1      41.414  33.627  33.209  1.00  0.00    -0.463 OA
BRANCH   5   6
ATOM      6  C   UNL A   1      42.439  33.651  34.183  1.00  0.00     0.308 C 
ATOM      7  O   UNL A   1      43.437  32.958  34.331  1.00  0.00    -0.252 OA
BRANCH   6   8
ATOM      8  C   UNL A   1      42.298  34.803  35.147  1.00  0.00     0.151 C 
BRANCH   8   9
ATOM      9  C   UNL A   1      43.437  35.705  34.846  1.00  0.00     0.051 C 
ATOM     10  C   UNL A   1      44.768  35.628  35.690  1.00  0.00     0.029 C 
ATOM     11  C   UNL A   1      43.253  37.070  35.672  1.00  0.00     0.029 C 
ATOM     12  C   UNL A   1      44.008  36.387  36.820  1.00  0.00     0.005 C 
BRANCH   9  13
ATOM     13  N   UNL A   1      43.550  35.633  33.328  1.00  0.00    -0.348 N 
ATOM     14  C   UNL A   1      43.633  36.594  32.298  1.00  0.00     0.243 C 
ATOM     15  O   UNL A   1      43.305  36.068  31.205  1.00  0.00    -0.273 OA
ATOM     16  H   UNL A   1      43.570  34.709  32.989  1.00  0.00     0.164 HD
BRANCH  14  17
ATOM     17  C   UNL A   1      44.086  38.333  32.128  1.00  0.00     0.173 C 
BRANCH  17  18
ATOM     18  N   UNL A   1      45.543  38.184  32.425  1.00  0.00    -0.344 N 
ATOM     19  C   UNL A   1      45.961  39.321  34.590  1.00  0.00     0.114 C 
ATOM     20  C   UNL A   1      46.422  38.643  33.341  1.00  0.00     0.217 C 
ATOM     21  O   UNL A   1      47.624  38.468  33.140  1.00  0.00    -0.275 OA
ATOM     22  H   UNL A   1      45.982  37.589  31.774  1.00  0.00     0.164 HD
ENDBRANCH  17  18
BRANCH  17  23
ATOM     23  C   UNL A   1      43.686  39.885  31.479  1.00  0.00     0.015 C 
ATOM     24  C   UNL A   1      44.313  41.372  31.474  1.00  0.00     0.010 C 
ATOM     25  C   UNL A   1      43.371  39.755  29.964  1.00  0.00     0.010 C 
ENDBRANCH  17  23
ENDBRANCH  14  17
ENDBRANCH   9  13
ENDBRANCH   8   9
ENDBRANCH   6   8
ENDBRANCH   5   6
ENDBRANCH   4   5
ENDBRANCH   3   4
ENDBRANCH   2   3
ENDBRANCH   1   2
BRANCH   1  26
ATOM     26  C   UNL A   1      36.644  34.260  29.123  1.00  0.00     0.188 C 
BRANCH  26  27
ATOM     27  O   UNL A   1      35.396  33.575  29.051  1.00  0.00    -0.376 OA
BRANCH  27  28
ATOM     28  C   UNL A   1      34.281  34.229  28.472  1.00  0.00     0.202 C 
BRANCH  28  29
ATOM     29  C   UNL A   1      33.148  34.585  29.436  1.00  0.00     0.261 C 
BRANCH  29  30
ATOM     30  O   UNL A   1      33.381  35.770  30.210  1.00  0.00    -0.460 OA
BRANCH  30  31
ATOM     31  C   UNL A   1      33.022  35.729  31.515  1.00  0.00     0.338 C 
ATOM     32  O   UNL A   1      31.937  36.061  31.994  1.00  0.00    -0.246 OA
BRANCH  31  33
ATOM     33  C   UNL A   1      34.066  35.004  32.272  1.00  0.00     0.060 A 
ATOM     34  C   UNL A   1      35.380  35.508  32.314  1.00  0.00     0.016 A 
ATOM     35  C   UNL A   1      33.741  33.843  32.973  1.00  0.00     0.016 A 
ATOM     36  C   UNL A   1      36.369  34.851  33.048  1.00  0.00     0.010 A 
ATOM     37  C   UNL A   1      34.739  33.159  33.665  1.00  0.00     0.010 A 
ATOM     38  C   UNL A   1      36.062  33.641  33.676  1.00  0.00    -0.014 A 
BRANCH  38  39
ATOM     39  C   UNL A   1      37.139  32.711  34.081  1.00  0.00     0.031 A 
ATOM     40  C   UNL A   1      37.900  33.059  35.329  1.00  0.00     0.074 A 
ATOM     41  C   UNL A   1      37.492  31.651  33.333  1.00  0.00     0.049 A 
ATOM     42  N   UNL A   1      39.017  32.566  35.787  1.00  0.00    -0.248 NA
ATOM     43  C   UNL A   1      37.324  34.128  36.166  1.00  0.00     0.031 C 
ATOM     44  C   UNL A   1      36.801  31.188  32.132  1.00  0.00     0.029 A 
ATOM     45  N   UNL A   1      38.563  30.801  33.460  1.00  0.00    -0.354 N 
ATOM     46  C   UNL A   1      39.307  33.299  36.930  1.00  0.00     0.074 A 
ATOM     47  C   UNL A   1      38.244  34.262  37.107  1.00  0.00     0.031 C 
ATOM     48  C   UNL A   1      37.497  30.167  31.599  1.00  0.00     0.029 A 
ATOM     49  C   UNL A   1      38.704  29.941  32.395  1.00  0.00     0.049 A 
ATOM     50  H   UNL A   1      39.169  30.806  34.235  1.00  0.00     0.167 HD
ATOM     51  C   UNL A   1      40.371  33.187  37.757  1.00  0.00     0.034 A 
ATOM     52  C   UNL A   1      39.717  29.108  32.078  1.00  0.00     0.034 A 
ATOM     53  C   UNL A   1      41.422  32.228  37.576  1.00  0.00     0.049 A 
ATOM     54  C   UNL A   1      40.918  29.031  32.992  1.00  0.00     0.074 A 
ATOM     55  C   UNL A   1      42.533  32.011  38.369  1.00  0.00     0.029 A 
ATOM     56  N   UNL A   1      41.500  31.337  36.517  1.00  0.00    -0.354 N 
ATOM     57  N   UNL A   1      41.150  29.676  34.110  1.00  0.00    -0.248 NA
ATOM     58  C   UNL A   1      41.989  28.098  32.609  1.00  0.00     0.031 C 
ATOM     59  C   UNL A   1      43.303  31.010  37.769  1.00  0.00     0.029 A 
ATOM     60  C   UNL A   1      42.645  30.573  36.630  1.00  0.00     0.049 A 
ATOM     61  H   UNL A   1      40.837  31.260  35.792  1.00  0.00     0.167 HD
ATOM     62  C   UNL A   1      42.363  29.191  34.589  1.00  0.00     0.074 A 
ATOM     63  C   UNL A   1      42.819  28.197  33.641  1.00  0.00     0.031 C 
ATOM     64  C   UNL A   1      43.044  29.538  35.710  1.00  0.00     0.034 A 
BRANCH  51  65
ATOM     65  C   UNL A   1      40.449  34.134  38.923  1.00  0.00     0.023 A 
ATOM     66  C   UNL A   1      41.353  35.214  38.894  1.00  0.00     0.012 A 
ATOM     67  C   UNL A   1      39.601  33.969  40.035  1.00  0.00     0.148 A 
ATOM     68  C   UNL A   1      41.436  36.098  39.969  1.00  0.00     0.002 A 
ATOM     69  C   UNL A   1      39.654  34.882  41.081  1.00  0.00     0.091 A 
ATOM     70  F   UNL A   1      38.769  32.918  40.055  1.00  0.00    -0.205 F 
ATOM     71  C   UNL A   1      40.579  35.939  41.056  1.00  0.00     0.022 A 
BRANCH  69  72
ATOM     72  S   UNL A   1      38.540  34.809  42.486  1.00  0.00     0.127 S 
ATOM     73  O   UNL A   1      37.235  34.762  41.827  1.00  0.00    -0.237 OA
ATOM     74  O   UNL A   1      38.942  33.558  43.130  1.00  0.00    -0.237 OA
ATOM     75  O   UNL A   1      38.799  36.008  43.270  1.00  0.00    -0.744 OA
ENDBRANCH  69  72
ENDBRANCH  51  65
BRANCH  52  76
ATOM     76  C   UNL A   1      39.650  28.277  30.843  1.00  0.00     0.023 A 
ATOM     77  C   UNL A   1      38.933  27.064  30.861  1.00  0.00     0.012 A 
ATOM     78  C   UNL A   1      40.293  28.674  29.654  1.00  0.00     0.148 A 
ATOM     79  C   UNL A   1      38.884  26.248  29.729  1.00  0.00     0.002 A 
ATOM     80  C   UNL A   1      40.195  27.884  28.514  1.00  0.00     0.091 A 
ATOM     81  F   UNL A   1      40.986  29.821  29.661  1.00  0.00    -0.205 F 
ATOM     82  C   UNL A   1      39.506  26.662  28.555  1.00  0.00     0.022 A 
BRANCH  80  83
ATOM     83  S   UNL A   1      40.872  28.385  26.927  1.00  0.00     0.127 S 
ATOM     84  O   UNL A   1      40.844  27.130  26.180  1.00  0.00    -0.237 OA
ATOM     85  O   UNL A   1      39.899  29.385  26.489  1.00  0.00    -0.237 OA
ATOM     86  O   UNL A   1      42.198  28.918  27.214  1.00  0.00    -0.744 OA
ENDBRANCH  80  83
ENDBRANCH  52  76
BRANCH  64  87
ATOM     87  C   UNL A   1      44.313  28.796  36.036  1.00  0.00     0.023 A 
ATOM     88  C   UNL A   1      45.566  29.360  35.728  1.00  0.00     0.012 A 
ATOM     89  C   UNL A   1      44.255  27.594  36.770  1.00  0.00     0.148 A 
ATOM     90  C   UNL A   1      46.742  28.728  36.130  1.00  0.00     0.002 A 
ATOM     91  C   UNL A   1      45.429  26.998  37.213  1.00  0.00     0.091 A 
ATOM     92  F   UNL A   1      43.051  27.070  37.040  1.00  0.00    -0.205 F 
ATOM     93  C   UNL A   1      46.673  27.558  36.884  1.00  0.00     0.022 A 
BRANCH  91  94
ATOM     94  S   UNL A   1      45.434  25.552  38.280  1.00  0.00     0.127 S 
ATOM     95  O   UNL A   1      45.752  26.142  39.578  1.00  0.00    -0.237 OA
ATOM     96  O   UNL A   1      44.059  25.069  38.148  1.00  0.00    -0.237 OA
ATOM     97  O   UNL A   1      46.447  24.655  37.741  1.00  0.00    -0.744 OA
ENDBRANCH  91  94
ENDBRANCH  64  87
ENDBRANCH  38  39
ENDBRANCH  31  33
ENDBRANCH  30  31
ENDBRANCH  29  30
ENDBRANCH  28  29
ENDBRANCH  27  28
ENDBRANCH  26  27
ENDBRANCH   1  26
TORSDOF 25
ENDMDL
MODEL 2
REMARK VINA RESULT:      -6.9      5.232     10.251
REMARK SMILES CC(=O)N[C@H](C(=O)NC1(CC(=O)OCCOCCOCCOC(=O)c2ccc(-c3c4nc(c(-c5cccc(S(=O)(=O)[O-])c5F)c5ccc([nH]5)c(-c5cccc(S(=O)(=O)[O-])c5F)c5nc(c(-c6cccc(S(=O)(=O)[O-])c6F)c6ccc3[nH]6)C=C5)C=C4)cc2)CCC1)C(C)C
REMARK SMILES IDX 17 1 16 2 15 3 14 4 13 5 11 6 12 7 10 8 9 9 88 10 90 11
REMARK SMILES IDX 89 12 8 13 6 14 7 15 5 17 4 18 1 19 2 20 3 21 91 23 92 24
REMARK SMILES IDX 93 25 18 26 19 27 20 28 21 29 22 30 23 31 24 32 25 33 26 34
REMARK SMILES IDX 87 35 27 36 86 37 28 38 29 39 30 40 80 41 31 42 85 43 79 44
REMARK SMILES IDX 81 45 32 46 84 47 78 48 77 49 33 51 65 52 45 53 64 54 46 55
REMARK SMILES IDX 49 56 63 57 82 58 47 59 48 60 62 62 83 63 50 64 34 65 35 66
REMARK SMILES IDX 43 67 36 68 38 69 44 70 37 71 39 72 40 73 41 74 42 75 66 76
REMARK SMILES IDX 67 77 75 78 68 79 70 80 76 81 69 82 71 83 72 84 73 85 74 86
REMARK SMILES IDX 51 87 52 88 60 89 53 90 55 91 61 92 54 93 56 94 57 95 58 96
REMARK SMILES IDX 59 97
REMARK H PARENT 8 16 4 22 81 50 49 61
REMARK Flexibility Score: inf
ROOT
ATOM      1  C   UNL A   1      38.858  30.423  35.153  1.00  0.00     0.188 C 
ENDROOT
BRANCH   1   2
ATOM      2  O   UNL A   1      37.901  29.706  34.394  1.00  0.00    -0.376 OA
BRANCH   2   3
ATOM      3  C   UNL A   1      38.151  29.700  33.002  1.00  0.00     0.202 C 
BRANCH   3   4
ATOM      4  C   UNL A   1      38.749  28.385  32.347  1.00  0.00     0.261 C 
BRANCH   4   5
ATOM      5  O   UNL A   1      39.220  28.425  30.853  1.00  0.00    -0.463 OA
BRANCH   5   6
ATOM      6  C   UNL A   1      39.080  28.913  29.534  1.00  0.00     0.308 C 
ATOM      7  O   UNL A   1      38.097  29.053  28.818  1.00  0.00    -0.252 OA
BRANCH   6   8
ATOM      8  C   UNL A   1      40.378  29.426  28.963  1.00  0.00     0.151 C 
BRANCH   8   9
ATOM      9  C   UNL A   1      40.908  28.315  28.134  1.00  0.00     0.051 C 
ATOM     10  C   UNL A   1      42.462  28.130  27.936  1.00  0.00     0.029 C 
ATOM     11  C   UNL A   1      40.993  28.799  26.606  1.00  0.00     0.029 C 
ATOM     12  C   UNL A   1      42.400  29.319  26.930  1.00  0.00     0.005 C 
BRANCH   9  13
ATOM     13  N   UNL A   1      40.101  27.111  28.606  1.00  0.00    -0.348 N 
ATOM     14  C   UNL A   1      40.175  25.721  28.373  1.00  0.00     0.243 C 
ATOM     15  O   UNL A   1      39.070  25.190  28.646  1.00  0.00    -0.273 OA
ATOM     16  H   UNL A   1      39.363  27.358  29.209  1.00  0.00     0.164 HD
BRANCH  14  17
ATOM     17  C   UNL A   1      41.405  24.525  27.814  1.00  0.00     0.173 C 
BRANCH  17  18
ATOM     18  N   UNL A   1      41.591  25.068  26.434  1.00  0.00    -0.344 N 
ATOM     19  C   UNL A   1      44.031  25.364  26.094  1.00  0.00     0.114 C 
ATOM     20  C   UNL A   1      42.606  25.546  25.683  1.00  0.00     0.217 C 
ATOM     21  O   UNL A   1      42.336  26.117  24.626  1.00  0.00    -0.275 OA
ATOM     22  H   UNL A   1      40.741  25.081  25.937  1.00  0.00     0.164 HD
ENDBRANCH  17  18
BRANCH  17  23
ATOM     23  C   UNL A   1      42.611  23.365  28.248  1.00  0.00     0.015 C 
ATOM     24  C   UNL A   1      43.573  23.060  29.508  1.00  0.00     0.010 C 
ATOM     25  C   UNL A   1      42.067  21.930  28.013  1.00  0.00     0.010 C 
ENDBRANCH  17  23
ENDBRANCH  14  17
ENDBRANCH   9  13
ENDBRANCH   8   9
ENDBRANCH   6   8
ENDBRANCH   5   6
ENDBRANCH   4   5
ENDBRANCH   3   4
ENDBRANCH   2   3
ENDBRANCH   1   2
BRANCH   1  26
ATOM     26  C   UNL A   1      38.149  31.295  36.176  1.00  0.00     0.188 C 
BRANCH  26  27
ATOM     27  O   UNL A   1      38.787  31.719  37.378  1.00  0.00    -0.376 OA
BRANCH  27  28
ATOM     28  C   UNL A   1      38.378  32.930  37.988  1.00  0.00     0.202 C 
BRANCH  28  29
ATOM     29  C   UNL A   1      38.254  34.133  37.052  1.00  0.00     0.261 C 
BRANCH  29  30
ATOM     30  O   UNL A   1      39.481  34.845  36.837  1.00  0.00    -0.460 OA
BRANCH  30  31
ATOM     31  C   UNL A   1      39.725  35.278  35.577  1.00  0.00     0.338 C 
ATOM     32  O   UNL A   1      39.661  36.438  35.169  1.00  0.00    -0.246 OA
BRANCH  31  33
ATOM     33  C   UNL A   1      40.306  34.164  34.797  1.00  0.00     0.060 A 
ATOM     34  C   UNL A   1      41.504  33.559  35.224  1.00  0.00     0.016 A 
ATOM     35  C   UNL A   1      39.650  33.690  33.661  1.00  0.00     0.016 A 
ATOM     36  C   UNL A   1      42.049  32.487  34.515  1.00  0.00     0.010 A 
ATOM     37  C   UNL A   1      40.221  32.652  32.924  1.00  0.00     0.010 A 
ATOM     38  C   UNL A   1      41.438  32.072  33.329  1.00  0.00    -0.014 A 
BRANCH  38  39
ATOM     39  C   UNL A   1      42.187  31.266  32.340  1.00  0.00     0.031 A 
ATOM     40  C   UNL A   1      42.587  29.880  32.761  1.00  0.00     0.074 A 
ATOM     41  C   UNL A   1      42.578  31.765  31.154  1.00  0.00     0.049 A 
ATOM     42  N   UNL A   1      43.427  29.052  32.204  1.00  0.00    -0.248 NA
ATOM     43  C   UNL A   1      41.962  29.367  33.993  1.00  0.00     0.031 C 
ATOM     44  C   UNL A   1      42.212  33.074  30.619  1.00  0.00     0.029 A 
ATOM     45  N   UNL A   1      43.417  31.231  30.207  1.00  0.00    -0.354 N 
ATOM     46  C   UNL A   1      43.474  27.947  33.045  1.00  0.00     0.074 A 
ATOM     47  C   UNL A   1      42.570  28.202  34.143  1.00  0.00     0.031 C 
ATOM     48  C   UNL A   1      42.868  33.266  29.460  1.00  0.00     0.029 A 
ATOM     49  C   UNL A   1      43.733  32.115  29.201  1.00  0.00     0.049 A 
ATOM     50  H   UNL A   1      43.759  30.309  30.245  1.00  0.00     0.167 HD
ATOM     51  C   UNL A   1      44.212  26.822  32.919  1.00  0.00     0.034 A 
ATOM     52  C   UNL A   1      44.652  32.019  28.218  1.00  0.00     0.034 A 
ATOM     53  C   UNL A   1      45.108  26.575  31.826  1.00  0.00     0.049 A 
ATOM     54  C   UNL A   1      45.500  30.773  28.122  1.00  0.00     0.074 A 
ATOM     55  C   UNL A   1      45.885  25.458  31.587  1.00  0.00     0.029 A 
ATOM     56  N   UNL A   1      45.358  27.470  30.798  1.00  0.00    -0.354 N 
ATOM     57  N   UNL A   1      45.486  29.702  28.880  1.00  0.00    -0.248 NA
ATOM     58  C   UNL A   1      46.478  30.712  27.024  1.00  0.00     0.031 C 
ATOM     59  C   UNL A   1      46.633  25.692  30.430  1.00  0.00     0.029 A 
ATOM     60  C   UNL A   1      46.284  26.934  29.924  1.00  0.00     0.049 A 
ATOM     61  H   UNL A   1      44.937  28.356  30.703  1.00  0.00     0.167 HD
ATOM     62  C   UNL A   1      46.411  28.824  28.323  1.00  0.00     0.074 A 
ATOM     63  C   UNL A   1      46.968  29.486  27.162  1.00  0.00     0.031 C 
ATOM     64  C   UNL A   1      46.773  27.584  28.735  1.00  0.00     0.034 A 
BRANCH  51  65
ATOM     65  C   UNL A   1      44.086  25.782  33.999  1.00  0.00     0.023 A 
ATOM     66  C   UNL A   1      43.166  24.724  33.856  1.00  0.00     0.012 A 
ATOM     67  C   UNL A   1      44.907  25.837  35.142  1.00  0.00     0.148 A 
ATOM     68  C   UNL A   1      43.040  23.756  34.850  1.00  0.00     0.002 A 
ATOM     69  C   UNL A   1      44.811  24.841  36.105  1.00  0.00     0.091 A 
ATOM     70  F   UNL A   1      45.755  26.867  35.272  1.00  0.00    -0.205 F 
ATOM     71  C   UNL A   1      43.869  23.807  35.968  1.00  0.00     0.022 A 
BRANCH  69  72
ATOM     72  S   UNL A   1      45.887  24.776  37.540  1.00  0.00     0.127 S 
ATOM     73  O   UNL A   1      45.513  23.491  38.132  1.00  0.00    -0.237 OA
ATOM     74  O   UNL A   1      47.215  24.800  36.927  1.00  0.00    -0.237 OA
ATOM     75  O   UNL A   1      45.564  25.947  38.342  1.00  0.00    -0.744 OA
ENDBRANCH  69  72
ENDBRANCH  51  65
BRANCH  52  76
ATOM     76  C   UNL A   1      44.827  33.132  27.241  1.00  0.00     0.023 A 
ATOM     77  C   UNL A   1      44.151  33.084  26.006  1.00  0.00     0.012 A 
ATOM     78  C   UNL A   1      45.661  34.232  27.522  1.00  0.00     0.148 A 
ATOM     79  C   UNL A   1      44.325  34.094  25.058  1.00  0.00     0.002 A 
ATOM     80  C   UNL A   1      45.788  35.262  26.596  1.00  0.00     0.091 A 
ATOM     81  F   UNL A   1      46.311  34.251  28.694  1.00  0.00    -0.205 F 
ATOM     82  C   UNL A   1      45.135  35.186  25.357  1.00  0.00     0.022 A 
BRANCH  80  83
ATOM     83  S   UNL A   1      46.723  36.758  26.935  1.00  0.00     0.127 S 
ATOM     84  O   UNL A   1      45.840  37.459  27.864  1.00  0.00    -0.237 OA
ATOM     85  O   UNL A   1      47.944  36.220  27.533  1.00  0.00    -0.237 OA
ATOM     86  O   UNL A   1      46.916  37.404  25.643  1.00  0.00    -0.744 OA
ENDBRANCH  80  83
ENDBRANCH  52  76
BRANCH  64  87
ATOM     87  C   UNL A   1      47.757  26.809  27.898  1.00  0.00     0.023 A 
ATOM     88  C   UNL A   1      47.316  26.072  26.782  1.00  0.00     0.012 A 
ATOM     89  C   UNL A   1      49.139  26.925  28.150  1.00  0.00     0.148 A 
ATOM     90  C   UNL A   1      48.237  25.447  25.941  1.00  0.00     0.002 A 
ATOM     91  C   UNL A   1      50.051  26.345  27.279  1.00  0.00     0.091 A 
ATOM     92  F   UNL A   1      49.533  27.622  29.226  1.00  0.00    -0.205 F 
ATOM     93  C   UNL A   1      49.601  25.596  26.180  1.00  0.00     0.022 A 
BRANCH  91  94
ATOM     94  S   UNL A   1      51.825  26.576  27.445  1.00  0.00     0.127 S 
ATOM     95  O   UNL A   1      52.344  25.572  26.519  1.00  0.00    -0.237 OA
ATOM     96  O   UNL A   1      51.997  27.961  27.004  1.00  0.00    -0.237 OA
ATOM     97  O   UNL A   1      52.134  26.344  28.849  1.00  0.00    -0.744 OA
ENDBRANCH  91  94
ENDBRANCH  64  87
ENDBRANCH  38  39
ENDBRANCH  31  33
ENDBRANCH  30  31
ENDBRANCH  29  30
ENDBRANCH  28  29
ENDBRANCH  27  28
ENDBRANCH  26  27
ENDBRANCH   1  26
TORSDOF 25
ENDMDL
MODEL 3
REMARK VINA RESULT:      -6.7      4.851     12.041
REMARK SMILES CC(=O)N[C@H](C(=O)NC1(CC(=O)OCCOCCOCCOC(=O)c2ccc(-c3c4nc(c(-c5cccc(S(=O)(=O)[O-])c5F)c5ccc([nH]5)c(-c5cccc(S(=O)(=O)[O-])c5F)c5nc(c(-c6cccc(S(=O)(=O)[O-])c6F)c6ccc3[nH]6)C=C5)C=C4)cc2)CCC1)C(C)C
REMARK SMILES IDX 17 1 16 2 15 3 14 4 13 5 11 6 12 7 10 8 9 9 88 10 90 11
REMARK SMILES IDX 89 12 8 13 6 14 7 15 5 17 4 18 1 19 2 20 3 21 91 23 92 24
REMARK SMILES IDX 93 25 18 26 19 27 20 28 21 29 22 30 23 31 24 32 25 33 26 34
REMARK SMILES IDX 87 35 27 36 86 37 28 38 29 39 30 40 80 41 31 42 85 43 79 44
REMARK SMILES IDX 81 45 32 46 84 47 78 48 77 49 33 51 65 52 45 53 64 54 46 55
REMARK SMILES IDX 49 56 63 57 82 58 47 59 48 60 62 62 83 63 50 64 34 65 35 66
REMARK SMILES IDX 43 67 36 68 38 69 44 70 37 71 39 72 40 73 41 74 42 75 66 76
REMARK SMILES IDX 67 77 75 78 68 79 70 80 76 81 69 82 71 83 72 84 73 85 74 86
REMARK SMILES IDX 51 87 52 88 60 89 53 90 55 91 61 92 54 93 56 94 57 95 58 96
REMARK SMILES IDX 59 97
REMARK H PARENT 8 16 4 22 81 50 49 61
REMARK Flexibility Score: inf
ROOT
ATOM      1  C   UNL A   1      49.342  21.213  35.594  1.00  0.00     0.188 C 
ENDROOT
BRANCH   1   2
ATOM      2  O   UNL A   1      48.195  21.418  36.399  1.00  0.00    -0.376 OA
BRANCH   2   3
ATOM      3  C   UNL A   1      47.753  20.261  37.083  1.00  0.00     0.202 C 
BRANCH   3   4
ATOM      4  C   UNL A   1      46.409  20.346  37.921  1.00  0.00     0.261 C 
BRANCH   4   5
ATOM      5  O   UNL A   1      45.766  21.749  38.188  1.00  0.00    -0.463 OA
BRANCH   5   6
ATOM      6  C   UNL A   1      45.741  22.975  38.892  1.00  0.00     0.308 C 
ATOM      7  O   UNL A   1      46.227  23.306  39.966  1.00  0.00    -0.252 OA
BRANCH   6   8
ATOM      8  C   UNL A   1      45.063  24.077  38.117  1.00  0.00     0.151 C 
BRANCH   8   9
ATOM      9  C   UNL A   1      45.964  24.360  36.972  1.00  0.00     0.051 C 
ATOM     10  C   UNL A   1      45.771  25.662  36.100  1.00  0.00     0.029 C 
ATOM     11  C   UNL A   1      45.371  23.657  35.655  1.00  0.00     0.029 C 
ATOM     12  C   UNL A   1      44.564  24.941  35.426  1.00  0.00     0.005 C 
BRANCH   9  13
ATOM     13  N   UNL A   1      47.351  24.082  37.540  1.00  0.00    -0.348 N 
ATOM     14  C   UNL A   1      48.549  24.821  37.623  1.00  0.00     0.243 C 
ATOM     15  O   UNL A   1      49.514  24.038  37.805  1.00  0.00    -0.273 OA
ATOM     16  H   UNL A   1      47.427  23.185  37.938  1.00  0.00     0.164 HD
BRANCH  14  17
ATOM     17  C   UNL A   1      49.058  26.551  37.552  1.00  0.00     0.173 C 
BRANCH  17  18
ATOM     18  N   UNL A   1      48.518  26.967  38.882  1.00  0.00    -0.344 N 
ATOM     19  C   UNL A   1      47.345  29.127  38.545  1.00  0.00     0.114 C 
ATOM     20  C   UNL A   1      47.906  28.047  39.412  1.00  0.00     0.217 C 
ATOM     21  O   UNL A   1      47.791  28.116  40.636  1.00  0.00    -0.275 OA
ATOM     22  H   UNL A   1      48.643  26.260  39.556  1.00  0.00     0.164 HD
ENDBRANCH  17  18
BRANCH  17  23
ATOM     23  C   UNL A   1      50.110  27.732  36.854  1.00  0.00     0.015 C 
ATOM     24  C   UNL A   1      51.463  28.514  37.262  1.00  0.00     0.010 C 
ATOM     25  C   UNL A   1      50.513  27.294  35.421  1.00  0.00     0.010 C 
ENDBRANCH  17  23
ENDBRANCH  14  17
ENDBRANCH   9  13
ENDBRANCH   8   9
ENDBRANCH   6   8
ENDBRANCH   5   6
ENDBRANCH   4   5
ENDBRANCH   3   4
ENDBRANCH   2   3
ENDBRANCH   1   2
BRANCH   1  26
ATOM     26  C   UNL A   1      48.931  20.605  34.263  1.00  0.00     0.188 C 
BRANCH  26  27
ATOM     27  O   UNL A   1      49.884  20.285  33.253  1.00  0.00    -0.376 OA
BRANCH  27  28
ATOM     28  C   UNL A   1      51.266  20.356  33.559  1.00  0.00     0.202 C 
BRANCH  28  29
ATOM     29  C   UNL A   1      52.044  21.467  32.853  1.00  0.00     0.261 C 
BRANCH  29  30
ATOM     30  O   UNL A   1      51.231  22.554  32.387  1.00  0.00    -0.460 OA
BRANCH  30  31
ATOM     31  C   UNL A   1      51.591  23.799  32.780  1.00  0.00     0.338 C 
ATOM     32  O   UNL A   1      52.733  24.208  32.987  1.00  0.00    -0.246 OA
BRANCH  31  33
ATOM     33  C   UNL A   1      50.404  24.680  32.708  1.00  0.00     0.060 A 
ATOM     34  C   UNL A   1      49.235  24.343  33.418  1.00  0.00     0.016 A 
ATOM     35  C   UNL A   1      50.455  25.861  31.968  1.00  0.00     0.016 A 
ATOM     36  C   UNL A   1      48.118  25.179  33.384  1.00  0.00     0.010 A 
ATOM     37  C   UNL A   1      49.322  26.671  31.893  1.00  0.00     0.010 A 
ATOM     38  C   UNL A   1      48.141  26.315  32.571  1.00  0.00    -0.014 A 
BRANCH  38  39
ATOM     39  C   UNL A   1      46.880  26.973  32.165  1.00  0.00     0.031 A 
ATOM     40  C   UNL A   1      46.318  28.000  33.109  1.00  0.00     0.074 A 
ATOM     41  C   UNL A   1      46.209  26.619  31.055  1.00  0.00     0.049 A 
ATOM     42  N   UNL A   1      45.139  28.557  33.125  1.00  0.00    -0.248 NA
ATOM     43  C   UNL A   1      47.211  28.443  34.195  1.00  0.00     0.031 C 
ATOM     44  C   UNL A   1      46.675  25.673  30.044  1.00  0.00     0.029 A 
ATOM     45  N   UNL A   1      44.958  26.988  30.626  1.00  0.00    -0.354 N 
ATOM     46  C   UNL A   1      45.128  29.371  34.250  1.00  0.00     0.074 A 
ATOM     47  C   UNL A   1      46.420  29.248  34.885  1.00  0.00     0.031 C 
ATOM     48  C   UNL A   1      45.698  25.495  29.136  1.00  0.00     0.029 A 
ATOM     49  C   UNL A   1      44.526  26.275  29.531  1.00  0.00     0.049 A 
ATOM     50  H   UNL A   1      44.424  27.693  31.058  1.00  0.00     0.167 HD
ATOM     51  C   UNL A   1      44.126  30.148  34.719  1.00  0.00     0.034 A 
ATOM     52  C   UNL A   1      43.309  26.225  28.953  1.00  0.00     0.034 A 
ATOM     53  C   UNL A   1      42.845  30.266  34.083  1.00  0.00     0.049 A 
ATOM     54  C   UNL A   1      42.189  27.066  29.520  1.00  0.00     0.074 A 
ATOM     55  C   UNL A   1      41.767  31.045  34.459  1.00  0.00     0.029 A 
ATOM     56  N   UNL A   1      42.466  29.572  32.945  1.00  0.00    -0.354 N 
ATOM     57  N   UNL A   1      42.208  27.889  30.542  1.00  0.00    -0.248 NA
ATOM     58  C   UNL A   1      40.885  26.986  28.844  1.00  0.00     0.031 C 
ATOM     59  C   UNL A   1      40.721  30.794  33.567  1.00  0.00     0.029 A 
ATOM     60  C   UNL A   1      41.167  29.896  32.608  1.00  0.00     0.049 A 
ATOM     61  H   UNL A   1      43.038  28.941  32.450  1.00  0.00     0.167 HD
ATOM     62  C   UNL A   1      40.940  28.460  30.599  1.00  0.00     0.074 A 
ATOM     63  C   UNL A   1      40.177  27.891  29.509  1.00  0.00     0.031 C 
ATOM     64  C   UNL A   1      40.448  29.370  31.476  1.00  0.00     0.034 A 
BRANCH  51  65
ATOM     65  C   UNL A   1      44.376  30.918  35.987  1.00  0.00     0.023 A 
ATOM     66  C   UNL A   1      43.996  30.374  37.230  1.00  0.00     0.012 A 
ATOM     67  C   UNL A   1      45.020  32.170  35.946  1.00  0.00     0.148 A 
ATOM     68  C   UNL A   1      44.223  31.079  38.411  1.00  0.00     0.002 A 
ATOM     69  C   UNL A   1      45.287  32.844  37.130  1.00  0.00     0.091 A 
ATOM     70  F   UNL A   1      45.348  32.683  34.751  1.00  0.00    -0.205 F 
ATOM     71  C   UNL A   1      44.877  32.307  38.362  1.00  0.00     0.022 A 
BRANCH  69  72
ATOM     72  S   UNL A   1      46.194  34.392  37.179  1.00  0.00     0.127 S 
ATOM     73  O   UNL A   1      45.300  35.282  36.438  1.00  0.00    -0.237 OA
ATOM     74  O   UNL A   1      46.265  34.659  38.616  1.00  0.00    -0.237 OA
ATOM     75  O   UNL A   1      47.477  34.130  36.544  1.00  0.00    -0.744 OA
ENDBRANCH  69  72
ENDBRANCH  51  65
BRANCH  52  76
ATOM     76  C   UNL A   1      43.074  25.350  27.769  1.00  0.00     0.023 A 
ATOM     77  C   UNL A   1      43.447  25.801  26.488  1.00  0.00     0.012 A 
ATOM     78  C   UNL A   1      42.480  24.079  27.901  1.00  0.00     0.148 A 
ATOM     79  C   UNL A   1      43.205  25.017  25.357  1.00  0.00     0.002 A 
ATOM     80  C   UNL A   1      42.292  23.280  26.778  1.00  0.00     0.091 A 
ATOM     81  F   UNL A   1      42.114  23.674  29.126  1.00  0.00    -0.205 F 
ATOM     82  C   UNL A   1      42.638  23.755  25.504  1.00  0.00     0.022 A 
BRANCH  80  83
ATOM     83  S   UNL A   1      41.667  21.599  26.880  1.00  0.00     0.127 S 
ATOM     84  O   UNL A   1      42.609  20.985  27.813  1.00  0.00    -0.237 OA
ATOM     85  O   UNL A   1      40.322  21.811  27.414  1.00  0.00    -0.237 OA
ATOM     86  O   UNL A   1      41.702  21.081  25.519  1.00  0.00    -0.744 OA
ENDBRANCH  80  83
ENDBRANCH  52  76
BRANCH  64  87
ATOM     87  C   UNL A   1      39.047  29.883  31.266  1.00  0.00     0.023 A 
ATOM     88  C   UNL A   1      37.944  29.165  31.766  1.00  0.00     0.012 A 
ATOM     89  C   UNL A   1      38.844  31.150  30.684  1.00  0.00     0.148 A 
ATOM     90  C   UNL A   1      36.657  29.693  31.671  1.00  0.00     0.002 A 
ATOM     91  C   UNL A   1      37.567  31.693  30.641  1.00  0.00     0.091 A 
ATOM     92  F   UNL A   1      39.909  31.810  30.204  1.00  0.00    -0.205 F 
ATOM     93  C   UNL A   1      36.471  30.962  31.124  1.00  0.00     0.022 A 
BRANCH  91  94
ATOM     94  S   UNL A   1      37.246  33.362  30.056  1.00  0.00     0.127 S 
ATOM     95  O   UNL A   1      35.786  33.399  30.049  1.00  0.00    -0.237 OA
ATOM     96  O   UNL A   1      37.874  34.178  31.096  1.00  0.00    -0.237 OA
ATOM     97  O   UNL A   1      37.877  33.460  28.746  1.00  0.00    -0.744 OA
ENDBRANCH  91  94
ENDBRANCH  64  87
ENDBRANCH  38  39
ENDBRANCH  31  33
ENDBRANCH  30  31
ENDBRANCH  29  30
ENDBRANCH  28  29
ENDBRANCH  27  28
ENDBRANCH  26  27
ENDBRANCH   1  26
TORSDOF 25
ENDMDL
