MODEL 1
REMARK VINA RESULT:     -10.4      0.000      0.000
REMARK SMILES CC1CC[NH+]([C@H](c2ccc(F)cc2)c2ccc([C@@H](C)C(=O)OCCOCCOCCOC(=O)c3ccc(-c4c5nc(c(-c6cccc(S(=O)(=O)[O-])c6F)c6ccc([nH]6)c(-c6cccc(S(=O)(=O)[O-])c6F)c6nc(c(-c7cccc(S(=O)(=O)[O-])c7F)c7ccc4[nH]7)C=C6)C=C5)cc3)cc2-c2ccc(C(F)(F)F)cc2)CC1
REMARK SMILES IDX 26 1 25 2 24 3 23 4 22 5 20 6 21 7 18 8 19 9 17 10 14 11
REMARK SMILES IDX 15 12 98 13 16 14 97 15 6 16 5 17 1 18 2 19 3 20 110 21 4 22
REMARK SMILES IDX 109 23 7 25 8 26 13 27 9 28 12 29 10 30 11 31 99 32 100 33
REMARK SMILES IDX 108 34 101 35 107 36 102 37 103 38 104 39 105 40 106 41
REMARK SMILES IDX 27 42 28 43 29 44 30 45 31 46 32 47 33 48 34 49 35 50 96 51
REMARK SMILES IDX 36 52 95 53 37 54 38 55 39 56 89 57 40 58 94 59 88 60 90 61
REMARK SMILES IDX 41 62 93 63 87 64 86 65 42 67 74 68 54 69 73 70 55 71 58 72
REMARK SMILES IDX 72 73 91 74 56 75 57 76 71 78 92 79 59 80 43 81 44 82 52 83
REMARK SMILES IDX 45 84 47 85 53 86 46 87 48 88 49 89 50 90 51 91 75 92 76 93
REMARK SMILES IDX 84 94 77 95 79 96 85 97 78 98 80 99 81 100 82 101 83 102
REMARK SMILES IDX 60 103 61 104 69 105 62 106 64 107 70 108 63 109 65 110
REMARK SMILES IDX 66 111 67 112 68 113
REMARK H PARENT 5 24 90 66 58 77
REMARK Flexibility Score: inf
ROOT
ATOM      1  C   UNL A   1      32.151  28.778  23.862  1.00  0.00     0.188 C 
ENDROOT
BRANCH   1   2
ATOM      2  O   UNL A   1      33.072  27.895  23.231  1.00  0.00    -0.376 OA
BRANCH   2   3
ATOM      3  C   UNL A   1      32.802  26.501  23.243  1.00  0.00     0.202 C 
BRANCH   3   4
ATOM      4  C   UNL A   1      33.124  25.730  24.528  1.00  0.00     0.261 C 
BRANCH   4   5
ATOM      5  O   UNL A   1      34.493  25.271  24.627  1.00  0.00    -0.463 OA
BRANCH   5   6
ATOM      6  C   UNL A   1      34.696  24.119  25.316  1.00  0.00     0.313 C 
ATOM      7  O   UNL A   1      34.110  23.855  26.364  1.00  0.00    -0.252 OA
BRANCH   6   8
ATOM      8  C   UNL A   1      35.736  23.149  24.736  1.00  0.00     0.126 C 
ATOM      9  C   UNL A   1      35.074  21.772  24.649  1.00  0.00     0.025 C 
BRANCH   8  10
ATOM     10  C   UNL A   1      37.130  23.020  25.355  1.00  0.00    -0.033 A 
ATOM     11  C   UNL A   1      39.757  22.828  26.555  1.00  0.00     0.022 A 
ATOM     12  C   UNL A   1      39.098  21.733  25.947  1.00  0.00     0.011 A 
ATOM     13  C   UNL A   1      39.071  24.074  26.528  1.00  0.00    -0.009 A 
ATOM     14  C   UNL A   1      37.844  21.828  25.327  1.00  0.00     0.005 A 
ATOM     15  C   UNL A   1      37.770  24.134  25.946  1.00  0.00     0.013 A 
BRANCH  11  16
ATOM     16  C   UNL A   1      41.208  22.690  27.122  1.00  0.00     0.247 C 
BRANCH  16  17
ATOM     17  N   UNL A   1      42.207  23.760  26.775  1.00  0.00    -0.325 N 
ATOM     18  C   UNL A   1      46.175  25.341  25.736  1.00  0.00     0.008 C 
ATOM     19  C   UNL A   1      44.960  24.497  26.105  1.00  0.00    -0.003 C 
ATOM     20  C   UNL A   1      43.870  24.574  25.038  1.00  0.00     0.065 C 
ATOM     21  C   UNL A   1      44.344  24.968  27.415  1.00  0.00     0.065 C 
ATOM     22  C   UNL A   1      42.679  23.680  25.391  1.00  0.00     0.263 C 
ATOM     23  C   UNL A   1      43.179  24.069  27.826  1.00  0.00     0.263 C 
ATOM     24  H   UNL A   1      41.696  24.643  26.770  1.00  0.00     0.348 HD
ENDBRANCH  16  17
BRANCH  16  25
ATOM     25  C   UNL A   1      41.853  21.295  26.992  1.00  0.00     0.014 A 
ATOM     26  C   UNL A   1      41.606  20.266  27.913  1.00  0.00     0.013 A 
ATOM     27  C   UNL A   1      42.668  20.996  25.880  1.00  0.00     0.013 A 
ATOM     28  C   UNL A   1      42.104  18.977  27.701  1.00  0.00     0.040 A 
ATOM     29  C   UNL A   1      43.219  19.723  25.705  1.00  0.00     0.040 A 
ATOM     30  C   UNL A   1      42.918  18.719  26.612  1.00  0.00     0.123 A 
ATOM     31  F   UNL A   1      43.404  17.486  26.426  1.00  0.00    -0.207 F 
ENDBRANCH  16  25
ENDBRANCH  11  16
BRANCH  13  32
ATOM     32  C   UNL A   1      39.636  25.320  27.098  1.00  0.00    -0.018 A 
ATOM     33  C   UNL A   1      39.429  25.633  28.449  1.00  0.00     0.009 A 
ATOM     34  C   UNL A   1      40.401  26.217  26.340  1.00  0.00     0.009 A 
ATOM     35  C   UNL A   1      39.978  26.772  29.042  1.00  0.00     0.014 A 
ATOM     36  C   UNL A   1      40.971  27.358  26.931  1.00  0.00     0.014 A 
ATOM     37  C   UNL A   1      40.776  27.639  28.292  1.00  0.00     0.056 A 
BRANCH  37  38
ATOM     38  C   UNL A   1      41.399  28.845  28.953  1.00  0.00     0.416 C 
ATOM     39  F   UNL A   1      40.472  29.702  29.460  1.00  0.00    -0.166 F 
ATOM     40  F   UNL A   1      42.216  28.513  29.991  1.00  0.00    -0.166 F 
ATOM     41  F   UNL A   1      42.168  29.584  28.104  1.00  0.00    -0.166 F 
ENDBRANCH  37  38
ENDBRANCH  13  32
ENDBRANCH   8  10
ENDBRANCH   6   8
ENDBRANCH   5   6
ENDBRANCH   4   5
ENDBRANCH   3   4
ENDBRANCH   2   3
ENDBRANCH   1   2
BRANCH   1  42
ATOM     42  C   UNL A   1      32.578  29.478  25.163  1.00  0.00     0.188 C 
BRANCH  42  43
ATOM     43  O   UNL A   1      31.750  30.556  25.561  1.00  0.00    -0.376 OA
BRANCH  43  44
ATOM     44  C   UNL A   1      31.835  30.903  26.931  1.00  0.00     0.202 C 
BRANCH  44  45
ATOM     45  C   UNL A   1      33.266  31.066  27.459  1.00  0.00     0.261 C 
BRANCH  45  46
ATOM     46  O   UNL A   1      33.843  32.369  27.239  1.00  0.00    -0.460 OA
BRANCH  46  47
ATOM     47  C   UNL A   1      33.541  33.323  28.139  1.00  0.00     0.338 C 
ATOM     48  O   UNL A   1      32.528  34.014  28.144  1.00  0.00    -0.246 OA
BRANCH  47  49
ATOM     49  C   UNL A   1      34.557  33.365  29.202  1.00  0.00     0.060 A 
ATOM     50  C   UNL A   1      34.553  34.409  30.136  1.00  0.00     0.016 A 
ATOM     51  C   UNL A   1      35.578  32.420  29.216  1.00  0.00     0.016 A 
ATOM     52  C   UNL A   1      35.596  34.550  31.051  1.00  0.00     0.010 A 
ATOM     53  C   UNL A   1      36.614  32.548  30.145  1.00  0.00     0.010 A 
ATOM     54  C   UNL A   1      36.650  33.631  31.042  1.00  0.00    -0.014 A 
BRANCH  54  55
ATOM     55  C   UNL A   1      37.852  33.839  31.886  1.00  0.00     0.031 A 
ATOM     56  C   UNL A   1      39.164  34.141  31.215  1.00  0.00     0.074 A 
ATOM     57  C   UNL A   1      37.783  33.719  33.226  1.00  0.00     0.049 A 
ATOM     58  N   UNL A   1      40.366  34.166  31.725  1.00  0.00    -0.248 NA
ATOM     59  C   UNL A   1      39.114  34.455  29.776  1.00  0.00     0.031 C 
ATOM     60  C   UNL A   1      36.561  33.482  33.993  1.00  0.00     0.029 A 
ATOM     61  N   UNL A   1      38.774  33.747  34.175  1.00  0.00    -0.354 N 
ATOM     62  C   UNL A   1      41.221  34.453  30.667  1.00  0.00     0.074 A 
ATOM     63  C   UNL A   1      40.400  34.602  29.485  1.00  0.00     0.031 C 
ATOM     64  C   UNL A   1      36.878  33.354  35.292  1.00  0.00     0.029 A 
ATOM     65  C   UNL A   1      38.328  33.450  35.442  1.00  0.00     0.049 A 
ATOM     66  H   UNL A   1      39.714  33.959  33.970  1.00  0.00     0.167 HD
ATOM     67  C   UNL A   1      42.566  34.589  30.685  1.00  0.00     0.034 A 
ATOM     68  C   UNL A   1      39.016  33.237  36.584  1.00  0.00     0.034 A 
ATOM     69  C   UNL A   1      43.369  34.473  31.873  1.00  0.00     0.049 A 
ATOM     70  C   UNL A   1      40.520  33.341  36.560  1.00  0.00     0.074 A 
ATOM     71  C   UNL A   1      44.741  34.602  31.994  1.00  0.00     0.029 A 
ATOM     72  N   UNL A   1      42.876  34.209  33.140  1.00  0.00    -0.354 N 
ATOM     73  N   UNL A   1      41.311  33.660  35.564  1.00  0.00    -0.248 NA
ATOM     74  C   UNL A   1      41.228  33.074  37.822  1.00  0.00     0.031 C 
ATOM     75  C   UNL A   1      45.080  34.402  33.333  1.00  0.00     0.029 A 
ATOM     76  C   UNL A   1      43.917  34.174  34.050  1.00  0.00     0.049 A 
ATOM     77  H   UNL A   1      41.926  34.068  33.359  1.00  0.00     0.167 HD
ATOM     78  C   UNL A   1      42.599  33.675  36.088  1.00  0.00     0.074 A 
ATOM     79  C   UNL A   1      42.483  33.347  37.493  1.00  0.00     0.031 C 
ATOM     80  C   UNL A   1      43.774  33.922  35.460  1.00  0.00     0.034 A 
BRANCH  67  81
ATOM     81  C   UNL A   1      43.273  34.917  29.398  1.00  0.00     0.023 A 
ATOM     82  C   UNL A   1      43.653  36.249  29.139  1.00  0.00     0.012 A 
ATOM     83  C   UNL A   1      43.678  33.895  28.517  1.00  0.00     0.148 A 
ATOM     84  C   UNL A   1      44.422  36.559  28.019  1.00  0.00     0.002 A 
ATOM     85  C   UNL A   1      44.479  34.207  27.426  1.00  0.00     0.091 A 
ATOM     86  F   UNL A   1      43.292  32.639  28.778  1.00  0.00    -0.205 F 
ATOM     87  C   UNL A   1      44.847  35.539  27.172  1.00  0.00     0.022 A 
BRANCH  85  88
ATOM     88  S   UNL A   1      45.151  32.959  26.322  1.00  0.00     0.127 S 
ATOM     89  O   UNL A   1      45.837  32.071  27.260  1.00  0.00    -0.237 OA
ATOM     90  O   UNL A   1      43.940  32.397  25.724  1.00  0.00    -0.237 OA
ATOM     91  O   UNL A   1      46.024  33.665  25.394  1.00  0.00    -0.744 OA
ENDBRANCH  85  88
ENDBRANCH  67  81
BRANCH  68  92
ATOM     92  C   UNL A   1      38.295  32.930  37.852  1.00  0.00     0.023 A 
ATOM     93  C   UNL A   1      37.610  31.704  37.974  1.00  0.00     0.012 A 
ATOM     94  C   UNL A   1      38.283  33.831  38.936  1.00  0.00     0.148 A 
ATOM     95  C   UNL A   1      36.902  31.395  39.136  1.00  0.00     0.002 A 
ATOM     96  C   UNL A   1      37.623  33.491  40.113  1.00  0.00     0.091 A 
ATOM     97  F   UNL A   1      38.918  35.003  38.796  1.00  0.00    -0.205 F 
ATOM     98  C   UNL A   1      36.917  32.283  40.209  1.00  0.00     0.022 A 
BRANCH  96  99
ATOM     99  S   UNL A   1      37.699  34.516  41.586  1.00  0.00     0.127 S 
ATOM    100  O   UNL A   1      38.770  33.874  42.343  1.00  0.00    -0.237 OA
ATOM    101  O   UNL A   1      38.039  35.826  41.028  1.00  0.00    -0.237 OA
ATOM    102  O   UNL A   1      36.370  34.445  42.179  1.00  0.00    -0.744 OA
ENDBRANCH  96  99
ENDBRANCH  68  92
BRANCH  80 103
ATOM    103  C   UNL A   1      45.038  33.904  36.279  1.00  0.00     0.023 A 
ATOM    104  C   UNL A   1      45.424  35.054  36.994  1.00  0.00     0.012 A 
ATOM    105  C   UNL A   1      45.769  32.709  36.440  1.00  0.00     0.148 A 
ATOM    106  C   UNL A   1      46.529  35.021  37.843  1.00  0.00     0.002 A 
ATOM    107  C   UNL A   1      46.838  32.670  37.326  1.00  0.00     0.091 A 
ATOM    108  F   UNL A   1      45.392  31.630  35.739  1.00  0.00    -0.205 F 
ATOM    109  C   UNL A   1      47.226  33.828  38.021  1.00  0.00     0.022 A 
BRANCH 107 110
ATOM    110  S   UNL A   1      47.728  31.155  37.700  1.00  0.00     0.127 S 
ATOM    111  O   UNL A   1      47.178  30.802  39.009  1.00  0.00    -0.237 OA
ATOM    112  O   UNL A   1      47.315  30.275  36.607  1.00  0.00    -0.237 OA
ATOM    113  O   UNL A   1      49.142  31.506  37.695  1.00  0.00    -0.744 OA
ENDBRANCH 107 110
ENDBRANCH  80 103
ENDBRANCH  54  55
ENDBRANCH  47  49
ENDBRANCH  46  47
ENDBRANCH  45  46
ENDBRANCH  44  45
ENDBRANCH  43  44
ENDBRANCH  42  43
ENDBRANCH   1  42
TORSDOF 26
ENDMDL
MODEL 2
REMARK VINA RESULT:      -9.9      5.578     15.720
REMARK SMILES CC1CC[NH+]([C@H](c2ccc(F)cc2)c2ccc([C@@H](C)C(=O)OCCOCCOCCOC(=O)c3ccc(-c4c5nc(c(-c6cccc(S(=O)(=O)[O-])c6F)c6ccc([nH]6)c(-c6cccc(S(=O)(=O)[O-])c6F)c6nc(c(-c7cccc(S(=O)(=O)[O-])c7F)c7ccc4[nH]7)C=C6)C=C5)cc3)cc2-c2ccc(C(F)(F)F)cc2)CC1
REMARK SMILES IDX 26 1 25 2 24 3 23 4 22 5 20 6 21 7 18 8 19 9 17 10 14 11
REMARK SMILES IDX 15 12 98 13 16 14 97 15 6 16 5 17 1 18 2 19 3 20 110 21 4 22
REMARK SMILES IDX 109 23 7 25 8 26 13 27 9 28 12 29 10 30 11 31 99 32 100 33
REMARK SMILES IDX 108 34 101 35 107 36 102 37 103 38 104 39 105 40 106 41
REMARK SMILES IDX 27 42 28 43 29 44 30 45 31 46 32 47 33 48 34 49 35 50 96 51
REMARK SMILES IDX 36 52 95 53 37 54 38 55 39 56 89 57 40 58 94 59 88 60 90 61
REMARK SMILES IDX 41 62 93 63 87 64 86 65 42 67 74 68 54 69 73 70 55 71 58 72
REMARK SMILES IDX 72 73 91 74 56 75 57 76 71 78 92 79 59 80 43 81 44 82 52 83
REMARK SMILES IDX 45 84 47 85 53 86 46 87 48 88 49 89 50 90 51 91 75 92 76 93
REMARK SMILES IDX 84 94 77 95 79 96 85 97 78 98 80 99 81 100 82 101 83 102
REMARK SMILES IDX 60 103 61 104 69 105 62 106 64 107 70 108 63 109 65 110
REMARK SMILES IDX 66 111 67 112 68 113
REMARK H PARENT 5 24 90 66 58 77
REMARK Flexibility Score: inf
ROOT
ATOM      1  C   UNL A   1      45.067  40.274  34.637  1.00  0.00     0.188 C 
ENDROOT
BRANCH   1   2
ATOM      2  O   UNL A   1      45.065  41.664  34.942  1.00  0.00    -0.376 OA
BRANCH   2   3
ATOM      3  C   UNL A   1      43.859  42.266  35.390  1.00  0.00     0.202 C 
BRANCH   3   4
ATOM      4  C   UNL A   1      43.139  43.212  34.422  1.00  0.00     0.261 C 
BRANCH   4   5
ATOM      5  O   UNL A   1      43.973  44.257  33.871  1.00  0.00    -0.463 OA
BRANCH   5   6
ATOM      6  C   UNL A   1      44.610  43.971  32.706  1.00  0.00     0.313 C 
ATOM      7  O   UNL A   1      45.793  43.642  32.655  1.00  0.00    -0.252 OA
BRANCH   6   8
ATOM      8  C   UNL A   1      43.781  44.109  31.421  1.00  0.00     0.126 C 
ATOM      9  C   UNL A   1      42.399  43.517  31.707  1.00  0.00     0.025 C 
BRANCH   8  10
ATOM     10  C   UNL A   1      44.304  43.589  30.080  1.00  0.00    -0.033 A 
ATOM     11  C   UNL A   1      45.256  42.557  27.549  1.00  0.00     0.022 A 
ATOM     12  C   UNL A   1      45.482  43.886  27.982  1.00  0.00     0.011 A 
ATOM     13  C   UNL A   1      44.545  41.712  28.445  1.00  0.00    -0.009 A 
ATOM     14  C   UNL A   1      45.061  44.380  29.224  1.00  0.00     0.005 A 
ATOM     15  C   UNL A   1      44.073  42.253  29.678  1.00  0.00     0.013 A 
BRANCH  11  16
ATOM     16  C   UNL A   1      45.856  42.027  26.205  1.00  0.00     0.247 C 
BRANCH  16  17
ATOM     17  N   UNL A   1      44.957  41.980  25.000  1.00  0.00    -0.325 N 
ATOM     18  C   UNL A   1      42.562  43.679  21.728  1.00  0.00     0.008 C 
ATOM     19  C   UNL A   1      43.451  43.413  22.938  1.00  0.00    -0.003 C 
ATOM     20  C   UNL A   1      44.707  42.631  22.559  1.00  0.00     0.065 C 
ATOM     21  C   UNL A   1      42.713  42.597  23.991  1.00  0.00     0.065 C 
ATOM     22  C   UNL A   1      45.619  42.418  23.770  1.00  0.00     0.263 C 
ATOM     23  C   UNL A   1      43.575  42.404  25.237  1.00  0.00     0.263 C 
ATOM     24  H   UNL A   1      44.786  40.994  24.804  1.00  0.00     0.348 HD
ENDBRANCH  16  17
BRANCH  16  25
ATOM     25  C   UNL A   1      46.685  40.730  26.303  1.00  0.00     0.014 A 
ATOM     26  C   UNL A   1      46.400  39.597  25.526  1.00  0.00     0.013 A 
ATOM     27  C   UNL A   1      47.816  40.679  27.145  1.00  0.00     0.013 A 
ATOM     28  C   UNL A   1      47.243  38.482  25.546  1.00  0.00     0.040 A 
ATOM     29  C   UNL A   1      48.620  39.537  27.212  1.00  0.00     0.040 A 
ATOM     30  C   UNL A   1      48.334  38.453  26.397  1.00  0.00     0.123 A 
ATOM     31  F   UNL A   1      49.126  37.374  26.422  1.00  0.00    -0.207 F 
ENDBRANCH  16  25
ENDBRANCH  11  16
BRANCH  13  32
ATOM     32  C   UNL A   1      44.250  40.289  28.152  1.00  0.00    -0.018 A 
ATOM     33  C   UNL A   1      43.252  39.954  27.227  1.00  0.00     0.009 A 
ATOM     34  C   UNL A   1      44.948  39.234  28.755  1.00  0.00     0.009 A 
ATOM     35  C   UNL A   1      42.967  38.630  26.885  1.00  0.00     0.014 A 
ATOM     36  C   UNL A   1      44.681  37.899  28.406  1.00  0.00     0.014 A 
ATOM     37  C   UNL A   1      43.697  37.585  27.457  1.00  0.00     0.056 A 
BRANCH  37  38
ATOM     38  C   UNL A   1      43.410  36.160  27.048  1.00  0.00     0.416 C 
ATOM     39  F   UNL A   1      42.410  36.069  26.131  1.00  0.00    -0.166 F 
ATOM     40  F   UNL A   1      44.491  35.544  26.494  1.00  0.00    -0.166 F 
ATOM     41  F   UNL A   1      43.033  35.369  28.093  1.00  0.00    -0.166 F 
ENDBRANCH  37  38
ENDBRANCH  13  32
ENDBRANCH   8  10
ENDBRANCH   6   8
ENDBRANCH   5   6
ENDBRANCH   4   5
ENDBRANCH   3   4
ENDBRANCH   2   3
ENDBRANCH   1   2
BRANCH   1  42
ATOM     42  C   UNL A   1      44.550  39.822  33.260  1.00  0.00     0.188 C 
BRANCH  42  43
ATOM     43  O   UNL A   1      45.550  39.669  32.268  1.00  0.00    -0.376 OA
BRANCH  43  44
ATOM     44  C   UNL A   1      46.832  39.320  32.757  1.00  0.00     0.202 C 
BRANCH  44  45
ATOM     45  C   UNL A   1      47.082  37.811  32.866  1.00  0.00     0.261 C 
BRANCH  45  46
ATOM     46  O   UNL A   1      47.366  37.157  31.612  1.00  0.00    -0.460 OA
BRANCH  46  47
ATOM     47  C   UNL A   1      47.887  35.919  31.682  1.00  0.00     0.338 C 
ATOM     48  O   UNL A   1      48.998  35.628  32.114  1.00  0.00    -0.246 OA
BRANCH  47  49
ATOM     49  C   UNL A   1      46.895  34.920  31.256  1.00  0.00     0.060 A 
ATOM     50  C   UNL A   1      46.700  33.757  32.014  1.00  0.00     0.016 A 
ATOM     51  C   UNL A   1      46.222  35.088  30.050  1.00  0.00     0.016 A 
ATOM     52  C   UNL A   1      45.879  32.731  31.546  1.00  0.00     0.010 A 
ATOM     53  C   UNL A   1      45.384  34.069  29.589  1.00  0.00     0.010 A 
ATOM     54  C   UNL A   1      45.236  32.872  30.312  1.00  0.00    -0.014 A 
BRANCH  54  55
ATOM     55  C   UNL A   1      44.489  31.743  29.707  1.00  0.00     0.031 A 
ATOM     56  C   UNL A   1      43.071  31.495  30.146  1.00  0.00     0.074 A 
ATOM     57  C   UNL A   1      45.077  30.927  28.812  1.00  0.00     0.049 A 
ATOM     58  N   UNL A   1      42.299  30.469  29.906  1.00  0.00    -0.248 NA
ATOM     59  C   UNL A   1      42.439  32.544  30.966  1.00  0.00     0.031 C 
ATOM     60  C   UNL A   1      46.425  31.097  28.270  1.00  0.00     0.029 A 
ATOM     61  N   UNL A   1      44.624  29.771  28.226  1.00  0.00    -0.354 N 
ATOM     62  C   UNL A   1      41.110  30.724  30.578  1.00  0.00     0.074 A 
ATOM     63  C   UNL A   1      41.257  32.006  31.232  1.00  0.00     0.031 C 
ATOM     64  C   UNL A   1      46.702  30.064  27.456  1.00  0.00     0.029 A 
ATOM     65  C   UNL A   1      45.573  29.136  27.459  1.00  0.00     0.049 A 
ATOM     66  H   UNL A   1      43.708  29.429  28.344  1.00  0.00     0.167 HD
ATOM     67  C   UNL A   1      39.995  29.960  30.636  1.00  0.00     0.034 A 
ATOM     68  C   UNL A   1      45.549  27.927  26.862  1.00  0.00     0.034 A 
ATOM     69  C   UNL A   1      39.848  28.703  29.954  1.00  0.00     0.049 A 
ATOM     70  C   UNL A   1      44.312  27.073  26.990  1.00  0.00     0.074 A 
ATOM     71  C   UNL A   1      38.752  27.859  29.945  1.00  0.00     0.029 A 
ATOM     72  N   UNL A   1      40.816  28.115  29.158  1.00  0.00    -0.354 N 
ATOM     73  N   UNL A   1      43.178  27.347  27.589  1.00  0.00    -0.248 NA
ATOM     74  C   UNL A   1      44.342  25.751  26.345  1.00  0.00     0.031 C 
ATOM     75  C   UNL A   1      39.064  26.751  29.154  1.00  0.00     0.029 A 
ATOM     76  C   UNL A   1      40.343  26.918  28.650  1.00  0.00     0.049 A 
ATOM     77  H   UNL A   1      41.708  28.492  28.980  1.00  0.00     0.167 HD
ATOM     78  C   UNL A   1      42.349  26.255  27.356  1.00  0.00     0.074 A 
ATOM     79  C   UNL A   1      43.105  25.321  26.550  1.00  0.00     0.031 C 
ATOM     80  C   UNL A   1      41.082  26.037  27.785  1.00  0.00     0.034 A 
BRANCH  67  81
ATOM     81  C   UNL A   1      38.819  30.464  31.428  1.00  0.00     0.023 A 
ATOM     82  C   UNL A   1      38.765  30.219  32.814  1.00  0.00     0.012 A 
ATOM     83  C   UNL A   1      37.848  31.290  30.830  1.00  0.00     0.148 A 
ATOM     84  C   UNL A   1      37.756  30.784  33.593  1.00  0.00     0.002 A 
ATOM     85  C   UNL A   1      36.871  31.884  31.620  1.00  0.00     0.091 A 
ATOM     86  F   UNL A   1      37.914  31.496  29.507  1.00  0.00    -0.205 F 
ATOM     87  C   UNL A   1      36.820  31.627  33.000  1.00  0.00     0.022 A 
BRANCH  85  88
ATOM     88  S   UNL A   1      35.669  33.051  30.970  1.00  0.00     0.127 S 
ATOM     89  O   UNL A   1      36.021  33.080  29.551  1.00  0.00    -0.237 OA
ATOM     90  O   UNL A   1      34.402  32.385  31.272  1.00  0.00    -0.237 OA
ATOM     91  O   UNL A   1      35.892  34.302  31.683  1.00  0.00    -0.744 OA
ENDBRANCH  85  88
ENDBRANCH  67  81
BRANCH  68  92
ATOM     92  C   UNL A   1      46.718  27.454  26.066  1.00  0.00     0.023 A 
ATOM     93  C   UNL A   1      46.736  27.673  24.674  1.00  0.00     0.012 A 
ATOM     94  C   UNL A   1      47.808  26.795  26.668  1.00  0.00     0.148 A 
ATOM     95  C   UNL A   1      47.800  27.219  23.894  1.00  0.00     0.002 A 
ATOM     96  C   UNL A   1      48.893  26.397  25.893  1.00  0.00     0.091 A 
ATOM     97  F   UNL A   1      47.766  26.571  27.990  1.00  0.00    -0.205 F 
ATOM     98  C   UNL A   1      48.883  26.592  24.504  1.00  0.00     0.022 A 
BRANCH  96  99
ATOM     99  S   UNL A   1      50.383  25.698  26.613  1.00  0.00     0.127 S 
ATOM    100  O   UNL A   1      51.250  25.572  25.445  1.00  0.00    -0.237 OA
ATOM    101  O   UNL A   1      50.778  26.739  27.563  1.00  0.00    -0.237 OA
ATOM    102  O   UNL A   1      49.966  24.448  27.234  1.00  0.00    -0.744 OA
ENDBRANCH  96  99
ENDBRANCH  68  92
BRANCH  80 103
ATOM    103  C   UNL A   1      40.393  24.768  27.358  1.00  0.00     0.023 A 
ATOM    104  C   UNL A   1      39.216  24.836  26.589  1.00  0.00     0.012 A 
ATOM    105  C   UNL A   1      40.985  23.513  27.611  1.00  0.00     0.148 A 
ATOM    106  C   UNL A   1      38.628  23.674  26.092  1.00  0.00     0.002 A 
ATOM    107  C   UNL A   1      40.421  22.364  27.071  1.00  0.00     0.091 A 
ATOM    108  F   UNL A   1      42.098  23.471  28.358  1.00  0.00    -0.205 F 
ATOM    109  C   UNL A   1      39.236  22.442  26.320  1.00  0.00     0.022 A 
BRANCH 107 110
ATOM    110  S   UNL A   1      41.190  20.748  27.222  1.00  0.00     0.127 S 
ATOM    111  O   UNL A   1      40.791  20.352  28.572  1.00  0.00    -0.237 OA
ATOM    112  O   UNL A   1      40.541  19.996  26.148  1.00  0.00    -0.237 OA
ATOM    113  O   UNL A   1      42.619  20.962  27.033  1.00  0.00    -0.744 OA
ENDBRANCH 107 110
ENDBRANCH  80 103
ENDBRANCH  54  55
ENDBRANCH  47  49
ENDBRANCH  46  47
ENDBRANCH  45  46
ENDBRANCH  44  45
ENDBRANCH  43  44
ENDBRANCH  42  43
ENDBRANCH   1  42
TORSDOF 26
ENDMDL
MODEL 3
REMARK VINA RESULT:      -9.8      5.739     15.948
REMARK SMILES CC1CC[NH+]([C@H](c2ccc(F)cc2)c2ccc([C@@H](C)C(=O)OCCOCCOCCOC(=O)c3ccc(-c4c5nc(c(-c6cccc(S(=O)(=O)[O-])c6F)c6ccc([nH]6)c(-c6cccc(S(=O)(=O)[O-])c6F)c6nc(c(-c7cccc(S(=O)(=O)[O-])c7F)c7ccc4[nH]7)C=C6)C=C5)cc3)cc2-c2ccc(C(F)(F)F)cc2)CC1
REMARK SMILES IDX 26 1 25 2 24 3 23 4 22 5 20 6 21 7 18 8 19 9 17 10 14 11
REMARK SMILES IDX 15 12 98 13 16 14 97 15 6 16 5 17 1 18 2 19 3 20 110 21 4 22
REMARK SMILES IDX 109 23 7 25 8 26 13 27 9 28 12 29 10 30 11 31 99 32 100 33
REMARK SMILES IDX 108 34 101 35 107 36 102 37 103 38 104 39 105 40 106 41
REMARK SMILES IDX 27 42 28 43 29 44 30 45 31 46 32 47 33 48 34 49 35 50 96 51
REMARK SMILES IDX 36 52 95 53 37 54 38 55 39 56 89 57 40 58 94 59 88 60 90 61
REMARK SMILES IDX 41 62 93 63 87 64 86 65 42 67 74 68 54 69 73 70 55 71 58 72
REMARK SMILES IDX 72 73 91 74 56 75 57 76 71 78 92 79 59 80 43 81 44 82 52 83
REMARK SMILES IDX 45 84 47 85 53 86 46 87 48 88 49 89 50 90 51 91 75 92 76 93
REMARK SMILES IDX 84 94 77 95 79 96 85 97 78 98 80 99 81 100 82 101 83 102
REMARK SMILES IDX 60 103 61 104 69 105 62 106 64 107 70 108 63 109 65 110
REMARK SMILES IDX 66 111 67 112 68 113
REMARK H PARENT 5 24 90 66 58 77
REMARK Flexibility Score: inf
ROOT
ATOM      1  C   UNL A   1      45.490  39.867  34.474  1.00  0.00     0.188 C 
ENDROOT
BRANCH   1   2
ATOM      2  O   UNL A   1      45.376  41.208  34.936  1.00  0.00    -0.376 OA
BRANCH   2   3
ATOM      3  C   UNL A   1      44.183  41.607  35.594  1.00  0.00     0.202 C 
BRANCH   3   4
ATOM      4  C   UNL A   1      43.434  42.819  35.029  1.00  0.00     0.261 C 
BRANCH   4   5
ATOM      5  O   UNL A   1      44.287  43.846  34.471  1.00  0.00    -0.463 OA
BRANCH   5   6
ATOM      6  C   UNL A   1      44.727  43.643  33.202  1.00  0.00     0.313 C 
ATOM      7  O   UNL A   1      45.905  43.420  32.932  1.00  0.00    -0.252 OA
BRANCH   6   8
ATOM      8  C   UNL A   1      43.673  43.736  32.089  1.00  0.00     0.126 C 
ATOM      9  C   UNL A   1      42.428  42.992  32.580  1.00  0.00     0.025 C 
BRANCH   8  10
ATOM     10  C   UNL A   1      43.998  43.318  30.653  1.00  0.00    -0.033 A 
ATOM     11  C   UNL A   1      44.573  42.482  27.942  1.00  0.00     0.022 A 
ATOM     12  C   UNL A   1      44.903  43.762  28.448  1.00  0.00     0.011 A 
ATOM     13  C   UNL A   1      43.953  41.582  28.853  1.00  0.00    -0.009 A 
ATOM     14  C   UNL A   1      44.667  44.159  29.772  1.00  0.00     0.005 A 
ATOM     15  C   UNL A   1      43.666  42.028  30.178  1.00  0.00     0.013 A 
BRANCH  11  16
ATOM     16  C   UNL A   1      44.973  42.053  26.492  1.00  0.00     0.247 C 
BRANCH  16  17
ATOM     17  N   UNL A   1      46.208  41.212  26.320  1.00  0.00    -0.325 N 
ATOM     18  C   UNL A   1      48.866  37.801  27.110  1.00  0.00     0.008 C 
ATOM     19  C   UNL A   1      47.751  38.840  27.071  1.00  0.00    -0.003 C 
ATOM     20  C   UNL A   1      47.096  38.917  25.693  1.00  0.00     0.065 C 
ATOM     21  C   UNL A   1      48.283  40.228  27.397  1.00  0.00     0.065 C 
ATOM     22  C   UNL A   1      45.941  39.922  25.679  1.00  0.00     0.263 C 
ATOM     23  C   UNL A   1      47.150  41.252  27.440  1.00  0.00     0.263 C 
ATOM     24  H   UNL A   1      46.780  41.679  25.617  1.00  0.00     0.348 HD
ENDBRANCH  16  17
BRANCH  16  25
ATOM     25  C   UNL A   1      44.931  43.166  25.425  1.00  0.00     0.014 A 
ATOM     26  C   UNL A   1      46.008  44.038  25.210  1.00  0.00     0.013 A 
ATOM     27  C   UNL A   1      43.810  43.287  24.577  1.00  0.00     0.013 A 
ATOM     28  C   UNL A   1      45.990  44.955  24.154  1.00  0.00     0.040 A 
ATOM     29  C   UNL A   1      43.768  44.249  23.563  1.00  0.00     0.040 A 
ATOM     30  C   UNL A   1      44.868  45.065  23.351  1.00  0.00     0.123 A 
ATOM     31  F   UNL A   1      44.853  45.957  22.353  1.00  0.00    -0.207 F 
ENDBRANCH  16  25
ENDBRANCH  11  16
BRANCH  13  32
ATOM     32  C   UNL A   1      43.569  40.199  28.487  1.00  0.00    -0.018 A 
ATOM     33  C   UNL A   1      42.508  39.975  27.598  1.00  0.00     0.009 A 
ATOM     34  C   UNL A   1      44.240  39.072  28.983  1.00  0.00     0.009 A 
ATOM     35  C   UNL A   1      42.137  38.692  27.189  1.00  0.00     0.014 A 
ATOM     36  C   UNL A   1      43.886  37.779  28.565  1.00  0.00     0.014 A 
ATOM     37  C   UNL A   1      42.839  37.577  27.653  1.00  0.00     0.056 A 
BRANCH  37  38
ATOM     38  C   UNL A   1      42.457  36.197  27.171  1.00  0.00     0.416 C 
ATOM     39  F   UNL A   1      41.114  35.987  27.198  1.00  0.00    -0.166 F 
ATOM     40  F   UNL A   1      42.852  35.959  25.890  1.00  0.00    -0.166 F 
ATOM     41  F   UNL A   1      43.008  35.198  27.916  1.00  0.00    -0.166 F 
ENDBRANCH  37  38
ENDBRANCH  13  32
ENDBRANCH   8  10
ENDBRANCH   6   8
ENDBRANCH   5   6
ENDBRANCH   4   5
ENDBRANCH   3   4
ENDBRANCH   2   3
ENDBRANCH   1   2
BRANCH   1  42
ATOM     42  C   UNL A   1      45.030  39.541  33.042  1.00  0.00     0.188 C 
BRANCH  42  43
ATOM     43  O   UNL A   1      46.030  39.674  32.048  1.00  0.00    -0.376 OA
BRANCH  43  44
ATOM     44  C   UNL A   1      47.353  39.440  32.494  1.00  0.00     0.202 C 
BRANCH  44  45
ATOM     45  C   UNL A   1      47.854  38.007  32.274  1.00  0.00     0.261 C 
BRANCH  45  46
ATOM     46  O   UNL A   1      48.181  37.687  30.906  1.00  0.00    -0.460 OA
BRANCH  46  47
ATOM     47  C   UNL A   1      48.741  36.484  30.685  1.00  0.00     0.338 C 
ATOM     48  O   UNL A   1      49.934  36.215  30.785  1.00  0.00    -0.246 OA
BRANCH  47  49
ATOM     49  C   UNL A   1      47.705  35.482  30.396  1.00  0.00     0.060 A 
ATOM     50  C   UNL A   1      47.632  34.309  31.159  1.00  0.00     0.016 A 
ATOM     51  C   UNL A   1      46.861  35.657  29.304  1.00  0.00     0.016 A 
ATOM     52  C   UNL A   1      46.759  33.281  30.803  1.00  0.00     0.010 A 
ATOM     53  C   UNL A   1      45.972  34.637  28.957  1.00  0.00     0.010 A 
ATOM     54  C   UNL A   1      45.940  33.429  29.679  1.00  0.00    -0.014 A 
BRANCH  54  55
ATOM     55  C   UNL A   1      45.121  32.301  29.175  1.00  0.00     0.031 A 
ATOM     56  C   UNL A   1      43.706  32.157  29.668  1.00  0.00     0.074 A 
ATOM     57  C   UNL A   1      45.641  31.396  28.324  1.00  0.00     0.049 A 
ATOM     58  N   UNL A   1      42.878  31.157  29.521  1.00  0.00    -0.248 NA
ATOM     59  C   UNL A   1      43.152  33.291  30.428  1.00  0.00     0.031 C 
ATOM     60  C   UNL A   1      46.979  31.459  27.736  1.00  0.00     0.029 A 
ATOM     61  N   UNL A   1      45.115  30.227  27.834  1.00  0.00    -0.354 N 
ATOM     62  C   UNL A   1      41.724  31.518  30.206  1.00  0.00     0.074 A 
ATOM     63  C   UNL A   1      41.953  32.833  30.763  1.00  0.00     0.031 C 
ATOM     64  C   UNL A   1      47.180  30.360  26.990  1.00  0.00     0.029 A 
ATOM     65  C   UNL A   1      46.008  29.494  27.088  1.00  0.00     0.049 A 
ATOM     66  H   UNL A   1      44.187  29.941  28.000  1.00  0.00     0.167 HD
ATOM     67  C   UNL A   1      40.575  30.818  30.347  1.00  0.00     0.034 A 
ATOM     68  C   UNL A   1      45.906  28.248  26.579  1.00  0.00     0.034 A 
ATOM     69  C   UNL A   1      40.346  29.526  29.760  1.00  0.00     0.049 A 
ATOM     70  C   UNL A   1      44.634  27.470  26.800  1.00  0.00     0.074 A 
ATOM     71  C   UNL A   1      39.210  28.740  29.839  1.00  0.00     0.029 A 
ATOM     72  N   UNL A   1      41.260  28.836  28.981  1.00  0.00    -0.354 N 
ATOM     73  N   UNL A   1      43.533  27.842  27.408  1.00  0.00    -0.248 NA
ATOM     74  C   UNL A   1      44.580  26.106  26.249  1.00  0.00     0.031 C 
ATOM     75  C   UNL A   1      39.444  27.566  29.121  1.00  0.00     0.029 A 
ATOM     76  C   UNL A   1      40.714  27.633  28.572  1.00  0.00     0.049 A 
ATOM     77  H   UNL A   1      42.164  29.154  28.754  1.00  0.00     0.167 HD
ATOM     78  C   UNL A   1      42.645  26.780  27.275  1.00  0.00     0.074 A 
ATOM     79  C   UNL A   1      43.329  25.755  26.517  1.00  0.00     0.031 C 
ATOM     80  C   UNL A   1      41.382  26.657  27.752  1.00  0.00     0.034 A 
BRANCH  67  81
ATOM     81  C   UNL A   1      39.450  31.434  31.133  1.00  0.00     0.023 A 
ATOM     82  C   UNL A   1      38.310  31.906  30.454  1.00  0.00     0.012 A 
ATOM     83  C   UNL A   1      39.464  31.421  32.542  1.00  0.00     0.148 A 
ATOM     84  C   UNL A   1      37.201  32.360  31.165  1.00  0.00     0.002 A 
ATOM     85  C   UNL A   1      38.338  31.836  33.243  1.00  0.00     0.091 A 
ATOM     86  F   UNL A   1      40.566  30.981  33.165  1.00  0.00    -0.205 F 
ATOM     87  C   UNL A   1      37.208  32.311  32.557  1.00  0.00     0.022 A 
BRANCH  85  88
ATOM     88  S   UNL A   1      38.213  31.735  35.033  1.00  0.00     0.127 S 
ATOM     89  O   UNL A   1      36.902  32.337  35.272  1.00  0.00    -0.237 OA
ATOM     90  O   UNL A   1      38.272  30.291  35.262  1.00  0.00    -0.237 OA
ATOM     91  O   UNL A   1      39.341  32.488  35.562  1.00  0.00    -0.744 OA
ENDBRANCH  85  88
ENDBRANCH  67  81
BRANCH  68  92
ATOM     92  C   UNL A   1      47.026  27.663  25.788  1.00  0.00     0.023 A 
ATOM     93  C   UNL A   1      46.981  27.727  24.380  1.00  0.00     0.012 A 
ATOM     94  C   UNL A   1      48.132  27.047  26.408  1.00  0.00     0.148 A 
ATOM     95  C   UNL A   1      47.997  27.165  23.607  1.00  0.00     0.002 A 
ATOM     96  C   UNL A   1      49.169  26.540  25.632  1.00  0.00     0.091 A 
ATOM     97  F   UNL A   1      48.149  26.970  27.747  1.00  0.00    -0.205 F 
ATOM     98  C   UNL A   1      49.096  26.582  24.232  1.00  0.00     0.022 A 
BRANCH  96  99
ATOM     99  S   UNL A   1      50.679  25.888  26.356  1.00  0.00     0.127 S 
ATOM    100  O   UNL A   1      51.534  25.738  25.182  1.00  0.00    -0.237 OA
ATOM    101  O   UNL A   1      51.068  26.964  27.268  1.00  0.00    -0.237 OA
ATOM    102  O   UNL A   1      50.289  24.652  27.022  1.00  0.00    -0.744 OA
ENDBRANCH  96  99
ENDBRANCH  68  92
BRANCH  80 103
ATOM    103  C   UNL A   1      40.620  25.398  27.434  1.00  0.00     0.023 A 
ATOM    104  C   UNL A   1      39.389  25.478  26.756  1.00  0.00     0.012 A 
ATOM    105  C   UNL A   1      41.187  24.133  27.695  1.00  0.00     0.148 A 
ATOM    106  C   UNL A   1      38.724  24.320  26.356  1.00  0.00     0.002 A 
ATOM    107  C   UNL A   1      40.544  22.986  27.250  1.00  0.00     0.091 A 
ATOM    108  F   UNL A   1      42.352  24.080  28.355  1.00  0.00    -0.205 F 
ATOM    109  C   UNL A   1      39.307  23.076  26.589  1.00  0.00     0.022 A 
BRANCH 107 110
ATOM    110  S   UNL A   1      41.267  21.349  27.410  1.00  0.00     0.127 S 
ATOM    111  O   UNL A   1      40.905  20.996  28.782  1.00  0.00    -0.237 OA
ATOM    112  O   UNL A   1      40.556  20.594  26.378  1.00  0.00    -0.237 OA
ATOM    113  O   UNL A   1      42.694  21.513  27.167  1.00  0.00    -0.744 OA
ENDBRANCH 107 110
ENDBRANCH  80 103
ENDBRANCH  54  55
ENDBRANCH  47  49
ENDBRANCH  46  47
ENDBRANCH  45  46
ENDBRANCH  44  45
ENDBRANCH  43  44
ENDBRANCH  42  43
ENDBRANCH   1  42
TORSDOF 26
ENDMDL
