MODEL 1
REMARK VINA RESULT:      -9.8      0.000      0.000
REMARK SMILES CCC(CC)(NC(=O)N[C@@H](C)[C@@H]1CCCO1)C(=O)OCCOCCOCCOC(=O)c1ccc(-c2c3nc(c(-c4cccc(S(=O)(=O)[O-])c4F)c4ccc([nH]4)c(-c4cccc(S(=O)(=O)[O-])c4F)c4nc(c(-c5cccc(S(=O)(=O)[O-])c5F)c5ccc2[nH]5)C=C4)C=C3)cc1
REMARK SMILES IDX 23 1 22 2 21 3 20 4 19 5 17 6 18 7 3 8 2 9 1 10 4 11 5 12
REMARK SMILES IDX 6 13 7 14 8 16 9 17 10 19 11 20 12 21 13 22 16 23 14 24
REMARK SMILES IDX 15 25 24 26 25 27 26 28 27 29 28 30 29 31 30 32 31 33 32 34
REMARK SMILES IDX 93 35 33 36 92 37 34 38 35 39 36 40 86 41 37 42 91 43 85 44
REMARK SMILES IDX 87 45 38 46 90 47 84 48 83 49 39 51 71 52 51 53 70 54 52 55
REMARK SMILES IDX 55 56 69 57 88 58 53 59 54 60 68 62 89 63 56 64 40 65 41 66
REMARK SMILES IDX 49 67 42 68 44 69 50 70 43 71 45 72 46 73 47 74 48 75 72 76
REMARK SMILES IDX 73 77 81 78 74 79 76 80 82 81 75 82 77 83 78 84 79 85 80 86
REMARK SMILES IDX 57 87 58 88 66 89 59 90 61 91 67 92 60 93 62 94 63 95 64 96
REMARK SMILES IDX 65 97
REMARK H PARENT 6 15 9 18 87 50 55 61
REMARK Flexibility Score: inf
ROOT
ATOM      1  C   UNL A   1      33.994  32.302  28.245  1.00  0.00     0.188 C 
ENDROOT
BRANCH   1   2
ATOM      2  O   UNL A   1      33.846  31.145  27.278  1.00  0.00    -0.376 OA
BRANCH   2   3
ATOM      3  C   UNL A   1      32.738  29.601  26.611  1.00  0.00     0.202 C 
BRANCH   3   4
ATOM      4  C   UNL A   1      32.993  27.917  27.001  1.00  0.00     0.261 C 
BRANCH   4   5
ATOM      5  O   UNL A   1      33.910  27.162  26.122  1.00  0.00    -0.461 OA
BRANCH   5   6
ATOM      6  C   UNL A   1      33.542  26.733  24.873  1.00  0.00     0.331 C 
ATOM      7  O   UNL A   1      34.014  27.299  23.888  1.00  0.00    -0.249 OA
BRANCH   6   8
ATOM      8  C   UNL A   1      32.259  25.652  24.783  1.00  0.00     0.139 C 
BRANCH   8   9
ATOM      9  C   UNL A   1      32.546  24.715  23.533  1.00  0.00     0.037 C 
ATOM     10  C   UNL A   1      31.421  24.224  22.648  1.00  0.00     0.007 C 
ENDBRANCH   8   9
BRANCH   8  11
ATOM     11  C   UNL A   1      31.026  26.577  24.544  1.00  0.00     0.037 C 
ATOM     12  C   UNL A   1      29.754  26.250  25.332  1.00  0.00     0.007 C 
ENDBRANCH   8  11
BRANCH   8  13
ATOM     13  N   UNL A   1      31.725  24.547  25.750  1.00  0.00    -0.322 N 
ATOM     14  C   UNL A   1      32.025  23.572  26.615  1.00  0.00     0.316 C 
ATOM     15  H   UNL A   1      30.741  24.584  25.700  1.00  0.00     0.166 HD
ATOM     16  O   UNL A   1      31.196  23.285  27.480  1.00  0.00    -0.249 OA
ATOM     17  N   UNL A   1      33.107  22.797  26.472  1.00  0.00    -0.333 N 
ATOM     18  H   UNL A   1      33.252  22.078  27.129  1.00  0.00     0.165 HD
BRANCH  17  19
ATOM     19  C   UNL A   1      34.072  22.953  25.415  1.00  0.00     0.109 C 
ATOM     20  C   UNL A   1      35.352  23.569  25.949  1.00  0.00     0.034 C 
BRANCH  19  21
ATOM     21  C   UNL A   1      34.160  21.619  24.515  1.00  0.00     0.140 C 
ATOM     22  C   UNL A   1      32.471  20.874  23.707  1.00  0.00     0.036 C 
ATOM     23  O   UNL A   1      35.294  20.094  24.878  1.00  0.00    -0.376 OA
ATOM     24  C   UNL A   1      32.609  18.901  23.756  1.00  0.00     0.031 C 
ATOM     25  C   UNL A   1      34.397  18.452  24.497  1.00  0.00     0.160 C 
ENDBRANCH  19  21
ENDBRANCH  17  19
ENDBRANCH   8  13
ENDBRANCH   6   8
ENDBRANCH   5   6
ENDBRANCH   4   5
ENDBRANCH   3   4
ENDBRANCH   2   3
ENDBRANCH   1   2
BRANCH   1  26
ATOM     26  C   UNL A   1      33.438  33.759  27.882  1.00  0.00     0.188 C 
BRANCH  26  27
ATOM     27  O   UNL A   1      32.731  34.453  28.903  1.00  0.00    -0.376 OA
BRANCH  27  28
ATOM     28  C   UNL A   1      33.288  35.413  29.775  1.00  0.00     0.202 C 
BRANCH  28  29
ATOM     29  C   UNL A   1      33.965  34.992  31.089  1.00  0.00     0.261 C 
BRANCH  29  30
ATOM     30  O   UNL A   1      35.072  34.101  30.952  1.00  0.00    -0.460 OA
BRANCH  30  31
ATOM     31  C   UNL A   1      34.998  32.964  31.689  1.00  0.00     0.338 C 
ATOM     32  O   UNL A   1      33.999  32.517  32.223  1.00  0.00    -0.246 OA
BRANCH  31  33
ATOM     33  C   UNL A   1      36.241  32.189  31.419  1.00  0.00     0.060 A 
ATOM     34  C   UNL A   1      36.319  30.893  31.964  1.00  0.00     0.016 A 
ATOM     35  C   UNL A   1      37.204  32.624  30.502  1.00  0.00     0.016 A 
ATOM     36  C   UNL A   1      37.370  30.051  31.626  1.00  0.00     0.010 A 
ATOM     37  C   UNL A   1      38.300  31.805  30.217  1.00  0.00     0.010 A 
ATOM     38  C   UNL A   1      38.408  30.541  30.826  1.00  0.00    -0.014 A 
BRANCH  38  39
ATOM     39  C   UNL A   1      39.731  29.906  31.007  1.00  0.00     0.031 A 
ATOM     40  C   UNL A   1      40.528  30.364  32.201  1.00  0.00     0.074 A 
ATOM     41  C   UNL A   1      40.169  28.897  30.235  1.00  0.00     0.049 A 
ATOM     42  N   UNL A   1      41.681  29.944  32.645  1.00  0.00    -0.248 NA
ATOM     43  C   UNL A   1      39.929  31.439  33.016  1.00  0.00     0.031 C 
ATOM     44  C   UNL A   1      39.471  28.333  29.083  1.00  0.00     0.029 A 
ATOM     45  N   UNL A   1      41.331  28.170  30.319  1.00  0.00    -0.354 N 
ATOM     46  C   UNL A   1      41.942  30.704  33.779  1.00  0.00     0.074 A 
ATOM     47  C   UNL A   1      40.850  31.631  33.942  1.00  0.00     0.031 C 
ATOM     48  C   UNL A   1      40.238  27.368  28.542  1.00  0.00     0.029 A 
ATOM     49  C   UNL A   1      41.484  27.259  29.302  1.00  0.00     0.049 A 
ATOM     50  H   UNL A   1      41.991  28.290  31.039  1.00  0.00     0.167 HD
ATOM     51  C   UNL A   1      42.990  30.627  34.628  1.00  0.00     0.034 A 
ATOM     52  C   UNL A   1      42.526  26.454  29.013  1.00  0.00     0.034 A 
ATOM     53  C   UNL A   1      44.085  29.717  34.462  1.00  0.00     0.049 A 
ATOM     54  C   UNL A   1      43.726  26.442  29.931  1.00  0.00     0.074 A 
ATOM     55  C   UNL A   1      45.203  29.565  35.259  1.00  0.00     0.029 A 
ATOM     56  N   UNL A   1      44.207  28.816  33.417  1.00  0.00    -0.354 N 
ATOM     57  N   UNL A   1      43.927  27.112  31.041  1.00  0.00    -0.248 NA
ATOM     58  C   UNL A   1      44.826  25.535  29.575  1.00  0.00     0.031 C 
ATOM     59  C   UNL A   1      46.025  28.598  34.673  1.00  0.00     0.029 A 
ATOM     60  C   UNL A   1      45.389  28.109  33.542  1.00  0.00     0.049 A 
ATOM     61  H   UNL A   1      43.551  28.696  32.693  1.00  0.00     0.167 HD
ATOM     62  C   UNL A   1      45.154  26.674  31.536  1.00  0.00     0.074 A 
ATOM     63  C   UNL A   1      45.636  25.666  30.616  1.00  0.00     0.031 C 
ATOM     64  C   UNL A   1      45.829  27.075  32.643  1.00  0.00     0.034 A 
BRANCH  51  65
ATOM     65  C   UNL A   1      42.992  31.559  35.809  1.00  0.00     0.023 A 
ATOM     66  C   UNL A   1      42.430  31.143  37.033  1.00  0.00     0.012 A 
ATOM     67  C   UNL A   1      43.572  32.836  35.711  1.00  0.00     0.148 A 
ATOM     68  C   UNL A   1      42.419  31.997  38.135  1.00  0.00     0.002 A 
ATOM     69  C   UNL A   1      43.605  33.661  36.827  1.00  0.00     0.091 A 
ATOM     70  F   UNL A   1      44.072  33.221  34.528  1.00  0.00    -0.205 F 
ATOM     71  C   UNL A   1      43.017  33.251  38.035  1.00  0.00     0.022 A 
BRANCH  69  72
ATOM     72  S   UNL A   1      44.418  35.261  36.823  1.00  0.00     0.127 S 
ATOM     73  O   UNL A   1      45.775  34.902  36.413  1.00  0.00    -0.237 OA
ATOM     74  O   UNL A   1      43.649  35.991  35.816  1.00  0.00    -0.237 OA
ATOM     75  O   UNL A   1      44.298  35.780  38.179  1.00  0.00    -0.744 OA
ENDBRANCH  69  72
ENDBRANCH  51  65
BRANCH  52  76
ATOM     76  C   UNL A   1      42.505  25.598  27.790  1.00  0.00     0.023 A 
ATOM     77  C   UNL A   1      42.924  26.120  26.551  1.00  0.00     0.012 A 
ATOM     78  C   UNL A   1      42.021  24.277  27.850  1.00  0.00     0.148 A 
ATOM     79  C   UNL A   1      42.816  25.356  25.386  1.00  0.00     0.002 A 
ATOM     80  C   UNL A   1      41.971  23.503  26.697  1.00  0.00     0.091 A 
ATOM     81  F   UNL A   1      41.606  23.805  29.034  1.00  0.00    -0.205 F 
ATOM     82  C   UNL A   1      42.348  24.047  25.460  1.00  0.00     0.022 A 
BRANCH  80  83
ATOM     83  S   UNL A   1      41.484  21.775  26.720  1.00  0.00     0.127 S 
ATOM     84  O   UNL A   1      40.045  21.873  26.952  1.00  0.00    -0.237 OA
ATOM     85  O   UNL A   1      41.863  21.340  25.375  1.00  0.00    -0.237 OA
ATOM     86  O   UNL A   1      42.255  21.160  27.792  1.00  0.00    -0.744 OA
ENDBRANCH  80  83
ENDBRANCH  52  76
BRANCH  64  87
ATOM     87  C   UNL A   1      47.130  26.382  32.962  1.00  0.00     0.023 A 
ATOM     88  C   UNL A   1      48.346  26.878  32.451  1.00  0.00     0.012 A 
ATOM     89  C   UNL A   1      47.148  25.266  33.823  1.00  0.00     0.148 A 
ATOM     90  C   UNL A   1      49.551  26.243  32.750  1.00  0.00     0.002 A 
ATOM     91  C   UNL A   1      48.358  24.674  34.163  1.00  0.00     0.091 A 
ATOM     92  F   UNL A   1      45.981  24.802  34.293  1.00  0.00    -0.205 F 
ATOM     93  C   UNL A   1      49.558  25.150  33.613  1.00  0.00     0.022 A 
BRANCH  91  94
ATOM     94  S   UNL A   1      48.474  23.328  35.345  1.00  0.00     0.127 S 
ATOM     95  O   UNL A   1      47.859  22.227  34.604  1.00  0.00    -0.237 OA
ATOM     96  O   UNL A   1      49.920  23.206  35.531  1.00  0.00    -0.237 OA
ATOM     97  O   UNL A   1      47.746  23.765  36.529  1.00  0.00    -0.744 OA
ENDBRANCH  91  94
ENDBRANCH  64  87
ENDBRANCH  38  39
ENDBRANCH  31  33
ENDBRANCH  30  31
ENDBRANCH  29  30
ENDBRANCH  28  29
ENDBRANCH  27  28
ENDBRANCH  26  27
ENDBRANCH   1  26
TORSDOF 25
ENDMDL
MODEL 2
REMARK VINA RESULT:      -9.7      2.435      3.162
REMARK SMILES CCC(CC)(NC(=O)N[C@@H](C)[C@@H]1CCCO1)C(=O)OCCOCCOCCOC(=O)c1ccc(-c2c3nc(c(-c4cccc(S(=O)(=O)[O-])c4F)c4ccc([nH]4)c(-c4cccc(S(=O)(=O)[O-])c4F)c4nc(c(-c5cccc(S(=O)(=O)[O-])c5F)c5ccc2[nH]5)C=C4)C=C3)cc1
REMARK SMILES IDX 23 1 22 2 21 3 20 4 19 5 17 6 18 7 3 8 2 9 1 10 4 11 5 12
REMARK SMILES IDX 6 13 7 14 8 16 9 17 10 19 11 20 12 21 13 22 16 23 14 24
REMARK SMILES IDX 15 25 24 26 25 27 26 28 27 29 28 30 29 31 30 32 31 33 32 34
REMARK SMILES IDX 93 35 33 36 92 37 34 38 35 39 36 40 86 41 37 42 91 43 85 44
REMARK SMILES IDX 87 45 38 46 90 47 84 48 83 49 39 51 71 52 51 53 70 54 52 55
REMARK SMILES IDX 55 56 69 57 88 58 53 59 54 60 68 62 89 63 56 64 40 65 41 66
REMARK SMILES IDX 49 67 42 68 44 69 50 70 43 71 45 72 46 73 47 74 48 75 72 76
REMARK SMILES IDX 73 77 81 78 74 79 76 80 82 81 75 82 77 83 78 84 79 85 80 86
REMARK SMILES IDX 57 87 58 88 66 89 59 90 61 91 67 92 60 93 62 94 63 95 64 96
REMARK SMILES IDX 65 97
REMARK H PARENT 6 15 9 18 87 50 55 61
REMARK Flexibility Score: inf
ROOT
ATOM      1  C   UNL A   1      33.275  29.863  27.213  1.00  0.00     0.188 C 
ENDROOT
BRANCH   1   2
ATOM      2  O   UNL A   1      32.730  28.484  26.903  1.00  0.00    -0.376 OA
BRANCH   2   3
ATOM      3  C   UNL A   1      32.764  26.855  25.719  1.00  0.00     0.202 C 
BRANCH   3   4
ATOM      4  C   UNL A   1      33.835  26.601  24.362  1.00  0.00     0.261 C 
BRANCH   4   5
ATOM      5  O   UNL A   1      33.246  25.983  23.156  1.00  0.00    -0.461 OA
BRANCH   5   6
ATOM      6  C   UNL A   1      33.295  24.633  22.925  1.00  0.00     0.331 C 
ATOM      7  O   UNL A   1      33.987  24.212  21.999  1.00  0.00    -0.249 OA
BRANCH   6   8
ATOM      8  C   UNL A   1      32.184  23.676  23.747  1.00  0.00     0.139 C 
BRANCH   8   9
ATOM      9  C   UNL A   1      32.542  22.169  23.398  1.00  0.00     0.037 C 
ATOM     10  C   UNL A   1      31.918  21.471  22.210  1.00  0.00     0.007 C 
ENDBRANCH   8   9
BRANCH   8  11
ATOM     11  C   UNL A   1      30.816  24.105  23.131  1.00  0.00     0.037 C 
ATOM     12  C   UNL A   1      29.971  25.092  23.943  1.00  0.00     0.007 C 
ENDBRANCH   8  11
BRANCH   8  13
ATOM     13  N   UNL A   1      31.870  23.468  25.263  1.00  0.00    -0.322 N 
ATOM     14  C   UNL A   1      32.312  23.557  26.523  1.00  0.00     0.316 C 
ATOM     15  H   UNL A   1      30.950  23.121  25.313  1.00  0.00     0.166 HD
ATOM     16  O   UNL A   1      31.482  23.695  27.423  1.00  0.00    -0.249 OA
ATOM     17  N   UNL A   1      33.592  23.338  26.849  1.00  0.00    -0.333 N 
ATOM     18  H   UNL A   1      33.842  23.391  27.800  1.00  0.00     0.165 HD
BRANCH  17  19
ATOM     19  C   UNL A   1      34.623  23.032  25.892  1.00  0.00     0.109 C 
ATOM     20  C   UNL A   1      35.685  24.115  25.889  1.00  0.00     0.034 C 
BRANCH  19  21
ATOM     21  C   UNL A   1      35.076  21.490  26.009  1.00  0.00     0.140 C 
ATOM     22  C   UNL A   1      36.966  20.988  25.519  1.00  0.00     0.036 C 
ATOM     23  O   UNL A   1      33.983  19.961  25.547  1.00  0.00    -0.376 OA
ATOM     24  C   UNL A   1      36.901  19.217  24.639  1.00  0.00     0.031 C 
ATOM     25  C   UNL A   1      35.011  18.606  24.679  1.00  0.00     0.160 C 
ENDBRANCH  19  21
ENDBRANCH  17  19
ENDBRANCH   8  13
ENDBRANCH   6   8
ENDBRANCH   5   6
ENDBRANCH   4   5
ENDBRANCH   3   4
ENDBRANCH   2   3
ENDBRANCH   1   2
BRANCH   1  26
ATOM     26  C   UNL A   1      32.514  31.182  26.721  1.00  0.00     0.188 C 
BRANCH  26  27
ATOM     27  O   UNL A   1      32.307  32.208  27.685  1.00  0.00    -0.376 OA
BRANCH  27  28
ATOM     28  C   UNL A   1      32.500  33.588  27.464  1.00  0.00     0.202 C 
BRANCH  28  29
ATOM     29  C   UNL A   1      33.913  34.187  27.365  1.00  0.00     0.261 C 
BRANCH  29  30
ATOM     30  O   UNL A   1      34.292  35.048  28.439  1.00  0.00    -0.460 OA
BRANCH  30  31
ATOM     31  C   UNL A   1      34.288  34.479  29.671  1.00  0.00     0.338 C 
ATOM     32  O   UNL A   1      33.351  34.454  30.448  1.00  0.00    -0.246 OA
BRANCH  31  33
ATOM     33  C   UNL A   1      35.482  33.591  29.744  1.00  0.00     0.060 A 
ATOM     34  C   UNL A   1      35.278  32.281  30.218  1.00  0.00     0.016 A 
ATOM     35  C   UNL A   1      36.710  33.952  29.180  1.00  0.00     0.016 A 
ATOM     36  C   UNL A   1      36.305  31.348  30.165  1.00  0.00     0.010 A 
ATOM     37  C   UNL A   1      37.766  33.035  29.192  1.00  0.00     0.010 A 
ATOM     38  C   UNL A   1      37.574  31.752  29.738  1.00  0.00    -0.014 A 
BRANCH  38  39
ATOM     39  C   UNL A   1      38.721  30.985  30.272  1.00  0.00     0.031 A 
ATOM     40  C   UNL A   1      39.102  31.272  31.701  1.00  0.00     0.074 A 
ATOM     41  C   UNL A   1      39.328  30.004  29.583  1.00  0.00     0.049 A 
ATOM     42  N   UNL A   1      40.014  30.713  32.449  1.00  0.00    -0.248 NA
ATOM     43  C   UNL A   1      38.333  32.330  32.386  1.00  0.00     0.031 C 
ATOM     44  C   UNL A   1      39.020  29.600  28.214  1.00  0.00     0.029 A 
ATOM     45  N   UNL A   1      40.348  29.169  29.963  1.00  0.00    -0.354 N 
ATOM     46  C   UNL A   1      39.929  31.354  33.680  1.00  0.00     0.074 A 
ATOM     47  C   UNL A   1      38.903  32.362  33.575  1.00  0.00     0.031 C 
ATOM     48  C   UNL A   1      39.862  28.613  27.854  1.00  0.00     0.029 A 
ATOM     49  C   UNL A   1      40.775  28.330  28.962  1.00  0.00     0.049 A 
ATOM     50  H   UNL A   1      40.738  29.170  30.867  1.00  0.00     0.167 HD
ATOM     51  C   UNL A   1      40.628  31.114  34.811  1.00  0.00     0.034 A 
ATOM     52  C   UNL A   1      41.803  27.458  28.944  1.00  0.00     0.034 A 
ATOM     53  C   UNL A   1      41.658  30.122  34.915  1.00  0.00     0.049 A 
ATOM     54  C   UNL A   1      42.626  27.263  30.197  1.00  0.00     0.074 A 
ATOM     55  C   UNL A   1      42.436  29.805  36.012  1.00  0.00     0.029 A 
ATOM     56  N   UNL A   1      42.065  29.300  33.878  1.00  0.00    -0.354 N 
ATOM     57  N   UNL A   1      42.487  27.821  31.376  1.00  0.00    -0.248 NA
ATOM     58  C   UNL A   1      43.724  26.289  30.124  1.00  0.00     0.031 C 
ATOM     59  C   UNL A   1      43.344  28.816  35.627  1.00  0.00     0.029 A 
ATOM     60  C   UNL A   1      43.092  28.478  34.306  1.00  0.00     0.049 A 
ATOM     61  H   UNL A   1      41.681  29.298  32.972  1.00  0.00     0.167 HD
ATOM     62  C   UNL A   1      43.451  27.234  32.193  1.00  0.00     0.074 A 
ATOM     63  C   UNL A   1      44.148  26.262  31.380  1.00  0.00     0.031 C 
ATOM     64  C   UNL A   1      43.743  27.483  33.495  1.00  0.00     0.034 A 
BRANCH  51  65
ATOM     65  C   UNL A   1      40.294  31.946  36.019  1.00  0.00     0.023 A 
ATOM     66  C   UNL A   1      41.150  32.998  36.405  1.00  0.00     0.012 A 
ATOM     67  C   UNL A   1      39.120  31.701  36.754  1.00  0.00     0.148 A 
ATOM     68  C   UNL A   1      40.857  33.775  37.525  1.00  0.00     0.002 A 
ATOM     69  C   UNL A   1      38.809  32.512  37.836  1.00  0.00     0.091 A 
ATOM     70  F   UNL A   1      38.339  30.676  36.386  1.00  0.00    -0.205 F 
ATOM     71  C   UNL A   1      39.681  33.540  38.232  1.00  0.00     0.022 A 
BRANCH  69  72
ATOM     72  S   UNL A   1      37.282  32.342  38.765  1.00  0.00     0.127 S 
ATOM     73  O   UNL A   1      36.330  33.037  37.900  1.00  0.00    -0.237 OA
ATOM     74  O   UNL A   1      37.116  30.889  38.811  1.00  0.00    -0.237 OA
ATOM     75  O   UNL A   1      37.521  32.972  40.057  1.00  0.00    -0.744 OA
ENDBRANCH  69  72
ENDBRANCH  51  65
BRANCH  52  76
ATOM     76  C   UNL A   1      42.137  26.707  27.699  1.00  0.00     0.023 A 
ATOM     77  C   UNL A   1      42.682  27.380  26.588  1.00  0.00     0.012 A 
ATOM     78  C   UNL A   1      41.867  25.328  27.600  1.00  0.00     0.148 A 
ATOM     79  C   UNL A   1      42.907  26.703  25.388  1.00  0.00     0.002 A 
ATOM     80  C   UNL A   1      42.148  24.648  26.422  1.00  0.00     0.091 A 
ATOM     81  F   UNL A   1      41.328  24.709  28.660  1.00  0.00    -0.205 F 
ATOM     82  C   UNL A   1      42.648  25.337  25.306  1.00  0.00     0.022 A 
BRANCH  80  83
ATOM     83  S   UNL A   1      41.946  22.871  26.266  1.00  0.00     0.127 S 
ATOM     84  O   UNL A   1      42.548  22.616  24.959  1.00  0.00    -0.237 OA
ATOM     85  O   UNL A   1      42.720  22.380  27.406  1.00  0.00    -0.237 OA
ATOM     86  O   UNL A   1      40.514  22.625  26.358  1.00  0.00    -0.744 OA
ENDBRANCH  80  83
ENDBRANCH  52  76
BRANCH  64  87
ATOM     87  C   UNL A   1      44.818  26.649  34.146  1.00  0.00     0.023 A 
ATOM     88  C   UNL A   1      44.491  25.441  34.792  1.00  0.00     0.012 A 
ATOM     89  C   UNL A   1      46.169  27.044  34.063  1.00  0.00     0.148 A 
ATOM     90  C   UNL A   1      45.485  24.666  35.389  1.00  0.00     0.002 A 
ATOM     91  C   UNL A   1      47.160  26.237  34.608  1.00  0.00     0.091 A 
ATOM     92  F   UNL A   1      46.462  28.201  33.452  1.00  0.00    -0.205 F 
ATOM     93  C   UNL A   1      46.818  25.057  35.288  1.00  0.00     0.022 A 
BRANCH  91  94
ATOM     94  S   UNL A   1      48.908  26.608  34.439  1.00  0.00     0.127 S 
ATOM     95  O   UNL A   1      49.234  25.940  33.179  1.00  0.00    -0.237 OA
ATOM     96  O   UNL A   1      48.908  28.069  34.372  1.00  0.00    -0.237 OA
ATOM     97  O   UNL A   1      49.555  26.056  35.622  1.00  0.00    -0.744 OA
ENDBRANCH  91  94
ENDBRANCH  64  87
ENDBRANCH  38  39
ENDBRANCH  31  33
ENDBRANCH  30  31
ENDBRANCH  29  30
ENDBRANCH  28  29
ENDBRANCH  27  28
ENDBRANCH  26  27
ENDBRANCH   1  26
TORSDOF 25
ENDMDL
MODEL 3
REMARK VINA RESULT:      -9.2      4.908     10.259
REMARK SMILES CCC(CC)(NC(=O)N[C@@H](C)[C@@H]1CCCO1)C(=O)OCCOCCOCCOC(=O)c1ccc(-c2c3nc(c(-c4cccc(S(=O)(=O)[O-])c4F)c4ccc([nH]4)c(-c4cccc(S(=O)(=O)[O-])c4F)c4nc(c(-c5cccc(S(=O)(=O)[O-])c5F)c5ccc2[nH]5)C=C4)C=C3)cc1
REMARK SMILES IDX 23 1 22 2 21 3 20 4 19 5 17 6 18 7 3 8 2 9 1 10 4 11 5 12
REMARK SMILES IDX 6 13 7 14 8 16 9 17 10 19 11 20 12 21 13 22 16 23 14 24
REMARK SMILES IDX 15 25 24 26 25 27 26 28 27 29 28 30 29 31 30 32 31 33 32 34
REMARK SMILES IDX 93 35 33 36 92 37 34 38 35 39 36 40 86 41 37 42 91 43 85 44
REMARK SMILES IDX 87 45 38 46 90 47 84 48 83 49 39 51 71 52 51 53 70 54 52 55
REMARK SMILES IDX 55 56 69 57 88 58 53 59 54 60 68 62 89 63 56 64 40 65 41 66
REMARK SMILES IDX 49 67 42 68 44 69 50 70 43 71 45 72 46 73 47 74 48 75 72 76
REMARK SMILES IDX 73 77 81 78 74 79 76 80 82 81 75 82 77 83 78 84 79 85 80 86
REMARK SMILES IDX 57 87 58 88 66 89 59 90 61 91 67 92 60 93 62 94 63 95 64 96
REMARK SMILES IDX 65 97
REMARK H PARENT 6 15 9 18 87 50 55 61
REMARK Flexibility Score: inf
ROOT
ATOM      1  C   UNL A   1      39.765  23.022  26.854  1.00  0.00     0.188 C 
ENDROOT
BRANCH   1   2
ATOM      2  O   UNL A   1      38.620  23.072  25.863  1.00  0.00    -0.376 OA
BRANCH   2   3
ATOM      3  C   UNL A   1      37.330  22.071  24.684  1.00  0.00     0.202 C 
BRANCH   3   4
ATOM      4  C   UNL A   1      36.201  22.792  23.563  1.00  0.00     0.261 C 
BRANCH   4   5
ATOM      5  O   UNL A   1      34.764  22.579  23.835  1.00  0.00    -0.461 OA
BRANCH   5   6
ATOM      6  C   UNL A   1      34.077  23.315  24.764  1.00  0.00     0.331 C 
ATOM      7  O   UNL A   1      34.528  24.406  25.111  1.00  0.00    -0.249 OA
BRANCH   6   8
ATOM      8  C   UNL A   1      32.818  22.546  25.570  1.00  0.00     0.139 C 
BRANCH   8   9
ATOM      9  C   UNL A   1      33.487  21.625  26.677  1.00  0.00     0.037 C 
ATOM     10  C   UNL A   1      34.794  22.013  27.333  1.00  0.00     0.007 C 
ENDBRANCH   8   9
BRANCH   8  11
ATOM     11  C   UNL A   1      32.136  21.702  24.448  1.00  0.00     0.037 C 
ATOM     12  C   UNL A   1      32.546  20.230  24.345  1.00  0.00     0.007 C 
ENDBRANCH   8  11
BRANCH   8  13
ATOM     13  N   UNL A   1      31.625  23.070  26.431  1.00  0.00    -0.322 N 
ATOM     14  C   UNL A   1      30.431  23.675  26.445  1.00  0.00     0.316 C 
ATOM     15  H   UNL A   1      31.847  22.868  27.369  1.00  0.00     0.166 HD
ATOM     16  O   UNL A   1      29.671  23.443  27.386  1.00  0.00    -0.249 OA
ATOM     17  N   UNL A   1      30.106  24.636  25.571  1.00  0.00    -0.333 N 
ATOM     18  H   UNL A   1      29.222  25.060  25.658  1.00  0.00     0.165 HD
BRANCH  17  19
ATOM     19  C   UNL A   1      30.973  25.085  24.513  1.00  0.00     0.109 C 
ATOM     20  C   UNL A   1      30.268  24.994  23.172  1.00  0.00     0.034 C 
BRANCH  19  21
ATOM     21  C   UNL A   1      31.712  26.459  24.919  1.00  0.00     0.140 C 
ATOM     22  C   UNL A   1      32.059  26.842  26.868  1.00  0.00     0.036 C 
ATOM     23  O   UNL A   1      31.418  28.180  24.083  1.00  0.00    -0.376 OA
ATOM     24  C   UNL A   1      31.811  28.785  27.144  1.00  0.00     0.031 C 
ATOM     25  C   UNL A   1      31.411  29.588  25.372  1.00  0.00     0.160 C 
ENDBRANCH  19  21
ENDBRANCH  17  19
ENDBRANCH   8  13
ENDBRANCH   6   8
ENDBRANCH   5   6
ENDBRANCH   4   5
ENDBRANCH   3   4
ENDBRANCH   2   3
ENDBRANCH   1   2
BRANCH   1  26
ATOM     26  C   UNL A   1      40.444  21.632  27.262  1.00  0.00     0.188 C 
BRANCH  26  27
ATOM     27  O   UNL A   1      40.544  20.639  26.248  1.00  0.00    -0.376 OA
BRANCH  27  28
ATOM     28  C   UNL A   1      41.021  19.324  26.436  1.00  0.00     0.202 C 
BRANCH  28  29
ATOM     29  C   UNL A   1      42.345  18.863  25.807  1.00  0.00     0.261 C 
BRANCH  29  30
ATOM     30  O   UNL A   1      43.472  19.701  26.064  1.00  0.00    -0.460 OA
BRANCH  30  31
ATOM     31  C   UNL A   1      44.124  20.153  24.963  1.00  0.00     0.338 C 
ATOM     32  O   UNL A   1      44.123  19.632  23.862  1.00  0.00    -0.246 OA
BRANCH  31  33
ATOM     33  C   UNL A   1      44.523  21.561  25.242  1.00  0.00     0.060 A 
ATOM     34  C   UNL A   1      45.102  21.826  26.498  1.00  0.00     0.016 A 
ATOM     35  C   UNL A   1      44.525  22.543  24.245  1.00  0.00     0.016 A 
ATOM     36  C   UNL A   1      45.644  23.075  26.770  1.00  0.00     0.010 A 
ATOM     37  C   UNL A   1      45.005  23.822  24.543  1.00  0.00     0.010 A 
ATOM     38  C   UNL A   1      45.512  24.099  25.826  1.00  0.00    -0.014 A 
BRANCH  38  39
ATOM     39  C   UNL A   1      45.504  25.481  26.354  1.00  0.00     0.031 A 
ATOM     40  C   UNL A   1      46.839  26.176  26.409  1.00  0.00     0.074 A 
ATOM     41  C   UNL A   1      44.373  26.139  26.661  1.00  0.00     0.049 A 
ATOM     42  N   UNL A   1      47.128  27.400  26.760  1.00  0.00    -0.248 NA
ATOM     43  C   UNL A   1      48.012  25.381  25.995  1.00  0.00     0.031 C 
ATOM     44  C   UNL A   1      43.020  25.592  26.604  1.00  0.00     0.029 A 
ATOM     45  N   UNL A   1      44.201  27.430  27.093  1.00  0.00    -0.354 N 
ATOM     46  C   UNL A   1      48.506  27.513  26.614  1.00  0.00     0.074 A 
ATOM     47  C   UNL A   1      49.003  26.233  26.174  1.00  0.00     0.031 C 
ATOM     48  C   UNL A   1      42.155  26.535  27.022  1.00  0.00     0.029 A 
ATOM     49  C   UNL A   1      42.896  27.742  27.390  1.00  0.00     0.049 A 
ATOM     50  H   UNL A   1      44.942  28.072  27.181  1.00  0.00     0.167 HD
ATOM     51  C   UNL A   1      49.293  28.594  26.808  1.00  0.00     0.034 A 
ATOM     52  C   UNL A   1      42.376  28.866  27.922  1.00  0.00     0.034 A 
ATOM     53  C   UNL A   1      48.805  29.864  27.259  1.00  0.00     0.049 A 
ATOM     54  C   UNL A   1      43.287  30.036  28.208  1.00  0.00     0.074 A 
ATOM     55  C   UNL A   1      49.520  31.022  27.498  1.00  0.00     0.029 A 
ATOM     56  N   UNL A   1      47.480  30.137  27.555  1.00  0.00    -0.354 N 
ATOM     57  N   UNL A   1      44.576  30.156  27.995  1.00  0.00    -0.248 NA
ATOM     58  C   UNL A   1      42.662  31.241  28.774  1.00  0.00     0.031 C 
ATOM     59  C   UNL A   1      48.631  31.987  27.980  1.00  0.00     0.029 A 
ATOM     60  C   UNL A   1      47.355  31.446  27.985  1.00  0.00     0.049 A 
ATOM     61  H   UNL A   1      46.737  29.496  27.472  1.00  0.00     0.167 HD
ATOM     62  C   UNL A   1      44.906  31.460  28.360  1.00  0.00     0.074 A 
ATOM     63  C   UNL A   1      43.676  32.095  28.784  1.00  0.00     0.031 C 
ATOM     64  C   UNL A   1      46.115  32.075  28.358  1.00  0.00     0.034 A 
BRANCH  51  65
ATOM     65  C   UNL A   1      50.763  28.435  26.532  1.00  0.00     0.023 A 
ATOM     66  C   UNL A   1      51.252  28.587  25.218  1.00  0.00     0.012 A 
ATOM     67  C   UNL A   1      51.662  28.162  27.578  1.00  0.00     0.148 A 
ATOM     68  C   UNL A   1      52.610  28.438  24.944  1.00  0.00     0.002 A 
ATOM     69  C   UNL A   1      53.020  28.068  27.307  1.00  0.00     0.091 A 
ATOM     70  F   UNL A   1      51.171  27.992  28.814  1.00  0.00    -0.205 F 
ATOM     71  C   UNL A   1      53.495  28.191  25.991  1.00  0.00     0.022 A 
BRANCH  69  72
ATOM     72  S   UNL A   1      54.249  27.828  28.593  1.00  0.00     0.127 S 
ATOM     73  O   UNL A   1      54.149  26.389  28.834  1.00  0.00    -0.237 OA
ATOM     74  O   UNL A   1      55.477  28.251  27.922  1.00  0.00    -0.237 OA
ATOM     75  O   UNL A   1      53.839  28.672  29.708  1.00  0.00    -0.744 OA
ENDBRANCH  69  72
ENDBRANCH  51  65
BRANCH  52  76
ATOM     76  C   UNL A   1      40.920  28.948  28.242  1.00  0.00     0.023 A 
ATOM     77  C   UNL A   1      39.978  29.161  27.216  1.00  0.00     0.012 A 
ATOM     78  C   UNL A   1      40.474  28.862  29.574  1.00  0.00     0.148 A 
ATOM     79  C   UNL A   1      38.626  29.335  27.518  1.00  0.00     0.002 A 
ATOM     80  C   UNL A   1      39.120  28.978  29.863  1.00  0.00     0.091 A 
ATOM     81  F   UNL A   1      41.387  28.681  30.539  1.00  0.00    -0.205 F 
ATOM     82  C   UNL A   1      38.196  29.236  28.839  1.00  0.00     0.022 A 
BRANCH  80  83
ATOM     83  S   UNL A   1      38.468  28.755  31.520  1.00  0.00     0.127 S 
ATOM     84  O   UNL A   1      38.921  27.404  31.842  1.00  0.00    -0.237 OA
ATOM     85  O   UNL A   1      39.146  29.824  32.255  1.00  0.00    -0.237 OA
ATOM     86  O   UNL A   1      37.026  28.924  31.404  1.00  0.00    -0.744 OA
ENDBRANCH  80  83
ENDBRANCH  52  76
BRANCH  64  87
ATOM     87  C   UNL A   1      46.167  33.527  28.763  1.00  0.00     0.023 A 
ATOM     88  C   UNL A   1      46.008  34.542  27.800  1.00  0.00     0.012 A 
ATOM     89  C   UNL A   1      46.315  33.880  30.120  1.00  0.00     0.148 A 
ATOM     90  C   UNL A   1      46.049  35.885  28.174  1.00  0.00     0.002 A 
ATOM     91  C   UNL A   1      46.295  35.218  30.492  1.00  0.00     0.091 A 
ATOM     92  F   UNL A   1      46.473  32.901  31.023  1.00  0.00    -0.205 F 
ATOM     93  C   UNL A   1      46.182  36.223  29.518  1.00  0.00     0.022 A 
BRANCH  91  94
ATOM     94  S   UNL A   1      46.357  35.743  32.208  1.00  0.00     0.127 S 
ATOM     95  O   UNL A   1      44.942  35.719  32.578  1.00  0.00    -0.237 OA
ATOM     96  O   UNL A   1      47.166  34.691  32.824  1.00  0.00    -0.237 OA
ATOM     97  O   UNL A   1      46.977  37.061  32.206  1.00  0.00    -0.744 OA
ENDBRANCH  91  94
ENDBRANCH  64  87
ENDBRANCH  38  39
ENDBRANCH  31  33
ENDBRANCH  30  31
ENDBRANCH  29  30
ENDBRANCH  28  29
ENDBRANCH  27  28
ENDBRANCH  26  27
ENDBRANCH   1  26
TORSDOF 25
ENDMDL
