MODEL 1
REMARK VINA RESULT:      -9.7      0.000      0.000
REMARK SMILES CCc1nn2c(C)c(CCC(=O)OCCOCCOCCOC(=O)c3ccc(-c4c5nc(c(-c6cccc(S(=O)(=O)[O-])c6F)c6ccc([nH]6)c(-c6cccc(S(=O)(=O)[O-])c6F)c6nc(c(-c7cccc(S(=O)(=O)[O-])c7F)c7ccc4[nH]7)C=C6)C=C5)cc3)c(C)nc2c1-c1ccccc1
REMARK SMILES IDX 17 1 16 2 15 3 14 4 13 5 11 6 12 7 10 8 9 9 8 10 3 11 4 12
REMARK SMILES IDX 92 13 5 14 91 15 6 16 90 17 7 18 88 19 89 20 2 21 1 22 93 23
REMARK SMILES IDX 94 24 98 25 95 26 97 27 96 28 18 29 19 30 20 31 21 32 22 33
REMARK SMILES IDX 23 34 24 35 25 36 26 37 87 38 27 39 86 40 28 41 29 42 30 43
REMARK SMILES IDX 80 44 31 45 85 46 79 47 81 48 32 49 84 50 78 51 77 52 33 54
REMARK SMILES IDX 65 55 45 56 64 57 46 58 49 59 63 60 82 61 47 62 48 63 62 65
REMARK SMILES IDX 83 66 50 67 34 68 35 69 43 70 36 71 38 72 44 73 37 74 39 75
REMARK SMILES IDX 40 76 41 77 42 78 66 79 67 80 75 81 68 82 70 83 76 84 69 85
REMARK SMILES IDX 71 86 72 87 73 88 74 89 51 90 52 91 60 92 53 93 55 94 61 95
REMARK SMILES IDX 54 96 56 97 57 98 58 99 59 100
REMARK H PARENT 81 53 49 64
REMARK Flexibility Score: inf
ROOT
ATOM      1  C   UNL A   1      33.841  31.081  27.610  1.00  0.00     0.188 C 
ENDROOT
BRANCH   1   2
ATOM      2  O   UNL A   1      33.426  30.437  26.414  1.00  0.00    -0.376 OA
BRANCH   2   3
ATOM      3  C   UNL A   1      32.835  29.156  26.577  1.00  0.00     0.202 C 
BRANCH   3   4
ATOM      4  C   UNL A   1      31.464  29.016  25.888  1.00  0.00     0.261 C 
BRANCH   4   5
ATOM      5  O   UNL A   1      31.448  29.469  24.509  1.00  0.00    -0.463 OA
BRANCH   5   6
ATOM      6  C   UNL A   1      30.279  29.612  23.853  1.00  0.00     0.306 C 
ATOM      7  O   UNL A   1      29.738  30.690  23.643  1.00  0.00    -0.252 OA
BRANCH   6   8
ATOM      8  C   UNL A   1      29.672  28.275  23.423  1.00  0.00     0.127 C 
BRANCH   8   9
ATOM      9  C   UNL A   1      30.526  27.244  22.641  1.00  0.00     0.051 C 
BRANCH   9  10
ATOM     10  C   UNL A   1      31.529  26.368  23.388  1.00  0.00    -0.005 A 
ATOM     11  C   UNL A   1      33.129  23.491  26.471  1.00  0.00     0.073 A 
ATOM     12  N   UNL A   1      31.974  24.104  26.241  1.00  0.00    -0.171 NA
ATOM     13  C   UNL A   1      34.102  23.879  25.515  1.00  0.00     0.050 A 
ATOM     14  N   UNL A   1      32.191  24.873  25.144  1.00  0.00    -0.219 N 
ATOM     15  C   UNL A   1      33.498  24.827  24.709  1.00  0.00     0.163 A 
ATOM     16  C   UNL A   1      31.228  25.612  24.471  1.00  0.00     0.046 A 
ATOM     17  N   UNL A   1      33.921  25.610  23.673  1.00  0.00    -0.233 NA
ATOM     18  C   UNL A   1      29.894  25.457  25.087  1.00  0.00     0.067 C 
ATOM     19  C   UNL A   1      33.030  26.369  23.085  1.00  0.00     0.045 A 
ATOM     20  C   UNL A   1      33.603  27.302  22.034  1.00  0.00     0.067 C 
BRANCH  11  21
ATOM     21  C   UNL A   1      33.262  22.545  27.622  1.00  0.00     0.055 C 
ATOM     22  C   UNL A   1      33.716  21.136  27.254  1.00  0.00     0.011 C 
ENDBRANCH  11  21
BRANCH  13  23
ATOM     23  C   UNL A   1      35.441  23.387  25.337  1.00  0.00    -0.013 A 
ATOM     24  C   UNL A   1      35.679  22.427  24.347  1.00  0.00     0.009 A 
ATOM     25  C   UNL A   1      36.480  23.831  26.154  1.00  0.00     0.009 A 
ATOM     26  C   UNL A   1      36.955  21.901  24.183  1.00  0.00     0.001 A 
ATOM     27  C   UNL A   1      37.758  23.301  25.987  1.00  0.00     0.001 A 
ATOM     28  C   UNL A   1      37.993  22.335  25.006  1.00  0.00     0.000 A 
ENDBRANCH  13  23
ENDBRANCH   9  10
ENDBRANCH   8   9
ENDBRANCH   6   8
ENDBRANCH   5   6
ENDBRANCH   4   5
ENDBRANCH   3   4
ENDBRANCH   2   3
ENDBRANCH   1   2
BRANCH   1  29
ATOM     29  C   UNL A   1      35.339  31.353  27.691  1.00  0.00     0.188 C 
BRANCH  29  30
ATOM     30  O   UNL A   1      35.735  32.683  28.032  1.00  0.00    -0.376 OA
BRANCH  30  31
ATOM     31  C   UNL A   1      36.975  32.855  28.738  1.00  0.00     0.202 C 
BRANCH  31  32
ATOM     32  C   UNL A   1      37.836  31.648  29.113  1.00  0.00     0.261 C 
BRANCH  32  33
ATOM     33  O   UNL A   1      38.137  31.611  30.480  1.00  0.00    -0.460 OA
BRANCH  33  34
ATOM     34  C   UNL A   1      37.227  30.971  31.255  1.00  0.00     0.338 C 
ATOM     35  O   UNL A   1      36.026  30.963  31.159  1.00  0.00    -0.246 OA
BRANCH  34  36
ATOM     36  C   UNL A   1      38.039  30.253  32.253  1.00  0.00     0.060 A 
ATOM     37  C   UNL A   1      39.073  30.952  32.861  1.00  0.00     0.016 A 
ATOM     38  C   UNL A   1      37.924  28.859  32.329  1.00  0.00     0.016 A 
ATOM     39  C   UNL A   1      40.225  30.246  33.081  1.00  0.00     0.010 A 
ATOM     40  C   UNL A   1      39.067  28.164  32.513  1.00  0.00     0.010 A 
ATOM     41  C   UNL A   1      40.224  28.905  32.701  1.00  0.00    -0.014 A 
BRANCH  41  42
ATOM     42  C   UNL A   1      41.462  28.259  32.365  1.00  0.00     0.031 A 
ATOM     43  C   UNL A   1      42.169  27.834  33.580  1.00  0.00     0.074 A 
ATOM     44  C   UNL A   1      41.754  27.940  31.088  1.00  0.00     0.049 A 
ATOM     45  N   UNL A   1      43.061  28.516  34.220  1.00  0.00    -0.248 NA
ATOM     46  C   UNL A   1      41.585  26.726  34.358  1.00  0.00     0.031 C 
ATOM     47  C   UNL A   1      40.908  28.018  29.889  1.00  0.00     0.029 A 
ATOM     48  N   UNL A   1      42.870  27.339  30.617  1.00  0.00    -0.354 N 
ATOM     49  C   UNL A   1      43.315  27.734  35.334  1.00  0.00     0.074 A 
ATOM     50  C   UNL A   1      42.133  26.952  35.553  1.00  0.00     0.031 C 
ATOM     51  C   UNL A   1      41.452  27.251  28.912  1.00  0.00     0.029 A 
ATOM     52  C   UNL A   1      42.723  26.724  29.379  1.00  0.00     0.049 A 
ATOM     53  H   UNL A   1      43.721  27.336  31.111  1.00  0.00     0.167 HD
ATOM     54  C   UNL A   1      44.588  27.432  35.705  1.00  0.00     0.034 A 
ATOM     55  C   UNL A   1      43.550  25.770  28.874  1.00  0.00     0.034 A 
ATOM     56  C   UNL A   1      45.542  28.267  35.018  1.00  0.00     0.049 A 
ATOM     57  C   UNL A   1      44.806  25.826  29.672  1.00  0.00     0.074 A 
ATOM     58  C   UNL A   1      45.734  29.629  34.911  1.00  0.00     0.029 A 
ATOM     59  N   UNL A   1      46.190  27.699  33.945  1.00  0.00    -0.354 N 
ATOM     60  N   UNL A   1      45.619  26.848  29.671  1.00  0.00    -0.248 NA
ATOM     61  C   UNL A   1      44.893  24.962  30.840  1.00  0.00     0.031 C 
ATOM     62  C   UNL A   1      46.111  29.846  33.555  1.00  0.00     0.029 A 
ATOM     63  C   UNL A   1      46.209  28.607  32.918  1.00  0.00     0.049 A 
ATOM     64  H   UNL A   1      46.577  26.794  33.920  1.00  0.00     0.167 HD
ATOM     65  C   UNL A   1      45.975  27.012  31.005  1.00  0.00     0.074 A 
ATOM     66  C   UNL A   1      45.572  25.768  31.663  1.00  0.00     0.031 C 
ATOM     67  C   UNL A   1      46.256  28.250  31.512  1.00  0.00     0.034 A 
BRANCH  54  68
ATOM     68  C   UNL A   1      44.977  26.145  36.386  1.00  0.00     0.023 A 
ATOM     69  C   UNL A   1      45.457  26.243  37.703  1.00  0.00     0.012 A 
ATOM     70  C   UNL A   1      45.079  24.877  35.760  1.00  0.00     0.148 A 
ATOM     71  C   UNL A   1      46.006  25.138  38.360  1.00  0.00     0.002 A 
ATOM     72  C   UNL A   1      45.520  23.759  36.452  1.00  0.00     0.091 A 
ATOM     73  F   UNL A   1      44.898  24.753  34.443  1.00  0.00    -0.205 F 
ATOM     74  C   UNL A   1      46.014  23.889  37.747  1.00  0.00     0.022 A 
BRANCH  72  75
ATOM     75  S   UNL A   1      45.468  22.119  35.716  1.00  0.00     0.127 S 
ATOM     76  O   UNL A   1      45.639  21.264  36.886  1.00  0.00    -0.237 OA
ATOM     77  O   UNL A   1      44.130  22.102  35.124  1.00  0.00    -0.237 OA
ATOM     78  O   UNL A   1      46.550  22.092  34.739  1.00  0.00    -0.744 OA
ENDBRANCH  72  75
ENDBRANCH  54  68
BRANCH  55  79
ATOM     79  C   UNL A   1      43.228  24.575  28.043  1.00  0.00     0.023 A 
ATOM     80  C   UNL A   1      41.882  24.170  27.904  1.00  0.00     0.012 A 
ATOM     81  C   UNL A   1      44.175  24.027  27.149  1.00  0.00     0.148 A 
ATOM     82  C   UNL A   1      41.490  23.288  26.887  1.00  0.00     0.002 A 
ATOM     83  C   UNL A   1      43.780  23.151  26.141  1.00  0.00     0.091 A 
ATOM     84  F   UNL A   1      45.447  24.437  27.224  1.00  0.00    -0.205 F 
ATOM     85  C   UNL A   1      42.436  22.787  25.998  1.00  0.00     0.022 A 
BRANCH  83  86
ATOM     86  S   UNL A   1      44.938  22.507  24.923  1.00  0.00     0.127 S 
ATOM     87  O   UNL A   1      45.230  23.697  24.124  1.00  0.00    -0.237 OA
ATOM     88  O   UNL A   1      46.038  22.050  25.768  1.00  0.00    -0.237 OA
ATOM     89  O   UNL A   1      44.220  21.462  24.203  1.00  0.00    -0.744 OA
ENDBRANCH  83  86
ENDBRANCH  55  79
BRANCH  67  90
ATOM     90  C   UNL A   1      46.399  29.402  30.542  1.00  0.00     0.023 A 
ATOM     91  C   UNL A   1      47.566  29.615  29.773  1.00  0.00     0.012 A 
ATOM     92  C   UNL A   1      45.254  30.160  30.251  1.00  0.00     0.148 A 
ATOM     93  C   UNL A   1      47.588  30.565  28.747  1.00  0.00     0.002 A 
ATOM     94  C   UNL A   1      45.263  31.065  29.197  1.00  0.00     0.091 A 
ATOM     95  F   UNL A   1      44.154  29.949  30.990  1.00  0.00    -0.205 F 
ATOM     96  C   UNL A   1      46.430  31.279  28.447  1.00  0.00     0.022 A 
BRANCH  94  97
ATOM     97  S   UNL A   1      43.767  31.903  28.671  1.00  0.00     0.127 S 
ATOM     98  O   UNL A   1      44.125  32.353  27.328  1.00  0.00    -0.237 OA
ATOM     99  O   UNL A   1      42.775  30.827  28.712  1.00  0.00    -0.237 OA
ATOM    100  O   UNL A   1      43.534  32.961  29.647  1.00  0.00    -0.744 OA
ENDBRANCH  94  97
ENDBRANCH  67  90
ENDBRANCH  41  42
ENDBRANCH  34  36
ENDBRANCH  33  34
ENDBRANCH  32  33
ENDBRANCH  31  32
ENDBRANCH  30  31
ENDBRANCH  29  30
ENDBRANCH   1  29
TORSDOF 24
ENDMDL
MODEL 2
REMARK VINA RESULT:      -9.3      2.118      3.074
REMARK SMILES CCc1nn2c(C)c(CCC(=O)OCCOCCOCCOC(=O)c3ccc(-c4c5nc(c(-c6cccc(S(=O)(=O)[O-])c6F)c6ccc([nH]6)c(-c6cccc(S(=O)(=O)[O-])c6F)c6nc(c(-c7cccc(S(=O)(=O)[O-])c7F)c7ccc4[nH]7)C=C6)C=C5)cc3)c(C)nc2c1-c1ccccc1
REMARK SMILES IDX 17 1 16 2 15 3 14 4 13 5 11 6 12 7 10 8 9 9 8 10 3 11 4 12
REMARK SMILES IDX 92 13 5 14 91 15 6 16 90 17 7 18 88 19 89 20 2 21 1 22 93 23
REMARK SMILES IDX 94 24 98 25 95 26 97 27 96 28 18 29 19 30 20 31 21 32 22 33
REMARK SMILES IDX 23 34 24 35 25 36 26 37 87 38 27 39 86 40 28 41 29 42 30 43
REMARK SMILES IDX 80 44 31 45 85 46 79 47 81 48 32 49 84 50 78 51 77 52 33 54
REMARK SMILES IDX 65 55 45 56 64 57 46 58 49 59 63 60 82 61 47 62 48 63 62 65
REMARK SMILES IDX 83 66 50 67 34 68 35 69 43 70 36 71 38 72 44 73 37 74 39 75
REMARK SMILES IDX 40 76 41 77 42 78 66 79 67 80 75 81 68 82 70 83 76 84 69 85
REMARK SMILES IDX 71 86 72 87 73 88 74 89 51 90 52 91 60 92 53 93 55 94 61 95
REMARK SMILES IDX 54 96 56 97 57 98 58 99 59 100
REMARK H PARENT 81 53 49 64
REMARK Flexibility Score: inf
ROOT
ATOM      1  C   UNL A   1      34.816  33.317  29.296  1.00  0.00     0.188 C 
ENDROOT
BRANCH   1   2
ATOM      2  O   UNL A   1      33.990  32.850  28.239  1.00  0.00    -0.376 OA
BRANCH   2   3
ATOM      3  C   UNL A   1      32.994  33.757  27.790  1.00  0.00     0.202 C 
BRANCH   3   4
ATOM      4  C   UNL A   1      31.796  33.069  27.105  1.00  0.00     0.261 C 
BRANCH   4   5
ATOM      5  O   UNL A   1      32.068  31.713  26.665  1.00  0.00    -0.463 OA
BRANCH   5   6
ATOM      6  C   UNL A   1      31.302  31.140  25.714  1.00  0.00     0.306 C 
ATOM      7  O   UNL A   1      30.272  31.634  25.274  1.00  0.00    -0.252 OA
BRANCH   6   8
ATOM      8  C   UNL A   1      31.836  29.778  25.262  1.00  0.00     0.127 C 
BRANCH   8   9
ATOM      9  C   UNL A   1      31.247  28.472  25.853  1.00  0.00     0.051 C 
BRANCH   9  10
ATOM     10  C   UNL A   1      31.825  27.122  25.436  1.00  0.00    -0.005 A 
ATOM     11  C   UNL A   1      34.863  23.836  24.873  1.00  0.00     0.073 A 
ATOM     12  N   UNL A   1      34.874  25.084  25.328  1.00  0.00    -0.171 NA
ATOM     13  C   UNL A   1      33.566  23.477  24.423  1.00  0.00     0.050 A 
ATOM     14  N   UNL A   1      33.599  25.527  25.184  1.00  0.00    -0.219 N 
ATOM     15  C   UNL A   1      32.780  24.607  24.565  1.00  0.00     0.163 A 
ATOM     16  C   UNL A   1      33.112  26.747  25.631  1.00  0.00     0.046 A 
ATOM     17  N   UNL A   1      31.487  24.916  24.255  1.00  0.00    -0.233 NA
ATOM     18  C   UNL A   1      34.159  27.535  26.313  1.00  0.00     0.067 C 
ATOM     19  C   UNL A   1      31.046  26.098  24.604  1.00  0.00     0.045 A 
ATOM     20  C   UNL A   1      29.646  26.413  24.109  1.00  0.00     0.067 C 
BRANCH  11  21
ATOM     21  C   UNL A   1      36.118  23.022  24.880  1.00  0.00     0.055 C 
ATOM     22  C   UNL A   1      37.359  23.747  25.391  1.00  0.00     0.011 C 
ENDBRANCH  11  21
BRANCH  13  23
ATOM     23  C   UNL A   1      33.093  22.204  23.953  1.00  0.00    -0.013 A 
ATOM     24  C   UNL A   1      32.534  22.126  22.672  1.00  0.00     0.009 A 
ATOM     25  C   UNL A   1      33.157  21.073  24.765  1.00  0.00     0.009 A 
ATOM     26  C   UNL A   1      32.028  20.917  22.208  1.00  0.00     0.001 A 
ATOM     27  C   UNL A   1      32.647  19.863  24.297  1.00  0.00     0.001 A 
ATOM     28  C   UNL A   1      32.080  19.788  23.023  1.00  0.00     0.000 A 
ENDBRANCH  13  23
ENDBRANCH   9  10
ENDBRANCH   8   9
ENDBRANCH   6   8
ENDBRANCH   5   6
ENDBRANCH   4   5
ENDBRANCH   3   4
ENDBRANCH   2   3
ENDBRANCH   1   2
BRANCH   1  29
ATOM     29  C   UNL A   1      34.825  32.423  30.530  1.00  0.00     0.188 C 
BRANCH  29  30
ATOM     30  O   UNL A   1      34.189  32.936  31.703  1.00  0.00    -0.376 OA
BRANCH  30  31
ATOM     31  C   UNL A   1      34.750  32.587  32.979  1.00  0.00     0.202 C 
BRANCH  31  32
ATOM     32  C   UNL A   1      36.161  33.035  33.363  1.00  0.00     0.261 C 
BRANCH  32  33
ATOM     33  O   UNL A   1      37.140  32.121  32.956  1.00  0.00    -0.460 OA
BRANCH  33  34
ATOM     34  C   UNL A   1      38.249  32.670  32.400  1.00  0.00     0.338 C 
ATOM     35  O   UNL A   1      38.879  33.630  32.764  1.00  0.00    -0.246 OA
BRANCH  34  36
ATOM     36  C   UNL A   1      38.539  31.809  31.239  1.00  0.00     0.060 A 
ATOM     37  C   UNL A   1      38.233  30.460  31.349  1.00  0.00     0.016 A 
ATOM     38  C   UNL A   1      39.353  32.318  30.219  1.00  0.00     0.016 A 
ATOM     39  C   UNL A   1      39.129  29.594  30.783  1.00  0.00     0.010 A 
ATOM     40  C   UNL A   1      40.258  31.470  29.686  1.00  0.00     0.010 A 
ATOM     41  C   UNL A   1      40.227  30.159  30.137  1.00  0.00    -0.014 A 
BRANCH  41  42
ATOM     42  C   UNL A   1      41.448  29.410  30.020  1.00  0.00     0.031 A 
ATOM     43  C   UNL A   1      41.936  29.008  31.345  1.00  0.00     0.074 A 
ATOM     44  C   UNL A   1      41.896  29.000  28.817  1.00  0.00     0.049 A 
ATOM     45  N   UNL A   1      42.775  29.662  32.078  1.00  0.00    -0.248 NA
ATOM     46  C   UNL A   1      41.161  27.989  32.078  1.00  0.00     0.031 C 
ATOM     47  C   UNL A   1      41.242  29.068  27.503  1.00  0.00     0.029 A 
ATOM     48  N   UNL A   1      43.019  28.297  28.545  1.00  0.00    -0.354 N 
ATOM     49  C   UNL A   1      42.803  28.929  33.253  1.00  0.00     0.074 A 
ATOM     50  C   UNL A   1      41.546  28.245  33.329  1.00  0.00     0.031 C 
ATOM     51  C   UNL A   1      41.862  28.210  26.655  1.00  0.00     0.029 A 
ATOM     52  C   UNL A   1      43.007  27.624  27.329  1.00  0.00     0.049 A 
ATOM     53  H   UNL A   1      43.787  28.263  29.161  1.00  0.00     0.167 HD
ATOM     54  C   UNL A   1      43.982  28.561  33.823  1.00  0.00     0.034 A 
ATOM     55  C   UNL A   1      43.823  26.587  26.998  1.00  0.00     0.034 A 
ATOM     56  C   UNL A   1      45.087  29.287  33.249  1.00  0.00     0.049 A 
ATOM     57  C   UNL A   1      44.950  26.603  27.971  1.00  0.00     0.074 A 
ATOM     58  C   UNL A   1      45.396  30.625  33.109  1.00  0.00     0.029 A 
ATOM     59  N   UNL A   1      45.839  28.615  32.312  1.00  0.00    -0.354 N 
ATOM     60  N   UNL A   1      45.831  27.563  28.043  1.00  0.00    -0.248 NA
ATOM     61  C   UNL A   1      44.800  25.802  29.178  1.00  0.00     0.031 C 
ATOM     62  C   UNL A   1      45.982  30.737  31.815  1.00  0.00     0.029 A 
ATOM     63  C   UNL A   1      46.076  29.460  31.258  1.00  0.00     0.049 A 
ATOM     64  H   UNL A   1      46.154  27.686  32.386  1.00  0.00     0.167 HD
ATOM     65  C   UNL A   1      46.001  27.778  29.407  1.00  0.00     0.074 A 
ATOM     66  C   UNL A   1      45.412  26.605  30.055  1.00  0.00     0.031 C 
ATOM     67  C   UNL A   1      46.299  29.021  29.893  1.00  0.00     0.034 A 
BRANCH  54  68
ATOM     68  C   UNL A   1      44.168  27.291  34.613  1.00  0.00     0.023 A 
ATOM     69  C   UNL A   1      44.358  27.427  35.999  1.00  0.00     0.012 A 
ATOM     70  C   UNL A   1      44.354  25.997  34.065  1.00  0.00     0.148 A 
ATOM     71  C   UNL A   1      44.712  26.333  36.794  1.00  0.00     0.002 A 
ATOM     72  C   UNL A   1      44.594  24.895  34.872  1.00  0.00     0.091 A 
ATOM     73  F   UNL A   1      44.455  25.826  32.745  1.00  0.00    -0.205 F 
ATOM     74  C   UNL A   1      44.804  25.061  36.238  1.00  0.00     0.022 A 
BRANCH  72  75
ATOM     75  S   UNL A   1      44.639  23.229  34.196  1.00  0.00     0.127 S 
ATOM     76  O   UNL A   1      46.043  23.103  33.816  1.00  0.00    -0.237 OA
ATOM     77  O   UNL A   1      44.233  22.428  35.350  1.00  0.00    -0.237 OA
ATOM     78  O   UNL A   1      43.676  23.223  33.101  1.00  0.00    -0.744 OA
ENDBRANCH  72  75
ENDBRANCH  54  68
BRANCH  55  79
ATOM     79  C   UNL A   1      43.534  25.372  26.185  1.00  0.00     0.023 A 
ATOM     80  C   UNL A   1      44.384  25.043  25.106  1.00  0.00     0.012 A 
ATOM     81  C   UNL A   1      42.637  24.381  26.641  1.00  0.00     0.148 A 
ATOM     82  C   UNL A   1      44.370  23.762  24.533  1.00  0.00     0.002 A 
ATOM     83  C   UNL A   1      42.626  23.111  26.069  1.00  0.00     0.091 A 
ATOM     84  F   UNL A   1      41.861  24.650  27.697  1.00  0.00    -0.205 F 
ATOM     85  C   UNL A   1      43.500  22.793  25.023  1.00  0.00     0.022 A 
BRANCH  83  86
ATOM     86  S   UNL A   1      41.568  21.792  26.684  1.00  0.00     0.127 S 
ATOM     87  O   UNL A   1      42.037  21.644  28.061  1.00  0.00    -0.237 OA
ATOM     88  O   UNL A   1      40.240  22.386  26.549  1.00  0.00    -0.237 OA
ATOM     89  O   UNL A   1      41.832  20.638  25.832  1.00  0.00    -0.744 OA
ENDBRANCH  83  86
ENDBRANCH  55  79
BRANCH  67  90
ATOM     90  C   UNL A   1      46.670  30.103  28.903  1.00  0.00     0.023 A 
ATOM     91  C   UNL A   1      47.966  30.225  28.352  1.00  0.00     0.012 A 
ATOM     92  C   UNL A   1      45.634  30.881  28.363  1.00  0.00     0.148 A 
ATOM     93  C   UNL A   1      48.218  31.107  27.295  1.00  0.00     0.002 A 
ATOM     94  C   UNL A   1      45.877  31.716  27.279  1.00  0.00     0.091 A 
ATOM     95  F   UNL A   1      44.408  30.756  28.896  1.00  0.00    -0.205 F 
ATOM     96  C   UNL A   1      47.169  31.840  26.747  1.00  0.00     0.022 A 
BRANCH  94  97
ATOM     97  S   UNL A   1      44.541  32.570  26.439  1.00  0.00     0.127 S 
ATOM     98  O   UNL A   1      45.249  33.259  25.363  1.00  0.00    -0.237 OA
ATOM     99  O   UNL A   1      43.688  31.464  26.003  1.00  0.00    -0.237 OA
ATOM    100  O   UNL A   1      43.926  33.435  27.439  1.00  0.00    -0.744 OA
ENDBRANCH  94  97
ENDBRANCH  67  90
ENDBRANCH  41  42
ENDBRANCH  34  36
ENDBRANCH  33  34
ENDBRANCH  32  33
ENDBRANCH  31  32
ENDBRANCH  30  31
ENDBRANCH  29  30
ENDBRANCH   1  29
TORSDOF 24
ENDMDL
MODEL 3
REMARK VINA RESULT:      -9.3      3.983      5.609
REMARK SMILES CCc1nn2c(C)c(CCC(=O)OCCOCCOCCOC(=O)c3ccc(-c4c5nc(c(-c6cccc(S(=O)(=O)[O-])c6F)c6ccc([nH]6)c(-c6cccc(S(=O)(=O)[O-])c6F)c6nc(c(-c7cccc(S(=O)(=O)[O-])c7F)c7ccc4[nH]7)C=C6)C=C5)cc3)c(C)nc2c1-c1ccccc1
REMARK SMILES IDX 17 1 16 2 15 3 14 4 13 5 11 6 12 7 10 8 9 9 8 10 3 11 4 12
REMARK SMILES IDX 92 13 5 14 91 15 6 16 90 17 7 18 88 19 89 20 2 21 1 22 93 23
REMARK SMILES IDX 94 24 98 25 95 26 97 27 96 28 18 29 19 30 20 31 21 32 22 33
REMARK SMILES IDX 23 34 24 35 25 36 26 37 87 38 27 39 86 40 28 41 29 42 30 43
REMARK SMILES IDX 80 44 31 45 85 46 79 47 81 48 32 49 84 50 78 51 77 52 33 54
REMARK SMILES IDX 65 55 45 56 64 57 46 58 49 59 63 60 82 61 47 62 48 63 62 65
REMARK SMILES IDX 83 66 50 67 34 68 35 69 43 70 36 71 38 72 44 73 37 74 39 75
REMARK SMILES IDX 40 76 41 77 42 78 66 79 67 80 75 81 68 82 70 83 76 84 69 85
REMARK SMILES IDX 71 86 72 87 73 88 74 89 51 90 52 91 60 92 53 93 55 94 61 95
REMARK SMILES IDX 54 96 56 97 57 98 58 99 59 100
REMARK H PARENT 81 53 49 64
REMARK Flexibility Score: inf
ROOT
ATOM      1  C   UNL A   1      33.209  31.344  27.548  1.00  0.00     0.188 C 
ENDROOT
BRANCH   1   2
ATOM      2  O   UNL A   1      33.533  30.371  26.566  1.00  0.00    -0.376 OA
BRANCH   2   3
ATOM      3  C   UNL A   1      32.482  29.488  26.204  1.00  0.00     0.202 C 
BRANCH   3   4
ATOM      4  C   UNL A   1      32.524  29.049  24.727  1.00  0.00     0.261 C 
BRANCH   4   5
ATOM      5  O   UNL A   1      33.537  28.050  24.438  1.00  0.00    -0.463 OA
BRANCH   5   6
ATOM      6  C   UNL A   1      33.177  26.805  24.064  1.00  0.00     0.306 C 
ATOM      7  O   UNL A   1      33.552  26.265  23.031  1.00  0.00    -0.252 OA
BRANCH   6   8
ATOM      8  C   UNL A   1      32.215  26.142  25.052  1.00  0.00     0.127 C 
BRANCH   8   9
ATOM      9  C   UNL A   1      32.758  25.215  26.169  1.00  0.00     0.051 C 
BRANCH   9  10
ATOM     10  C   UNL A   1      33.207  23.796  25.826  1.00  0.00    -0.005 A 
ATOM     11  C   UNL A   1      35.983  20.382  24.835  1.00  0.00     0.073 A 
ATOM     12  N   UNL A   1      36.103  21.691  25.025  1.00  0.00    -0.171 NA
ATOM     13  C   UNL A   1      34.626  19.983  24.940  1.00  0.00     0.050 A 
ATOM     14  N   UNL A   1      34.842  22.134  25.259  1.00  0.00    -0.219 N 
ATOM     15  C   UNL A   1      33.895  21.140  25.143  1.00  0.00     0.163 A 
ATOM     16  C   UNL A   1      34.494  23.428  25.622  1.00  0.00     0.046 A 
ATOM     17  N   UNL A   1      32.564  21.422  25.255  1.00  0.00    -0.233 NA
ATOM     18  C   UNL A   1      35.682  24.299  25.741  1.00  0.00     0.067 C 
ATOM     19  C   UNL A   1      32.227  22.659  25.519  1.00  0.00     0.045 A 
ATOM     20  C   UNL A   1      30.731  22.917  25.497  1.00  0.00     0.067 C 
BRANCH  11  21
ATOM     21  C   UNL A   1      37.192  19.549  24.548  1.00  0.00     0.055 C 
ATOM     22  C   UNL A   1      38.386  19.803  25.463  1.00  0.00     0.011 C 
ENDBRANCH  11  21
BRANCH  13  23
ATOM     23  C   UNL A   1      34.068  18.659  24.903  1.00  0.00    -0.013 A 
ATOM     24  C   UNL A   1      34.630  17.716  24.034  1.00  0.00     0.009 A 
ATOM     25  C   UNL A   1      32.967  18.324  25.690  1.00  0.00     0.009 A 
ATOM     26  C   UNL A   1      34.084  16.441  23.945  1.00  0.00     0.001 A 
ATOM     27  C   UNL A   1      32.420  17.045  25.596  1.00  0.00     0.001 A 
ATOM     28  C   UNL A   1      32.976  16.108  24.722  1.00  0.00     0.000 A 
ENDBRANCH  13  23
ENDBRANCH   9  10
ENDBRANCH   8   9
ENDBRANCH   6   8
ENDBRANCH   5   6
ENDBRANCH   4   5
ENDBRANCH   3   4
ENDBRANCH   2   3
ENDBRANCH   1   2
BRANCH   1  29
ATOM     29  C   UNL A   1      34.168  32.527  27.602  1.00  0.00     0.188 C 
BRANCH  29  30
ATOM     30  O   UNL A   1      33.748  33.664  28.359  1.00  0.00    -0.376 OA
BRANCH  30  31
ATOM     31  C   UNL A   1      34.674  34.221  29.306  1.00  0.00     0.202 C 
BRANCH  31  32
ATOM     32  C   UNL A   1      34.990  33.493  30.614  1.00  0.00     0.261 C 
BRANCH  32  33
ATOM     33  O   UNL A   1      34.610  34.232  31.740  1.00  0.00    -0.460 OA
BRANCH  33  34
ATOM     34  C   UNL A   1      34.381  33.502  32.861  1.00  0.00     0.338 C 
ATOM     35  O   UNL A   1      33.385  32.904  33.182  1.00  0.00    -0.246 OA
BRANCH  34  36
ATOM     36  C   UNL A   1      35.648  33.579  33.611  1.00  0.00     0.060 A 
ATOM     37  C   UNL A   1      36.386  34.749  33.502  1.00  0.00     0.016 A 
ATOM     38  C   UNL A   1      36.177  32.398  34.148  1.00  0.00     0.016 A 
ATOM     39  C   UNL A   1      37.745  34.596  33.441  1.00  0.00     0.010 A 
ATOM     40  C   UNL A   1      37.515  32.237  34.055  1.00  0.00     0.010 A 
ATOM     41  C   UNL A   1      38.236  33.294  33.522  1.00  0.00    -0.014 A 
BRANCH  41  42
ATOM     42  C   UNL A   1      39.504  32.972  32.928  1.00  0.00     0.031 A 
ATOM     43  C   UNL A   1      40.581  33.082  33.919  1.00  0.00     0.074 A 
ATOM     44  C   UNL A   1      39.575  32.449  31.689  1.00  0.00     0.049 A 
ATOM     45  N   UNL A   1      41.306  34.129  34.144  1.00  0.00    -0.248 NA
ATOM     46  C   UNL A   1      40.621  32.079  34.999  1.00  0.00     0.031 C 
ATOM     47  C   UNL A   1      38.496  31.981  30.808  1.00  0.00     0.029 A 
ATOM     48  N   UNL A   1      40.684  32.099  30.997  1.00  0.00    -0.354 N 
ATOM     49  C   UNL A   1      42.073  33.752  35.234  1.00  0.00     0.074 A 
ATOM     50  C   UNL A   1      41.324  32.741  35.921  1.00  0.00     0.031 C 
ATOM     51  C   UNL A   1      39.023  31.189  29.841  1.00  0.00     0.029 A 
ATOM     52  C   UNL A   1      40.470  31.184  29.973  1.00  0.00     0.049 A 
ATOM     53  H   UNL A   1      41.575  32.465  31.203  1.00  0.00     0.167 HD
ATOM     54  C   UNL A   1      43.421  33.932  35.240  1.00  0.00     0.034 A 
ATOM     55  C   UNL A   1      41.432  30.416  29.393  1.00  0.00     0.034 A 
ATOM     56  C   UNL A   1      43.833  34.812  34.176  1.00  0.00     0.049 A 
ATOM     57  C   UNL A   1      42.741  31.029  29.752  1.00  0.00     0.074 A 
ATOM     58  C   UNL A   1      43.509  36.102  33.807  1.00  0.00     0.029 A 
ATOM     59  N   UNL A   1      44.364  34.211  33.057  1.00  0.00    -0.354 N 
ATOM     60  N   UNL A   1      43.124  32.208  29.345  1.00  0.00    -0.248 NA
ATOM     61  C   UNL A   1      43.398  30.541  30.956  1.00  0.00     0.031 C 
ATOM     62  C   UNL A   1      43.453  36.078  32.384  1.00  0.00     0.029 A 
ATOM     63  C   UNL A   1      43.821  34.804  31.946  1.00  0.00     0.049 A 
ATOM     64  H   UNL A   1      45.022  33.479  33.054  1.00  0.00     0.167 HD
ATOM     65  C   UNL A   1      43.707  32.791  30.465  1.00  0.00     0.074 A 
ATOM     66  C   UNL A   1      43.930  31.686  31.398  1.00  0.00     0.031 C 
ATOM     67  C   UNL A   1      43.653  34.142  30.665  1.00  0.00     0.034 A 
BRANCH  54  68
ATOM     68  C   UNL A   1      44.382  33.021  35.959  1.00  0.00     0.023 A 
ATOM     69  C   UNL A   1      45.305  33.630  36.827  1.00  0.00     0.012 A 
ATOM     70  C   UNL A   1      44.562  31.640  35.700  1.00  0.00     0.148 A 
ATOM     71  C   UNL A   1      46.348  32.900  37.406  1.00  0.00     0.002 A 
ATOM     72  C   UNL A   1      45.528  30.896  36.363  1.00  0.00     0.091 A 
ATOM     73  F   UNL A   1      43.908  31.045  34.699  1.00  0.00    -0.205 F 
ATOM     74  C   UNL A   1      46.445  31.528  37.196  1.00  0.00     0.022 A 
BRANCH  72  75
ATOM     75  S   UNL A   1      45.629  29.111  36.175  1.00  0.00     0.127 S 
ATOM     76  O   UNL A   1      45.995  28.981  34.769  1.00  0.00    -0.237 OA
ATOM     77  O   UNL A   1      46.687  28.771  37.127  1.00  0.00    -0.237 OA
ATOM     78  O   UNL A   1      44.313  28.601  36.545  1.00  0.00    -0.744 OA
ENDBRANCH  72  75
ENDBRANCH  54  68
BRANCH  55  79
ATOM     79  C   UNL A   1      41.357  29.014  28.895  1.00  0.00     0.023 A 
ATOM     80  C   UNL A   1      40.381  28.142  29.425  1.00  0.00     0.012 A 
ATOM     81  C   UNL A   1      42.013  28.623  27.706  1.00  0.00     0.148 A 
ATOM     82  C   UNL A   1      40.041  26.948  28.772  1.00  0.00     0.002 A 
ATOM     83  C   UNL A   1      41.672  27.436  27.061  1.00  0.00     0.091 A 
ATOM     84  F   UNL A   1      42.901  29.457  27.154  1.00  0.00    -0.205 F 
ATOM     85  C   UNL A   1      40.678  26.600  27.584  1.00  0.00     0.022 A 
BRANCH  83  86
ATOM     86  S   UNL A   1      42.413  26.949  25.496  1.00  0.00     0.127 S 
ATOM     87  O   UNL A   1      42.363  28.197  24.735  1.00  0.00    -0.237 OA
ATOM     88  O   UNL A   1      43.752  26.538  25.913  1.00  0.00    -0.237 OA
ATOM     89  O   UNL A   1      41.566  25.887  24.965  1.00  0.00    -0.744 OA
ENDBRANCH  83  86
ENDBRANCH  55  79
BRANCH  67  90
ATOM     90  C   UNL A   1      43.153  35.011  29.532  1.00  0.00     0.023 A 
ATOM     91  C   UNL A   1      41.780  35.161  29.231  1.00  0.00     0.012 A 
ATOM     92  C   UNL A   1      44.078  35.855  28.896  1.00  0.00     0.148 A 
ATOM     93  C   UNL A   1      41.346  36.123  28.312  1.00  0.00     0.002 A 
ATOM     94  C   UNL A   1      43.638  36.844  28.024  1.00  0.00     0.091 A 
ATOM     95  F   UNL A   1      45.378  35.701  29.190  1.00  0.00    -0.205 F 
ATOM     96  C   UNL A   1      42.275  36.976  27.721  1.00  0.00     0.022 A 
BRANCH  94  97
ATOM     97  S   UNL A   1      44.767  38.064  27.349  1.00  0.00     0.127 S 
ATOM     98  O   UNL A   1      43.865  38.925  26.588  1.00  0.00    -0.237 OA
ATOM     99  O   UNL A   1      45.325  38.676  28.556  1.00  0.00    -0.237 OA
ATOM    100  O   UNL A   1      45.739  37.318  26.559  1.00  0.00    -0.744 OA
ENDBRANCH  94  97
ENDBRANCH  67  90
ENDBRANCH  41  42
ENDBRANCH  34  36
ENDBRANCH  33  34
ENDBRANCH  32  33
ENDBRANCH  31  32
ENDBRANCH  30  31
ENDBRANCH  29  30
ENDBRANCH   1  29
TORSDOF 24
ENDMDL
