MODEL 1
REMARK VINA RESULT:     -11.9      0.000      0.000
REMARK SMILES C[C@]1(C(=O)OCCOCCOCCOC(=O)c2ccc(-c3c4nc(c(-c5cccc(S(=O)(=O)[O-])c5F)c5ccc([nH]5)c(-c5cccc(S(=O)(=O)[O-])c5F)c5nc(c(-c6cccc(S(=O)(=O)[O-])c6F)c6ccc3[nH]6)C=C5)C=C4)cc2)COC[C@H]1Nc1ccc2nnnn2n1
REMARK SMILES IDX 10 1 9 2 8 3 7 4 6 5 5 6 3 7 4 8 2 9 1 10 80 11 83 12 81 13
REMARK SMILES IDX 82 14 84 15 85 17 86 18 93 19 87 20 92 21 88 22 91 23 89 24
REMARK SMILES IDX 90 25 11 26 12 27 13 28 14 29 15 30 16 31 17 32 18 33 79 34
REMARK SMILES IDX 19 35 78 36 20 37 21 38 22 39 72 40 23 41 77 42 71 43 73 44
REMARK SMILES IDX 24 45 76 46 70 47 69 48 25 50 57 51 37 52 56 53 38 54 41 55
REMARK SMILES IDX 55 56 74 57 39 58 40 59 54 61 75 62 42 63 26 64 27 65 35 66
REMARK SMILES IDX 28 67 30 68 36 69 29 70 31 71 32 72 33 73 34 74 58 75 59 76
REMARK SMILES IDX 67 77 60 78 62 79 68 80 61 81 63 82 64 83 65 84 66 85 43 86
REMARK SMILES IDX 44 87 52 88 45 89 47 90 53 91 46 92 48 93 49 94 50 95 51 96
REMARK H PARENT 84 16 73 49 41 60
REMARK Flexibility Score: inf
ROOT
ATOM      1  C   UNL A   1      32.525  20.484  24.058  1.00  0.00     0.188 C 
ENDROOT
BRANCH   1   2
ATOM      2  C   UNL A   1      32.226  21.937  24.472  1.00  0.00     0.188 C 
BRANCH   2   3
ATOM      3  O   UNL A   1      31.951  22.873  23.434  1.00  0.00    -0.376 OA
BRANCH   3   4
ATOM      4  C   UNL A   1      30.810  23.710  23.548  1.00  0.00     0.202 C 
BRANCH   4   5
ATOM      5  C   UNL A   1      30.759  24.623  24.769  1.00  0.00     0.261 C 
BRANCH   5   6
ATOM      6  O   UNL A   1      30.557  26.014  24.447  1.00  0.00    -0.463 OA
BRANCH   6   7
ATOM      7  C   UNL A   1      31.471  26.901  24.936  1.00  0.00     0.316 C 
ATOM      8  O   UNL A   1      31.549  27.240  26.109  1.00  0.00    -0.251 OA
BRANCH   7   9
ATOM      9  C   UNL A   1      32.309  27.534  23.831  1.00  0.00     0.111 C 
ATOM     10  C   UNL A   1      33.152  28.734  24.299  1.00  0.00     0.028 C 
ATOM     11  C   UNL A   1      33.254  26.424  23.336  1.00  0.00     0.181 C 
ATOM     12  C   UNL A   1      31.524  27.913  22.565  1.00  0.00     0.126 C 
ATOM     13  O   UNL A   1      33.154  26.380  21.906  1.00  0.00    -0.378 OA
ATOM     14  C   UNL A   1      31.812  26.774  21.596  1.00  0.00     0.186 C 
BRANCH  12  15
ATOM     15  N   UNL A   1      30.097  28.184  22.711  1.00  0.00    -0.362 N 
ATOM     16  H   UNL A   1      29.479  27.432  22.857  1.00  0.00     0.162 HD
BRANCH  15  17
ATOM     17  C   UNL A   1      29.594  29.463  22.649  1.00  0.00     0.149 A 
ATOM     18  C   UNL A   1      29.680  30.335  23.866  1.00  0.00     0.053 A 
ATOM     19  N   UNL A   1      29.062  29.855  21.525  1.00  0.00    -0.129 NA
ATOM     20  C   UNL A   1      29.238  31.595  23.805  1.00  0.00     0.057 A 
ATOM     21  N   UNL A   1      28.652  31.153  21.544  1.00  0.00    -0.108 N 
ATOM     22  C   UNL A   1      28.698  32.050  22.592  1.00  0.00     0.200 A 
ATOM     23  N   UNL A   1      28.078  31.753  20.494  1.00  0.00    -0.022 NA
ATOM     24  N   UNL A   1      28.165  33.185  22.207  1.00  0.00    -0.107 NA
ATOM     25  N   UNL A   1      27.782  32.983  20.900  1.00  0.00    -0.022 NA
ENDBRANCH  15  17
ENDBRANCH  12  15
ENDBRANCH   7   9
ENDBRANCH   6   7
ENDBRANCH   5   6
ENDBRANCH   4   5
ENDBRANCH   3   4
ENDBRANCH   2   3
ENDBRANCH   1   2
BRANCH   1  26
ATOM     26  O   UNL A   1      33.698  19.982  24.679  1.00  0.00    -0.376 OA
BRANCH  26  27
ATOM     27  C   UNL A   1      34.643  20.918  25.152  1.00  0.00     0.202 C 
BRANCH  27  28
ATOM     28  C   UNL A   1      36.128  20.555  25.010  1.00  0.00     0.261 C 
BRANCH  28  29
ATOM     29  O   UNL A   1      37.018  21.601  25.426  1.00  0.00    -0.460 OA
BRANCH  29  30
ATOM     30  C   UNL A   1      38.293  21.267  25.699  1.00  0.00     0.338 C 
ATOM     31  O   UNL A   1      38.852  20.208  25.436  1.00  0.00    -0.246 OA
BRANCH  30  32
ATOM     32  C   UNL A   1      38.962  22.416  26.334  1.00  0.00     0.060 A 
ATOM     33  C   UNL A   1      38.467  23.700  26.101  1.00  0.00     0.016 A 
ATOM     34  C   UNL A   1      40.114  22.237  27.101  1.00  0.00     0.016 A 
ATOM     35  C   UNL A   1      39.138  24.808  26.618  1.00  0.00     0.010 A 
ATOM     36  C   UNL A   1      40.793  23.357  27.607  1.00  0.00     0.010 A 
ATOM     37  C   UNL A   1      40.323  24.654  27.344  1.00  0.00    -0.014 A 
BRANCH  37  38
ATOM     38  C   UNL A   1      41.117  25.860  27.696  1.00  0.00     0.031 A 
ATOM     39  C   UNL A   1      40.484  26.940  28.532  1.00  0.00     0.074 A 
ATOM     40  C   UNL A   1      42.415  25.973  27.359  1.00  0.00     0.049 A 
ATOM     41  N   UNL A   1      40.956  28.112  28.866  1.00  0.00    -0.248 NA
ATOM     42  C   UNL A   1      39.147  26.650  29.077  1.00  0.00     0.031 C 
ATOM     43  C   UNL A   1      43.202  24.954  26.668  1.00  0.00     0.029 A 
ATOM     44  N   UNL A   1      43.298  27.008  27.554  1.00  0.00    -0.354 N 
ATOM     45  C   UNL A   1      39.967  28.714  29.633  1.00  0.00     0.074 A 
ATOM     46  C   UNL A   1      38.873  27.771  29.730  1.00  0.00     0.031 C 
ATOM     47  C   UNL A   1      44.448  25.425  26.478  1.00  0.00     0.029 A 
ATOM     48  C   UNL A   1      44.530  26.796  26.982  1.00  0.00     0.049 A 
ATOM     49  H   UNL A   1      43.070  27.825  28.056  1.00  0.00     0.167 HD
ATOM     50  C   UNL A   1      39.965  29.940  30.205  1.00  0.00     0.034 A 
ATOM     51  C   UNL A   1      45.585  27.626  26.841  1.00  0.00     0.034 A 
ATOM     52  C   UNL A   1      41.054  30.878  30.144  1.00  0.00     0.049 A 
ATOM     53  C   UNL A   1      45.508  29.032  27.385  1.00  0.00     0.074 A 
ATOM     54  C   UNL A   1      41.115  32.158  30.668  1.00  0.00     0.029 A 
ATOM     55  N   UNL A   1      42.269  30.642  29.526  1.00  0.00    -0.354 N 
ATOM     56  N   UNL A   1      44.578  29.589  28.119  1.00  0.00    -0.248 NA
ATOM     57  C   UNL A   1      46.641  29.924  27.084  1.00  0.00     0.031 C 
ATOM     58  C   UNL A   1      42.360  32.707  30.344  1.00  0.00     0.029 A 
ATOM     59  C   UNL A   1      43.081  31.759  29.637  1.00  0.00     0.049 A 
ATOM     60  H   UNL A   1      42.519  29.805  29.073  1.00  0.00     0.167 HD
ATOM     61  C   UNL A   1      45.024  30.880  28.392  1.00  0.00     0.074 A 
ATOM     62  C   UNL A   1      46.322  31.016  27.767  1.00  0.00     0.031 C 
ATOM     63  C   UNL A   1      44.402  31.871  29.077  1.00  0.00     0.034 A 
BRANCH  50  64
ATOM     64  C   UNL A   1      38.725  30.361  30.940  1.00  0.00     0.023 A 
ATOM     65  C   UNL A   1      38.629  30.163  32.331  1.00  0.00     0.012 A 
ATOM     66  C   UNL A   1      37.682  31.015  30.255  1.00  0.00     0.148 A 
ATOM     67  C   UNL A   1      37.504  30.598  33.028  1.00  0.00     0.002 A 
ATOM     68  C   UNL A   1      36.581  31.478  30.962  1.00  0.00     0.091 A 
ATOM     69  F   UNL A   1      37.788  31.167  28.928  1.00  0.00    -0.205 F 
ATOM     70  C   UNL A   1      36.487  31.266  32.347  1.00  0.00     0.022 A 
BRANCH  68  71
ATOM     71  S   UNL A   1      35.256  32.406  30.182  1.00  0.00     0.127 S 
ATOM     72  O   UNL A   1      34.341  32.614  31.303  1.00  0.00    -0.237 OA
ATOM     73  O   UNL A   1      35.948  33.612  29.728  1.00  0.00    -0.237 OA
ATOM     74  O   UNL A   1      34.747  31.559  29.112  1.00  0.00    -0.744 OA
ENDBRANCH  68  71
ENDBRANCH  50  64
BRANCH  51  75
ATOM     75  C   UNL A   1      46.813  27.174  26.123  1.00  0.00     0.023 A 
ATOM     76  C   UNL A   1      47.764  26.384  26.798  1.00  0.00     0.012 A 
ATOM     77  C   UNL A   1      47.065  27.563  24.793  1.00  0.00     0.148 A 
ATOM     78  C   UNL A   1      48.959  26.023  26.174  1.00  0.00     0.002 A 
ATOM     79  C   UNL A   1      48.229  27.148  24.158  1.00  0.00     0.091 A 
ATOM     80  F   UNL A   1      46.169  28.348  24.177  1.00  0.00    -0.205 F 
ATOM     81  C   UNL A   1      49.187  26.396  24.852  1.00  0.00     0.022 A 
BRANCH  79  82
ATOM     82  S   UNL A   1      48.538  27.486  22.421  1.00  0.00     0.127 S 
ATOM     83  O   UNL A   1      47.407  28.344  22.076  1.00  0.00    -0.237 OA
ATOM     84  O   UNL A   1      49.834  28.164  22.467  1.00  0.00    -0.237 OA
ATOM     85  O   UNL A   1      48.569  26.183  21.772  1.00  0.00    -0.744 OA
ENDBRANCH  79  82
ENDBRANCH  51  75
BRANCH  63  86
ATOM     86  C   UNL A   1      45.117  33.191  29.226  1.00  0.00     0.023 A 
ATOM     87  C   UNL A   1      45.976  33.398  30.323  1.00  0.00     0.012 A 
ATOM     88  C   UNL A   1      45.011  34.190  28.236  1.00  0.00     0.148 A 
ATOM     89  C   UNL A   1      46.697  34.585  30.448  1.00  0.00     0.002 A 
ATOM     90  C   UNL A   1      45.767  35.353  28.345  1.00  0.00     0.091 A 
ATOM     91  F   UNL A   1      44.177  33.986  27.206  1.00  0.00    -0.205 F 
ATOM     92  C   UNL A   1      46.602  35.557  29.455  1.00  0.00     0.022 A 
BRANCH  90  93
ATOM     93  S   UNL A   1      45.781  36.618  27.067  1.00  0.00     0.127 S 
ATOM     94  O   UNL A   1      44.354  36.874  26.884  1.00  0.00    -0.237 OA
ATOM     95  O   UNL A   1      46.516  37.706  27.713  1.00  0.00    -0.237 OA
ATOM     96  O   UNL A   1      46.463  36.026  25.924  1.00  0.00    -0.744 OA
ENDBRANCH  90  93
ENDBRANCH  63  86
ENDBRANCH  37  38
ENDBRANCH  30  32
ENDBRANCH  29  30
ENDBRANCH  28  29
ENDBRANCH  27  28
ENDBRANCH  26  27
ENDBRANCH   1  26
TORSDOF 22
ENDMDL
MODEL 2
REMARK VINA RESULT:     -10.9      5.676      9.017
REMARK SMILES C[C@]1(C(=O)OCCOCCOCCOC(=O)c2ccc(-c3c4nc(c(-c5cccc(S(=O)(=O)[O-])c5F)c5ccc([nH]5)c(-c5cccc(S(=O)(=O)[O-])c5F)c5nc(c(-c6cccc(S(=O)(=O)[O-])c6F)c6ccc3[nH]6)C=C5)C=C4)cc2)COC[C@H]1Nc1ccc2nnnn2n1
REMARK SMILES IDX 10 1 9 2 8 3 7 4 6 5 5 6 3 7 4 8 2 9 1 10 80 11 83 12 81 13
REMARK SMILES IDX 82 14 84 15 85 17 86 18 93 19 87 20 92 21 88 22 91 23 89 24
REMARK SMILES IDX 90 25 11 26 12 27 13 28 14 29 15 30 16 31 17 32 18 33 79 34
REMARK SMILES IDX 19 35 78 36 20 37 21 38 22 39 72 40 23 41 77 42 71 43 73 44
REMARK SMILES IDX 24 45 76 46 70 47 69 48 25 50 57 51 37 52 56 53 38 54 41 55
REMARK SMILES IDX 55 56 74 57 39 58 40 59 54 61 75 62 42 63 26 64 27 65 35 66
REMARK SMILES IDX 28 67 30 68 36 69 29 70 31 71 32 72 33 73 34 74 58 75 59 76
REMARK SMILES IDX 67 77 60 78 62 79 68 80 61 81 63 82 64 83 65 84 66 85 43 86
REMARK SMILES IDX 44 87 52 88 45 89 47 90 53 91 46 92 48 93 49 94 50 95 51 96
REMARK H PARENT 84 16 73 49 41 60
REMARK Flexibility Score: inf
ROOT
ATOM      1  C   UNL A   1      32.601  29.735  26.050  1.00  0.00     0.188 C 
ENDROOT
BRANCH   1   2
ATOM      2  C   UNL A   1      32.111  28.291  25.834  1.00  0.00     0.188 C 
BRANCH   2   3
ATOM      3  O   UNL A   1      31.112  28.078  24.841  1.00  0.00    -0.376 OA
BRANCH   3   4
ATOM      4  C   UNL A   1      30.863  26.755  24.390  1.00  0.00     0.202 C 
BRANCH   4   5
ATOM      5  C   UNL A   1      30.219  25.806  25.397  1.00  0.00     0.261 C 
BRANCH   5   6
ATOM      6  O   UNL A   1      31.091  24.744  25.834  1.00  0.00    -0.463 OA
BRANCH   6   7
ATOM      7  C   UNL A   1      31.495  23.847  24.890  1.00  0.00     0.316 C 
ATOM      8  O   UNL A   1      30.757  23.336  24.059  1.00  0.00    -0.251 OA
BRANCH   7   9
ATOM      9  C   UNL A   1      32.954  23.443  25.065  1.00  0.00     0.111 C 
ATOM     10  C   UNL A   1      33.814  23.652  23.806  1.00  0.00     0.028 C 
ATOM     11  C   UNL A   1      33.501  24.334  26.195  1.00  0.00     0.181 C 
ATOM     12  C   UNL A   1      33.167  22.021  25.609  1.00  0.00     0.126 C 
ATOM     13  O   UNL A   1      34.156  23.477  27.140  1.00  0.00    -0.378 OA
ATOM     14  C   UNL A   1      33.453  22.231  27.091  1.00  0.00     0.186 C 
BRANCH  12  15
ATOM     15  N   UNL A   1      32.113  21.041  25.370  1.00  0.00    -0.362 N 
ATOM     16  H   UNL A   1      31.183  21.272  25.595  1.00  0.00     0.162 HD
BRANCH  15  17
ATOM     17  C   UNL A   1      32.384  19.803  24.836  1.00  0.00     0.149 A 
ATOM     18  C   UNL A   1      32.372  19.637  23.346  1.00  0.00     0.053 A 
ATOM     19  N   UNL A   1      32.639  18.826  25.661  1.00  0.00    -0.129 NA
ATOM     20  C   UNL A   1      32.681  18.450  22.813  1.00  0.00     0.057 A 
ATOM     21  N   UNL A   1      32.958  17.659  25.037  1.00  0.00    -0.108 N 
ATOM     22  C   UNL A   1      32.998  17.396  23.683  1.00  0.00     0.200 A 
ATOM     23  N   UNL A   1      33.254  16.533  25.699  1.00  0.00    -0.022 NA
ATOM     24  N   UNL A   1      33.311  16.136  23.502  1.00  0.00    -0.107 NA
ATOM     25  N   UNL A   1      33.465  15.612  24.765  1.00  0.00    -0.022 NA
ENDBRANCH  15  17
ENDBRANCH  12  15
ENDBRANCH   7   9
ENDBRANCH   6   7
ENDBRANCH   5   6
ENDBRANCH   4   5
ENDBRANCH   3   4
ENDBRANCH   2   3
ENDBRANCH   1   2
BRANCH   1  26
ATOM     26  O   UNL A   1      31.765  30.456  26.941  1.00  0.00    -0.376 OA
BRANCH  26  27
ATOM     27  C   UNL A   1      31.575  31.834  26.695  1.00  0.00     0.202 C 
BRANCH  27  28
ATOM     28  C   UNL A   1      32.724  32.781  27.067  1.00  0.00     0.261 C 
BRANCH  28  29
ATOM     29  O   UNL A   1      32.320  33.875  27.903  1.00  0.00    -0.460 OA
BRANCH  29  30
ATOM     30  C   UNL A   1      33.286  34.636  28.451  1.00  0.00     0.338 C 
ATOM     31  O   UNL A   1      33.241  35.842  28.669  1.00  0.00    -0.246 OA
BRANCH  30  32
ATOM     32  C   UNL A   1      34.424  33.773  28.812  1.00  0.00     0.060 A 
ATOM     33  C   UNL A   1      34.178  32.574  29.481  1.00  0.00     0.016 A 
ATOM     34  C   UNL A   1      35.736  34.177  28.555  1.00  0.00     0.016 A 
ATOM     35  C   UNL A   1      35.246  31.787  29.912  1.00  0.00     0.010 A 
ATOM     36  C   UNL A   1      36.806  33.388  29.004  1.00  0.00     0.010 A 
ATOM     37  C   UNL A   1      36.567  32.199  29.712  1.00  0.00    -0.014 A 
BRANCH  37  38
ATOM     38  C   UNL A   1      37.667  31.444  30.366  1.00  0.00     0.031 A 
ATOM     39  C   UNL A   1      38.012  31.740  31.801  1.00  0.00     0.074 A 
ATOM     40  C   UNL A   1      38.308  30.442  29.735  1.00  0.00     0.049 A 
ATOM     41  N   UNL A   1      38.994  31.277  32.529  1.00  0.00    -0.248 NA
ATOM     42  C   UNL A   1      37.117  32.669  32.512  1.00  0.00     0.031 C 
ATOM     43  C   UNL A   1      37.998  29.949  28.395  1.00  0.00     0.029 A 
ATOM     44  N   UNL A   1      39.362  29.661  30.147  1.00  0.00    -0.354 N 
ATOM     45  C   UNL A   1      38.857  31.879  33.774  1.00  0.00     0.074 A 
ATOM     46  C   UNL A   1      37.687  32.728  33.708  1.00  0.00     0.031 C 
ATOM     47  C   UNL A   1      38.858  28.963  28.087  1.00  0.00     0.029 A 
ATOM     48  C   UNL A   1      39.813  28.792  29.182  1.00  0.00     0.049 A 
ATOM     49  H   UNL A   1      39.756  29.718  31.048  1.00  0.00     0.167 HD
ATOM     50  C   UNL A   1      39.634  31.740  34.873  1.00  0.00     0.034 A 
ATOM     51  C   UNL A   1      40.895  27.986  29.166  1.00  0.00     0.034 A 
ATOM     52  C   UNL A   1      40.782  30.879  34.966  1.00  0.00     0.049 A 
ATOM     53  C   UNL A   1      41.813  27.943  30.364  1.00  0.00     0.074 A 
ATOM     54  C   UNL A   1      41.645  30.710  36.035  1.00  0.00     0.029 A 
ATOM     55  N   UNL A   1      41.229  30.043  33.958  1.00  0.00    -0.354 N 
ATOM     56  N   UNL A   1      41.672  28.503  31.539  1.00  0.00    -0.248 NA
ATOM     57  C   UNL A   1      43.044  27.145  30.230  1.00  0.00     0.031 C 
ATOM     58  C   UNL A   1      42.630  29.790  35.664  1.00  0.00     0.029 A 
ATOM     59  C   UNL A   1      42.367  29.370  34.371  1.00  0.00     0.049 A 
ATOM     60  H   UNL A   1      40.802  29.943  33.076  1.00  0.00     0.167 HD
ATOM     61  C   UNL A   1      42.773  28.101  32.292  1.00  0.00     0.074 A 
ATOM     62  C   UNL A   1      43.561  27.228  31.449  1.00  0.00     0.031 C 
ATOM     63  C   UNL A   1      43.113  28.446  33.558  1.00  0.00     0.034 A 
BRANCH  50  64
ATOM     64  C   UNL A   1      39.283  32.564  36.079  1.00  0.00     0.023 A 
ATOM     65  C   UNL A   1      39.773  33.877  36.201  1.00  0.00     0.012 A 
ATOM     66  C   UNL A   1      38.409  32.051  37.058  1.00  0.00     0.148 A 
ATOM     67  C   UNL A   1      39.408  34.667  37.291  1.00  0.00     0.002 A 
ATOM     68  C   UNL A   1      38.021  32.855  38.121  1.00  0.00     0.091 A 
ATOM     69  F   UNL A   1      37.978  30.788  36.930  1.00  0.00    -0.205 F 
ATOM     70  C   UNL A   1      38.525  34.160  38.243  1.00  0.00     0.022 A 
BRANCH  68  71
ATOM     71  S   UNL A   1      36.838  32.313  39.357  1.00  0.00     0.127 S 
ATOM     72  O   UNL A   1      35.566  32.623  38.705  1.00  0.00    -0.237 OA
ATOM     73  O   UNL A   1      37.135  30.885  39.465  1.00  0.00    -0.237 OA
ATOM     74  O   UNL A   1      37.126  33.085  40.557  1.00  0.00    -0.744 OA
ENDBRANCH  68  71
ENDBRANCH  50  64
BRANCH  51  75
ATOM     75  C   UNL A   1      41.209  27.164  27.961  1.00  0.00     0.023 A 
ATOM     76  C   UNL A   1      41.772  27.778  26.825  1.00  0.00     0.012 A 
ATOM     77  C   UNL A   1      40.909  25.788  27.918  1.00  0.00     0.148 A 
ATOM     78  C   UNL A   1      41.993  27.046  25.657  1.00  0.00     0.002 A 
ATOM     79  C   UNL A   1      41.188  25.053  26.773  1.00  0.00     0.091 A 
ATOM     80  F   UNL A   1      40.337  25.226  28.992  1.00  0.00    -0.205 F 
ATOM     81  C   UNL A   1      41.711  25.682  25.634  1.00  0.00     0.022 A 
BRANCH  79  82
ATOM     82  S   UNL A   1      40.966  23.271  26.708  1.00  0.00     0.127 S 
ATOM     83  O   UNL A   1      41.375  22.868  28.051  1.00  0.00    -0.237 OA
ATOM     84  O   UNL A   1      39.532  23.151  26.438  1.00  0.00    -0.237 OA
ATOM     85  O   UNL A   1      41.818  22.814  25.619  1.00  0.00    -0.744 OA
ENDBRANCH  79  82
ENDBRANCH  51  75
BRANCH  63  86
ATOM     86  C   UNL A   1      44.376  27.861  34.141  1.00  0.00     0.023 A 
ATOM     87  C   UNL A   1      44.323  26.628  34.821  1.00  0.00     0.012 A 
ATOM     88  C   UNL A   1      45.625  28.482  33.938  1.00  0.00     0.148 A 
ATOM     89  C   UNL A   1      45.486  26.037  35.312  1.00  0.00     0.002 A 
ATOM     90  C   UNL A   1      46.786  27.865  34.392  1.00  0.00     0.091 A 
ATOM     91  F   UNL A   1      45.657  29.664  33.304  1.00  0.00    -0.205 F 
ATOM     92  C   UNL A   1      46.717  26.648  35.088  1.00  0.00     0.022 A 
BRANCH  90  93
ATOM     93  S   UNL A   1      48.424  28.531  34.067  1.00  0.00     0.127 S 
ATOM     94  O   UNL A   1      48.305  29.889  34.594  1.00  0.00    -0.237 OA
ATOM     95  O   UNL A   1      49.283  27.646  34.855  1.00  0.00    -0.237 OA
ATOM     96  O   UNL A   1      48.618  28.433  32.627  1.00  0.00    -0.744 OA
ENDBRANCH  90  93
ENDBRANCH  63  86
ENDBRANCH  37  38
ENDBRANCH  30  32
ENDBRANCH  29  30
ENDBRANCH  28  29
ENDBRANCH  27  28
ENDBRANCH  26  27
ENDBRANCH   1  26
TORSDOF 22
ENDMDL
MODEL 3
REMARK VINA RESULT:     -10.9      5.141      8.283
REMARK SMILES C[C@]1(C(=O)OCCOCCOCCOC(=O)c2ccc(-c3c4nc(c(-c5cccc(S(=O)(=O)[O-])c5F)c5ccc([nH]5)c(-c5cccc(S(=O)(=O)[O-])c5F)c5nc(c(-c6cccc(S(=O)(=O)[O-])c6F)c6ccc3[nH]6)C=C5)C=C4)cc2)COC[C@H]1Nc1ccc2nnnn2n1
REMARK SMILES IDX 10 1 9 2 8 3 7 4 6 5 5 6 3 7 4 8 2 9 1 10 80 11 83 12 81 13
REMARK SMILES IDX 82 14 84 15 85 17 86 18 93 19 87 20 92 21 88 22 91 23 89 24
REMARK SMILES IDX 90 25 11 26 12 27 13 28 14 29 15 30 16 31 17 32 18 33 79 34
REMARK SMILES IDX 19 35 78 36 20 37 21 38 22 39 72 40 23 41 77 42 71 43 73 44
REMARK SMILES IDX 24 45 76 46 70 47 69 48 25 50 57 51 37 52 56 53 38 54 41 55
REMARK SMILES IDX 55 56 74 57 39 58 40 59 54 61 75 62 42 63 26 64 27 65 35 66
REMARK SMILES IDX 28 67 30 68 36 69 29 70 31 71 32 72 33 73 34 74 58 75 59 76
REMARK SMILES IDX 67 77 60 78 62 79 68 80 61 81 63 82 64 83 65 84 66 85 43 86
REMARK SMILES IDX 44 87 52 88 45 89 47 90 53 91 46 92 48 93 49 94 50 95 51 96
REMARK H PARENT 84 16 73 49 41 60
REMARK Flexibility Score: inf
ROOT
ATOM      1  C   UNL A   1      32.489  30.182  27.015  1.00  0.00     0.188 C 
ENDROOT
BRANCH   1   2
ATOM      2  C   UNL A   1      32.612  29.712  25.554  1.00  0.00     0.188 C 
BRANCH   2   3
ATOM      3  O   UNL A   1      33.843  29.116  25.157  1.00  0.00    -0.376 OA
BRANCH   3   4
ATOM      4  C   UNL A   1      33.843  27.768  24.710  1.00  0.00     0.202 C 
BRANCH   4   5
ATOM      5  C   UNL A   1      33.979  26.697  25.788  1.00  0.00     0.261 C 
BRANCH   5   6
ATOM      6  O   UNL A   1      34.362  25.404  25.277  1.00  0.00    -0.463 OA
BRANCH   6   7
ATOM      7  C   UNL A   1      33.385  24.457  25.196  1.00  0.00     0.316 C 
ATOM      8  O   UNL A   1      32.972  23.803  26.144  1.00  0.00    -0.251 OA
BRANCH   7   9
ATOM      9  C   UNL A   1      32.947  24.202  23.758  1.00  0.00     0.111 C 
ATOM     10  C   UNL A   1      33.927  24.745  22.703  1.00  0.00     0.028 C 
ATOM     11  C   UNL A   1      32.858  22.671  23.615  1.00  0.00     0.181 C 
ATOM     12  C   UNL A   1      31.519  24.665  23.428  1.00  0.00     0.126 C 
ATOM     13  O   UNL A   1      31.582  22.366  23.037  1.00  0.00    -0.378 OA
ATOM     14  C   UNL A   1      30.690  23.388  23.496  1.00  0.00     0.186 C 
BRANCH  12  15
ATOM     15  N   UNL A   1      30.957  25.746  24.231  1.00  0.00    -0.362 N 
ATOM     16  H   UNL A   1      31.162  25.786  25.192  1.00  0.00     0.162 HD
BRANCH  15  17
ATOM     17  C   UNL A   1      30.149  26.713  23.678  1.00  0.00     0.149 A 
ATOM     18  C   UNL A   1      28.684  26.702  23.998  1.00  0.00     0.053 A 
ATOM     19  N   UNL A   1      30.703  27.597  22.897  1.00  0.00    -0.129 NA
ATOM     20  C   UNL A   1      27.896  27.663  23.505  1.00  0.00     0.057 A 
ATOM     21  N   UNL A   1      29.835  28.547  22.452  1.00  0.00    -0.108 N 
ATOM     22  C   UNL A   1      28.480  28.648  22.694  1.00  0.00     0.200 A 
ATOM     23  N   UNL A   1      30.199  29.546  21.638  1.00  0.00    -0.022 NA
ATOM     24  N   UNL A   1      28.007  29.686  22.047  1.00  0.00    -0.107 NA
ATOM     25  N   UNL A   1      29.088  30.233  21.393  1.00  0.00    -0.022 NA
ENDBRANCH  15  17
ENDBRANCH  12  15
ENDBRANCH   7   9
ENDBRANCH   6   7
ENDBRANCH   5   6
ENDBRANCH   4   5
ENDBRANCH   3   4
ENDBRANCH   2   3
ENDBRANCH   1   2
BRANCH   1  26
ATOM     26  O   UNL A   1      31.363  31.023  27.213  1.00  0.00    -0.376 OA
BRANCH  26  27
ATOM     27  C   UNL A   1      31.406  32.320  26.657  1.00  0.00     0.202 C 
BRANCH  27  28
ATOM     28  C   UNL A   1      32.602  33.207  27.027  1.00  0.00     0.261 C 
BRANCH  28  29
ATOM     29  O   UNL A   1      32.328  34.127  28.093  1.00  0.00    -0.460 OA
BRANCH  29  30
ATOM     30  C   UNL A   1      33.356  34.848  28.580  1.00  0.00     0.338 C 
ATOM     31  O   UNL A   1      33.391  36.061  28.753  1.00  0.00    -0.246 OA
BRANCH  30  32
ATOM     32  C   UNL A   1      34.452  33.931  28.938  1.00  0.00     0.060 A 
ATOM     33  C   UNL A   1      34.152  32.748  29.614  1.00  0.00     0.016 A 
ATOM     34  C   UNL A   1      35.781  34.268  28.670  1.00  0.00     0.016 A 
ATOM     35  C   UNL A   1      35.182  31.911  30.042  1.00  0.00     0.010 A 
ATOM     36  C   UNL A   1      36.813  33.429  29.115  1.00  0.00     0.010 A 
ATOM     37  C   UNL A   1      36.521  32.256  29.830  1.00  0.00    -0.014 A 
BRANCH  37  38
ATOM     38  C   UNL A   1      37.587  31.450  30.481  1.00  0.00     0.031 A 
ATOM     39  C   UNL A   1      37.875  31.655  31.944  1.00  0.00     0.074 A 
ATOM     40  C   UNL A   1      38.244  30.482  29.816  1.00  0.00     0.049 A 
ATOM     41  N   UNL A   1      38.822  31.137  32.681  1.00  0.00    -0.248 NA
ATOM     42  C   UNL A   1      36.961  32.548  32.674  1.00  0.00     0.031 C 
ATOM     43  C   UNL A   1      37.984  30.075  28.437  1.00  0.00     0.029 A 
ATOM     44  N   UNL A   1      39.273  29.665  30.221  1.00  0.00    -0.354 N 
ATOM     45  C   UNL A   1      38.641  31.663  33.954  1.00  0.00     0.074 A 
ATOM     46  C   UNL A   1      37.481  32.528  33.893  1.00  0.00     0.031 C 
ATOM     47  C   UNL A   1      38.848  29.099  28.104  1.00  0.00     0.029 A 
ATOM     48  C   UNL A   1      39.756  28.851  29.224  1.00  0.00     0.049 A 
ATOM     49  H   UNL A   1      39.630  29.663  31.139  1.00  0.00     0.167 HD
ATOM     50  C   UNL A   1      39.370  31.449  35.073  1.00  0.00     0.034 A 
ATOM     51  C   UNL A   1      40.830  28.036  29.202  1.00  0.00     0.034 A 
ATOM     52  C   UNL A   1      40.507  30.572  35.159  1.00  0.00     0.049 A 
ATOM     53  C   UNL A   1      41.699  27.910  30.430  1.00  0.00     0.074 A 
ATOM     54  C   UNL A   1      41.323  30.327  36.250  1.00  0.00     0.029 A 
ATOM     55  N   UNL A   1      40.987  29.793  34.120  1.00  0.00    -0.354 N 
ATOM     56  N   UNL A   1      41.515  28.398  31.632  1.00  0.00    -0.248 NA
ATOM     57  C   UNL A   1      42.926  27.107  30.297  1.00  0.00     0.031 C 
ATOM     58  C   UNL A   1      42.315  29.421  35.863  1.00  0.00     0.029 A 
ATOM     59  C   UNL A   1      42.100  29.083  34.537  1.00  0.00     0.049 A 
ATOM     60  H   UNL A   1      40.595  29.752  33.218  1.00  0.00     0.167 HD
ATOM     61  C   UNL A   1      42.580  27.939  32.401  1.00  0.00     0.074 A 
ATOM     62  C   UNL A   1      43.394  27.110  31.539  1.00  0.00     0.031 C 
ATOM     63  C   UNL A   1      42.871  28.202  33.699  1.00  0.00     0.034 A 
BRANCH  50  64
ATOM     64  C   UNL A   1      38.978  32.202  36.312  1.00  0.00     0.023 A 
ATOM     65  C   UNL A   1      39.321  33.560  36.449  1.00  0.00     0.012 A 
ATOM     66  C   UNL A   1      38.207  31.572  37.310  1.00  0.00     0.148 A 
ATOM     67  C   UNL A   1      38.914  34.279  37.572  1.00  0.00     0.002 A 
ATOM     68  C   UNL A   1      37.775  32.304  38.407  1.00  0.00     0.091 A 
ATOM     69  F   UNL A   1      37.917  30.272  37.166  1.00  0.00    -0.205 F 
ATOM     70  C   UNL A   1      38.132  33.655  38.544  1.00  0.00     0.022 A 
BRANCH  68  71
ATOM     71  S   UNL A   1      36.711  31.605  39.673  1.00  0.00     0.127 S 
ATOM     72  O   UNL A   1      36.144  32.808  40.281  1.00  0.00    -0.237 OA
ATOM     73  O   UNL A   1      35.765  30.818  38.882  1.00  0.00    -0.237 OA
ATOM     74  O   UNL A   1      37.578  30.819  40.540  1.00  0.00    -0.744 OA
ENDBRANCH  68  71
ENDBRANCH  50  64
BRANCH  51  75
ATOM     75  C   UNL A   1      41.186  27.285  27.962  1.00  0.00     0.023 A 
ATOM     76  C   UNL A   1      41.646  27.986  26.830  1.00  0.00     0.012 A 
ATOM     77  C   UNL A   1      41.025  25.888  27.884  1.00  0.00     0.148 A 
ATOM     78  C   UNL A   1      41.901  27.314  25.633  1.00  0.00     0.002 A 
ATOM     79  C   UNL A   1      41.340  25.218  26.708  1.00  0.00     0.091 A 
ATOM     80  F   UNL A   1      40.550  25.240  28.957  1.00  0.00    -0.205 F 
ATOM     81  C   UNL A   1      41.758  25.930  25.575  1.00  0.00     0.022 A 
BRANCH  79  82
ATOM     82  S   UNL A   1      41.298  23.426  26.593  1.00  0.00     0.127 S 
ATOM     83  O   UNL A   1      39.888  23.177  26.304  1.00  0.00    -0.237 OA
ATOM     84  O   UNL A   1      42.210  23.169  25.478  1.00  0.00    -0.237 OA
ATOM     85  O   UNL A   1      41.779  22.943  27.880  1.00  0.00    -0.744 OA
ENDBRANCH  79  82
ENDBRANCH  51  75
BRANCH  63  86
ATOM     86  C   UNL A   1      44.104  27.569  34.295  1.00  0.00     0.023 A 
ATOM     87  C   UNL A   1      45.331  28.261  34.255  1.00  0.00     0.012 A 
ATOM     88  C   UNL A   1      44.032  26.336  34.974  1.00  0.00     0.148 A 
ATOM     89  C   UNL A   1      46.470  27.725  34.855  1.00  0.00     0.002 A 
ATOM     90  C   UNL A   1      45.161  25.828  35.608  1.00  0.00     0.091 A 
ATOM     91  F   UNL A   1      42.861  25.680  34.990  1.00  0.00    -0.205 F 
ATOM     92  C   UNL A   1      46.383  26.516  35.541  1.00  0.00     0.022 A 
BRANCH  90  93
ATOM     93  S   UNL A   1      45.121  24.325  36.595  1.00  0.00     0.127 S 
ATOM     94  O   UNL A   1      44.311  23.441  35.759  1.00  0.00    -0.237 OA
ATOM     95  O   UNL A   1      46.537  23.963  36.669  1.00  0.00    -0.237 OA
ATOM     96  O   UNL A   1      44.528  24.700  37.871  1.00  0.00    -0.744 OA
ENDBRANCH  90  93
ENDBRANCH  63  86
ENDBRANCH  37  38
ENDBRANCH  30  32
ENDBRANCH  29  30
ENDBRANCH  28  29
ENDBRANCH  27  28
ENDBRANCH  26  27
ENDBRANCH   1  26
TORSDOF 22
ENDMDL
