MODEL 1
REMARK VINA RESULT:     -12.1      0.000      0.000
REMARK SMILES Cc1ccc(Nc2c(F)cccc2Cl)c(CC(=O)OCCOCCOCCOC(=O)c2ccc(-c3c4nc(c(-c5cccc(S(=O)(=O)[O-])c5F)c5ccc([nH]5)c(-c5cccc(S(=O)(=O)[O-])c5F)c5nc(c(-c6cccc(S(=O)(=O)[O-])c6F)c6ccc3[nH]6)C=C5)C=C4)cc2)c1
REMARK SMILES IDX 23 1 22 2 21 3 20 4 19 5 17 6 18 7 16 8 15 9 1 10 2 11 3 12
REMARK SMILES IDX 94 13 4 14 5 15 6 16 7 18 8 19 13 20 9 21 10 22 12 23 14 24
REMARK SMILES IDX 11 25 24 26 25 27 26 28 27 29 28 30 29 31 30 32 31 33 32 34
REMARK SMILES IDX 93 35 33 36 92 37 34 38 35 39 36 40 86 41 37 42 91 43 85 44
REMARK SMILES IDX 87 45 38 46 90 47 84 48 83 49 39 51 71 52 51 53 70 54 52 55
REMARK SMILES IDX 55 56 69 57 88 58 53 59 54 60 68 62 89 63 56 64 40 65 41 66
REMARK SMILES IDX 49 67 42 68 44 69 50 70 43 71 45 72 46 73 47 74 48 75 72 76
REMARK SMILES IDX 73 77 81 78 74 79 76 80 82 81 75 82 77 83 78 84 79 85 80 86
REMARK SMILES IDX 57 87 58 88 66 89 59 90 61 91 67 92 60 93 62 94 63 95 64 96
REMARK SMILES IDX 65 97
REMARK H PARENT 6 17 87 50 55 61
REMARK Flexibility Score: inf
ROOT
ATOM      1  C   UNL A   1      36.636  22.625  23.745  1.00  0.00     0.188 C 
ENDROOT
BRANCH   1   2
ATOM      2  O   UNL A   1      35.609  23.593  23.790  1.00  0.00    -0.376 OA
BRANCH   2   3
ATOM      3  C   UNL A   1      35.335  24.349  24.957  1.00  0.00     0.202 C 
BRANCH   3   4
ATOM      4  C   UNL A   1      33.991  25.130  25.501  1.00  0.00     0.261 C 
BRANCH   4   5
ATOM      5  O   UNL A   1      32.344  24.681  26.071  1.00  0.00    -0.463 OA
BRANCH   5   6
ATOM      6  C   UNL A   1      31.377  23.450  26.550  1.00  0.00     0.310 C 
ATOM      7  O   UNL A   1      30.817  23.131  27.608  1.00  0.00    -0.252 OA
BRANCH   6   8
ATOM      8  C   UNL A   1      30.833  22.694  25.472  1.00  0.00     0.160 C 
BRANCH   8   9
ATOM      9  C   UNL A   1      32.009  22.537  24.599  1.00  0.00    -0.013 A 
ATOM     10  C   UNL A   1      32.775  18.801  25.111  1.00  0.00     0.044 C 
ATOM     11  C   UNL A   1      32.607  20.121  24.426  1.00  0.00    -0.051 A 
ATOM     12  C   UNL A   1      32.350  20.250  23.089  1.00  0.00     0.005 A 
ATOM     13  C   UNL A   1      32.555  21.286  25.154  1.00  0.00     0.009 A 
ATOM     14  C   UNL A   1      32.048  21.532  22.546  1.00  0.00     0.026 A 
ATOM     15  C   UNL A   1      31.976  22.977  23.259  1.00  0.00     0.042 A 
BRANCH  15  16
ATOM     16  N   UNL A   1      31.924  24.749  22.265  1.00  0.00    -0.352 N 
ATOM     17  H   UNL A   1      31.936  24.627  21.288  1.00  0.00     0.167 HD
BRANCH  16  18
ATOM     18  C   UNL A   1      31.858  26.496  22.733  1.00  0.00     0.094 A 
ATOM     19  C   UNL A   1      32.933  27.531  22.474  1.00  0.00     0.148 A 
ATOM     20  C   UNL A   1      30.963  26.932  23.730  1.00  0.00     0.067 A 
ATOM     21  F   UNL A   1      33.986  27.431  21.642  1.00  0.00    -0.205 F 
ATOM     22  C   UNL A   1      33.099  28.721  23.189  1.00  0.00     0.041 A 
ATOM     23  C   UNL A   1      31.228  28.119  24.497  1.00  0.00     0.023 A 
ATOM     24  Cl  UNL A   1      29.399  26.336  24.018  1.00  0.00    -0.082 Cl
ATOM     25  C   UNL A   1      32.294  28.985  24.259  1.00  0.00     0.005 A 
ENDBRANCH  16  18
ENDBRANCH  15  16
ENDBRANCH   8   9
ENDBRANCH   6   8
ENDBRANCH   5   6
ENDBRANCH   4   5
ENDBRANCH   3   4
ENDBRANCH   2   3
ENDBRANCH   1   2
BRANCH   1  26
ATOM     26  C   UNL A   1      36.901  21.638  24.886  1.00  0.00     0.188 C 
BRANCH  26  27
ATOM     27  O   UNL A   1      38.119  21.837  25.569  1.00  0.00    -0.376 OA
BRANCH  27  28
ATOM     28  C   UNL A   1      38.987  20.704  25.641  1.00  0.00     0.202 C 
BRANCH  28  29
ATOM     29  C   UNL A   1      40.460  20.854  26.235  1.00  0.00     0.261 C 
BRANCH  29  30
ATOM     30  O   UNL A   1      40.623  21.676  27.473  1.00  0.00    -0.460 OA
BRANCH  30  31
ATOM     31  C   UNL A   1      41.840  22.273  27.885  1.00  0.00     0.338 C 
ATOM     32  O   UNL A   1      42.504  21.721  28.742  1.00  0.00    -0.246 OA
BRANCH  31  33
ATOM     33  C   UNL A   1      42.088  23.680  27.125  1.00  0.00     0.060 A 
ATOM     34  C   UNL A   1      43.414  24.675  26.081  1.00  0.00     0.016 A 
ATOM     35  C   UNL A   1      41.364  24.626  28.477  1.00  0.00     0.016 A 
ATOM     36  C   UNL A   1      43.990  26.360  26.750  1.00  0.00     0.010 A 
ATOM     37  C   UNL A   1      42.009  26.155  28.992  1.00  0.00     0.010 A 
ATOM     38  C   UNL A   1      43.323  27.135  28.280  1.00  0.00    -0.014 A 
BRANCH  38  39
ATOM     39  C   UNL A   1      43.480  28.802  29.142  1.00  0.00     0.031 A 
ATOM     40  C   UNL A   1      42.113  29.944  29.817  1.00  0.00     0.074 A 
ATOM     41  C   UNL A   1      44.637  29.243  29.691  1.00  0.00     0.049 A 
ATOM     42  N   UNL A   1      41.909  31.219  29.539  1.00  0.00    -0.248 NA
ATOM     43  C   UNL A   1      40.687  29.520  30.489  1.00  0.00     0.031 C 
ATOM     44  C   UNL A   1      44.756  30.237  30.780  1.00  0.00     0.029 A 
ATOM     45  N   UNL A   1      45.956  28.849  29.489  1.00  0.00    -0.354 N 
ATOM     46  C   UNL A   1      40.560  31.542  29.951  1.00  0.00     0.074 A 
ATOM     47  C   UNL A   1      39.802  30.364  30.018  1.00  0.00     0.031 C 
ATOM     48  C   UNL A   1      46.050  30.554  30.956  1.00  0.00     0.029 A 
ATOM     49  C   UNL A   1      46.761  29.951  29.849  1.00  0.00     0.049 A 
ATOM     50  H   UNL A   1      46.268  27.975  29.161  1.00  0.00     0.167 HD
ATOM     51  C   UNL A   1      40.222  32.581  30.774  1.00  0.00     0.034 A 
ATOM     52  C   UNL A   1      47.419  30.620  28.862  1.00  0.00     0.034 A 
ATOM     53  C   UNL A   1      41.465  33.237  31.107  1.00  0.00     0.049 A 
ATOM     54  C   UNL A   1      46.857  32.024  28.698  1.00  0.00     0.074 A 
ATOM     55  C   UNL A   1      42.369  33.075  32.141  1.00  0.00     0.029 A 
ATOM     56  N   UNL A   1      42.165  33.766  30.043  1.00  0.00    -0.354 N 
ATOM     57  N   UNL A   1      45.764  32.453  29.282  1.00  0.00    -0.248 NA
ATOM     58  C   UNL A   1      47.522  33.085  27.954  1.00  0.00     0.031 C 
ATOM     59  C   UNL A   1      43.654  33.453  31.641  1.00  0.00     0.029 A 
ATOM     60  C   UNL A   1      43.514  33.866  30.324  1.00  0.00     0.049 A 
ATOM     61  H   UNL A   1      41.755  34.037  29.190  1.00  0.00     0.167 HD
ATOM     62  C   UNL A   1      45.514  33.748  28.942  1.00  0.00     0.074 A 
ATOM     63  C   UNL A   1      46.681  34.116  28.155  1.00  0.00     0.031 C 
ATOM     64  C   UNL A   1      44.369  34.418  29.282  1.00  0.00     0.034 A 
BRANCH  51  65
ATOM     65  C   UNL A   1      38.891  32.672  31.582  1.00  0.00     0.023 A 
ATOM     66  C   UNL A   1      38.964  32.312  32.942  1.00  0.00     0.012 A 
ATOM     67  C   UNL A   1      37.582  33.058  31.130  1.00  0.00     0.148 A 
ATOM     68  C   UNL A   1      37.841  32.276  33.784  1.00  0.00     0.002 A 
ATOM     69  C   UNL A   1      36.443  32.938  31.952  1.00  0.00     0.091 A 
ATOM     70  F   UNL A   1      37.423  33.606  29.916  1.00  0.00    -0.205 F 
ATOM     71  C   UNL A   1      36.578  32.558  33.288  1.00  0.00     0.022 A 
BRANCH  69  72
ATOM     72  S   UNL A   1      34.742  33.166  31.360  1.00  0.00     0.127 S 
ATOM     73  O   UNL A   1      34.702  32.315  30.166  1.00  0.00    -0.237 OA
ATOM     74  O   UNL A   1      33.942  32.668  32.476  1.00  0.00    -0.237 OA
ATOM     75  O   UNL A   1      34.614  34.589  31.065  1.00  0.00    -0.744 OA
ENDBRANCH  69  72
ENDBRANCH  51  65
BRANCH  52  76
ATOM     76  C   UNL A   1      47.942  29.644  27.842  1.00  0.00     0.023 A 
ATOM     77  C   UNL A   1      48.797  28.624  28.361  1.00  0.00     0.012 A 
ATOM     78  C   UNL A   1      47.305  29.406  26.609  1.00  0.00     0.148 A 
ATOM     79  C   UNL A   1      48.898  27.373  27.752  1.00  0.00     0.002 A 
ATOM     80  C   UNL A   1      47.434  28.155  25.991  1.00  0.00     0.091 A 
ATOM     81  F   UNL A   1      46.544  30.375  26.084  1.00  0.00    -0.205 F 
ATOM     82  C   UNL A   1      48.200  27.135  26.577  1.00  0.00     0.022 A 
BRANCH  80  83
ATOM     83  S   UNL A   1      46.580  27.720  24.468  1.00  0.00     0.127 S 
ATOM     84  O   UNL A   1      45.218  28.153  24.770  1.00  0.00    -0.237 OA
ATOM     85  O   UNL A   1      47.264  28.541  23.465  1.00  0.00    -0.237 OA
ATOM     86  O   UNL A   1      46.772  26.288  24.305  1.00  0.00    -0.744 OA
ENDBRANCH  80  83
ENDBRANCH  52  76
BRANCH  64  87
ATOM     87  C   UNL A   1      43.884  35.665  28.558  1.00  0.00     0.023 A 
ATOM     88  C   UNL A   1      42.975  35.581  27.492  1.00  0.00     0.012 A 
ATOM     89  C   UNL A   1      44.142  36.967  29.072  1.00  0.00     0.148 A 
ATOM     90  C   UNL A   1      42.432  36.720  26.895  1.00  0.00     0.002 A 
ATOM     91  C   UNL A   1      43.451  38.073  28.596  1.00  0.00     0.091 A 
ATOM     92  F   UNL A   1      45.061  37.151  30.032  1.00  0.00    -0.205 F 
ATOM     93  C   UNL A   1      42.643  37.964  27.467  1.00  0.00     0.022 A 
BRANCH  91  94
ATOM     94  S   UNL A   1      43.401  39.602  29.542  1.00  0.00     0.127 S 
ATOM     95  O   UNL A   1      43.544  39.117  30.912  1.00  0.00    -0.237 OA
ATOM     96  O   UNL A   1      44.563  40.329  29.028  1.00  0.00    -0.237 OA
ATOM     97  O   UNL A   1      42.121  40.210  29.203  1.00  0.00    -0.744 OA
ENDBRANCH  91  94
ENDBRANCH  64  87
ENDBRANCH  38  39
ENDBRANCH  31  33
ENDBRANCH  30  31
ENDBRANCH  29  30
ENDBRANCH  28  29
ENDBRANCH  27  28
ENDBRANCH  26  27
ENDBRANCH   1  26
TORSDOF 23
ENDMDL
MODEL 2
REMARK VINA RESULT:     -11.5      2.271      3.509
REMARK SMILES Cc1ccc(Nc2c(F)cccc2Cl)c(CC(=O)OCCOCCOCCOC(=O)c2ccc(-c3c4nc(c(-c5cccc(S(=O)(=O)[O-])c5F)c5ccc([nH]5)c(-c5cccc(S(=O)(=O)[O-])c5F)c5nc(c(-c6cccc(S(=O)(=O)[O-])c6F)c6ccc3[nH]6)C=C5)C=C4)cc2)c1
REMARK SMILES IDX 23 1 22 2 21 3 20 4 19 5 17 6 18 7 16 8 15 9 1 10 2 11 3 12
REMARK SMILES IDX 94 13 4 14 5 15 6 16 7 18 8 19 13 20 9 21 10 22 12 23 14 24
REMARK SMILES IDX 11 25 24 26 25 27 26 28 27 29 28 30 29 31 30 32 31 33 32 34
REMARK SMILES IDX 93 35 33 36 92 37 34 38 35 39 36 40 86 41 37 42 91 43 85 44
REMARK SMILES IDX 87 45 38 46 90 47 84 48 83 49 39 51 71 52 51 53 70 54 52 55
REMARK SMILES IDX 55 56 69 57 88 58 53 59 54 60 68 62 89 63 56 64 40 65 41 66
REMARK SMILES IDX 49 67 42 68 44 69 50 70 43 71 45 72 46 73 47 74 48 75 72 76
REMARK SMILES IDX 73 77 81 78 74 79 76 80 82 81 75 82 77 83 78 84 79 85 80 86
REMARK SMILES IDX 57 87 58 88 66 89 59 90 61 91 67 92 60 93 62 94 63 95 64 96
REMARK SMILES IDX 65 97
REMARK H PARENT 6 17 87 50 55 61
REMARK Flexibility Score: inf
ROOT
ATOM      1  C   UNL A   1      34.720  21.265  25.749  1.00  0.00     0.188 C 
ENDROOT
BRANCH   1   2
ATOM      2  O   UNL A   1      33.450  21.550  26.295  1.00  0.00    -0.376 OA
BRANCH   2   3
ATOM      3  C   UNL A   1      32.589  22.527  25.735  1.00  0.00     0.202 C 
BRANCH   3   4
ATOM      4  C   UNL A   1      31.155  23.174  26.221  1.00  0.00     0.261 C 
BRANCH   4   5
ATOM      5  O   UNL A   1      30.468  24.817  26.477  1.00  0.00    -0.463 OA
BRANCH   5   6
ATOM      6  C   UNL A   1      30.813  26.411  26.620  1.00  0.00     0.310 C 
ATOM      7  O   UNL A   1      31.241  27.141  27.524  1.00  0.00    -0.252 OA
BRANCH   6   8
ATOM      8  C   UNL A   1      30.888  27.096  25.373  1.00  0.00     0.160 C 
BRANCH   8   9
ATOM      9  C   UNL A   1      32.295  27.533  25.361  1.00  0.00    -0.013 A 
ATOM     10  C   UNL A   1      33.725  25.231  22.631  1.00  0.00     0.044 C 
ATOM     11  C   UNL A   1      33.489  26.459  23.452  1.00  0.00    -0.051 A 
ATOM     12  C   UNL A   1      33.691  27.728  22.987  1.00  0.00     0.005 A 
ATOM     13  C   UNL A   1      32.902  26.369  24.692  1.00  0.00     0.009 A 
ATOM     14  C   UNL A   1      33.293  28.845  23.778  1.00  0.00     0.026 A 
ATOM     15  C   UNL A   1      32.625  28.900  25.245  1.00  0.00     0.042 A 
BRANCH  15  16
ATOM     16  N   UNL A   1      32.490  30.577  26.385  1.00  0.00    -0.352 N 
ATOM     17  H   UNL A   1      31.587  30.969  26.362  1.00  0.00     0.167 HD
BRANCH  16  18
ATOM     18  C   UNL A   1      33.620  31.525  27.434  1.00  0.00     0.094 A 
ATOM     19  C   UNL A   1      33.515  33.001  27.753  1.00  0.00     0.148 A 
ATOM     20  C   UNL A   1      34.912  31.035  27.712  1.00  0.00     0.067 A 
ATOM     21  F   UNL A   1      32.460  33.812  27.553  1.00  0.00    -0.205 F 
ATOM     22  C   UNL A   1      34.573  33.817  28.168  1.00  0.00     0.041 A 
ATOM     23  C   UNL A   1      35.987  31.929  28.050  1.00  0.00     0.023 A 
ATOM     24  Cl  UNL A   1      35.352  29.411  27.940  1.00  0.00    -0.082 Cl
ATOM     25  C   UNL A   1      35.835  33.301  28.242  1.00  0.00     0.005 A 
ENDBRANCH  16  18
ENDBRANCH  15  16
ENDBRANCH   8   9
ENDBRANCH   6   8
ENDBRANCH   5   6
ENDBRANCH   4   5
ENDBRANCH   3   4
ENDBRANCH   2   3
ENDBRANCH   1   2
BRANCH   1  26
ATOM     26  C   UNL A   1      35.321  22.055  24.581  1.00  0.00     0.188 C 
BRANCH  26  27
ATOM     27  O   UNL A   1      36.658  21.729  24.273  1.00  0.00    -0.376 OA
BRANCH  27  28
ATOM     28  C   UNL A   1      37.639  22.153  25.222  1.00  0.00     0.202 C 
BRANCH  28  29
ATOM     29  C   UNL A   1      37.722  23.683  25.665  1.00  0.00     0.261 C 
BRANCH  29  30
ATOM     30  O   UNL A   1      39.083  24.264  25.885  1.00  0.00    -0.460 OA
BRANCH  30  31
ATOM     31  C   UNL A   1      39.630  24.564  27.157  1.00  0.00     0.338 C 
ATOM     32  O   UNL A   1      39.056  24.163  28.152  1.00  0.00    -0.246 OA
BRANCH  31  33
ATOM     33  C   UNL A   1      40.956  25.482  27.022  1.00  0.00     0.060 A 
ATOM     34  C   UNL A   1      42.875  25.513  27.411  1.00  0.00     0.016 A 
ATOM     35  C   UNL A   1      40.078  26.963  27.554  1.00  0.00     0.016 A 
ATOM     36  C   UNL A   1      43.534  26.909  28.522  1.00  0.00     0.010 A 
ATOM     37  C   UNL A   1      40.807  28.155  28.587  1.00  0.00     0.010 A 
ATOM     38  C   UNL A   1      42.485  28.266  29.191  1.00  0.00    -0.014 A 
BRANCH  38  39
ATOM     39  C   UNL A   1      42.773  29.873  30.129  1.00  0.00     0.031 A 
ATOM     40  C   UNL A   1      41.500  31.121  30.802  1.00  0.00     0.074 A 
ATOM     41  C   UNL A   1      43.944  30.173  30.738  1.00  0.00     0.049 A 
ATOM     42  N   UNL A   1      41.435  32.420  30.571  1.00  0.00    -0.248 NA
ATOM     43  C   UNL A   1      40.012  30.817  31.402  1.00  0.00     0.031 C 
ATOM     44  C   UNL A   1      44.118  31.107  31.873  1.00  0.00     0.029 A 
ATOM     45  N   UNL A   1      45.225  29.656  30.569  1.00  0.00    -0.354 N 
ATOM     46  C   UNL A   1      40.110  32.861  30.946  1.00  0.00     0.074 A 
ATOM     47  C   UNL A   1      39.236  31.764  30.935  1.00  0.00     0.031 C 
ATOM     48  C   UNL A   1      45.429  31.284  32.109  1.00  0.00     0.029 A 
ATOM     49  C   UNL A   1      46.121  30.656  31.004  1.00  0.00     0.049 A 
ATOM     50  H   UNL A   1      45.461  28.768  30.215  1.00  0.00     0.167 HD
ATOM     51  C   UNL A   1      39.844  33.896  31.800  1.00  0.00     0.034 A 
ATOM     52  C   UNL A   1      46.881  31.293  30.072  1.00  0.00     0.034 A 
ATOM     53  C   UNL A   1      41.131  34.410  32.206  1.00  0.00     0.049 A 
ATOM     54  C   UNL A   1      46.469  32.752  29.947  1.00  0.00     0.074 A 
ATOM     55  C   UNL A   1      41.972  34.118  33.265  1.00  0.00     0.029 A 
ATOM     56  N   UNL A   1      41.923  34.906  31.193  1.00  0.00    -0.354 N 
ATOM     57  N   UNL A   1      45.402  33.266  30.509  1.00  0.00    -0.248 NA
ATOM     58  C   UNL A   1      47.267  33.768  29.274  1.00  0.00     0.031 C 
ATOM     59  C   UNL A   1      43.307  34.383  32.829  1.00  0.00     0.029 A 
ATOM     60  C   UNL A   1      43.263  34.858  31.526  1.00  0.00     0.049 A 
ATOM     61  H   UNL A   1      41.577  35.250  30.337  1.00  0.00     0.167 HD
ATOM     62  C   UNL A   1      45.296  34.593  30.215  1.00  0.00     0.074 A 
ATOM     63  C   UNL A   1      46.525  34.870  29.488  1.00  0.00     0.031 C 
ATOM     64  C   UNL A   1      44.211  35.361  30.541  1.00  0.00     0.034 A 
BRANCH  51  65
ATOM     65  C   UNL A   1      38.496  34.090  32.562  1.00  0.00     0.023 A 
ATOM     66  C   UNL A   1      38.583  34.168  33.967  1.00  0.00     0.012 A 
ATOM     67  C   UNL A   1      37.163  34.185  32.034  1.00  0.00     0.148 A 
ATOM     68  C   UNL A   1      37.454  34.273  34.796  1.00  0.00     0.002 A 
ATOM     69  C   UNL A   1      36.028  34.204  32.870  1.00  0.00     0.091 A 
ATOM     70  F   UNL A   1      36.969  34.322  30.713  1.00  0.00    -0.205 F 
ATOM     71  C   UNL A   1      36.178  34.261  34.256  1.00  0.00     0.022 A 
BRANCH  69  72
ATOM     72  S   UNL A   1      34.323  34.065  32.262  1.00  0.00     0.127 S 
ATOM     73  O   UNL A   1      33.552  33.921  33.501  1.00  0.00    -0.237 OA
ATOM     74  O   UNL A   1      34.120  35.338  31.576  1.00  0.00    -0.237 OA
ATOM     75  O   UNL A   1      34.300  32.874  31.421  1.00  0.00    -0.744 OA
ENDBRANCH  69  72
ENDBRANCH  51  65
BRANCH  52  76
ATOM     76  C   UNL A   1      47.345  30.309  29.030  1.00  0.00     0.023 A 
ATOM     77  C   UNL A   1      48.204  29.275  29.514  1.00  0.00     0.012 A 
ATOM     78  C   UNL A   1      46.655  30.084  27.824  1.00  0.00     0.148 A 
ATOM     79  C   UNL A   1      48.259  28.023  28.900  1.00  0.00     0.002 A 
ATOM     80  C   UNL A   1      46.737  28.831  27.202  1.00  0.00     0.091 A 
ATOM     81  F   UNL A   1      45.889  31.066  27.332  1.00  0.00    -0.205 F 
ATOM     82  C   UNL A   1      47.510  27.797  27.755  1.00  0.00     0.022 A 
BRANCH  80  83
ATOM     83  S   UNL A   1      45.815  28.412  25.714  1.00  0.00     0.127 S 
ATOM     84  O   UNL A   1      44.494  28.946  26.038  1.00  0.00    -0.237 OA
ATOM     85  O   UNL A   1      46.525  29.156  24.670  1.00  0.00    -0.237 OA
ATOM     86  O   UNL A   1      45.905  26.966  25.590  1.00  0.00    -0.744 OA
ENDBRANCH  80  83
ENDBRANCH  52  76
BRANCH  64  87
ATOM     87  C   UNL A   1      43.882  36.678  29.854  1.00  0.00     0.023 A 
ATOM     88  C   UNL A   1      43.126  36.713  28.671  1.00  0.00     0.012 A 
ATOM     89  C   UNL A   1      44.120  37.927  30.494  1.00  0.00     0.148 A 
ATOM     90  C   UNL A   1      42.719  37.917  28.093  1.00  0.00     0.002 A 
ATOM     91  C   UNL A   1      43.547  39.096  30.014  1.00  0.00     0.091 A 
ATOM     92  F   UNL A   1      44.903  37.997  31.581  1.00  0.00    -0.205 F 
ATOM     93  C   UNL A   1      42.899  39.106  28.781  1.00  0.00     0.022 A 
BRANCH  91  94
ATOM     94  S   UNL A   1      43.429  40.557  31.056  1.00  0.00     0.127 S 
ATOM     95  O   UNL A   1      42.772  40.028  32.248  1.00  0.00    -0.237 OA
ATOM     96  O   UNL A   1      44.834  40.923  31.247  1.00  0.00    -0.237 OA
ATOM     97  O   UNL A   1      42.666  41.518  30.270  1.00  0.00    -0.744 OA
ENDBRANCH  91  94
ENDBRANCH  64  87
ENDBRANCH  38  39
ENDBRANCH  31  33
ENDBRANCH  30  31
ENDBRANCH  29  30
ENDBRANCH  28  29
ENDBRANCH  27  28
ENDBRANCH  26  27
ENDBRANCH   1  26
TORSDOF 23
ENDMDL
MODEL 3
REMARK VINA RESULT:     -11.2      5.533     11.176
REMARK SMILES Cc1ccc(Nc2c(F)cccc2Cl)c(CC(=O)OCCOCCOCCOC(=O)c2ccc(-c3c4nc(c(-c5cccc(S(=O)(=O)[O-])c5F)c5ccc([nH]5)c(-c5cccc(S(=O)(=O)[O-])c5F)c5nc(c(-c6cccc(S(=O)(=O)[O-])c6F)c6ccc3[nH]6)C=C5)C=C4)cc2)c1
REMARK SMILES IDX 23 1 22 2 21 3 20 4 19 5 17 6 18 7 16 8 15 9 1 10 2 11 3 12
REMARK SMILES IDX 94 13 4 14 5 15 6 16 7 18 8 19 13 20 9 21 10 22 12 23 14 24
REMARK SMILES IDX 11 25 24 26 25 27 26 28 27 29 28 30 29 31 30 32 31 33 32 34
REMARK SMILES IDX 93 35 33 36 92 37 34 38 35 39 36 40 86 41 37 42 91 43 85 44
REMARK SMILES IDX 87 45 38 46 90 47 84 48 83 49 39 51 71 52 51 53 70 54 52 55
REMARK SMILES IDX 55 56 69 57 88 58 53 59 54 60 68 62 89 63 56 64 40 65 41 66
REMARK SMILES IDX 49 67 42 68 44 69 50 70 43 71 45 72 46 73 47 74 48 75 72 76
REMARK SMILES IDX 73 77 81 78 74 79 76 80 82 81 75 82 77 83 78 84 79 85 80 86
REMARK SMILES IDX 57 87 58 88 66 89 59 90 61 91 67 92 60 93 62 94 63 95 64 96
REMARK SMILES IDX 65 97
REMARK H PARENT 6 17 87 50 55 61
REMARK Flexibility Score: inf
ROOT
ATOM      1  C   UNL A   1      34.485  21.895  23.998  1.00  0.00     0.188 C 
ENDROOT
BRANCH   1   2
ATOM      2  O   UNL A   1      33.453  22.458  24.779  1.00  0.00    -0.376 OA
BRANCH   2   3
ATOM      3  C   UNL A   1      32.963  23.769  24.552  1.00  0.00     0.202 C 
BRANCH   3   4
ATOM      4  C   UNL A   1      31.723  24.635  25.203  1.00  0.00     0.261 C 
BRANCH   4   5
ATOM      5  O   UNL A   1      31.528  26.159  26.140  1.00  0.00    -0.463 OA
BRANCH   5   6
ATOM      6  C   UNL A   1      32.311  27.409  26.852  1.00  0.00     0.310 C 
ATOM      7  O   UNL A   1      32.065  28.182  27.788  1.00  0.00    -0.252 OA
BRANCH   6   8
ATOM      8  C   UNL A   1      33.691  27.492  26.509  1.00  0.00     0.160 C 
BRANCH   8   9
ATOM      9  C   UNL A   1      33.679  28.562  25.497  1.00  0.00    -0.013 A 
ATOM     10  C   UNL A   1      33.040  26.506  22.308  1.00  0.00     0.044 C 
ATOM     11  C   UNL A   1      32.962  27.624  23.299  1.00  0.00    -0.051 A 
ATOM     12  C   UNL A   1      31.902  28.484  23.384  1.00  0.00     0.005 A 
ATOM     13  C   UNL A   1      33.908  27.750  24.288  1.00  0.00     0.009 A 
ATOM     14  C   UNL A   1      31.835  29.421  24.456  1.00  0.00     0.026 A 
ATOM     15  C   UNL A   1      32.867  29.703  25.662  1.00  0.00     0.042 A 
BRANCH  15  16
ATOM     16  N   UNL A   1      32.809  31.338  26.867  1.00  0.00    -0.352 N 
ATOM     17  H   UNL A   1      31.932  31.787  26.842  1.00  0.00     0.167 HD
BRANCH  16  18
ATOM     18  C   UNL A   1      33.971  32.173  27.978  1.00  0.00     0.094 A 
ATOM     19  C   UNL A   1      33.799  33.553  28.575  1.00  0.00     0.148 A 
ATOM     20  C   UNL A   1      35.313  31.750  28.049  1.00  0.00     0.067 A 
ATOM     21  F   UNL A   1      32.678  34.295  28.621  1.00  0.00    -0.205 F 
ATOM     22  C   UNL A   1      34.836  34.365  29.046  1.00  0.00     0.041 A 
ATOM     23  C   UNL A   1      36.354  32.655  28.458  1.00  0.00     0.023 A 
ATOM     24  Cl  UNL A   1      35.880  30.153  27.931  1.00  0.00    -0.082 Cl
ATOM     25  C   UNL A   1      36.130  33.951  28.916  1.00  0.00     0.005 A 
ENDBRANCH  16  18
ENDBRANCH  15  16
ENDBRANCH   8   9
ENDBRANCH   6   8
ENDBRANCH   5   6
ENDBRANCH   4   5
ENDBRANCH   3   4
ENDBRANCH   2   3
ENDBRANCH   1   2
BRANCH   1  26
ATOM     26  C   UNL A   1      35.950  21.873  24.445  1.00  0.00     0.188 C 
BRANCH  26  27
ATOM     27  O   UNL A   1      36.525  23.146  24.650  1.00  0.00    -0.376 OA
BRANCH  27  28
ATOM     28  C   UNL A   1      37.645  23.189  25.536  1.00  0.00     0.202 C 
BRANCH  28  29
ATOM     29  C   UNL A   1      38.435  21.852  25.901  1.00  0.00     0.261 C 
BRANCH  29  30
ATOM     30  O   UNL A   1      39.923  21.942  26.022  1.00  0.00    -0.460 OA
BRANCH  30  31
ATOM     31  C   UNL A   1      40.647  21.692  27.214  1.00  0.00     0.338 C 
ATOM     32  O   UNL A   1      40.957  20.547  27.482  1.00  0.00    -0.246 OA
BRANCH  31  33
ATOM     33  C   UNL A   1      40.880  23.055  28.054  1.00  0.00     0.060 A 
ATOM     34  C   UNL A   1      40.805  25.007  27.909  1.00  0.00     0.016 A 
ATOM     35  C   UNL A   1      42.407  22.435  28.783  1.00  0.00     0.016 A 
ATOM     36  C   UNL A   1      42.395  25.987  28.263  1.00  0.00     0.010 A 
ATOM     37  C   UNL A   1      43.795  23.450  29.038  1.00  0.00     0.010 A 
ATOM     38  C   UNL A   1      43.976  25.212  28.801  1.00  0.00    -0.014 A 
BRANCH  38  39
ATOM     39  C   UNL A   1      45.651  25.818  29.412  1.00  0.00     0.031 A 
ATOM     40  C   UNL A   1      47.338  25.793  28.527  1.00  0.00     0.074 A 
ATOM     41  C   UNL A   1      45.793  26.666  30.457  1.00  0.00     0.049 A 
ATOM     42  N   UNL A   1      48.475  25.275  28.959  1.00  0.00    -0.248 NA
ATOM     43  C   UNL A   1      47.643  25.976  26.934  1.00  0.00     0.031 C 
ATOM     44  C   UNL A   1      46.942  27.568  30.693  1.00  0.00     0.029 A 
ATOM     45  N   UNL A   1      44.923  27.002  31.491  1.00  0.00    -0.354 N 
ATOM     46  C   UNL A   1      49.349  25.135  27.815  1.00  0.00     0.074 A 
ATOM     47  C   UNL A   1      48.578  25.105  26.644  1.00  0.00     0.031 C 
ATOM     48  C   UNL A   1      46.821  28.139  31.904  1.00  0.00     0.029 A 
ATOM     49  C   UNL A   1      45.727  27.454  32.559  1.00  0.00     0.049 A 
ATOM     50  H   UNL A   1      43.941  26.937  31.480  1.00  0.00     0.167 HD
ATOM     51  C   UNL A   1      50.624  25.623  27.742  1.00  0.00     0.034 A 
ATOM     52  C   UNL A   1      45.823  26.673  33.670  1.00  0.00     0.034 A 
ATOM     53  C   UNL A   1      50.869  26.270  29.010  1.00  0.00     0.049 A 
ATOM     54  C   UNL A   1      47.231  26.117  33.815  1.00  0.00     0.074 A 
ATOM     55  C   UNL A   1      50.694  27.568  29.456  1.00  0.00     0.029 A 
ATOM     56  N   UNL A   1      50.804  25.455  30.120  1.00  0.00    -0.354 N 
ATOM     57  N   UNL A   1      48.159  26.210  32.894  1.00  0.00    -0.248 NA
ATOM     58  C   UNL A   1      47.743  25.505  35.035  1.00  0.00     0.031 C 
ATOM     59  C   UNL A   1      50.444  27.501  30.862  1.00  0.00     0.029 A 
ATOM     60  C   UNL A   1      50.499  26.173  31.260  1.00  0.00     0.049 A 
ATOM     61  H   UNL A   1      50.955  24.482  30.102  1.00  0.00     0.167 HD
ATOM     62  C   UNL A   1      49.312  25.616  33.310  1.00  0.00     0.074 A 
ATOM     63  C   UNL A   1      49.016  25.243  34.685  1.00  0.00     0.031 C 
ATOM     64  C   UNL A   1      50.406  25.428  32.508  1.00  0.00     0.034 A 
BRANCH  51  65
ATOM     65  C   UNL A   1      51.395  25.889  26.412  1.00  0.00     0.023 A 
ATOM     66  C   UNL A   1      52.347  24.919  26.041  1.00  0.00     0.012 A 
ATOM     67  C   UNL A   1      51.286  27.003  25.509  1.00  0.00     0.148 A 
ATOM     68  C   UNL A   1      53.169  25.049  24.910  1.00  0.00     0.002 A 
ATOM     69  C   UNL A   1      52.169  27.173  24.424  1.00  0.00     0.091 A 
ATOM     70  F   UNL A   1      50.285  27.886  25.648  1.00  0.00    -0.205 F 
ATOM     71  C   UNL A   1      53.104  26.185  24.118  1.00  0.00     0.022 A 
BRANCH  69  72
ATOM     72  S   UNL A   1      52.243  28.677  23.410  1.00  0.00     0.127 S 
ATOM     73  O   UNL A   1      52.686  29.691  24.372  1.00  0.00    -0.237 OA
ATOM     74  O   UNL A   1      53.240  28.336  22.398  1.00  0.00    -0.237 OA
ATOM     75  O   UNL A   1      50.885  28.891  22.923  1.00  0.00    -0.744 OA
ENDBRANCH  69  72
ENDBRANCH  51  65
BRANCH  52  76
ATOM     76  C   UNL A   1      44.485  26.058  33.982  1.00  0.00     0.023 A 
ATOM     77  C   UNL A   1      44.372  24.666  33.680  1.00  0.00     0.012 A 
ATOM     78  C   UNL A   1      43.587  26.605  34.918  1.00  0.00     0.148 A 
ATOM     79  C   UNL A   1      43.503  23.833  34.384  1.00  0.00     0.002 A 
ATOM     80  C   UNL A   1      42.700  25.763  35.602  1.00  0.00     0.091 A 
ATOM     81  F   UNL A   1      43.646  27.919  35.170  1.00  0.00    -0.205 F 
ATOM     82  C   UNL A   1      42.681  24.380  35.358  1.00  0.00     0.022 A 
BRANCH  80  83
ATOM     83  S   UNL A   1      41.584  26.349  36.887  1.00  0.00     0.127 S 
ATOM     84  O   UNL A   1      40.569  25.299  36.884  1.00  0.00    -0.237 OA
ATOM     85  O   UNL A   1      42.437  26.357  38.079  1.00  0.00    -0.237 OA
ATOM     86  O   UNL A   1      41.142  27.665  36.455  1.00  0.00    -0.744 OA
ENDBRANCH  80  83
ENDBRANCH  52  76
BRANCH  64  87
ATOM     87  C   UNL A   1      51.493  24.405  32.802  1.00  0.00     0.023 A 
ATOM     88  C   UNL A   1      51.226  23.027  32.755  1.00  0.00     0.012 A 
ATOM     89  C   UNL A   1      52.860  24.784  32.903  1.00  0.00     0.148 A 
ATOM     90  C   UNL A   1      52.236  22.076  32.907  1.00  0.00     0.002 A 
ATOM     91  C   UNL A   1      53.871  23.834  32.860  1.00  0.00     0.091 A 
ATOM     92  F   UNL A   1      53.201  26.075  33.040  1.00  0.00    -0.205 F 
ATOM     93  C   UNL A   1      53.562  22.477  32.925  1.00  0.00     0.022 A 
BRANCH  91  94
ATOM     94  S   UNL A   1      55.567  24.311  32.496  1.00  0.00     0.127 S 
ATOM     95  O   UNL A   1      56.291  23.066  32.737  1.00  0.00    -0.237 OA
ATOM     96  O   UNL A   1      55.487  24.706  31.088  1.00  0.00    -0.237 OA
ATOM     97  O   UNL A   1      55.851  25.411  33.408  1.00  0.00    -0.744 OA
ENDBRANCH  91  94
ENDBRANCH  64  87
ENDBRANCH  38  39
ENDBRANCH  31  33
ENDBRANCH  30  31
ENDBRANCH  29  30
ENDBRANCH  28  29
ENDBRANCH  27  28
ENDBRANCH  26  27
ENDBRANCH   1  26
TORSDOF 23
ENDMDL
