MODEL 1
REMARK VINA RESULT:     -11.1      0.000      0.000
REMARK SMILES CC[NH+]1CCC(CC(=O)N[C@H](C(=O)OCCOCCOCCOC(=O)c2ccc(-c3c4nc(c(-c5cccc(S(=O)(=O)[O-])c5F)c5ccc([nH]5)c(-c5cccc(S(=O)(=O)[O-])c5F)c5nc(c(-c6cccc(S(=O)(=O)[O-])c6F)c6ccc3[nH]6)C=C5)C=C4)cc2)c2ccc(F)cc2F)CC1
REMARK SMILES IDX 18 1 17 2 16 3 15 4 14 5 12 6 13 7 11 8 10 9 8 10 9 11 7 13
REMARK SMILES IDX 6 14 3 15 4 16 98 17 5 19 97 20 2 21 1 22 89 23 90 24 95 25
REMARK SMILES IDX 91 26 94 27 96 28 92 29 93 30 19 31 20 32 21 33 22 34 23 35
REMARK SMILES IDX 24 36 25 37 26 38 27 39 88 40 28 41 87 42 29 43 30 44 31 45
REMARK SMILES IDX 81 46 32 47 86 48 80 49 82 50 33 51 85 52 79 53 78 54 34 56
REMARK SMILES IDX 66 57 46 58 65 59 47 60 50 61 64 62 83 63 48 64 49 65 63 67
REMARK SMILES IDX 84 68 51 69 35 70 36 71 44 72 37 73 39 74 45 75 38 76 40 77
REMARK SMILES IDX 41 78 42 79 43 80 67 81 68 82 76 83 69 84 71 85 77 86 70 87
REMARK SMILES IDX 72 88 73 89 74 90 75 91 52 92 53 93 61 94 54 95 56 96 62 97
REMARK SMILES IDX 55 98 57 99 58 100 59 101 60 102
REMARK H PARENT 10 12 3 18 82 55 50 66
REMARK Flexibility Score: inf
ROOT
ATOM      1  C   UNL A   1      31.117  27.594  24.751  1.00  0.00     0.188 C 
ENDROOT
BRANCH   1   2
ATOM      2  O   UNL A   1      30.368  28.052  23.630  1.00  0.00    -0.376 OA
BRANCH   2   3
ATOM      3  C   UNL A   1      30.689  27.527  22.341  1.00  0.00     0.202 C 
BRANCH   3   4
ATOM      4  C   UNL A   1      31.309  26.118  22.259  1.00  0.00     0.261 C 
BRANCH   4   5
ATOM      5  O   UNL A   1      32.750  26.063  22.059  1.00  0.00    -0.461 OA
BRANCH   5   6
ATOM      6  C   UNL A   1      33.287  24.839  22.263  1.00  0.00     0.333 C 
ATOM      7  O   UNL A   1      33.393  24.028  21.342  1.00  0.00    -0.249 OA
BRANCH   6   8
ATOM      8  C   UNL A   1      33.665  24.427  23.689  1.00  0.00     0.226 C 
BRANCH   8   9
ATOM      9  N   UNL A   1      32.499  23.873  24.421  1.00  0.00    -0.339 N 
ATOM     10  C   UNL A   1      31.678  22.791  24.248  1.00  0.00     0.221 C 
ATOM     11  O   UNL A   1      30.693  22.761  24.996  1.00  0.00    -0.275 OA
ATOM     12  H   UNL A   1      32.262  24.406  25.214  1.00  0.00     0.164 HD
BRANCH  10  13
ATOM     13  C   UNL A   1      31.891  21.629  23.251  1.00  0.00     0.104 C 
BRANCH  13  14
ATOM     14  C   UNL A   1      32.744  20.413  23.702  1.00  0.00     0.009 C 
ATOM     15  N   UNL A   1      32.411  17.782  25.038  1.00  0.00    -0.335 N 
ATOM     16  C   UNL A   1      33.027  18.892  25.759  1.00  0.00     0.262 C 
ATOM     17  C   UNL A   1      32.875  17.820  23.640  1.00  0.00     0.262 C 
ATOM     18  H   UNL A   1      31.396  17.876  25.019  1.00  0.00     0.348 HD
ATOM     19  C   UNL A   1      32.463  20.143  25.152  1.00  0.00     0.066 C 
ATOM     20  C   UNL A   1      32.417  19.118  22.917  1.00  0.00     0.066 C 
BRANCH  15  21
ATOM     21  C   UNL A   1      32.633  16.512  25.728  1.00  0.00     0.258 C 
ATOM     22  C   UNL A   1      33.842  15.751  25.160  1.00  0.00     0.071 C 
ENDBRANCH  15  21
ENDBRANCH  13  14
ENDBRANCH  10  13
ENDBRANCH   8   9
BRANCH   8  23
ATOM     23  C   UNL A   1      34.967  23.757  24.130  1.00  0.00     0.022 A 
ATOM     24  C   UNL A   1      35.549  22.658  23.507  1.00  0.00     0.012 A 
ATOM     25  C   UNL A   1      35.566  24.166  25.348  1.00  0.00     0.131 A 
ATOM     26  C   UNL A   1      36.700  22.047  24.043  1.00  0.00     0.040 A 
ATOM     27  C   UNL A   1      36.684  23.553  25.904  1.00  0.00     0.078 A 
ATOM     28  F   UNL A   1      35.047  25.179  26.048  1.00  0.00    -0.206 F 
ATOM     29  C   UNL A   1      37.255  22.497  25.234  1.00  0.00     0.126 A 
ATOM     30  F   UNL A   1      38.340  21.899  25.744  1.00  0.00    -0.207 F 
ENDBRANCH   8  23
ENDBRANCH   6   8
ENDBRANCH   5   6
ENDBRANCH   4   5
ENDBRANCH   3   4
ENDBRANCH   2   3
ENDBRANCH   1   2
BRANCH   1  31
ATOM     31  C   UNL A   1      31.575  28.678  25.731  1.00  0.00     0.188 C 
BRANCH  31  32
ATOM     32  O   UNL A   1      31.468  29.976  25.168  1.00  0.00    -0.376 OA
BRANCH  32  33
ATOM     33  C   UNL A   1      31.341  31.140  25.975  1.00  0.00     0.202 C 
BRANCH  33  34
ATOM     34  C   UNL A   1      32.169  31.253  27.256  1.00  0.00     0.261 C 
BRANCH  34  35
ATOM     35  O   UNL A   1      33.589  31.201  27.042  1.00  0.00    -0.460 OA
BRANCH  35  36
ATOM     36  C   UNL A   1      34.353  32.141  27.642  1.00  0.00     0.338 C 
ATOM     37  O   UNL A   1      34.014  33.274  27.938  1.00  0.00    -0.246 OA
BRANCH  36  38
ATOM     38  C   UNL A   1      35.595  31.482  28.109  1.00  0.00     0.060 A 
ATOM     39  C   UNL A   1      35.679  30.083  28.051  1.00  0.00     0.016 A 
ATOM     40  C   UNL A   1      36.696  32.236  28.526  1.00  0.00     0.016 A 
ATOM     41  C   UNL A   1      36.851  29.435  28.447  1.00  0.00     0.010 A 
ATOM     42  C   UNL A   1      37.863  31.588  28.930  1.00  0.00     0.010 A 
ATOM     43  C   UNL A   1      37.932  30.185  28.930  1.00  0.00    -0.014 A 
BRANCH  43  44
ATOM     44  C   UNL A   1      39.047  29.515  29.640  1.00  0.00     0.031 A 
ATOM     45  C   UNL A   1      39.388  29.996  31.024  1.00  0.00     0.074 A 
ATOM     46  C   UNL A   1      39.766  28.533  29.066  1.00  0.00     0.049 A 
ATOM     47  N   UNL A   1      40.358  29.623  31.816  1.00  0.00    -0.248 NA
ATOM     48  C   UNL A   1      38.525  31.050  31.588  1.00  0.00     0.031 C 
ATOM     49  C   UNL A   1      39.539  27.977  27.734  1.00  0.00     0.029 A 
ATOM     50  N   UNL A   1      40.864  27.852  29.534  1.00  0.00    -0.354 N 
ATOM     51  C   UNL A   1      40.248  30.420  32.948  1.00  0.00     0.074 A 
ATOM     52  C   UNL A   1      39.117  31.298  32.746  1.00  0.00     0.031 C 
ATOM     53  C   UNL A   1      40.496  27.068  27.474  1.00  0.00     0.029 A 
ATOM     54  C   UNL A   1      41.414  26.994  28.610  1.00  0.00     0.049 A 
ATOM     55  H   UNL A   1      41.224  27.967  30.443  1.00  0.00     0.167 HD
ATOM     56  C   UNL A   1      41.012  30.415  34.062  1.00  0.00     0.034 A 
ATOM     57  C   UNL A   1      42.542  26.257  28.668  1.00  0.00     0.034 A 
ATOM     58  C   UNL A   1      42.111  29.517  34.285  1.00  0.00     0.049 A 
ATOM     59  C   UNL A   1      43.376  26.275  29.928  1.00  0.00     0.074 A 
ATOM     60  C   UNL A   1      42.891  29.386  35.419  1.00  0.00     0.029 A 
ATOM     61  N   UNL A   1      42.595  28.614  33.355  1.00  0.00    -0.354 N 
ATOM     62  N   UNL A   1      43.169  26.921  31.049  1.00  0.00    -0.248 NA
ATOM     63  C   UNL A   1      44.582  25.432  29.941  1.00  0.00     0.031 C 
ATOM     64  C   UNL A   1      43.874  28.427  35.162  1.00  0.00     0.029 A 
ATOM     65  C   UNL A   1      43.680  27.937  33.881  1.00  0.00     0.049 A 
ATOM     66  H   UNL A   1      42.223  28.476  32.454  1.00  0.00     0.167 HD
ATOM     67  C   UNL A   1      44.191  26.532  31.911  1.00  0.00     0.074 A 
ATOM     68  C   UNL A   1      45.005  25.578  31.190  1.00  0.00     0.031 C 
ATOM     69  C   UNL A   1      44.443  26.938  33.179  1.00  0.00     0.034 A 
BRANCH  56  70
ATOM     70  C   UNL A   1      40.685  31.402  35.147  1.00  0.00     0.023 A 
ATOM     71  C   UNL A   1      41.491  32.544  35.325  1.00  0.00     0.012 A 
ATOM     72  C   UNL A   1      39.522  31.242  35.925  1.00  0.00     0.148 A 
ATOM     73  C   UNL A   1      41.150  33.508  36.272  1.00  0.00     0.002 A 
ATOM     74  C   UNL A   1      39.165  32.228  36.835  1.00  0.00     0.091 A 
ATOM     75  F   UNL A   1      38.788  30.133  35.754  1.00  0.00    -0.205 F 
ATOM     76  C   UNL A   1      39.982  33.357  37.016  1.00  0.00     0.022 A 
BRANCH  74  77
ATOM     77  S   UNL A   1      37.641  32.166  37.782  1.00  0.00     0.127 S 
ATOM     78  O   UNL A   1      37.370  30.729  37.810  1.00  0.00    -0.237 OA
ATOM     79  O   UNL A   1      38.055  32.735  39.064  1.00  0.00    -0.237 OA
ATOM     80  O   UNL A   1      36.673  32.964  37.043  1.00  0.00    -0.744 OA
ENDBRANCH  74  77
ENDBRANCH  56  70
BRANCH  57  81
ATOM     81  C   UNL A   1      42.962  25.425  27.504  1.00  0.00     0.023 A 
ATOM     82  C   UNL A   1      43.790  25.982  26.509  1.00  0.00     0.012 A 
ATOM     83  C   UNL A   1      42.514  24.098  27.357  1.00  0.00     0.148 A 
ATOM     84  C   UNL A   1      44.122  25.250  25.368  1.00  0.00     0.002 A 
ATOM     85  C   UNL A   1      42.895  23.356  26.247  1.00  0.00     0.091 A 
ATOM     86  F   UNL A   1      41.706  23.592  28.300  1.00  0.00    -0.205 F 
ATOM     87  C   UNL A   1      43.682  23.934  25.240  1.00  0.00     0.022 A 
BRANCH  85  88
ATOM     88  S   UNL A   1      42.466  21.620  26.063  1.00  0.00     0.127 S 
ATOM     89  O   UNL A   1      43.366  21.201  24.993  1.00  0.00    -0.237 OA
ATOM     90  O   UNL A   1      42.790  21.084  27.385  1.00  0.00    -0.237 OA
ATOM     91  O   UNL A   1      41.044  21.604  25.744  1.00  0.00    -0.744 OA
ENDBRANCH  85  88
ENDBRANCH  57  81
BRANCH  69  92
ATOM     92  C   UNL A   1      45.612  26.323  33.904  1.00  0.00     0.023 A 
ATOM     93  C   UNL A   1      46.861  26.973  33.903  1.00  0.00     0.012 A 
ATOM     94  C   UNL A   1      45.445  25.148  34.666  1.00  0.00     0.148 A 
ATOM     95  C   UNL A   1      47.935  26.446  34.620  1.00  0.00     0.002 A 
ATOM     96  C   UNL A   1      46.505  24.658  35.420  1.00  0.00     0.091 A 
ATOM     97  F   UNL A   1      44.252  24.536  34.645  1.00  0.00    -0.205 F 
ATOM     98  C   UNL A   1      47.754  25.298  35.388  1.00  0.00     0.022 A 
BRANCH  96  99
ATOM     99  S   UNL A   1      46.333  23.245  36.516  1.00  0.00     0.127 S 
ATOM    100  O   UNL A   1      47.647  23.198  37.153  1.00  0.00    -0.237 OA
ATOM    101  O   UNL A   1      45.244  23.667  37.399  1.00  0.00    -0.237 OA
ATOM    102  O   UNL A   1      46.010  22.110  35.662  1.00  0.00    -0.744 OA
ENDBRANCH  96  99
ENDBRANCH  69  92
ENDBRANCH  43  44
ENDBRANCH  36  38
ENDBRANCH  35  36
ENDBRANCH  34  35
ENDBRANCH  33  34
ENDBRANCH  32  33
ENDBRANCH  31  32
ENDBRANCH   1  31
TORSDOF 25
ENDMDL
MODEL 2
REMARK VINA RESULT:     -10.6      2.704      7.921
REMARK SMILES CC[NH+]1CCC(CC(=O)N[C@H](C(=O)OCCOCCOCCOC(=O)c2ccc(-c3c4nc(c(-c5cccc(S(=O)(=O)[O-])c5F)c5ccc([nH]5)c(-c5cccc(S(=O)(=O)[O-])c5F)c5nc(c(-c6cccc(S(=O)(=O)[O-])c6F)c6ccc3[nH]6)C=C5)C=C4)cc2)c2ccc(F)cc2F)CC1
REMARK SMILES IDX 18 1 17 2 16 3 15 4 14 5 12 6 13 7 11 8 10 9 8 10 9 11 7 13
REMARK SMILES IDX 6 14 3 15 4 16 98 17 5 19 97 20 2 21 1 22 89 23 90 24 95 25
REMARK SMILES IDX 91 26 94 27 96 28 92 29 93 30 19 31 20 32 21 33 22 34 23 35
REMARK SMILES IDX 24 36 25 37 26 38 27 39 88 40 28 41 87 42 29 43 30 44 31 45
REMARK SMILES IDX 81 46 32 47 86 48 80 49 82 50 33 51 85 52 79 53 78 54 34 56
REMARK SMILES IDX 66 57 46 58 65 59 47 60 50 61 64 62 83 63 48 64 49 65 63 67
REMARK SMILES IDX 84 68 51 69 35 70 36 71 44 72 37 73 39 74 45 75 38 76 40 77
REMARK SMILES IDX 41 78 42 79 43 80 67 81 68 82 76 83 69 84 71 85 77 86 70 87
REMARK SMILES IDX 72 88 73 89 74 90 75 91 52 92 53 93 61 94 54 95 56 96 62 97
REMARK SMILES IDX 55 98 57 99 58 100 59 101 60 102
REMARK H PARENT 10 12 3 18 82 55 50 66
REMARK Flexibility Score: inf
ROOT
ATOM      1  C   UNL A   1      31.765  28.843  26.192  1.00  0.00     0.188 C 
ENDROOT
BRANCH   1   2
ATOM      2  O   UNL A   1      31.217  28.338  24.979  1.00  0.00    -0.376 OA
BRANCH   2   3
ATOM      3  C   UNL A   1      31.365  26.945  24.698  1.00  0.00     0.202 C 
BRANCH   3   4
ATOM      4  C   UNL A   1      32.773  26.325  24.796  1.00  0.00     0.261 C 
BRANCH   4   5
ATOM      5  O   UNL A   1      33.648  26.539  23.653  1.00  0.00    -0.461 OA
BRANCH   5   6
ATOM      6  C   UNL A   1      33.666  25.511  22.775  1.00  0.00     0.333 C 
ATOM      7  O   UNL A   1      33.578  25.705  21.562  1.00  0.00    -0.249 OA
BRANCH   6   8
ATOM      8  C   UNL A   1      33.688  24.078  23.317  1.00  0.00     0.226 C 
BRANCH   8   9
ATOM      9  N   UNL A   1      32.893  23.162  22.462  1.00  0.00    -0.339 N 
ATOM     10  C   UNL A   1      32.356  21.914  22.627  1.00  0.00     0.221 C 
ATOM     11  O   UNL A   1      31.891  21.407  21.598  1.00  0.00    -0.275 OA
ATOM     12  H   UNL A   1      32.710  23.539  21.572  1.00  0.00     0.164 HD
BRANCH  10  13
ATOM     13  C   UNL A   1      32.257  21.126  23.954  1.00  0.00     0.104 C 
BRANCH  13  14
ATOM     14  C   UNL A   1      33.076  19.815  24.099  1.00  0.00     0.009 C 
ATOM     15  N   UNL A   1      32.650  16.924  24.628  1.00  0.00    -0.335 N 
ATOM     16  C   UNL A   1      33.223  17.777  25.665  1.00  0.00     0.262 C 
ATOM     17  C   UNL A   1      33.201  17.339  23.326  1.00  0.00     0.262 C 
ATOM     18  H   UNL A   1      31.638  17.041  24.576  1.00  0.00     0.348 HD
ATOM     19  C   UNL A   1      32.703  19.159  25.398  1.00  0.00     0.066 C 
ATOM     20  C   UNL A   1      32.794  18.796  22.967  1.00  0.00     0.066 C 
BRANCH  15  21
ATOM     21  C   UNL A   1      32.823  15.508  24.949  1.00  0.00     0.258 C 
ATOM     22  C   UNL A   1      31.982  15.085  26.164  1.00  0.00     0.071 C 
ENDBRANCH  15  21
ENDBRANCH  13  14
ENDBRANCH  10  13
ENDBRANCH   8   9
BRANCH   8  23
ATOM     23  C   UNL A   1      34.884  23.357  23.941  1.00  0.00     0.022 A 
ATOM     24  C   UNL A   1      36.003  22.915  23.242  1.00  0.00     0.012 A 
ATOM     25  C   UNL A   1      34.808  22.961  25.300  1.00  0.00     0.131 A 
ATOM     26  C   UNL A   1      37.012  22.172  23.885  1.00  0.00     0.040 A 
ATOM     27  C   UNL A   1      35.784  22.203  25.940  1.00  0.00     0.078 A 
ATOM     28  F   UNL A   1      33.747  23.292  26.041  1.00  0.00    -0.206 F 
ATOM     29  C   UNL A   1      36.894  21.822  25.224  1.00  0.00     0.126 A 
ATOM     30  F   UNL A   1      37.852  21.102  25.822  1.00  0.00    -0.207 F 
ENDBRANCH   8  23
ENDBRANCH   6   8
ENDBRANCH   5   6
ENDBRANCH   4   5
ENDBRANCH   3   4
ENDBRANCH   2   3
ENDBRANCH   1   2
BRANCH   1  31
ATOM     31  C   UNL A   1      31.818  30.370  26.312  1.00  0.00     0.188 C 
BRANCH  31  32
ATOM     32  O   UNL A   1      33.105  30.822  26.702  1.00  0.00    -0.376 OA
BRANCH  32  33
ATOM     33  C   UNL A   1      33.281  31.847  27.671  1.00  0.00     0.202 C 
BRANCH  33  34
ATOM     34  C   UNL A   1      32.755  33.252  27.374  1.00  0.00     0.261 C 
BRANCH  34  35
ATOM     35  O   UNL A   1      32.423  34.014  28.547  1.00  0.00    -0.460 OA
BRANCH  35  36
ATOM     36  C   UNL A   1      33.307  34.947  28.965  1.00  0.00     0.338 C 
ATOM     37  O   UNL A   1      33.110  36.147  29.055  1.00  0.00    -0.246 OA
BRANCH  36  38
ATOM     38  C   UNL A   1      34.476  34.239  29.536  1.00  0.00     0.060 A 
ATOM     39  C   UNL A   1      34.266  33.316  30.570  1.00  0.00     0.016 A 
ATOM     40  C   UNL A   1      35.757  34.421  29.006  1.00  0.00     0.016 A 
ATOM     41  C   UNL A   1      35.343  32.603  31.102  1.00  0.00     0.010 A 
ATOM     42  C   UNL A   1      36.833  33.716  29.543  1.00  0.00     0.010 A 
ATOM     43  C   UNL A   1      36.637  32.834  30.619  1.00  0.00    -0.014 A 
BRANCH  43  44
ATOM     44  C   UNL A   1      37.814  32.334  31.369  1.00  0.00     0.031 A 
ATOM     45  C   UNL A   1      38.608  31.210  30.762  1.00  0.00     0.074 A 
ATOM     46  C   UNL A   1      38.152  32.831  32.573  1.00  0.00     0.049 A 
ATOM     47  N   UNL A   1      39.628  30.557  31.251  1.00  0.00    -0.248 NA
ATOM     48  C   UNL A   1      38.188  30.752  29.424  1.00  0.00     0.031 C 
ATOM     49  C   UNL A   1      37.466  33.917  33.270  1.00  0.00     0.029 A 
ATOM     50  N   UNL A   1      39.151  32.452  33.437  1.00  0.00    -0.354 N 
ATOM     51  C   UNL A   1      39.945  29.589  30.306  1.00  0.00     0.074 A 
ATOM     52  C   UNL A   1      39.012  29.738  29.212  1.00  0.00     0.031 C 
ATOM     53  C   UNL A   1      38.039  34.090  34.475  1.00  0.00     0.029 A 
ATOM     54  C   UNL A   1      39.116  33.114  34.643  1.00  0.00     0.049 A 
ATOM     55  H   UNL A   1      39.827  31.773  33.215  1.00  0.00     0.167 HD
ATOM     56  C   UNL A   1      40.931  28.666  30.340  1.00  0.00     0.034 A 
ATOM     57  C   UNL A   1      39.851  32.932  35.758  1.00  0.00     0.034 A 
ATOM     58  C   UNL A   1      41.885  28.541  31.406  1.00  0.00     0.049 A 
ATOM     59  C   UNL A   1      40.944  31.890  35.764  1.00  0.00     0.074 A 
ATOM     60  C   UNL A   1      42.969  27.687  31.487  1.00  0.00     0.029 A 
ATOM     61  N   UNL A   1      41.861  29.275  32.579  1.00  0.00    -0.354 N 
ATOM     62  N   UNL A   1      41.330  31.088  34.802  1.00  0.00    -0.248 NA
ATOM     63  C   UNL A   1      41.729  31.754  37.002  1.00  0.00     0.031 C 
ATOM     64  C   UNL A   1      43.581  27.878  32.728  1.00  0.00     0.029 A 
ATOM     65  C   UNL A   1      42.899  28.877  33.401  1.00  0.00     0.049 A 
ATOM     66  H   UNL A   1      41.203  29.974  32.795  1.00  0.00     0.167 HD
ATOM     67  C   UNL A   1      42.422  30.386  35.303  1.00  0.00     0.074 A 
ATOM     68  C   UNL A   1      42.652  30.871  36.646  1.00  0.00     0.031 C 
ATOM     69  C   UNL A   1      43.161  29.415  34.711  1.00  0.00     0.034 A 
BRANCH  56  70
ATOM     70  C   UNL A   1      41.048  27.716  29.181  1.00  0.00     0.023 A 
ATOM     71  C   UNL A   1      40.265  26.545  29.151  1.00  0.00     0.012 A 
ATOM     72  C   UNL A   1      41.865  28.037  28.080  1.00  0.00     0.148 A 
ATOM     73  C   UNL A   1      40.304  25.699  28.044  1.00  0.00     0.002 A 
ATOM     74  C   UNL A   1      41.865  27.213  26.963  1.00  0.00     0.091 A 
ATOM     75  F   UNL A   1      42.620  29.143  28.147  1.00  0.00    -0.205 F 
ATOM     76  C   UNL A   1      41.092  26.040  26.947  1.00  0.00     0.022 A 
BRANCH  74  77
ATOM     77  S   UNL A   1      42.782  27.605  25.470  1.00  0.00     0.127 S 
ATOM     78  O   UNL A   1      44.162  27.569  25.954  1.00  0.00    -0.237 OA
ATOM     79  O   UNL A   1      42.415  26.498  24.588  1.00  0.00    -0.237 OA
ATOM     80  O   UNL A   1      42.311  28.913  25.038  1.00  0.00    -0.744 OA
ENDBRANCH  74  77
ENDBRANCH  56  70
BRANCH  57  81
ATOM     81  C   UNL A   1      39.594  33.755  36.975  1.00  0.00     0.023 A 
ATOM     82  C   UNL A   1      40.096  35.069  37.049  1.00  0.00     0.012 A 
ATOM     83  C   UNL A   1      38.890  33.229  38.076  1.00  0.00     0.148 A 
ATOM     84  C   UNL A   1      39.943  35.825  38.213  1.00  0.00     0.002 A 
ATOM     85  C   UNL A   1      38.692  34.007  39.210  1.00  0.00     0.091 A 
ATOM     86  F   UNL A   1      38.441  31.968  37.999  1.00  0.00    -0.205 F 
ATOM     87  C   UNL A   1      39.235  35.298  39.290  1.00  0.00     0.022 A 
BRANCH  85  88
ATOM     88  S   UNL A   1      37.693  33.445  40.593  1.00  0.00     0.127 S 
ATOM     89  O   UNL A   1      38.535  32.398  41.166  1.00  0.00    -0.237 OA
ATOM     90  O   UNL A   1      37.583  34.658  41.404  1.00  0.00    -0.237 OA
ATOM     91  O   UNL A   1      36.435  33.002  40.008  1.00  0.00    -0.744 OA
ENDBRANCH  85  88
ENDBRANCH  57  81
BRANCH  69  92
ATOM     92  C   UNL A   1      44.325  28.839  35.476  1.00  0.00     0.023 A 
ATOM     93  C   UNL A   1      44.145  27.691  36.271  1.00  0.00     0.012 A 
ATOM     94  C   UNL A   1      45.618  29.383  35.330  1.00  0.00     0.148 A 
ATOM     95  C   UNL A   1      45.225  27.113  36.936  1.00  0.00     0.002 A 
ATOM     96  C   UNL A   1      46.698  28.770  35.953  1.00  0.00     0.091 A 
ATOM     97  F   UNL A   1      45.768  30.484  34.579  1.00  0.00    -0.205 F 
ATOM     98  C   UNL A   1      46.502  27.643  36.768  1.00  0.00     0.022 A 
BRANCH  96  99
ATOM     99  S   UNL A   1      48.390  29.324  35.709  1.00  0.00     0.127 S 
ATOM    100  O   UNL A   1      48.384  30.615  36.394  1.00  0.00    -0.237 OA
ATOM    101  O   UNL A   1      49.160  28.279  36.387  1.00  0.00    -0.237 OA
ATOM    102  O   UNL A   1      48.590  29.381  34.268  1.00  0.00    -0.744 OA
ENDBRANCH  96  99
ENDBRANCH  69  92
ENDBRANCH  43  44
ENDBRANCH  36  38
ENDBRANCH  35  36
ENDBRANCH  34  35
ENDBRANCH  33  34
ENDBRANCH  32  33
ENDBRANCH  31  32
ENDBRANCH   1  31
TORSDOF 25
ENDMDL
MODEL 3
REMARK VINA RESULT:     -10.3      3.293      4.808
REMARK SMILES CC[NH+]1CCC(CC(=O)N[C@H](C(=O)OCCOCCOCCOC(=O)c2ccc(-c3c4nc(c(-c5cccc(S(=O)(=O)[O-])c5F)c5ccc([nH]5)c(-c5cccc(S(=O)(=O)[O-])c5F)c5nc(c(-c6cccc(S(=O)(=O)[O-])c6F)c6ccc3[nH]6)C=C5)C=C4)cc2)c2ccc(F)cc2F)CC1
REMARK SMILES IDX 18 1 17 2 16 3 15 4 14 5 12 6 13 7 11 8 10 9 8 10 9 11 7 13
REMARK SMILES IDX 6 14 3 15 4 16 98 17 5 19 97 20 2 21 1 22 89 23 90 24 95 25
REMARK SMILES IDX 91 26 94 27 96 28 92 29 93 30 19 31 20 32 21 33 22 34 23 35
REMARK SMILES IDX 24 36 25 37 26 38 27 39 88 40 28 41 87 42 29 43 30 44 31 45
REMARK SMILES IDX 81 46 32 47 86 48 80 49 82 50 33 51 85 52 79 53 78 54 34 56
REMARK SMILES IDX 66 57 46 58 65 59 47 60 50 61 64 62 83 63 48 64 49 65 63 67
REMARK SMILES IDX 84 68 51 69 35 70 36 71 44 72 37 73 39 74 45 75 38 76 40 77
REMARK SMILES IDX 41 78 42 79 43 80 67 81 68 82 76 83 69 84 71 85 77 86 70 87
REMARK SMILES IDX 72 88 73 89 74 90 75 91 52 92 53 93 61 94 54 95 56 96 62 97
REMARK SMILES IDX 55 98 57 99 58 100 59 101 60 102
REMARK H PARENT 10 12 3 18 82 55 50 66
REMARK Flexibility Score: inf
ROOT
ATOM      1  C   UNL A   1      34.054  31.987  28.174  1.00  0.00     0.188 C 
ENDROOT
BRANCH   1   2
ATOM      2  O   UNL A   1      34.070  30.994  27.154  1.00  0.00    -0.376 OA
BRANCH   2   3
ATOM      3  C   UNL A   1      32.820  30.548  26.624  1.00  0.00     0.202 C 
BRANCH   3   4
ATOM      4  C   UNL A   1      32.140  29.330  27.281  1.00  0.00     0.261 C 
BRANCH   4   5
ATOM      5  O   UNL A   1      31.807  28.226  26.392  1.00  0.00    -0.461 OA
BRANCH   5   6
ATOM      6  C   UNL A   1      32.806  27.329  26.232  1.00  0.00     0.333 C 
ATOM      7  O   UNL A   1      33.962  27.595  26.563  1.00  0.00    -0.249 OA
BRANCH   6   8
ATOM      8  C   UNL A   1      32.502  26.003  25.528  1.00  0.00     0.226 C 
BRANCH   8   9
ATOM      9  N   UNL A   1      31.418  25.259  26.215  1.00  0.00    -0.339 N 
ATOM     10  C   UNL A   1      31.299  24.004  26.749  1.00  0.00     0.221 C 
ATOM     11  O   UNL A   1      30.153  23.692  27.096  1.00  0.00    -0.275 OA
ATOM     12  H   UNL A   1      30.595  25.790  26.310  1.00  0.00     0.164 HD
BRANCH  10  13
ATOM     13  C   UNL A   1      32.446  22.991  26.974  1.00  0.00     0.104 C 
BRANCH  13  14
ATOM     14  C   UNL A   1      33.572  22.899  25.910  1.00  0.00     0.009 C 
ATOM     15  N   UNL A   1      36.262  21.692  25.554  1.00  0.00    -0.335 N 
ATOM     16  C   UNL A   1      36.131  23.132  25.760  1.00  0.00     0.262 C 
ATOM     17  C   UNL A   1      35.157  21.243  24.689  1.00  0.00     0.262 C 
ATOM     18  H   UNL A   1      36.176  21.187  26.436  1.00  0.00     0.348 HD
ATOM     19  C   UNL A   1      34.866  23.324  26.543  1.00  0.00     0.066 C 
ATOM     20  C   UNL A   1      33.773  21.464  25.362  1.00  0.00     0.066 C 
BRANCH  15  21
ATOM     21  C   UNL A   1      37.600  21.342  25.079  1.00  0.00     0.258 C 
ATOM     22  C   UNL A   1      37.770  19.825  24.902  1.00  0.00     0.071 C 
ENDBRANCH  15  21
ENDBRANCH  13  14
ENDBRANCH  10  13
ENDBRANCH   8   9
BRANCH   8  23
ATOM     23  C   UNL A   1      32.472  25.758  24.019  1.00  0.00     0.022 A 
ATOM     24  C   UNL A   1      33.462  25.098  23.297  1.00  0.00     0.012 A 
ATOM     25  C   UNL A   1      31.451  26.369  23.248  1.00  0.00     0.131 A 
ATOM     26  C   UNL A   1      33.396  25.005  21.893  1.00  0.00     0.040 A 
ATOM     27  C   UNL A   1      31.389  26.311  21.860  1.00  0.00     0.078 A 
ATOM     28  F   UNL A   1      30.484  27.072  23.846  1.00  0.00    -0.206 F 
ATOM     29  C   UNL A   1      32.364  25.612  21.189  1.00  0.00     0.126 A 
ATOM     30  F   UNL A   1      32.319  25.531  19.852  1.00  0.00    -0.207 F 
ENDBRANCH   8  23
ENDBRANCH   6   8
ENDBRANCH   5   6
ENDBRANCH   4   5
ENDBRANCH   3   4
ENDBRANCH   2   3
ENDBRANCH   1   2
BRANCH   1  31
ATOM     31  C   UNL A   1      35.135  33.067  28.066  1.00  0.00     0.188 C 
BRANCH  31  32
ATOM     32  O   UNL A   1      34.622  34.270  27.516  1.00  0.00    -0.376 OA
BRANCH  32  33
ATOM     33  C   UNL A   1      34.399  35.428  28.311  1.00  0.00     0.202 C 
BRANCH  33  34
ATOM     34  C   UNL A   1      33.095  35.551  29.099  1.00  0.00     0.261 C 
BRANCH  34  35
ATOM     35  O   UNL A   1      33.032  34.712  30.264  1.00  0.00    -0.460 OA
BRANCH  35  36
ATOM     36  C   UNL A   1      33.378  35.255  31.452  1.00  0.00     0.338 C 
ATOM     37  O   UNL A   1      32.733  36.064  32.099  1.00  0.00    -0.246 OA
BRANCH  36  38
ATOM     38  C   UNL A   1      34.554  34.513  31.963  1.00  0.00     0.060 A 
ATOM     39  C   UNL A   1      35.837  34.989  31.654  1.00  0.00     0.016 A 
ATOM     40  C   UNL A   1      34.397  33.407  32.803  1.00  0.00     0.016 A 
ATOM     41  C   UNL A   1      36.965  34.334  32.154  1.00  0.00     0.010 A 
ATOM     42  C   UNL A   1      35.524  32.749  33.294  1.00  0.00     0.010 A 
ATOM     43  C   UNL A   1      36.812  33.186  32.940  1.00  0.00    -0.014 A 
BRANCH  43  44
ATOM     44  C   UNL A   1      37.975  32.308  33.213  1.00  0.00     0.031 A 
ATOM     45  C   UNL A   1      38.769  32.562  34.465  1.00  0.00     0.074 A 
ATOM     46  C   UNL A   1      38.345  31.335  32.359  1.00  0.00     0.049 A 
ATOM     47  N   UNL A   1      39.861  31.982  34.886  1.00  0.00    -0.248 NA
ATOM     48  C   UNL A   1      38.269  33.623  35.359  1.00  0.00     0.031 C 
ATOM     49  C   UNL A   1      37.664  30.988  31.114  1.00  0.00     0.029 A 
ATOM     50  N   UNL A   1      39.420  30.481  32.406  1.00  0.00    -0.354 N 
ATOM     51  C   UNL A   1      40.201  32.630  36.067  1.00  0.00     0.074 A 
ATOM     52  C   UNL A   1      39.201  33.648  36.300  1.00  0.00     0.031 C 
ATOM     53  C   UNL A   1      38.361  30.019  30.493  1.00  0.00     0.029 A 
ATOM     54  C   UNL A   1      39.547  29.695  31.284  1.00  0.00     0.049 A 
ATOM     55  H   UNL A   1      40.040  30.434  33.169  1.00  0.00     0.167 HD
ATOM     56  C   UNL A   1      41.246  32.393  36.890  1.00  0.00     0.034 A 
ATOM     57  C   UNL A   1      40.524  28.835  30.928  1.00  0.00     0.034 A 
ATOM     58  C   UNL A   1      42.218  31.357  36.684  1.00  0.00     0.049 A 
ATOM     59  C   UNL A   1      41.679  28.594  31.870  1.00  0.00     0.074 A 
ATOM     60  C   UNL A   1      43.266  30.991  37.510  1.00  0.00     0.029 A 
ATOM     61  N   UNL A   1      42.275  30.535  35.572  1.00  0.00    -0.354 N 
ATOM     62  N   UNL A   1      41.903  29.106  33.056  1.00  0.00    -0.248 NA
ATOM     63  C   UNL A   1      42.701  27.627  31.438  1.00  0.00     0.031 C 
ATOM     64  C   UNL A   1      43.981  29.971  36.879  1.00  0.00     0.029 A 
ATOM     65  C   UNL A   1      43.354  29.677  35.678  1.00  0.00     0.049 A 
ATOM     66  H   UNL A   1      41.642  30.559  34.819  1.00  0.00     0.167 HD
ATOM     67  C   UNL A   1      43.062  28.495  33.526  1.00  0.00     0.074 A 
ATOM     68  C   UNL A   1      43.484  27.559  32.507  1.00  0.00     0.031 C 
ATOM     69  C   UNL A   1      43.727  28.700  34.689  1.00  0.00     0.034 A 
BRANCH  56  70
ATOM     70  C   UNL A   1      41.395  33.260  38.109  1.00  0.00     0.023 A 
ATOM     71  C   UNL A   1      40.909  32.812  39.353  1.00  0.00     0.012 A 
ATOM     72  C   UNL A   1      42.102  34.476  38.033  1.00  0.00     0.148 A 
ATOM     73  C   UNL A   1      41.114  33.571  40.504  1.00  0.00     0.002 A 
ATOM     74  C   UNL A   1      42.340  35.203  39.191  1.00  0.00     0.091 A 
ATOM     75  F   UNL A   1      42.529  34.892  36.832  1.00  0.00    -0.205 F 
ATOM     76  C   UNL A   1      41.841  34.757  40.425  1.00  0.00     0.022 A 
BRANCH  74  77
ATOM     77  S   UNL A   1      43.333  36.700  39.207  1.00  0.00     0.127 S 
ATOM     78  O   UNL A   1      43.743  36.765  40.610  1.00  0.00    -0.237 OA
ATOM     79  O   UNL A   1      44.406  36.364  38.272  1.00  0.00    -0.237 OA
ATOM     80  O   UNL A   1      42.453  37.773  38.768  1.00  0.00    -0.744 OA
ENDBRANCH  74  77
ENDBRANCH  56  70
BRANCH  57  81
ATOM     81  C   UNL A   1      40.462  28.121  29.620  1.00  0.00     0.023 A 
ATOM     82  C   UNL A   1      39.469  27.146  29.402  1.00  0.00     0.012 A 
ATOM     83  C   UNL A   1      41.407  28.375  28.607  1.00  0.00     0.148 A 
ATOM     84  C   UNL A   1      39.448  26.404  28.220  1.00  0.00     0.002 A 
ATOM     85  C   UNL A   1      41.346  27.673  27.410  1.00  0.00     0.091 A 
ATOM     86  F   UNL A   1      42.361  29.288  28.840  1.00  0.00    -0.205 F 
ATOM     87  C   UNL A   1      40.380  26.672  27.220  1.00  0.00     0.022 A 
BRANCH  85  88
ATOM     88  S   UNL A   1      42.436  28.038  26.029  1.00  0.00     0.127 S 
ATOM     89  O   UNL A   1      43.750  27.764  26.603  1.00  0.00    -0.237 OA
ATOM     90  O   UNL A   1      41.990  27.074  25.023  1.00  0.00    -0.237 OA
ATOM     91  O   UNL A   1      42.170  29.428  25.682  1.00  0.00    -0.744 OA
ENDBRANCH  85  88
ENDBRANCH  57  81
BRANCH  69  92
ATOM     92  C   UNL A   1      44.953  27.868  34.964  1.00  0.00     0.023 A 
ATOM     93  C   UNL A   1      46.231  28.377  34.663  1.00  0.00     0.012 A 
ATOM     94  C   UNL A   1      44.842  26.620  35.610  1.00  0.00     0.148 A 
ATOM     95  C   UNL A   1      47.377  27.644  34.968  1.00  0.00     0.002 A 
ATOM     96  C   UNL A   1      45.989  25.918  35.959  1.00  0.00     0.091 A 
ATOM     97  F   UNL A   1      43.616  26.145  35.878  1.00  0.00    -0.205 F 
ATOM     98  C   UNL A   1      47.258  26.422  35.626  1.00  0.00     0.022 A 
BRANCH  96  99
ATOM     99  S   UNL A   1      45.933  24.388  36.898  1.00  0.00     0.127 S 
ATOM    100  O   UNL A   1      47.353  24.069  37.036  1.00  0.00    -0.237 OA
ATOM    101  O   UNL A   1      45.280  24.808  38.139  1.00  0.00    -0.237 OA
ATOM    102  O   UNL A   1      45.157  23.452  36.096  1.00  0.00    -0.744 OA
ENDBRANCH  96  99
ENDBRANCH  69  92
ENDBRANCH  43  44
ENDBRANCH  36  38
ENDBRANCH  35  36
ENDBRANCH  34  35
ENDBRANCH  33  34
ENDBRANCH  32  33
ENDBRANCH  31  32
ENDBRANCH   1  31
TORSDOF 25
ENDMDL
