MODEL 1
REMARK VINA RESULT:      -8.2      0.000      0.000
REMARK SMILES CS(=O)(=O)c1ccc(C(=O)N2C[C@@H](C(=O)OCCOCCOCCOC(=O)c3ccc(-c4c5nc(c(-c6cccc(S(=O)(=O)[O-])c6F)c6ccc([nH]6)c(-c6cccc(S(=O)(=O)[O-])c6F)c6nc(c(-c7cccc(S(=O)(=O)[O-])c7F)c7ccc4[nH]7)C=C6)C=C5)cc3)[C@H](c3ccncc3)C2)cc1
REMARK SMILES IDX 20 1 19 2 18 3 17 4 16 5 14 6 15 7 13 8 11 9 12 10 98 11
REMARK SMILES IDX 91 12 9 13 10 14 8 15 5 16 6 17 100 18 7 19 99 20 2 21 1 22
REMARK SMILES IDX 3 23 4 24 92 25 93 26 97 27 94 28 96 29 95 30 21 31 22 32
REMARK SMILES IDX 23 33 24 34 25 35 26 36 27 37 28 38 29 39 90 40 30 41 89 42
REMARK SMILES IDX 31 43 32 44 33 45 83 46 34 47 88 48 82 49 84 50 35 51 87 52
REMARK SMILES IDX 81 53 80 54 36 56 68 57 48 58 67 59 49 60 52 61 66 62 85 63
REMARK SMILES IDX 50 64 51 65 65 67 86 68 53 69 37 70 38 71 46 72 39 73 41 74
REMARK SMILES IDX 47 75 40 76 42 77 43 78 44 79 45 80 69 81 70 82 78 83 71 84
REMARK SMILES IDX 73 85 79 86 72 87 74 88 75 89 76 90 77 91 54 92 55 93 63 94
REMARK SMILES IDX 56 95 58 96 64 97 57 98 59 99 60 100 61 101 62 102
REMARK H PARENT 84 55 52 66
REMARK Flexibility Score: inf
ROOT
ATOM      1  C   UNL A   1      32.704  36.439  31.780  1.00  0.00     0.188 C 
ENDROOT
BRANCH   1   2
ATOM      2  O   UNL A   1      33.508  36.277  32.944  1.00  0.00    -0.376 OA
BRANCH   2   3
ATOM      3  C   UNL A   1      34.828  35.806  32.696  1.00  0.00     0.202 C 
BRANCH   3   4
ATOM      4  C   UNL A   1      35.302  34.881  33.818  1.00  0.00     0.261 C 
BRANCH   4   5
ATOM      5  O   UNL A   1      36.722  34.974  34.050  1.00  0.00    -0.463 OA
BRANCH   5   6
ATOM      6  C   UNL A   1      37.586  34.511  33.099  1.00  0.00     0.311 C 
ATOM      7  O   UNL A   1      37.685  34.951  31.976  1.00  0.00    -0.252 OA
BRANCH   6   8
ATOM      8  C   UNL A   1      38.422  33.398  33.711  1.00  0.00     0.128 C 
ATOM      9  N   UNL A   1      38.630  31.116  34.006  1.00  0.00    -0.337 N 
ATOM     10  C   UNL A   1      38.298  32.073  32.973  1.00  0.00     0.135 C 
ATOM     11  C   UNL A   1      37.943  31.542  35.205  1.00  0.00     0.129 C 
ATOM     12  C   UNL A   1      38.090  33.087  35.199  1.00  0.00     0.055 C 
BRANCH   9  13
ATOM     13  C   UNL A   1      39.029  29.796  33.852  1.00  0.00     0.253 C 
ATOM     14  O   UNL A   1      38.260  28.952  33.402  1.00  0.00    -0.269 OA
BRANCH  13  15
ATOM     15  C   UNL A   1      40.362  29.348  34.379  1.00  0.00     0.040 A 
ATOM     16  C   UNL A   1      42.807  28.505  35.509  1.00  0.00     0.067 A 
ATOM     17  C   UNL A   1      41.997  29.399  36.207  1.00  0.00     0.021 A 
ATOM     18  C   UNL A   1      42.445  28.099  34.216  1.00  0.00     0.021 A 
ATOM     19  C   UNL A   1      40.781  29.816  35.640  1.00  0.00     0.015 A 
ATOM     20  C   UNL A   1      41.232  28.528  33.649  1.00  0.00     0.015 A 
BRANCH  16  21
ATOM     21  S   UNL A   1      44.268  27.782  36.239  1.00  0.00     0.175 S 
ATOM     22  C   UNL A   1      45.487  29.050  36.416  1.00  0.00     0.163 C 
ATOM     23  O   UNL A   1      44.794  26.837  35.269  1.00  0.00    -0.224 OA
ATOM     24  O   UNL A   1      43.888  27.355  37.572  1.00  0.00    -0.224 OA
ENDBRANCH  16  21
ENDBRANCH  13  15
ENDBRANCH   9  13
BRANCH  12  25
ATOM     25  C   UNL A   1      39.176  33.675  36.106  1.00  0.00    -0.039 A 
ATOM     26  C   UNL A   1      39.371  35.066  36.150  1.00  0.00     0.024 A 
ATOM     27  C   UNL A   1      40.010  32.899  36.917  1.00  0.00     0.024 A 
ATOM     28  C   UNL A   1      40.391  35.594  36.930  1.00  0.00     0.111 A 
ATOM     29  C   UNL A   1      40.996  33.521  37.676  1.00  0.00     0.111 A 
ATOM     30  N   UNL A   1      41.210  34.851  37.696  1.00  0.00    -0.265 NA
ENDBRANCH  12  25
ENDBRANCH   6   8
ENDBRANCH   5   6
ENDBRANCH   4   5
ENDBRANCH   3   4
ENDBRANCH   2   3
ENDBRANCH   1   2
BRANCH   1  31
ATOM     31  C   UNL A   1      32.997  35.359  30.717  1.00  0.00     0.188 C 
BRANCH  31  32
ATOM     32  O   UNL A   1      33.524  35.763  29.463  1.00  0.00    -0.376 OA
BRANCH  32  33
ATOM     33  C   UNL A   1      34.227  34.788  28.706  1.00  0.00     0.202 C 
BRANCH  33  34
ATOM     34  C   UNL A   1      34.014  33.322  29.104  1.00  0.00     0.261 C 
BRANCH  34  35
ATOM     35  O   UNL A   1      35.161  32.468  28.878  1.00  0.00    -0.460 OA
BRANCH  35  36
ATOM     36  C   UNL A   1      34.907  31.279  28.274  1.00  0.00     0.338 C 
ATOM     37  O   UNL A   1      33.911  31.003  27.626  1.00  0.00    -0.246 OA
BRANCH  36  38
ATOM     38  C   UNL A   1      36.082  30.375  28.335  1.00  0.00     0.060 A 
ATOM     39  C   UNL A   1      36.397  29.802  29.560  1.00  0.00     0.016 A 
ATOM     40  C   UNL A   1      37.002  30.267  27.297  1.00  0.00     0.016 A 
ATOM     41  C   UNL A   1      37.647  29.221  29.785  1.00  0.00     0.010 A 
ATOM     42  C   UNL A   1      38.255  29.648  27.523  1.00  0.00     0.010 A 
ATOM     43  C   UNL A   1      38.637  29.197  28.800  1.00  0.00    -0.014 A 
BRANCH  43  44
ATOM     44  C   UNL A   1      40.059  28.865  29.189  1.00  0.00     0.031 A 
ATOM     45  C   UNL A   1      40.749  27.624  28.638  1.00  0.00     0.074 A 
ATOM     46  C   UNL A   1      40.825  29.716  29.911  1.00  0.00     0.049 A 
ATOM     47  N   UNL A   1      41.997  27.239  28.776  1.00  0.00    -0.248 NA
ATOM     48  C   UNL A   1      39.958  26.726  27.784  1.00  0.00     0.031 C 
ATOM     49  C   UNL A   1      40.395  31.007  30.449  1.00  0.00     0.029 A 
ATOM     50  N   UNL A   1      42.140  29.618  30.321  1.00  0.00    -0.354 N 
ATOM     51  C   UNL A   1      42.136  26.076  28.026  1.00  0.00     0.074 A 
ATOM     52  C   UNL A   1      40.840  25.795  27.455  1.00  0.00     0.031 C 
ATOM     53  C   UNL A   1      41.415  31.575  31.111  1.00  0.00     0.029 A 
ATOM     54  C   UNL A   1      42.545  30.651  31.138  1.00  0.00     0.049 A 
ATOM     55  H   UNL A   1      42.733  28.878  30.055  1.00  0.00     0.167 HD
ATOM     56  C   UNL A   1      43.225  25.299  27.809  1.00  0.00     0.034 A 
ATOM     57  C   UNL A   1      43.655  30.818  31.890  1.00  0.00     0.034 A 
ATOM     58  C   UNL A   1      44.496  25.454  28.459  1.00  0.00     0.049 A 
ATOM     59  C   UNL A   1      44.744  29.779  31.872  1.00  0.00     0.074 A 
ATOM     60  C   UNL A   1      45.612  24.639  28.364  1.00  0.00     0.029 A 
ATOM     61  N   UNL A   1      44.799  26.438  29.381  1.00  0.00    -0.354 N 
ATOM     62  N   UNL A   1      44.877  28.737  31.089  1.00  0.00    -0.248 NA
ATOM     63  C   UNL A   1      45.838  29.939  32.844  1.00  0.00     0.031 C 
ATOM     64  C   UNL A   1      46.557  25.082  29.295  1.00  0.00     0.029 A 
ATOM     65  C   UNL A   1      46.054  26.211  29.920  1.00  0.00     0.049 A 
ATOM     66  H   UNL A   1      44.209  27.189  29.619  1.00  0.00     0.167 HD
ATOM     67  C   UNL A   1      46.080  28.136  31.455  1.00  0.00     0.074 A 
ATOM     68  C   UNL A   1      46.646  28.939  32.516  1.00  0.00     0.031 C 
ATOM     69  C   UNL A   1      46.650  27.013  30.956  1.00  0.00     0.034 A 
BRANCH  56  70
ATOM     70  C   UNL A   1      43.071  24.152  26.847  1.00  0.00     0.023 A 
ATOM     71  C   UNL A   1      43.636  24.240  25.559  1.00  0.00     0.012 A 
ATOM     72  C   UNL A   1      42.401  22.978  27.236  1.00  0.00     0.148 A 
ATOM     73  C   UNL A   1      43.518  23.178  24.663  1.00  0.00     0.002 A 
ATOM     74  C   UNL A   1      42.310  21.915  26.348  1.00  0.00     0.091 A 
ATOM     75  F   UNL A   1      41.858  22.932  28.460  1.00  0.00    -0.205 F 
ATOM     76  C   UNL A   1      42.861  22.015  25.060  1.00  0.00     0.022 A 
BRANCH  74  77
ATOM     77  S   UNL A   1      41.514  20.365  26.776  1.00  0.00     0.127 S 
ATOM     78  O   UNL A   1      42.416  19.849  27.805  1.00  0.00    -0.237 OA
ATOM     79  O   UNL A   1      40.214  20.816  27.272  1.00  0.00    -0.237 OA
ATOM     80  O   UNL A   1      41.464  19.586  25.547  1.00  0.00    -0.744 OA
ENDBRANCH  74  77
ENDBRANCH  56  70
BRANCH  57  81
ATOM     81  C   UNL A   1      43.756  31.989  32.814  1.00  0.00     0.023 A 
ATOM     82  C   UNL A   1      43.192  31.936  34.103  1.00  0.00     0.012 A 
ATOM     83  C   UNL A   1      44.405  33.170  32.400  1.00  0.00     0.148 A 
ATOM     84  C   UNL A   1      43.260  33.044  34.952  1.00  0.00     0.002 A 
ATOM     85  C   UNL A   1      44.536  34.239  33.276  1.00  0.00     0.091 A 
ATOM     86  F   UNL A   1      44.890  33.225  31.152  1.00  0.00    -0.205 F 
ATOM     87  C   UNL A   1      43.947  34.187  34.547  1.00  0.00     0.022 A 
BRANCH  85  88
ATOM     88  S   UNL A   1      45.535  35.678  32.880  1.00  0.00     0.127 S 
ATOM     89  O   UNL A   1      44.580  36.519  32.166  1.00  0.00    -0.237 OA
ATOM     90  O   UNL A   1      45.911  36.160  34.210  1.00  0.00    -0.237 OA
ATOM     91  O   UNL A   1      46.652  35.175  32.091  1.00  0.00    -0.744 OA
ENDBRANCH  85  88
ENDBRANCH  57  81
BRANCH  69  92
ATOM     92  C   UNL A   1      47.976  26.571  31.522  1.00  0.00     0.023 A 
ATOM     93  C   UNL A   1      49.176  27.065  30.975  1.00  0.00     0.012 A 
ATOM     94  C   UNL A   1      48.029  25.728  32.650  1.00  0.00     0.148 A 
ATOM     95  C   UNL A   1      50.408  26.702  31.521  1.00  0.00     0.002 A 
ATOM     96  C   UNL A   1      49.257  25.415  33.223  1.00  0.00     0.091 A 
ATOM     97  F   UNL A   1      46.878  25.251  33.147  1.00  0.00    -0.205 F 
ATOM     98  C   UNL A   1      50.448  25.889  32.652  1.00  0.00     0.022 A 
BRANCH  96  99
ATOM     99  S   UNL A   1      49.394  24.463  34.740  1.00  0.00     0.127 S 
ATOM    100  O   UNL A   1      48.627  25.282  35.676  1.00  0.00    -0.237 OA
ATOM    101  O   UNL A   1      48.757  23.199  34.372  1.00  0.00    -0.237 OA
ATOM    102  O   UNL A   1      50.820  24.361  35.023  1.00  0.00    -0.744 OA
ENDBRANCH  96  99
ENDBRANCH  69  92
ENDBRANCH  43  44
ENDBRANCH  36  38
ENDBRANCH  35  36
ENDBRANCH  34  35
ENDBRANCH  33  34
ENDBRANCH  32  33
ENDBRANCH  31  32
ENDBRANCH   1  31
TORSDOF 24
ENDMDL
MODEL 2
REMARK VINA RESULT:      -7.3      4.761      8.953
REMARK SMILES CS(=O)(=O)c1ccc(C(=O)N2C[C@@H](C(=O)OCCOCCOCCOC(=O)c3ccc(-c4c5nc(c(-c6cccc(S(=O)(=O)[O-])c6F)c6ccc([nH]6)c(-c6cccc(S(=O)(=O)[O-])c6F)c6nc(c(-c7cccc(S(=O)(=O)[O-])c7F)c7ccc4[nH]7)C=C6)C=C5)cc3)[C@H](c3ccncc3)C2)cc1
REMARK SMILES IDX 20 1 19 2 18 3 17 4 16 5 14 6 15 7 13 8 11 9 12 10 98 11
REMARK SMILES IDX 91 12 9 13 10 14 8 15 5 16 6 17 100 18 7 19 99 20 2 21 1 22
REMARK SMILES IDX 3 23 4 24 92 25 93 26 97 27 94 28 96 29 95 30 21 31 22 32
REMARK SMILES IDX 23 33 24 34 25 35 26 36 27 37 28 38 29 39 90 40 30 41 89 42
REMARK SMILES IDX 31 43 32 44 33 45 83 46 34 47 88 48 82 49 84 50 35 51 87 52
REMARK SMILES IDX 81 53 80 54 36 56 68 57 48 58 67 59 49 60 52 61 66 62 85 63
REMARK SMILES IDX 50 64 51 65 65 67 86 68 53 69 37 70 38 71 46 72 39 73 41 74
REMARK SMILES IDX 47 75 40 76 42 77 43 78 44 79 45 80 69 81 70 82 78 83 71 84
REMARK SMILES IDX 73 85 79 86 72 87 74 88 75 89 76 90 77 91 54 92 55 93 63 94
REMARK SMILES IDX 56 95 58 96 64 97 57 98 59 99 60 100 61 101 62 102
REMARK H PARENT 84 55 52 66
REMARK Flexibility Score: inf
ROOT
ATOM      1  C   UNL A   1      33.248  37.118  31.400  1.00  0.00     0.188 C 
ENDROOT
BRANCH   1   2
ATOM      2  O   UNL A   1      34.138  37.148  32.510  1.00  0.00    -0.376 OA
BRANCH   2   3
ATOM      3  C   UNL A   1      34.900  35.961  32.698  1.00  0.00     0.202 C 
BRANCH   3   4
ATOM      4  C   UNL A   1      34.722  35.411  34.113  1.00  0.00     0.261 C 
BRANCH   4   5
ATOM      5  O   UNL A   1      35.895  34.718  34.588  1.00  0.00    -0.463 OA
BRANCH   5   6
ATOM      6  C   UNL A   1      36.066  33.401  34.273  1.00  0.00     0.311 C 
ATOM      7  O   UNL A   1      35.213  32.683  33.802  1.00  0.00    -0.252 OA
BRANCH   6   8
ATOM      8  C   UNL A   1      37.509  33.020  34.564  1.00  0.00     0.128 C 
ATOM      9  N   UNL A   1      39.004  31.276  34.816  1.00  0.00    -0.337 N 
ATOM     10  C   UNL A   1      37.918  31.688  33.952  1.00  0.00     0.135 C 
ATOM     11  C   UNL A   1      38.584  31.549  36.172  1.00  0.00     0.129 C 
ATOM     12  C   UNL A   1      37.855  32.916  36.078  1.00  0.00     0.055 C 
BRANCH   9  13
ATOM     13  C   UNL A   1      39.992  30.337  34.559  1.00  0.00     0.253 C 
ATOM     14  O   UNL A   1      40.889  30.125  35.369  1.00  0.00    -0.269 OA
BRANCH  13  15
ATOM     15  C   UNL A   1      40.064  29.672  33.214  1.00  0.00     0.040 A 
ATOM     16  C   UNL A   1      40.349  28.407  30.707  1.00  0.00     0.067 A 
ATOM     17  C   UNL A   1      41.344  29.272  31.160  1.00  0.00     0.021 A 
ATOM     18  C   UNL A   1      39.177  28.238  31.458  1.00  0.00     0.021 A 
ATOM     19  C   UNL A   1      41.197  29.900  32.409  1.00  0.00     0.015 A 
ATOM     20  C   UNL A   1      39.030  28.877  32.702  1.00  0.00     0.015 A 
BRANCH  16  21
ATOM     21  S   UNL A   1      40.548  27.427  29.227  1.00  0.00     0.175 S 
ATOM     22  C   UNL A   1      40.357  28.490  27.827  1.00  0.00     0.163 C 
ATOM     23  O   UNL A   1      39.434  26.495  29.192  1.00  0.00    -0.224 OA
ATOM     24  O   UNL A   1      41.920  26.957  29.232  1.00  0.00    -0.224 OA
ENDBRANCH  16  21
ENDBRANCH  13  15
ENDBRANCH   9  13
BRANCH  12  25
ATOM     25  C   UNL A   1      38.654  34.150  36.513  1.00  0.00    -0.039 A 
ATOM     26  C   UNL A   1      38.774  34.457  37.878  1.00  0.00     0.024 A 
ATOM     27  C   UNL A   1      39.289  35.015  35.617  1.00  0.00     0.024 A 
ATOM     28  C   UNL A   1      39.450  35.605  38.270  1.00  0.00     0.111 A 
ATOM     29  C   UNL A   1      39.956  36.133  36.104  1.00  0.00     0.111 A 
ATOM     30  N   UNL A   1      40.046  36.452  37.410  1.00  0.00    -0.265 NA
ENDBRANCH  12  25
ENDBRANCH   6   8
ENDBRANCH   5   6
ENDBRANCH   4   5
ENDBRANCH   3   4
ENDBRANCH   2   3
ENDBRANCH   1   2
BRANCH   1  31
ATOM     31  C   UNL A   1      32.926  35.676  30.953  1.00  0.00     0.188 C 
BRANCH  31  32
ATOM     32  O   UNL A   1      33.227  35.293  29.621  1.00  0.00    -0.376 OA
BRANCH  32  33
ATOM     33  C   UNL A   1      34.386  34.497  29.417  1.00  0.00     0.202 C 
BRANCH  33  34
ATOM     34  C   UNL A   1      34.475  33.192  30.219  1.00  0.00     0.261 C 
BRANCH  34  35
ATOM     35  O   UNL A   1      35.820  32.807  30.588  1.00  0.00    -0.460 OA
BRANCH  35  36
ATOM     36  C   UNL A   1      36.551  32.197  29.619  1.00  0.00     0.338 C 
ATOM     37  O   UNL A   1      36.140  31.360  28.833  1.00  0.00    -0.246 OA
BRANCH  36  38
ATOM     38  C   UNL A   1      37.901  32.799  29.495  1.00  0.00     0.060 A 
ATOM     39  C   UNL A   1      38.991  32.039  29.897  1.00  0.00     0.016 A 
ATOM     40  C   UNL A   1      38.099  34.149  29.223  1.00  0.00     0.016 A 
ATOM     41  C   UNL A   1      40.236  32.626  30.128  1.00  0.00     0.010 A 
ATOM     42  C   UNL A   1      39.374  34.732  29.428  1.00  0.00     0.010 A 
ATOM     43  C   UNL A   1      40.443  33.999  29.975  1.00  0.00    -0.014 A 
BRANCH  43  44
ATOM     44  C   UNL A   1      41.693  34.627  30.547  1.00  0.00     0.031 A 
ATOM     45  C   UNL A   1      42.109  34.364  31.988  1.00  0.00     0.074 A 
ATOM     46  C   UNL A   1      42.568  35.317  29.778  1.00  0.00     0.049 A 
ATOM     47  N   UNL A   1      43.204  34.730  32.615  1.00  0.00    -0.248 NA
ATOM     48  C   UNL A   1      41.212  33.548  32.819  1.00  0.00     0.031 C 
ATOM     49  C   UNL A   1      42.416  35.595  28.349  1.00  0.00     0.029 A 
ATOM     50  N   UNL A   1      43.771  35.916  30.097  1.00  0.00    -0.354 N 
ATOM     51  C   UNL A   1      43.128  34.184  33.892  1.00  0.00     0.074 A 
ATOM     52  C   UNL A   1      41.867  33.485  33.968  1.00  0.00     0.031 C 
ATOM     53  C   UNL A   1      43.472  36.303  27.919  1.00  0.00     0.029 A 
ATOM     54  C   UNL A   1      44.332  36.623  29.055  1.00  0.00     0.049 A 
ATOM     55  H   UNL A   1      44.188  35.847  30.986  1.00  0.00     0.167 HD
ATOM     56  C   UNL A   1      44.009  34.238  34.920  1.00  0.00     0.034 A 
ATOM     57  C   UNL A   1      45.367  37.490  29.014  1.00  0.00     0.034 A 
ATOM     58  C   UNL A   1      45.206  35.029  34.945  1.00  0.00     0.049 A 
ATOM     59  C   UNL A   1      46.164  37.776  30.260  1.00  0.00     0.074 A 
ATOM     60  C   UNL A   1      46.092  35.211  35.995  1.00  0.00     0.029 A 
ATOM     61  N   UNL A   1      45.648  35.831  33.909  1.00  0.00    -0.354 N 
ATOM     62  N   UNL A   1      46.115  37.180  31.425  1.00  0.00    -0.248 NA
ATOM     63  C   UNL A   1      47.160  38.857  30.184  1.00  0.00     0.031 C 
ATOM     64  C   UNL A   1      47.018  36.190  35.621  1.00  0.00     0.029 A 
ATOM     65  C   UNL A   1      46.747  36.567  34.316  1.00  0.00     0.049 A 
ATOM     66  H   UNL A   1      45.239  35.872  33.014  1.00  0.00     0.167 HD
ATOM     67  C   UNL A   1      47.090  37.793  32.208  1.00  0.00     0.074 A 
ATOM     68  C   UNL A   1      47.726  38.795  31.381  1.00  0.00     0.031 C 
ATOM     69  C   UNL A   1      47.414  37.548  33.501  1.00  0.00     0.034 A 
BRANCH  56  70
ATOM     70  C   UNL A   1      43.675  33.441  36.153  1.00  0.00     0.023 A 
ATOM     71  C   UNL A   1      42.748  33.950  37.084  1.00  0.00     0.012 A 
ATOM     72  C   UNL A   1      44.251  32.174  36.363  1.00  0.00     0.148 A 
ATOM     73  C   UNL A   1      42.415  33.215  38.221  1.00  0.00     0.002 A 
ATOM     74  C   UNL A   1      43.894  31.438  37.483  1.00  0.00     0.091 A 
ATOM     75  F   UNL A   1      45.143  31.726  35.469  1.00  0.00    -0.205 F 
ATOM     76  C   UNL A   1      42.982  31.958  38.417  1.00  0.00     0.022 A 
BRANCH  74  77
ATOM     77  S   UNL A   1      44.544  29.796  37.806  1.00  0.00     0.127 S 
ATOM     78  O   UNL A   1      45.825  29.847  37.102  1.00  0.00    -0.237 OA
ATOM     79  O   UNL A   1      44.649  29.791  39.266  1.00  0.00    -0.237 OA
ATOM     80  O   UNL A   1      43.571  28.863  37.259  1.00  0.00    -0.744 OA
ENDBRANCH  74  77
ENDBRANCH  56  70
BRANCH  57  81
ATOM     81  C   UNL A   1      45.659  38.239  27.754  1.00  0.00     0.023 A 
ATOM     82  C   UNL A   1      46.661  37.793  26.871  1.00  0.00     0.012 A 
ATOM     83  C   UNL A   1      44.946  39.414  27.440  1.00  0.00     0.148 A 
ATOM     84  C   UNL A   1      46.954  38.512  25.710  1.00  0.00     0.002 A 
ATOM     85  C   UNL A   1      45.189  40.081  26.248  1.00  0.00     0.091 A 
ATOM     86  F   UNL A   1      44.033  39.856  28.317  1.00  0.00    -0.205 F 
ATOM     87  C   UNL A   1      46.208  39.645  25.389  1.00  0.00     0.022 A 
BRANCH  85  88
ATOM     88  S   UNL A   1      44.167  41.452  25.699  1.00  0.00     0.127 S 
ATOM     89  O   UNL A   1      44.775  41.784  24.414  1.00  0.00    -0.237 OA
ATOM     90  O   UNL A   1      42.845  40.828  25.615  1.00  0.00    -0.237 OA
ATOM     91  O   UNL A   1      44.282  42.467  26.737  1.00  0.00    -0.744 OA
ENDBRANCH  85  88
ENDBRANCH  57  81
BRANCH  69  92
ATOM     92  C   UNL A   1      48.527  38.352  34.125  1.00  0.00     0.023 A 
ATOM     93  C   UNL A   1      48.233  39.535  34.831  1.00  0.00     0.012 A 
ATOM     94  C   UNL A   1      49.857  37.890  34.080  1.00  0.00     0.148 A 
ATOM     95  C   UNL A   1      49.249  40.261  35.454  1.00  0.00     0.002 A 
ATOM     96  C   UNL A   1      50.856  38.589  34.749  1.00  0.00     0.091 A 
ATOM     97  F   UNL A   1      50.123  36.773  33.388  1.00  0.00    -0.205 F 
ATOM     98  C   UNL A   1      50.557  39.782  35.425  1.00  0.00     0.022 A 
BRANCH  96  99
ATOM     99  S   UNL A   1      52.545  37.987  34.853  1.00  0.00     0.127 S 
ATOM    100  O   UNL A   1      53.273  39.201  35.218  1.00  0.00    -0.237 OA
ATOM    101  O   UNL A   1      52.454  36.988  35.918  1.00  0.00    -0.237 OA
ATOM    102  O   UNL A   1      52.859  37.442  33.539  1.00  0.00    -0.744 OA
ENDBRANCH  96  99
ENDBRANCH  69  92
ENDBRANCH  43  44
ENDBRANCH  36  38
ENDBRANCH  35  36
ENDBRANCH  34  35
ENDBRANCH  33  34
ENDBRANCH  32  33
ENDBRANCH  31  32
ENDBRANCH   1  31
TORSDOF 24
ENDMDL
MODEL 3
REMARK VINA RESULT:      -7.2      2.387      3.589
REMARK SMILES CS(=O)(=O)c1ccc(C(=O)N2C[C@@H](C(=O)OCCOCCOCCOC(=O)c3ccc(-c4c5nc(c(-c6cccc(S(=O)(=O)[O-])c6F)c6ccc([nH]6)c(-c6cccc(S(=O)(=O)[O-])c6F)c6nc(c(-c7cccc(S(=O)(=O)[O-])c7F)c7ccc4[nH]7)C=C6)C=C5)cc3)[C@H](c3ccncc3)C2)cc1
REMARK SMILES IDX 20 1 19 2 18 3 17 4 16 5 14 6 15 7 13 8 11 9 12 10 98 11
REMARK SMILES IDX 91 12 9 13 10 14 8 15 5 16 6 17 100 18 7 19 99 20 2 21 1 22
REMARK SMILES IDX 3 23 4 24 92 25 93 26 97 27 94 28 96 29 95 30 21 31 22 32
REMARK SMILES IDX 23 33 24 34 25 35 26 36 27 37 28 38 29 39 90 40 30 41 89 42
REMARK SMILES IDX 31 43 32 44 33 45 83 46 34 47 88 48 82 49 84 50 35 51 87 52
REMARK SMILES IDX 81 53 80 54 36 56 68 57 48 58 67 59 49 60 52 61 66 62 85 63
REMARK SMILES IDX 50 64 51 65 65 67 86 68 53 69 37 70 38 71 46 72 39 73 41 74
REMARK SMILES IDX 47 75 40 76 42 77 43 78 44 79 45 80 69 81 70 82 78 83 71 84
REMARK SMILES IDX 73 85 79 86 72 87 74 88 75 89 76 90 77 91 54 92 55 93 63 94
REMARK SMILES IDX 56 95 58 96 64 97 57 98 59 99 60 100 61 101 62 102
REMARK H PARENT 84 55 52 66
REMARK Flexibility Score: inf
ROOT
ATOM      1  C   UNL A   1      33.172  35.428  30.996  1.00  0.00     0.188 C 
ENDROOT
BRANCH   1   2
ATOM      2  O   UNL A   1      33.551  34.227  31.660  1.00  0.00    -0.376 OA
BRANCH   2   3
ATOM      3  C   UNL A   1      34.951  33.975  31.684  1.00  0.00     0.202 C 
BRANCH   3   4
ATOM      4  C   UNL A   1      35.336  33.120  32.893  1.00  0.00     0.261 C 
BRANCH   4   5
ATOM      5  O   UNL A   1      36.399  32.192  32.598  1.00  0.00    -0.463 OA
BRANCH   5   6
ATOM      6  C   UNL A   1      37.639  32.673  32.287  1.00  0.00     0.311 C 
ATOM      7  O   UNL A   1      38.029  32.919  31.168  1.00  0.00    -0.252 OA
BRANCH   6   8
ATOM      8  C   UNL A   1      38.408  32.890  33.581  1.00  0.00     0.128 C 
ATOM      9  N   UNL A   1      39.407  34.451  34.962  1.00  0.00    -0.337 N 
ATOM     10  C   UNL A   1      38.201  34.273  34.182  1.00  0.00     0.135 C 
ATOM     11  C   UNL A   1      40.504  33.984  34.144  1.00  0.00     0.129 C 
ATOM     12  C   UNL A   1      39.949  32.711  33.452  1.00  0.00     0.055 C 
BRANCH   9  13
ATOM     13  C   UNL A   1      39.630  35.344  36.000  1.00  0.00     0.253 C 
ATOM     14  O   UNL A   1      39.712  36.551  35.789  1.00  0.00    -0.269 OA
BRANCH  13  15
ATOM     15  C   UNL A   1      39.929  34.833  37.380  1.00  0.00     0.040 A 
ATOM     16  C   UNL A   1      40.444  33.734  39.928  1.00  0.00     0.067 A 
ATOM     17  C   UNL A   1      39.350  33.283  39.192  1.00  0.00     0.021 A 
ATOM     18  C   UNL A   1      41.229  34.788  39.438  1.00  0.00     0.021 A 
ATOM     19  C   UNL A   1      39.098  33.834  37.923  1.00  0.00     0.015 A 
ATOM     20  C   UNL A   1      40.965  35.342  38.173  1.00  0.00     0.015 A 
BRANCH  16  21
ATOM     21  S   UNL A   1      40.943  32.955  41.456  1.00  0.00     0.175 S 
ATOM     22  C   UNL A   1      39.504  32.725  42.458  1.00  0.00     0.163 C 
ATOM     23  O   UNL A   1      41.783  33.912  42.156  1.00  0.00    -0.224 OA
ATOM     24  O   UNL A   1      41.439  31.640  41.099  1.00  0.00    -0.224 OA
ENDBRANCH  16  21
ENDBRANCH  13  15
ENDBRANCH   9  13
BRANCH  12  25
ATOM     25  C   UNL A   1      40.366  31.366  34.056  1.00  0.00    -0.039 A 
ATOM     26  C   UNL A   1      40.287  30.198  33.279  1.00  0.00     0.024 A 
ATOM     27  C   UNL A   1      40.834  31.217  35.365  1.00  0.00     0.024 A 
ATOM     28  C   UNL A   1      40.613  28.971  33.843  1.00  0.00     0.111 A 
ATOM     29  C   UNL A   1      41.150  29.948  35.838  1.00  0.00     0.111 A 
ATOM     30  N   UNL A   1      41.043  28.820  35.109  1.00  0.00    -0.265 NA
ENDBRANCH  12  25
ENDBRANCH   6   8
ENDBRANCH   5   6
ENDBRANCH   4   5
ENDBRANCH   3   4
ENDBRANCH   2   3
ENDBRANCH   1   2
BRANCH   1  31
ATOM     31  C   UNL A   1      33.287  35.304  29.462  1.00  0.00     0.188 C 
BRANCH  31  32
ATOM     32  O   UNL A   1      34.571  35.391  28.866  1.00  0.00    -0.376 OA
BRANCH  32  33
ATOM     33  C   UNL A   1      34.898  34.427  27.876  1.00  0.00     0.202 C 
BRANCH  33  34
ATOM     34  C   UNL A   1      34.573  32.964  28.205  1.00  0.00     0.261 C 
BRANCH  34  35
ATOM     35  O   UNL A   1      35.714  32.074  28.169  1.00  0.00    -0.460 OA
BRANCH  35  36
ATOM     36  C   UNL A   1      35.432  30.746  28.183  1.00  0.00     0.338 C 
ATOM     37  O   UNL A   1      34.322  30.249  28.109  1.00  0.00    -0.246 OA
BRANCH  36  38
ATOM     38  C   UNL A   1      36.668  29.927  28.121  1.00  0.00     0.060 A 
ATOM     39  C   UNL A   1      37.037  29.219  29.256  1.00  0.00     0.016 A 
ATOM     40  C   UNL A   1      37.582  30.024  27.075  1.00  0.00     0.016 A 
ATOM     41  C   UNL A   1      38.327  28.704  29.399  1.00  0.00     0.010 A 
ATOM     42  C   UNL A   1      38.878  29.470  27.214  1.00  0.00     0.010 A 
ATOM     43  C   UNL A   1      39.305  28.881  28.418  1.00  0.00    -0.014 A 
BRANCH  43  44
ATOM     44  C   UNL A   1      40.751  28.601  28.755  1.00  0.00     0.031 A 
ATOM     45  C   UNL A   1      41.461  27.378  28.191  1.00  0.00     0.074 A 
ATOM     46  C   UNL A   1      41.514  29.486  29.440  1.00  0.00     0.049 A 
ATOM     47  N   UNL A   1      42.727  27.037  28.285  1.00  0.00    -0.248 NA
ATOM     48  C   UNL A   1      40.670  26.444  27.376  1.00  0.00     0.031 C 
ATOM     49  C   UNL A   1      41.061  30.768  29.980  1.00  0.00     0.029 A 
ATOM     50  N   UNL A   1      42.847  29.437  29.800  1.00  0.00    -0.354 N 
ATOM     51  C   UNL A   1      42.877  25.871  27.541  1.00  0.00     0.074 A 
ATOM     52  C   UNL A   1      41.571  25.540  27.023  1.00  0.00     0.031 C 
ATOM     53  C   UNL A   1      42.085  31.377  30.597  1.00  0.00     0.029 A 
ATOM     54  C   UNL A   1      43.246  30.492  30.591  1.00  0.00     0.049 A 
ATOM     55  H   UNL A   1      43.454  28.715  29.519  1.00  0.00     0.167 HD
ATOM     56  C   UNL A   1      43.982  25.129  27.291  1.00  0.00     0.034 A 
ATOM     57  C   UNL A   1      44.378  30.705  31.298  1.00  0.00     0.034 A 
ATOM     58  C   UNL A   1      45.270  25.334  27.891  1.00  0.00     0.049 A 
ATOM     59  C   UNL A   1      45.500  29.703  31.249  1.00  0.00     0.074 A 
ATOM     60  C   UNL A   1      46.410  24.556  27.761  1.00  0.00     0.029 A 
ATOM     61  N   UNL A   1      45.575  26.338  28.791  1.00  0.00    -0.354 N 
ATOM     62  N   UNL A   1      45.639  28.658  30.472  1.00  0.00    -0.248 NA
ATOM     63  C   UNL A   1      46.624  29.910  32.176  1.00  0.00     0.031 C 
ATOM     64  C   UNL A   1      47.373  25.041  28.651  1.00  0.00     0.029 A 
ATOM     65  C   UNL A   1      46.856  26.159  29.284  1.00  0.00     0.049 A 
ATOM     66  H   UNL A   1      44.969  27.072  29.044  1.00  0.00     0.167 HD
ATOM     67  C   UNL A   1      46.874  28.102  30.797  1.00  0.00     0.074 A 
ATOM     68  C   UNL A   1      47.453  28.935  31.828  1.00  0.00     0.031 C 
ATOM     69  C   UNL A   1      47.463  26.992  30.288  1.00  0.00     0.034 A 
BRANCH  56  70
ATOM     70  C   UNL A   1      43.831  23.967  26.347  1.00  0.00     0.023 A 
ATOM     71  C   UNL A   1      44.376  24.046  25.050  1.00  0.00     0.012 A 
ATOM     72  C   UNL A   1      43.184  22.788  26.762  1.00  0.00     0.148 A 
ATOM     73  C   UNL A   1      44.261  22.970  24.170  1.00  0.00     0.002 A 
ATOM     74  C   UNL A   1      43.097  21.712  25.890  1.00  0.00     0.091 A 
ATOM     75  F   UNL A   1      42.661  22.751  27.995  1.00  0.00    -0.205 F 
ATOM     76  C   UNL A   1      43.627  21.802  24.592  1.00  0.00     0.022 A 
BRANCH  74  77
ATOM     77  S   UNL A   1      42.331  20.156  26.351  1.00  0.00     0.127 S 
ATOM     78  O   UNL A   1      41.052  20.241  25.646  1.00  0.00    -0.237 OA
ATOM     79  O   UNL A   1      43.269  19.179  25.800  1.00  0.00    -0.237 OA
ATOM     80  O   UNL A   1      42.241  20.167  27.804  1.00  0.00    -0.744 OA
ENDBRANCH  74  77
ENDBRANCH  56  70
BRANCH  57  81
ATOM     81  C   UNL A   1      44.474  31.889  32.206  1.00  0.00     0.023 A 
ATOM     82  C   UNL A   1      44.017  31.812  33.535  1.00  0.00     0.012 A 
ATOM     83  C   UNL A   1      45.009  33.106  31.736  1.00  0.00     0.148 A 
ATOM     84  C   UNL A   1      44.079  32.930  34.371  1.00  0.00     0.002 A 
ATOM     85  C   UNL A   1      45.138  34.189  32.595  1.00  0.00     0.091 A 
ATOM     86  F   UNL A   1      45.390  33.180  30.453  1.00  0.00    -0.205 F 
ATOM     87  C   UNL A   1      44.655  34.112  33.908  1.00  0.00     0.022 A 
BRANCH  85  88
ATOM     88  S   UNL A   1      46.006  35.687  32.114  1.00  0.00     0.127 S 
ATOM     89  O   UNL A   1      47.316  35.166  31.737  1.00  0.00    -0.237 OA
ATOM     90  O   UNL A   1      45.186  36.165  30.999  1.00  0.00    -0.237 OA
ATOM     91  O   UNL A   1      45.978  36.550  33.287  1.00  0.00    -0.744 OA
ENDBRANCH  85  88
ENDBRANCH  57  81
BRANCH  69  92
ATOM     92  C   UNL A   1      48.824  26.602  30.807  1.00  0.00     0.023 A 
ATOM     93  C   UNL A   1      48.937  25.696  31.880  1.00  0.00     0.012 A 
ATOM     94  C   UNL A   1      49.994  27.072  30.178  1.00  0.00     0.148 A 
ATOM     95  C   UNL A   1      50.191  25.289  32.337  1.00  0.00     0.002 A 
ATOM     96  C   UNL A   1      51.238  26.621  30.603  1.00  0.00     0.091 A 
ATOM     97  F   UNL A   1      49.869  27.950  29.171  1.00  0.00    -0.205 F 
ATOM     98  C   UNL A   1      51.341  25.741  31.691  1.00  0.00     0.022 A 
BRANCH  96  99
ATOM     99  S   UNL A   1      52.761  27.067  29.761  1.00  0.00     0.127 S 
ATOM    100  O   UNL A   1      52.824  28.507  30.002  1.00  0.00    -0.237 OA
ATOM    101  O   UNL A   1      53.759  26.282  30.487  1.00  0.00    -0.237 OA
ATOM    102  O   UNL A   1      52.580  26.674  28.369  1.00  0.00    -0.744 OA
ENDBRANCH  96  99
ENDBRANCH  69  92
ENDBRANCH  43  44
ENDBRANCH  36  38
ENDBRANCH  35  36
ENDBRANCH  34  35
ENDBRANCH  33  34
ENDBRANCH  32  33
ENDBRANCH  31  32
ENDBRANCH   1  31
TORSDOF 24
ENDMDL
