MODEL 1
REMARK VINA RESULT:      -8.3      0.000      0.000
REMARK SMILES COc1cc(NC(=O)C2CCN(S(=O)(=O)c3cccs3)CC2)c(Cl)cc1C(=O)OCCOCCOCCOC(=O)c1ccc(-c2c3nc(c(-c4cccc(S(=O)(=O)[O-])c4F)c4ccc([nH]4)c(-c4cccc(S(=O)(=O)[O-])c4F)c4nc(c(-c5cccc(S(=O)(=O)[O-])c5F)c5ccc2[nH]5)C=C4)C=C3)cc1
REMARK SMILES IDX 33 1 32 2 31 3 30 4 29 5 27 6 28 7 26 8 3 9 4 10 5 11 25 12
REMARK SMILES IDX 23 13 24 14 2 15 1 16 6 17 7 18 8 20 9 21 10 22 22 23 11 24
REMARK SMILES IDX 21 25 12 26 13 27 14 28 15 29 16 30 17 31 20 32 18 33 19 34
REMARK SMILES IDX 34 35 35 36 36 37 37 38 38 39 39 40 40 41 41 42 42 43 103 44
REMARK SMILES IDX 43 45 102 46 44 47 45 48 46 49 96 50 47 51 101 52 95 53
REMARK SMILES IDX 97 54 48 55 100 56 94 57 93 58 49 60 81 61 61 62 80 63 62 64
REMARK SMILES IDX 65 65 79 66 98 67 63 68 64 69 78 71 99 72 66 73 50 74 51 75
REMARK SMILES IDX 59 76 52 77 54 78 60 79 53 80 55 81 56 82 57 83 58 84 82 85
REMARK SMILES IDX 83 86 91 87 84 88 86 89 92 90 85 91 87 92 88 93 89 94 90 95
REMARK SMILES IDX 67 96 68 97 76 98 69 99 71 100 77 101 70 102 72 103 73 104
REMARK SMILES IDX 74 105 75 106
REMARK H PARENT 6 19 97 59 65 70
REMARK Flexibility Score: inf
ROOT
ATOM      1  C   UNL A   1      39.437  25.140  28.162  1.00  0.00     0.188 C 
ENDROOT
BRANCH   1   2
ATOM      2  O   UNL A   1      39.571  24.338  27.013  1.00  0.00    -0.376 OA
BRANCH   2   3
ATOM      3  C   UNL A   1      38.478  23.595  26.510  1.00  0.00     0.202 C 
BRANCH   3   4
ATOM      4  C   UNL A   1      38.522  22.147  25.989  1.00  0.00     0.261 C 
BRANCH   4   5
ATOM      5  O   UNL A   1      37.906  21.860  24.734  1.00  0.00    -0.460 OA
BRANCH   5   6
ATOM      6  C   UNL A   1      36.955  20.894  24.751  1.00  0.00     0.342 C 
ATOM      7  O   UNL A   1      37.094  19.732  25.088  1.00  0.00    -0.246 OA
BRANCH   6   8
ATOM      8  C   UNL A   1      35.640  21.485  24.447  1.00  0.00     0.103 A 
ATOM      9  C   UNL A   1      34.451  20.805  24.702  1.00  0.00     0.135 A 
ATOM     10  C   UNL A   1      33.228  21.469  24.579  1.00  0.00     0.075 A 
ATOM     11  C   UNL A   1      33.148  22.678  23.904  1.00  0.00     0.063 A 
ATOM     12  C   UNL A   1      35.592  22.786  23.935  1.00  0.00     0.042 A 
ATOM     13  C   UNL A   1      34.352  23.356  23.625  1.00  0.00     0.065 A 
ATOM     14  Cl  UNL A   1      34.343  24.896  22.838  1.00  0.00    -0.082 Cl
BRANCH   9  15
ATOM     15  O   UNL A   1      34.433  19.485  25.070  1.00  0.00    -0.496 OA
ATOM     16  C   UNL A   1      33.072  19.032  25.205  1.00  0.00     0.278 C 
ENDBRANCH   9  15
BRANCH  11  17
ATOM     17  N   UNL A   1      31.930  23.237  23.473  1.00  0.00    -0.324 N 
ATOM     18  C   UNL A   1      30.929  23.976  24.017  1.00  0.00     0.227 C 
ATOM     19  H   UNL A   1      31.759  23.041  22.523  1.00  0.00     0.169 HD
ATOM     20  O   UNL A   1      30.054  24.324  23.207  1.00  0.00    -0.274 OA
BRANCH  18  21
ATOM     21  C   UNL A   1      30.752  24.415  25.493  1.00  0.00     0.081 C 
ATOM     22  C   UNL A   1      29.897  25.604  25.893  1.00  0.00     0.030 C 
ATOM     23  C   UNL A   1      32.146  24.792  26.064  1.00  0.00     0.030 C 
ATOM     24  C   UNL A   1      30.305  26.828  25.109  1.00  0.00     0.103 C 
ATOM     25  C   UNL A   1      32.665  26.133  25.507  1.00  0.00     0.103 C 
ATOM     26  N   UNL A   1      31.647  27.231  25.573  1.00  0.00    -0.197 NA
BRANCH  26  27
ATOM     27  S   UNL A   1      32.120  28.722  24.846  1.00  0.00     0.252 S 
ATOM     28  O   UNL A   1      33.133  28.426  23.856  1.00  0.00    -0.206 OA
ATOM     29  O   UNL A   1      30.914  29.444  24.505  1.00  0.00    -0.206 OA
BRANCH  27  30
ATOM     30  C   UNL A   1      32.948  29.656  26.112  1.00  0.00     0.135 A 
ATOM     31  C   UNL A   1      32.598  30.822  26.764  1.00  0.00     0.033 A 
ATOM     32  S   UNL A   1      34.461  29.069  26.653  1.00  0.00    -0.131 S 
ATOM     33  C   UNL A   1      33.599  31.255  27.678  1.00  0.00     0.013 A 
ATOM     34  C   UNL A   1      34.661  30.382  27.726  1.00  0.00     0.066 A 
ENDBRANCH  27  30
ENDBRANCH  26  27
ENDBRANCH  18  21
ENDBRANCH  11  17
ENDBRANCH   6   8
ENDBRANCH   5   6
ENDBRANCH   4   5
ENDBRANCH   3   4
ENDBRANCH   2   3
ENDBRANCH   1   2
BRANCH   1  35
ATOM     35  C   UNL A   1      40.134  26.514  28.108  1.00  0.00     0.188 C 
BRANCH  35  36
ATOM     36  O   UNL A   1      40.057  27.273  26.916  1.00  0.00    -0.376 OA
BRANCH  36  37
ATOM     37  C   UNL A   1      41.245  27.553  26.187  1.00  0.00     0.202 C 
BRANCH  37  38
ATOM     38  C   UNL A   1      42.296  26.499  25.771  1.00  0.00     0.261 C 
BRANCH  38  39
ATOM     39  O   UNL A   1      43.661  26.742  26.127  1.00  0.00    -0.460 OA
BRANCH  39  40
ATOM     40  C   UNL A   1      44.569  25.849  25.656  1.00  0.00     0.338 C 
ATOM     41  O   UNL A   1      44.484  25.172  24.647  1.00  0.00    -0.246 OA
BRANCH  40  42
ATOM     42  C   UNL A   1      45.789  25.937  26.483  1.00  0.00     0.060 A 
ATOM     43  C   UNL A   1      46.593  24.796  26.635  1.00  0.00     0.016 A 
ATOM     44  C   UNL A   1      46.130  27.132  27.114  1.00  0.00     0.016 A 
ATOM     45  C   UNL A   1      47.746  24.852  27.421  1.00  0.00     0.010 A 
ATOM     46  C   UNL A   1      47.270  27.177  27.922  1.00  0.00     0.010 A 
ATOM     47  C   UNL A   1      48.073  26.034  28.096  1.00  0.00    -0.014 A 
BRANCH  47  48
ATOM     48  C   UNL A   1      49.165  26.054  29.102  1.00  0.00     0.031 A 
ATOM     49  C   UNL A   1      50.579  26.253  28.628  1.00  0.00     0.074 A 
ATOM     50  C   UNL A   1      48.914  25.846  30.407  1.00  0.00     0.049 A 
ATOM     51  N   UNL A   1      51.695  26.198  29.304  1.00  0.00    -0.248 NA
ATOM     52  C   UNL A   1      50.756  26.547  27.196  1.00  0.00     0.031 C 
ATOM     53  C   UNL A   1      47.590  25.657  30.996  1.00  0.00     0.029 A 
ATOM     54  N   UNL A   1      49.776  25.723  31.470  1.00  0.00    -0.354 N 
ATOM     55  C   UNL A   1      52.710  26.403  28.377  1.00  0.00     0.074 A 
ATOM     56  C   UNL A   1      52.075  26.592  27.091  1.00  0.00     0.031 C 
ATOM     57  C   UNL A   1      47.730  25.406  32.310  1.00  0.00     0.029 A 
ATOM     58  C   UNL A   1      49.153  25.381  32.647  1.00  0.00     0.049 A 
ATOM     59  H   UNL A   1      50.748  25.867  31.396  1.00  0.00     0.167 HD
ATOM     60  C   UNL A   1      54.048  26.433  28.579  1.00  0.00     0.034 A 
ATOM     61  C   UNL A   1      49.672  25.051  33.847  1.00  0.00     0.034 A 
ATOM     62  C   UNL A   1      54.678  26.261  29.860  1.00  0.00     0.049 A 
ATOM     63  C   UNL A   1      51.171  25.053  34.032  1.00  0.00     0.074 A 
ATOM     64  C   UNL A   1      56.023  26.340  30.172  1.00  0.00     0.029 A 
ATOM     65  N   UNL A   1      54.013  25.953  31.036  1.00  0.00    -0.354 N 
ATOM     66  N   UNL A   1      52.111  25.372  33.176  1.00  0.00    -0.248 NA
ATOM     67  C   UNL A   1      51.677  24.673  35.360  1.00  0.00     0.031 C 
ATOM     68  C   UNL A   1      56.177  26.034  31.527  1.00  0.00     0.029 A 
ATOM     69  C   UNL A   1      54.921  25.812  32.071  1.00  0.00     0.049 A 
ATOM     70  H   UNL A   1      53.037  25.850  31.123  1.00  0.00     0.167 HD
ATOM     71  C   UNL A   1      53.312  25.273  33.872  1.00  0.00     0.074 A 
ATOM     72  C   UNL A   1      52.980  24.883  35.226  1.00  0.00     0.031 C 
ATOM     73  C   UNL A   1      54.579  25.477  33.429  1.00  0.00     0.034 A 
BRANCH  60  74
ATOM     74  C   UNL A   1      54.935  26.657  27.383  1.00  0.00     0.023 A 
ATOM     75  C   UNL A   1      55.068  27.948  26.835  1.00  0.00     0.012 A 
ATOM     76  C   UNL A   1      55.692  25.596  26.848  1.00  0.00     0.148 A 
ATOM     77  C   UNL A   1      55.920  28.175  25.755  1.00  0.00     0.002 A 
ATOM     78  C   UNL A   1      56.576  25.840  25.803  1.00  0.00     0.091 A 
ATOM     79  F   UNL A   1      55.535  24.371  27.370  1.00  0.00    -0.205 F 
ATOM     80  C   UNL A   1      56.682  27.125  25.247  1.00  0.00     0.022 A 
BRANCH  78  81
ATOM     81  S   UNL A   1      57.661  24.573  25.137  1.00  0.00     0.127 S 
ATOM     82  O   UNL A   1      58.679  24.477  26.182  1.00  0.00    -0.237 OA
ATOM     83  O   UNL A   1      56.765  23.418  25.053  1.00  0.00    -0.237 OA
ATOM     84  O   UNL A   1      58.131  25.075  23.854  1.00  0.00    -0.744 OA
ENDBRANCH  78  81
ENDBRANCH  60  74
BRANCH  61  85
ATOM     85  C   UNL A   1      48.778  24.701  34.988  1.00  0.00     0.023 A 
ATOM     86  C   UNL A   1      48.346  23.368  35.145  1.00  0.00     0.012 A 
ATOM     87  C   UNL A   1      48.335  25.677  35.903  1.00  0.00     0.148 A 
ATOM     88  C   UNL A   1      47.459  23.022  36.166  1.00  0.00     0.002 A 
ATOM     89  C   UNL A   1      47.498  25.314  36.952  1.00  0.00     0.091 A 
ATOM     90  F   UNL A   1      48.742  26.942  35.728  1.00  0.00    -0.205 F 
ATOM     91  C   UNL A   1      47.043  23.991  37.073  1.00  0.00     0.022 A 
BRANCH  89  92
ATOM     92  S   UNL A   1      46.998  26.468  38.234  1.00  0.00     0.127 S 
ATOM     93  O   UNL A   1      46.668  27.658  37.454  1.00  0.00    -0.237 OA
ATOM     94  O   UNL A   1      45.848  25.781  38.823  1.00  0.00    -0.237 OA
ATOM     95  O   UNL A   1      48.145  26.593  39.122  1.00  0.00    -0.744 OA
ENDBRANCH  89  92
ENDBRANCH  61  85
BRANCH  73  96
ATOM     96  C   UNL A   1      55.707  25.335  34.420  1.00  0.00     0.023 A 
ATOM     97  C   UNL A   1      56.031  26.403  35.281  1.00  0.00     0.012 A 
ATOM     98  C   UNL A   1      56.396  24.112  34.550  1.00  0.00     0.148 A 
ATOM     99  C   UNL A   1      57.046  26.268  36.229  1.00  0.00     0.002 A 
ATOM    100  C   UNL A   1      57.369  23.967  35.531  1.00  0.00     0.091 A 
ATOM    101  F   UNL A   1      56.085  23.111  33.714  1.00  0.00    -0.205 F 
ATOM    102  C   UNL A   1      57.707  25.048  36.361  1.00  0.00     0.022 A 
BRANCH 100 103
ATOM    103  S   UNL A   1      58.202  22.406  35.844  1.00  0.00     0.127 S 
ATOM    104  O   UNL A   1      58.900  22.687  37.098  1.00  0.00    -0.237 OA
ATOM    105  O   UNL A   1      57.079  21.476  35.966  1.00  0.00    -0.237 OA
ATOM    106  O   UNL A   1      59.061  22.168  34.692  1.00  0.00    -0.744 OA
ENDBRANCH 100 103
ENDBRANCH  73  96
ENDBRANCH  47  48
ENDBRANCH  40  42
ENDBRANCH  39  40
ENDBRANCH  38  39
ENDBRANCH  37  38
ENDBRANCH  36  37
ENDBRANCH  35  36
ENDBRANCH   1  35
TORSDOF 25
ENDMDL
MODEL 2
REMARK VINA RESULT:      -8.3      9.434     17.713
REMARK SMILES COc1cc(NC(=O)C2CCN(S(=O)(=O)c3cccs3)CC2)c(Cl)cc1C(=O)OCCOCCOCCOC(=O)c1ccc(-c2c3nc(c(-c4cccc(S(=O)(=O)[O-])c4F)c4ccc([nH]4)c(-c4cccc(S(=O)(=O)[O-])c4F)c4nc(c(-c5cccc(S(=O)(=O)[O-])c5F)c5ccc2[nH]5)C=C4)C=C3)cc1
REMARK SMILES IDX 33 1 32 2 31 3 30 4 29 5 27 6 28 7 26 8 3 9 4 10 5 11 25 12
REMARK SMILES IDX 23 13 24 14 2 15 1 16 6 17 7 18 8 20 9 21 10 22 22 23 11 24
REMARK SMILES IDX 21 25 12 26 13 27 14 28 15 29 16 30 17 31 20 32 18 33 19 34
REMARK SMILES IDX 34 35 35 36 36 37 37 38 38 39 39 40 40 41 41 42 42 43 103 44
REMARK SMILES IDX 43 45 102 46 44 47 45 48 46 49 96 50 47 51 101 52 95 53
REMARK SMILES IDX 97 54 48 55 100 56 94 57 93 58 49 60 81 61 61 62 80 63 62 64
REMARK SMILES IDX 65 65 79 66 98 67 63 68 64 69 78 71 99 72 66 73 50 74 51 75
REMARK SMILES IDX 59 76 52 77 54 78 60 79 53 80 55 81 56 82 57 83 58 84 82 85
REMARK SMILES IDX 83 86 91 87 84 88 86 89 92 90 85 91 87 92 88 93 89 94 90 95
REMARK SMILES IDX 67 96 68 97 76 98 69 99 71 100 77 101 70 102 72 103 73 104
REMARK SMILES IDX 74 105 75 106
REMARK H PARENT 6 19 97 59 65 70
REMARK Flexibility Score: inf
ROOT
ATOM      1  C   UNL A   1      48.800  30.566  40.032  1.00  0.00     0.188 C 
ENDROOT
BRANCH   1   2
ATOM      2  O   UNL A   1      48.158  29.500  40.690  1.00  0.00    -0.376 OA
BRANCH   2   3
ATOM      3  C   UNL A   1      47.969  28.254  40.048  1.00  0.00     0.202 C 
BRANCH   3   4
ATOM      4  C   UNL A   1      46.664  27.748  39.405  1.00  0.00     0.261 C 
BRANCH   4   5
ATOM      5  O   UNL A   1      46.742  27.106  38.133  1.00  0.00    -0.460 OA
BRANCH   5   6
ATOM      6  C   UNL A   1      45.575  26.614  37.649  1.00  0.00     0.342 C 
ATOM      7  O   UNL A   1      44.968  25.636  38.048  1.00  0.00    -0.246 OA
BRANCH   6   8
ATOM      8  C   UNL A   1      45.027  27.536  36.638  1.00  0.00     0.103 A 
ATOM      9  C   UNL A   1      45.069  27.243  35.276  1.00  0.00     0.135 A 
ATOM     10  C   UNL A   1      44.373  28.047  34.370  1.00  0.00     0.075 A 
ATOM     11  C   UNL A   1      43.914  29.299  34.747  1.00  0.00     0.063 A 
ATOM     12  C   UNL A   1      44.403  28.710  37.071  1.00  0.00     0.042 A 
ATOM     13  C   UNL A   1      43.892  29.604  36.124  1.00  0.00     0.065 A 
ATOM     14  Cl  UNL A   1      43.283  31.122  36.688  1.00  0.00    -0.082 Cl
BRANCH   9  15
ATOM     15  O   UNL A   1      45.783  26.183  34.782  1.00  0.00    -0.496 OA
ATOM     16  C   UNL A   1      44.898  25.266  34.110  1.00  0.00     0.278 C 
ENDBRANCH   9  15
BRANCH  11  17
ATOM     17  N   UNL A   1      43.494  30.273  33.822  1.00  0.00    -0.324 N 
ATOM     18  C   UNL A   1      42.338  30.914  33.511  1.00  0.00     0.227 C 
ATOM     19  H   UNL A   1      44.237  30.571  33.248  1.00  0.00     0.169 HD
ATOM     20  O   UNL A   1      42.459  31.792  32.640  1.00  0.00    -0.274 OA
BRANCH  18  21
ATOM     21  C   UNL A   1      40.922  30.678  34.095  1.00  0.00     0.081 C 
ATOM     22  C   UNL A   1      40.330  29.290  34.263  1.00  0.00     0.030 C 
ATOM     23  C   UNL A   1      39.886  31.379  33.174  1.00  0.00     0.030 C 
ATOM     24  C   UNL A   1      40.409  28.528  32.963  1.00  0.00     0.103 C 
ATOM     25  C   UNL A   1      39.689  30.632  31.838  1.00  0.00     0.103 C 
ATOM     26  N   UNL A   1      39.471  29.160  32.015  1.00  0.00    -0.197 NA
BRANCH  26  27
ATOM     27  S   UNL A   1      39.374  28.247  30.554  1.00  0.00     0.252 S 
ATOM     28  O   UNL A   1      40.612  28.447  29.829  1.00  0.00    -0.206 OA
ATOM     29  O   UNL A   1      38.900  26.925  30.895  1.00  0.00    -0.206 OA
BRANCH  27  30
ATOM     30  C   UNL A   1      38.112  29.016  29.566  1.00  0.00     0.135 A 
ATOM     31  C   UNL A   1      36.806  29.358  29.855  1.00  0.00     0.033 A 
ATOM     32  S   UNL A   1      38.517  29.414  27.952  1.00  0.00    -0.131 S 
ATOM     33  C   UNL A   1      36.126  29.908  28.733  1.00  0.00     0.013 A 
ATOM     34  C   UNL A   1      36.948  30.008  27.635  1.00  0.00     0.066 A 
ENDBRANCH  27  30
ENDBRANCH  26  27
ENDBRANCH  18  21
ENDBRANCH  11  17
ENDBRANCH   6   8
ENDBRANCH   5   6
ENDBRANCH   4   5
ENDBRANCH   3   4
ENDBRANCH   2   3
ENDBRANCH   1   2
BRANCH   1  35
ATOM     35  C   UNL A   1      49.770  31.401  40.892  1.00  0.00     0.188 C 
BRANCH  35  36
ATOM     36  O   UNL A   1      49.476  32.765  41.126  1.00  0.00    -0.376 OA
BRANCH  36  37
ATOM     37  C   UNL A   1      50.366  33.764  40.647  1.00  0.00     0.202 C 
BRANCH  37  38
ATOM     38  C   UNL A   1      50.300  34.409  39.244  1.00  0.00     0.261 C 
BRANCH  38  39
ATOM     39  O   UNL A   1      49.227  34.020  38.381  1.00  0.00    -0.460 OA
BRANCH  39  40
ATOM     40  C   UNL A   1      49.183  34.630  37.169  1.00  0.00     0.338 C 
ATOM     41  O   UNL A   1      50.127  34.985  36.486  1.00  0.00    -0.246 OA
BRANCH  40  42
ATOM     42  C   UNL A   1      47.781  34.660  36.707  1.00  0.00     0.060 A 
ATOM     43  C   UNL A   1      47.172  33.463  36.300  1.00  0.00     0.016 A 
ATOM     44  C   UNL A   1      47.077  35.863  36.665  1.00  0.00     0.016 A 
ATOM     45  C   UNL A   1      45.850  33.468  35.849  1.00  0.00     0.010 A 
ATOM     46  C   UNL A   1      45.764  35.869  36.187  1.00  0.00     0.010 A 
ATOM     47  C   UNL A   1      45.149  34.677  35.759  1.00  0.00    -0.014 A 
BRANCH  47  48
ATOM     48  C   UNL A   1      43.828  34.737  35.083  1.00  0.00     0.031 A 
ATOM     49  C   UNL A   1      42.587  34.518  35.905  1.00  0.00     0.074 A 
ATOM     50  C   UNL A   1      43.732  34.930  33.755  1.00  0.00     0.049 A 
ATOM     51  N   UNL A   1      41.343  34.416  35.518  1.00  0.00    -0.248 NA
ATOM     52  C   UNL A   1      42.778  34.388  37.360  1.00  0.00     0.031 C 
ATOM     53  C   UNL A   1      44.855  35.170  32.851  1.00  0.00     0.029 A 
ATOM     54  N   UNL A   1      42.633  34.916  32.932  1.00  0.00    -0.354 N 
ATOM     55  C   UNL A   1      40.608  34.166  36.670  1.00  0.00     0.074 A 
ATOM     56  C   UNL A   1      41.544  34.138  37.772  1.00  0.00     0.031 C 
ATOM     57  C   UNL A   1      44.389  35.245  31.591  1.00  0.00     0.029 A 
ATOM     58  C   UNL A   1      42.944  35.023  31.596  1.00  0.00     0.049 A 
ATOM     59  H   UNL A   1      41.709  34.837  33.266  1.00  0.00     0.167 HD
ATOM     60  C   UNL A   1      39.273  33.977  36.797  1.00  0.00     0.034 A 
ATOM     61  C   UNL A   1      42.159  34.918  30.505  1.00  0.00     0.034 A 
ATOM     62  C   UNL A   1      38.341  34.021  35.704  1.00  0.00     0.049 A 
ATOM     63  C   UNL A   1      40.680  34.667  30.677  1.00  0.00     0.074 A 
ATOM     64  C   UNL A   1      36.963  33.906  35.747  1.00  0.00     0.029 A 
ATOM     65  N   UNL A   1      38.688  34.168  34.371  1.00  0.00    -0.354 N 
ATOM     66  N   UNL A   1      39.981  34.557  31.780  1.00  0.00    -0.248 NA
ATOM     67  C   UNL A   1      39.878  34.551  29.448  1.00  0.00     0.031 C 
ATOM     68  C   UNL A   1      36.480  33.937  34.435  1.00  0.00     0.029 A 
ATOM     69  C   UNL A   1      37.555  34.121  33.578  1.00  0.00     0.049 A 
ATOM     70  H   UNL A   1      39.606  34.290  34.037  1.00  0.00     0.167 HD
ATOM     71  C   UNL A   1      38.657  34.402  31.381  1.00  0.00     0.074 A 
ATOM     72  C   UNL A   1      38.648  34.452  29.934  1.00  0.00     0.031 C 
ATOM     73  C   UNL A   1      37.547  34.225  32.142  1.00  0.00     0.034 A 
BRANCH  60  74
ATOM     74  C   UNL A   1      38.731  33.700  38.175  1.00  0.00     0.023 A 
ATOM     75  C   UNL A   1      38.196  32.434  38.482  1.00  0.00     0.012 A 
ATOM     76  C   UNL A   1      38.819  34.678  39.185  1.00  0.00     0.148 A 
ATOM     77  C   UNL A   1      37.732  32.153  39.766  1.00  0.00     0.002 A 
ATOM     78  C   UNL A   1      38.399  34.375  40.475  1.00  0.00     0.091 A 
ATOM     79  F   UNL A   1      39.311  35.884  38.867  1.00  0.00    -0.205 F 
ATOM     80  C   UNL A   1      37.844  33.118  40.764  1.00  0.00     0.022 A 
BRANCH  78  81
ATOM     81  S   UNL A   1      38.580  35.520  41.846  1.00  0.00     0.127 S 
ATOM     82  O   UNL A   1      39.833  35.065  42.448  1.00  0.00    -0.237 OA
ATOM     83  O   UNL A   1      38.669  36.809  41.158  1.00  0.00    -0.237 OA
ATOM     84  O   UNL A   1      37.395  35.352  42.675  1.00  0.00    -0.744 OA
ENDBRANCH  78  81
ENDBRANCH  60  74
BRANCH  61  85
ATOM     85  C   UNL A   1      42.740  35.064  29.139  1.00  0.00     0.023 A 
ATOM     86  C   UNL A   1      42.606  36.291  28.458  1.00  0.00     0.012 A 
ATOM     87  C   UNL A   1      43.401  33.995  28.502  1.00  0.00     0.148 A 
ATOM     88  C   UNL A   1      43.085  36.438  27.155  1.00  0.00     0.002 A 
ATOM     89  C   UNL A   1      43.925  34.167  27.226  1.00  0.00     0.091 A 
ATOM     90  F   UNL A   1      43.503  32.830  29.158  1.00  0.00    -0.205 F 
ATOM     91  C   UNL A   1      43.750  35.381  26.543  1.00  0.00     0.022 A 
BRANCH  89  92
ATOM     92  S   UNL A   1      44.895  32.900  26.400  1.00  0.00     0.127 S 
ATOM     93  O   UNL A   1      43.854  32.060  25.814  1.00  0.00    -0.237 OA
ATOM     94  O   UNL A   1      45.662  33.691  25.437  1.00  0.00    -0.237 OA
ATOM     95  O   UNL A   1      45.698  32.276  27.443  1.00  0.00    -0.744 OA
ENDBRANCH  89  92
ENDBRANCH  61  85
BRANCH  73  96
ATOM     96  C   UNL A   1      36.216  34.122  31.440  1.00  0.00     0.023 A 
ATOM     97  C   UNL A   1      35.912  32.988  30.661  1.00  0.00     0.012 A 
ATOM     98  C   UNL A   1      35.235  35.119  31.617  1.00  0.00     0.148 A 
ATOM     99  C   UNL A   1      34.668  32.865  30.041  1.00  0.00     0.002 A 
ATOM    100  C   UNL A   1      33.980  34.965  31.041  1.00  0.00     0.091 A 
ATOM    101  F   UNL A   1      35.545  36.198  32.350  1.00  0.00    -0.205 F 
ATOM    102  C   UNL A   1      33.700  33.847  30.239  1.00  0.00     0.022 A 
BRANCH 100 103
ATOM    103  S   UNL A   1      32.637  36.125  31.323  1.00  0.00     0.127 S 
ATOM    104  O   UNL A   1      33.348  37.272  31.886  1.00  0.00    -0.237 OA
ATOM    105  O   UNL A   1      32.118  36.333  29.971  1.00  0.00    -0.237 OA
ATOM    106  O   UNL A   1      31.712  35.459  32.230  1.00  0.00    -0.744 OA
ENDBRANCH 100 103
ENDBRANCH  73  96
ENDBRANCH  47  48
ENDBRANCH  40  42
ENDBRANCH  39  40
ENDBRANCH  38  39
ENDBRANCH  37  38
ENDBRANCH  36  37
ENDBRANCH  35  36
ENDBRANCH   1  35
TORSDOF 25
ENDMDL
MODEL 3
REMARK VINA RESULT:      -8.2      7.464     14.279
REMARK SMILES COc1cc(NC(=O)C2CCN(S(=O)(=O)c3cccs3)CC2)c(Cl)cc1C(=O)OCCOCCOCCOC(=O)c1ccc(-c2c3nc(c(-c4cccc(S(=O)(=O)[O-])c4F)c4ccc([nH]4)c(-c4cccc(S(=O)(=O)[O-])c4F)c4nc(c(-c5cccc(S(=O)(=O)[O-])c5F)c5ccc2[nH]5)C=C4)C=C3)cc1
REMARK SMILES IDX 33 1 32 2 31 3 30 4 29 5 27 6 28 7 26 8 3 9 4 10 5 11 25 12
REMARK SMILES IDX 23 13 24 14 2 15 1 16 6 17 7 18 8 20 9 21 10 22 22 23 11 24
REMARK SMILES IDX 21 25 12 26 13 27 14 28 15 29 16 30 17 31 20 32 18 33 19 34
REMARK SMILES IDX 34 35 35 36 36 37 37 38 38 39 39 40 40 41 41 42 42 43 103 44
REMARK SMILES IDX 43 45 102 46 44 47 45 48 46 49 96 50 47 51 101 52 95 53
REMARK SMILES IDX 97 54 48 55 100 56 94 57 93 58 49 60 81 61 61 62 80 63 62 64
REMARK SMILES IDX 65 65 79 66 98 67 63 68 64 69 78 71 99 72 66 73 50 74 51 75
REMARK SMILES IDX 59 76 52 77 54 78 60 79 53 80 55 81 56 82 57 83 58 84 82 85
REMARK SMILES IDX 83 86 91 87 84 88 86 89 92 90 85 91 87 92 88 93 89 94 90 95
REMARK SMILES IDX 67 96 68 97 76 98 69 99 71 100 77 101 70 102 72 103 73 104
REMARK SMILES IDX 74 105 75 106
REMARK H PARENT 6 19 97 59 65 70
REMARK Flexibility Score: inf
ROOT
ATOM      1  C   UNL A   1      50.048  21.898  37.271  1.00  0.00     0.188 C 
ENDROOT
BRANCH   1   2
ATOM      2  O   UNL A   1      50.984  21.181  38.040  1.00  0.00    -0.376 OA
BRANCH   2   3
ATOM      3  C   UNL A   1      50.640  20.662  39.310  1.00  0.00     0.202 C 
BRANCH   3   4
ATOM      4  C   UNL A   1      49.417  19.785  39.637  1.00  0.00     0.261 C 
BRANCH   4   5
ATOM      5  O   UNL A   1      48.757  19.116  38.563  1.00  0.00    -0.460 OA
BRANCH   5   6
ATOM      6  C   UNL A   1      47.414  18.988  38.685  1.00  0.00     0.342 C 
ATOM      7  O   UNL A   1      46.804  18.038  39.140  1.00  0.00    -0.246 OA
BRANCH   6   8
ATOM      8  C   UNL A   1      46.759  20.259  38.326  1.00  0.00     0.103 A 
ATOM      9  C   UNL A   1      46.375  20.546  37.018  1.00  0.00     0.135 A 
ATOM     10  C   UNL A   1      45.591  21.671  36.753  1.00  0.00     0.075 A 
ATOM     11  C   UNL A   1      45.456  22.675  37.699  1.00  0.00     0.063 A 
ATOM     12  C   UNL A   1      46.472  21.175  39.344  1.00  0.00     0.042 A 
ATOM     13  C   UNL A   1      45.865  22.393  39.019  1.00  0.00     0.065 A 
ATOM     14  Cl  UNL A   1      45.683  23.567  40.276  1.00  0.00    -0.082 Cl
BRANCH   9  15
ATOM     15  O   UNL A   1      46.749  19.757  35.962  1.00  0.00    -0.496 OA
ATOM     16  C   UNL A   1      45.581  19.188  35.337  1.00  0.00     0.278 C 
ENDBRANCH   9  15
BRANCH  11  17
ATOM     17  N   UNL A   1      44.955  23.954  37.395  1.00  0.00    -0.324 N 
ATOM     18  C   UNL A   1      45.262  24.963  36.540  1.00  0.00     0.227 C 
ATOM     19  H   UNL A   1      44.173  24.177  37.950  1.00  0.00     0.169 HD
ATOM     20  O   UNL A   1      44.462  25.914  36.565  1.00  0.00    -0.274 OA
BRANCH  18  21
ATOM     21  C   UNL A   1      46.465  25.067  35.569  1.00  0.00     0.081 C 
ATOM     22  C   UNL A   1      47.092  26.396  35.186  1.00  0.00     0.030 C 
ATOM     23  C   UNL A   1      46.040  24.483  34.194  1.00  0.00     0.030 C 
ATOM     24  C   UNL A   1      46.033  27.347  34.685  1.00  0.00     0.103 C 
ATOM     25  C   UNL A   1      45.076  25.416  33.433  1.00  0.00     0.103 C 
ATOM     26  N   UNL A   1      45.549  26.838  33.388  1.00  0.00    -0.197 NA
BRANCH  26  27
ATOM     27  S   UNL A   1      44.453  27.958  32.665  1.00  0.00     0.252 S 
ATOM     28  O   UNL A   1      45.191  29.170  32.378  1.00  0.00    -0.206 OA
ATOM     29  O   UNL A   1      43.723  27.253  31.636  1.00  0.00    -0.206 OA
BRANCH  27  30
ATOM     30  C   UNL A   1      43.283  28.399  33.927  1.00  0.00     0.135 A 
ATOM     31  C   UNL A   1      42.314  27.658  34.576  1.00  0.00     0.033 A 
ATOM     32  S   UNL A   1      43.292  30.021  34.470  1.00  0.00    -0.131 S 
ATOM     33  C   UNL A   1      41.551  28.439  35.488  1.00  0.00     0.013 A 
ATOM     34  C   UNL A   1      41.990  29.742  35.539  1.00  0.00     0.066 A 
ENDBRANCH  27  30
ENDBRANCH  26  27
ENDBRANCH  18  21
ENDBRANCH  11  17
ENDBRANCH   6   8
ENDBRANCH   5   6
ENDBRANCH   4   5
ENDBRANCH   3   4
ENDBRANCH   2   3
ENDBRANCH   1   2
BRANCH   1  35
ATOM     35  C   UNL A   1      49.724  21.308  35.883  1.00  0.00     0.188 C 
BRANCH  35  36
ATOM     36  O   UNL A   1      50.176  20.004  35.573  1.00  0.00    -0.376 OA
BRANCH  36  37
ATOM     37  C   UNL A   1      50.589  19.703  34.246  1.00  0.00     0.202 C 
BRANCH  37  38
ATOM     38  C   UNL A   1      51.743  20.408  33.498  1.00  0.00     0.261 C 
BRANCH  38  39
ATOM     39  O   UNL A   1      51.421  21.553  32.701  1.00  0.00    -0.460 OA
BRANCH  39  40
ATOM     40  C   UNL A   1      52.184  22.656  32.906  1.00  0.00     0.338 C 
ATOM     41  O   UNL A   1      53.373  22.695  33.169  1.00  0.00    -0.246 OA
BRANCH  40  42
ATOM     42  C   UNL A   1      51.375  23.852  32.595  1.00  0.00     0.060 A 
ATOM     43  C   UNL A   1      50.095  23.974  33.159  1.00  0.00     0.016 A 
ATOM     44  C   UNL A   1      51.871  24.839  31.745  1.00  0.00     0.016 A 
ATOM     45  C   UNL A   1      49.307  25.092  32.872  1.00  0.00     0.010 A 
ATOM     46  C   UNL A   1      51.069  25.942  31.437  1.00  0.00     0.010 A 
ATOM     47  C   UNL A   1      49.777  26.066  31.983  1.00  0.00    -0.014 A 
BRANCH  47  48
ATOM     48  C   UNL A   1      48.878  27.143  31.496  1.00  0.00     0.031 A 
ATOM     49  C   UNL A   1      48.926  28.484  32.176  1.00  0.00     0.074 A 
ATOM     50  C   UNL A   1      47.998  26.921  30.504  1.00  0.00     0.049 A 
ATOM     51  N   UNL A   1      48.166  29.531  31.998  1.00  0.00    -0.248 NA
ATOM     52  C   UNL A   1      49.969  28.664  33.200  1.00  0.00     0.031 C 
ATOM     53  C   UNL A   1      47.863  25.673  29.754  1.00  0.00     0.029 A 
ATOM     54  N   UNL A   1      47.021  27.735  29.983  1.00  0.00    -0.354 N 
ATOM     55  C   UNL A   1      48.604  30.478  32.916  1.00  0.00     0.074 A 
ATOM     56  C   UNL A   1      49.703  29.883  33.645  1.00  0.00     0.031 C 
ATOM     57  C   UNL A   1      46.836  25.793  28.892  1.00  0.00     0.029 A 
ATOM     58  C   UNL A   1      46.221  27.110  29.055  1.00  0.00     0.049 A 
ATOM     59  H   UNL A   1      46.906  28.677  30.247  1.00  0.00     0.167 HD
ATOM     60  C   UNL A   1      48.135  31.730  33.131  1.00  0.00     0.034 A 
ATOM     61  C   UNL A   1      45.102  27.538  28.437  1.00  0.00     0.034 A 
ATOM     62  C   UNL A   1      47.054  32.327  32.396  1.00  0.00     0.049 A 
ATOM     63  C   UNL A   1      44.579  28.924  28.728  1.00  0.00     0.074 A 
ATOM     64  C   UNL A   1      46.552  33.611  32.499  1.00  0.00     0.029 A 
ATOM     65  N   UNL A   1      46.291  31.676  31.439  1.00  0.00    -0.354 N 
ATOM     66  N   UNL A   1      45.078  29.852  29.506  1.00  0.00    -0.248 NA
ATOM     67  C   UNL A   1      43.347  29.329  28.031  1.00  0.00     0.031 C 
ATOM     68  C   UNL A   1      45.456  33.724  31.639  1.00  0.00     0.029 A 
ATOM     69  C   UNL A   1      45.306  32.523  30.963  1.00  0.00     0.049 A 
ATOM     70  H   UNL A   1      46.430  30.748  31.141  1.00  0.00     0.167 HD
ATOM     71  C   UNL A   1      44.250  30.961  29.361  1.00  0.00     0.074 A 
ATOM     72  C   UNL A   1      43.226  30.596  28.404  1.00  0.00     0.031 C 
ATOM     73  C   UNL A   1      44.323  32.171  29.971  1.00  0.00     0.034 A 
BRANCH  60  74
ATOM     74  C   UNL A   1      48.787  32.548  34.215  1.00  0.00     0.023 A 
ATOM     75  C   UNL A   1      49.886  33.375  33.909  1.00  0.00     0.012 A 
ATOM     76  C   UNL A   1      48.261  32.549  35.521  1.00  0.00     0.148 A 
ATOM     77  C   UNL A   1      50.469  34.171  34.895  1.00  0.00     0.002 A 
ATOM     78  C   UNL A   1      48.816  33.381  36.486  1.00  0.00     0.091 A 
ATOM     79  F   UNL A   1      47.228  31.739  35.796  1.00  0.00    -0.205 F 
ATOM     80  C   UNL A   1      49.928  34.182  36.178  1.00  0.00     0.022 A 
BRANCH  78  81
ATOM     81  S   UNL A   1      48.139  33.529  38.143  1.00  0.00     0.127 S 
ATOM     82  O   UNL A   1      49.050  34.500  38.749  1.00  0.00    -0.237 OA
ATOM     83  O   UNL A   1      46.793  34.041  37.877  1.00  0.00    -0.237 OA
ATOM     84  O   UNL A   1      48.181  32.193  38.719  1.00  0.00    -0.744 OA
ENDBRANCH  78  81
ENDBRANCH  60  74
BRANCH  61  85
ATOM     85  C   UNL A   1      44.392  26.658  27.463  1.00  0.00     0.023 A 
ATOM     86  C   UNL A   1      44.624  26.828  26.083  1.00  0.00     0.012 A 
ATOM     87  C   UNL A   1      43.478  25.675  27.889  1.00  0.00     0.148 A 
ATOM     88  C   UNL A   1      43.929  26.063  25.145  1.00  0.00     0.002 A 
ATOM     89  C   UNL A   1      42.831  24.878  26.951  1.00  0.00     0.091 A 
ATOM     90  F   UNL A   1      43.257  25.541  29.204  1.00  0.00    -0.205 F 
ATOM     91  C   UNL A   1      43.040  25.083  25.578  1.00  0.00     0.022 A 
BRANCH  89  92
ATOM     92  S   UNL A   1      41.755  23.517  27.416  1.00  0.00     0.127 S 
ATOM     93  O   UNL A   1      42.595  22.778  28.354  1.00  0.00    -0.237 OA
ATOM     94  O   UNL A   1      40.627  24.223  28.024  1.00  0.00    -0.237 OA
ATOM     95  O   UNL A   1      41.436  22.824  26.175  1.00  0.00    -0.744 OA
ENDBRANCH  89  92
ENDBRANCH  61  85
BRANCH  73  96
ATOM     96  C   UNL A   1      43.303  33.217  29.594  1.00  0.00     0.023 A 
ATOM     97  C   UNL A   1      42.154  33.404  30.387  1.00  0.00     0.012 A 
ATOM     98  C   UNL A   1      43.527  34.069  28.493  1.00  0.00     0.148 A 
ATOM     99  C   UNL A   1      41.225  34.396  30.068  1.00  0.00     0.002 A 
ATOM    100  C   UNL A   1      42.625  35.089  28.213  1.00  0.00     0.091 A 
ATOM    101  F   UNL A   1      44.619  33.869  27.740  1.00  0.00    -0.205 F 
ATOM    102  C   UNL A   1      41.466  35.244  28.990  1.00  0.00     0.022 A 
BRANCH 100 103
ATOM    103  S   UNL A   1      42.902  36.293  26.908  1.00  0.00     0.127 S 
ATOM    104  O   UNL A   1      44.225  36.810  27.256  1.00  0.00    -0.237 OA
ATOM    105  O   UNL A   1      42.869  35.459  25.706  1.00  0.00    -0.237 OA
ATOM    106  O   UNL A   1      41.812  37.254  27.007  1.00  0.00    -0.744 OA
ENDBRANCH 100 103
ENDBRANCH  73  96
ENDBRANCH  47  48
ENDBRANCH  40  42
ENDBRANCH  39  40
ENDBRANCH  38  39
ENDBRANCH  37  38
ENDBRANCH  36  37
ENDBRANCH  35  36
ENDBRANCH   1  35
TORSDOF 25
ENDMDL
