MODEL 1
REMARK VINA RESULT:      -8.8      0.000      0.000
REMARK SMILES C[C@@](NC(=O)CSCc1ccccc1)(C(=O)OCCOCCOCCOC(=O)c1ccc(-c2c3nc(c(-c4cccc(S(=O)(=O)[O-])c4F)c4ccc([nH]4)c(-c4cccc(S(=O)(=O)[O-])c4F)c4nc(c(-c5cccc(S(=O)(=O)[O-])c5F)c5ccc2[nH]5)C=C4)C=C3)cc1)C1CC1
REMARK SMILES IDX 21 1 20 2 19 3 18 4 17 5 15 6 16 7 2 8 1 9 3 10 4 11 5 13
REMARK SMILES IDX 6 14 7 15 8 16 9 17 10 18 14 19 11 20 13 21 12 22 92 23
REMARK SMILES IDX 93 24 94 25 22 26 23 27 24 28 25 29 26 30 27 31 28 32 29 33
REMARK SMILES IDX 30 34 91 35 31 36 90 37 32 38 33 39 34 40 84 41 35 42 89 43
REMARK SMILES IDX 83 44 85 45 36 46 88 47 82 48 81 49 37 51 69 52 49 53 68 54
REMARK SMILES IDX 50 55 53 56 67 57 86 58 51 59 52 60 66 62 87 63 54 64 38 65
REMARK SMILES IDX 39 66 47 67 40 68 42 69 48 70 41 71 43 72 44 73 45 74 46 75
REMARK SMILES IDX 70 76 71 77 79 78 72 79 74 80 80 81 73 82 75 83 76 84 77 85
REMARK SMILES IDX 78 86 55 87 56 88 64 89 57 90 59 91 65 92 58 93 60 94 61 95
REMARK SMILES IDX 62 96 63 97
REMARK H PARENT 3 12 85 50 53 61
REMARK Flexibility Score: inf
ROOT
ATOM      1  C   UNL A   1      33.829  32.646  27.999  1.00  0.00     0.188 C 
ENDROOT
BRANCH   1   2
ATOM      2  O   UNL A   1      33.918  31.260  27.708  1.00  0.00    -0.376 OA
BRANCH   2   3
ATOM      3  C   UNL A   1      32.749  30.611  27.215  1.00  0.00     0.202 C 
BRANCH   3   4
ATOM      4  C   UNL A   1      32.702  29.079  27.250  1.00  0.00     0.261 C 
BRANCH   4   5
ATOM      5  O   UNL A   1      32.017  28.526  26.105  1.00  0.00    -0.461 OA
BRANCH   5   6
ATOM      6  C   UNL A   1      32.800  28.052  25.102  1.00  0.00     0.331 C 
ATOM      7  O   UNL A   1      33.439  28.788  24.354  1.00  0.00    -0.249 OA
BRANCH   6   8
ATOM      8  C   UNL A   1      32.692  26.496  24.890  1.00  0.00     0.138 C 
ATOM      9  C   UNL A   1      33.980  25.702  24.569  1.00  0.00     0.048 C 
BRANCH   8  10
ATOM     10  N   UNL A   1      32.114  25.913  26.130  1.00  0.00    -0.340 N 
ATOM     11  C   UNL A   1      32.059  24.606  26.524  1.00  0.00     0.230 C 
ATOM     12  H   UNL A   1      31.715  26.560  26.755  1.00  0.00     0.164 HD
ATOM     13  O   UNL A   1      31.146  24.267  27.284  1.00  0.00    -0.274 OA
BRANCH  11  14
ATOM     14  C   UNL A   1      33.125  23.603  26.109  1.00  0.00     0.169 C 
BRANCH  14  15
ATOM     15  S   UNL A   1      32.489  22.295  25.019  1.00  0.00    -0.147 SA
BRANCH  15  16
ATOM     16  C   UNL A   1      33.998  21.333  24.716  1.00  0.00     0.105 C 
BRANCH  16  17
ATOM     17  C   UNL A   1      33.635  19.927  24.326  1.00  0.00    -0.038 A 
ATOM     18  C   UNL A   1      32.491  19.678  23.553  1.00  0.00     0.004 A 
ATOM     19  C   UNL A   1      34.513  18.871  24.605  1.00  0.00     0.004 A 
ATOM     20  C   UNL A   1      32.255  18.405  23.036  1.00  0.00     0.000 A 
ATOM     21  C   UNL A   1      34.293  17.609  24.061  1.00  0.00     0.000 A 
ATOM     22  C   UNL A   1      33.166  17.378  23.274  1.00  0.00     0.000 A 
ENDBRANCH  16  17
ENDBRANCH  15  16
ENDBRANCH  14  15
ENDBRANCH  11  14
ENDBRANCH   8  10
BRANCH   8  23
ATOM     23  C   UNL A   1      31.701  26.152  23.753  1.00  0.00     0.026 C 
ATOM     24  C   UNL A   1      30.521  27.024  23.394  1.00  0.00     0.007 C 
ATOM     25  C   UNL A   1      31.672  26.898  22.433  1.00  0.00     0.007 C 
ENDBRANCH   8  23
ENDBRANCH   6   8
ENDBRANCH   5   6
ENDBRANCH   4   5
ENDBRANCH   3   4
ENDBRANCH   2   3
ENDBRANCH   1   2
BRANCH   1  26
ATOM     26  C   UNL A   1      34.327  33.113  29.374  1.00  0.00     0.188 C 
BRANCH  26  27
ATOM     27  O   UNL A   1      35.043  32.206  30.173  1.00  0.00    -0.376 OA
BRANCH  27  28
ATOM     28  C   UNL A   1      34.954  32.266  31.586  1.00  0.00     0.202 C 
BRANCH  28  29
ATOM     29  C   UNL A   1      36.050  31.834  32.586  1.00  0.00     0.261 C 
BRANCH  29  30
ATOM     30  O   UNL A   1      36.800  30.651  32.307  1.00  0.00    -0.460 OA
BRANCH  30  31
ATOM     31  C   UNL A   1      37.933  30.452  33.037  1.00  0.00     0.338 C 
ATOM     32  O   UNL A   1      38.042  29.819  34.055  1.00  0.00    -0.246 OA
BRANCH  31  33
ATOM     33  C   UNL A   1      39.066  30.913  32.185  1.00  0.00     0.060 A 
ATOM     34  C   UNL A   1      40.251  31.325  32.818  1.00  0.00     0.016 A 
ATOM     35  C   UNL A   1      39.008  30.820  30.794  1.00  0.00     0.016 A 
ATOM     36  C   UNL A   1      41.380  31.643  32.058  1.00  0.00     0.010 A 
ATOM     37  C   UNL A   1      40.128  31.170  30.035  1.00  0.00     0.010 A 
ATOM     38  C   UNL A   1      41.312  31.599  30.661  1.00  0.00    -0.014 A 
BRANCH  38  39
ATOM     39  C   UNL A   1      42.381  32.208  29.834  1.00  0.00     0.031 A 
ATOM     40  C   UNL A   1      43.561  31.346  29.481  1.00  0.00     0.074 A 
ATOM     41  C   UNL A   1      42.354  33.502  29.467  1.00  0.00     0.049 A 
ATOM     42  N   UNL A   1      44.682  31.673  28.897  1.00  0.00    -0.248 NA
ATOM     43  C   UNL A   1      43.464  29.922  29.848  1.00  0.00     0.031 C 
ATOM     44  C   UNL A   1      41.267  34.441  29.736  1.00  0.00     0.029 A 
ATOM     45  N   UNL A   1      43.306  34.262  28.827  1.00  0.00    -0.354 N 
ATOM     46  C   UNL A   1      45.442  30.512  28.870  1.00  0.00     0.074 A 
ATOM     47  C   UNL A   1      44.650  29.466  29.480  1.00  0.00     0.031 C 
ATOM     48  C   UNL A   1      41.635  35.664  29.312  1.00  0.00     0.029 A 
ATOM     49  C   UNL A   1      42.995  35.602  28.778  1.00  0.00     0.049 A 
ATOM     50  H   UNL A   1      44.129  33.883  28.443  1.00  0.00     0.167 HD
ATOM     51  C   UNL A   1      46.690  30.329  28.385  1.00  0.00     0.034 A 
ATOM     52  C   UNL A   1      43.742  36.658  28.390  1.00  0.00     0.034 A 
ATOM     53  C   UNL A   1      47.475  31.360  27.767  1.00  0.00     0.049 A 
ATOM     54  C   UNL A   1      45.150  36.430  27.888  1.00  0.00     0.074 A 
ATOM     55  C   UNL A   1      48.721  31.250  27.178  1.00  0.00     0.029 A 
ATOM     56  N   UNL A   1      47.107  32.692  27.685  1.00  0.00    -0.354 N 
ATOM     57  N   UNL A   1      45.800  35.303  27.726  1.00  0.00    -0.248 NA
ATOM     58  C   UNL A   1      45.922  37.622  27.498  1.00  0.00     0.031 C 
ATOM     59  C   UNL A   1      49.126  32.525  26.775  1.00  0.00     0.029 A 
ATOM     60  C   UNL A   1      48.116  33.421  27.083  1.00  0.00     0.049 A 
ATOM     61  H   UNL A   1      46.254  33.064  28.007  1.00  0.00     0.167 HD
ATOM     62  C   UNL A   1      47.038  35.646  27.189  1.00  0.00     0.074 A 
ATOM     63  C   UNL A   1      47.041  37.084  27.030  1.00  0.00     0.031 C 
ATOM     64  C   UNL A   1      48.085  34.845  26.873  1.00  0.00     0.034 A 
BRANCH  51  65
ATOM     65  C   UNL A   1      47.293  28.958  28.502  1.00  0.00     0.023 A 
ATOM     66  C   UNL A   1      48.025  28.611  29.654  1.00  0.00     0.012 A 
ATOM     67  C   UNL A   1      47.075  27.996  27.497  1.00  0.00     0.148 A 
ATOM     68  C   UNL A   1      48.548  27.327  29.797  1.00  0.00     0.002 A 
ATOM     69  C   UNL A   1      47.562  26.708  27.667  1.00  0.00     0.091 A 
ATOM     70  F   UNL A   1      46.401  28.361  26.398  1.00  0.00    -0.205 F 
ATOM     71  C   UNL A   1      48.305  26.374  28.811  1.00  0.00     0.022 A 
BRANCH  69  72
ATOM     72  S   UNL A   1      47.239  25.390  26.492  1.00  0.00     0.127 S 
ATOM     73  O   UNL A   1      47.996  24.283  27.076  1.00  0.00    -0.237 OA
ATOM     74  O   UNL A   1      45.785  25.248  26.582  1.00  0.00    -0.237 OA
ATOM     75  O   UNL A   1      47.726  25.866  25.206  1.00  0.00    -0.744 OA
ENDBRANCH  69  72
ENDBRANCH  51  65
BRANCH  52  76
ATOM     76  C   UNL A   1      43.193  38.043  28.471  1.00  0.00     0.023 A 
ATOM     77  C   UNL A   1      42.430  38.554  27.403  1.00  0.00     0.012 A 
ATOM     78  C   UNL A   1      43.449  38.866  29.585  1.00  0.00     0.148 A 
ATOM     79  C   UNL A   1      41.963  39.869  27.426  1.00  0.00     0.002 A 
ATOM     80  C   UNL A   1      42.933  40.156  29.627  1.00  0.00     0.091 A 
ATOM     81  F   UNL A   1      44.199  38.374  30.581  1.00  0.00    -0.205 F 
ATOM     82  C   UNL A   1      42.206  40.667  28.540  1.00  0.00     0.022 A 
BRANCH  80  83
ATOM     83  S   UNL A   1      43.098  41.212  31.072  1.00  0.00     0.127 S 
ATOM     84  O   UNL A   1      42.979  42.544  30.485  1.00  0.00    -0.237 OA
ATOM     85  O   UNL A   1      41.957  40.793  31.885  1.00  0.00    -0.237 OA
ATOM     86  O   UNL A   1      44.396  40.885  31.646  1.00  0.00    -0.744 OA
ENDBRANCH  80  83
ENDBRANCH  52  76
BRANCH  64  87
ATOM     87  C   UNL A   1      49.322  35.482  26.289  1.00  0.00     0.023 A 
ATOM     88  C   UNL A   1      49.374  35.776  24.913  1.00  0.00     0.012 A 
ATOM     89  C   UNL A   1      50.380  35.892  27.125  1.00  0.00     0.148 A 
ATOM     90  C   UNL A   1      50.471  36.448  24.374  1.00  0.00     0.002 A 
ATOM     91  C   UNL A   1      51.447  36.605  26.589  1.00  0.00     0.091 A 
ATOM     92  F   UNL A   1      50.315  35.593  28.431  1.00  0.00    -0.205 F 
ATOM     93  C   UNL A   1      51.498  36.874  25.212  1.00  0.00     0.022 A 
BRANCH  91  94
ATOM     94  S   UNL A   1      52.766  37.282  27.605  1.00  0.00     0.127 S 
ATOM     95  O   UNL A   1      53.599  37.948  26.604  1.00  0.00    -0.237 OA
ATOM     96  O   UNL A   1      52.038  38.189  28.493  1.00  0.00    -0.237 OA
ATOM     97  O   UNL A   1      53.386  36.146  28.272  1.00  0.00    -0.744 OA
ENDBRANCH  91  94
ENDBRANCH  64  87
ENDBRANCH  38  39
ENDBRANCH  31  33
ENDBRANCH  30  31
ENDBRANCH  29  30
ENDBRANCH  28  29
ENDBRANCH  27  28
ENDBRANCH  26  27
ENDBRANCH   1  26
TORSDOF 26
ENDMDL
MODEL 2
REMARK VINA RESULT:      -8.5      2.432      3.306
REMARK SMILES C[C@@](NC(=O)CSCc1ccccc1)(C(=O)OCCOCCOCCOC(=O)c1ccc(-c2c3nc(c(-c4cccc(S(=O)(=O)[O-])c4F)c4ccc([nH]4)c(-c4cccc(S(=O)(=O)[O-])c4F)c4nc(c(-c5cccc(S(=O)(=O)[O-])c5F)c5ccc2[nH]5)C=C4)C=C3)cc1)C1CC1
REMARK SMILES IDX 21 1 20 2 19 3 18 4 17 5 15 6 16 7 2 8 1 9 3 10 4 11 5 13
REMARK SMILES IDX 6 14 7 15 8 16 9 17 10 18 14 19 11 20 13 21 12 22 92 23
REMARK SMILES IDX 93 24 94 25 22 26 23 27 24 28 25 29 26 30 27 31 28 32 29 33
REMARK SMILES IDX 30 34 91 35 31 36 90 37 32 38 33 39 34 40 84 41 35 42 89 43
REMARK SMILES IDX 83 44 85 45 36 46 88 47 82 48 81 49 37 51 69 52 49 53 68 54
REMARK SMILES IDX 50 55 53 56 67 57 86 58 51 59 52 60 66 62 87 63 54 64 38 65
REMARK SMILES IDX 39 66 47 67 40 68 42 69 48 70 41 71 43 72 44 73 45 74 46 75
REMARK SMILES IDX 70 76 71 77 79 78 72 79 74 80 80 81 73 82 75 83 76 84 77 85
REMARK SMILES IDX 78 86 55 87 56 88 64 89 57 90 59 91 65 92 58 93 60 94 61 95
REMARK SMILES IDX 62 96 63 97
REMARK H PARENT 3 12 85 50 53 61
REMARK Flexibility Score: inf
ROOT
ATOM      1  C   UNL A   1      34.984  30.205  28.157  1.00  0.00     0.188 C 
ENDROOT
BRANCH   1   2
ATOM      2  O   UNL A   1      34.350  29.697  26.994  1.00  0.00    -0.376 OA
BRANCH   2   3
ATOM      3  C   UNL A   1      33.632  28.471  27.114  1.00  0.00     0.202 C 
BRANCH   3   4
ATOM      4  C   UNL A   1      32.152  28.534  27.507  1.00  0.00     0.261 C 
BRANCH   4   5
ATOM      5  O   UNL A   1      31.477  27.274  27.301  1.00  0.00    -0.461 OA
BRANCH   5   6
ATOM      6  C   UNL A   1      31.238  26.918  26.012  1.00  0.00     0.331 C 
ATOM      7  O   UNL A   1      30.666  27.657  25.215  1.00  0.00    -0.249 OA
BRANCH   6   8
ATOM      8  C   UNL A   1      31.619  25.428  25.682  1.00  0.00     0.138 C 
ATOM      9  C   UNL A   1      33.114  25.070  25.501  1.00  0.00     0.048 C 
BRANCH   8  10
ATOM     10  N   UNL A   1      31.094  24.575  26.780  1.00  0.00    -0.340 N 
ATOM     11  C   UNL A   1      30.477  23.357  26.708  1.00  0.00     0.230 C 
ATOM     12  H   UNL A   1      31.205  24.939  27.687  1.00  0.00     0.164 HD
ATOM     13  O   UNL A   1      29.693  23.049  27.611  1.00  0.00    -0.274 OA
BRANCH  11  14
ATOM     14  C   UNL A   1      30.794  22.369  25.595  1.00  0.00     0.169 C 
BRANCH  14  15
ATOM     15  S   UNL A   1      32.327  21.437  25.884  1.00  0.00    -0.147 SA
BRANCH  15  16
ATOM     16  C   UNL A   1      33.072  21.473  24.229  1.00  0.00     0.105 C 
BRANCH  16  17
ATOM     17  C   UNL A   1      34.554  21.697  24.342  1.00  0.00    -0.038 A 
ATOM     18  C   UNL A   1      35.346  20.826  25.106  1.00  0.00     0.004 A 
ATOM     19  C   UNL A   1      35.178  22.686  23.570  1.00  0.00     0.004 A 
ATOM     20  C   UNL A   1      36.737  20.920  25.063  1.00  0.00     0.000 A 
ATOM     21  C   UNL A   1      36.566  22.757  23.503  1.00  0.00     0.000 A 
ATOM     22  C   UNL A   1      37.344  21.871  24.246  1.00  0.00     0.000 A 
ENDBRANCH  16  17
ENDBRANCH  15  16
ENDBRANCH  14  15
ENDBRANCH  11  14
ENDBRANCH   8  10
BRANCH   8  23
ATOM     23  C   UNL A   1      30.919  24.943  24.390  1.00  0.00     0.026 C 
ATOM     24  C   UNL A   1      30.749  25.812  23.167  1.00  0.00     0.007 C 
ATOM     25  C   UNL A   1      31.675  24.628  23.114  1.00  0.00     0.007 C 
ENDBRANCH   8  23
ENDBRANCH   6   8
ENDBRANCH   5   6
ENDBRANCH   4   5
ENDBRANCH   3   4
ENDBRANCH   2   3
ENDBRANCH   1   2
BRANCH   1  26
ATOM     26  C   UNL A   1      36.473  29.884  28.349  1.00  0.00     0.188 C 
BRANCH  26  27
ATOM     27  O   UNL A   1      37.006  29.917  29.648  1.00  0.00    -0.376 OA
BRANCH  27  28
ATOM     28  C   UNL A   1      37.057  31.132  30.374  1.00  0.00     0.202 C 
BRANCH  28  29
ATOM     29  C   UNL A   1      37.556  31.304  31.826  1.00  0.00     0.261 C 
BRANCH  29  30
ATOM     30  O   UNL A   1      38.286  32.485  32.161  1.00  0.00    -0.460 OA
BRANCH  30  31
ATOM     31  C   UNL A   1      37.994  33.613  31.454  1.00  0.00     0.338 C 
ATOM     32  O   UNL A   1      36.998  34.285  31.531  1.00  0.00    -0.246 OA
BRANCH  31  33
ATOM     33  C   UNL A   1      39.261  34.028  30.787  1.00  0.00     0.060 A 
ATOM     34  C   UNL A   1      39.201  34.461  29.451  1.00  0.00     0.016 A 
ATOM     35  C   UNL A   1      40.459  34.109  31.498  1.00  0.00     0.016 A 
ATOM     36  C   UNL A   1      40.339  34.979  28.828  1.00  0.00     0.010 A 
ATOM     37  C   UNL A   1      41.604  34.596  30.862  1.00  0.00     0.010 A 
ATOM     38  C   UNL A   1      41.554  35.016  29.520  1.00  0.00    -0.014 A 
BRANCH  38  39
ATOM     39  C   UNL A   1      42.825  35.275  28.802  1.00  0.00     0.031 A 
ATOM     40  C   UNL A   1      43.734  34.104  28.555  1.00  0.00     0.074 A 
ATOM     41  C   UNL A   1      43.206  36.516  28.446  1.00  0.00     0.049 A 
ATOM     42  N   UNL A   1      44.951  34.084  28.082  1.00  0.00    -0.248 NA
ATOM     43  C   UNL A   1      43.197  32.775  28.899  1.00  0.00     0.031 C 
ATOM     44  C   UNL A   1      42.416  37.732  28.619  1.00  0.00     0.029 A 
ATOM     45  N   UNL A   1      44.392  36.957  27.905  1.00  0.00    -0.354 N 
ATOM     46  C   UNL A   1      45.343  32.752  28.116  1.00  0.00     0.074 A 
ATOM     47  C   UNL A   1      44.231  31.990  28.640  1.00  0.00     0.031 C 
ATOM     48  C   UNL A   1      43.159  38.790  28.243  1.00  0.00     0.029 A 
ATOM     49  C   UNL A   1      44.486  38.328  27.838  1.00  0.00     0.049 A 
ATOM     50  H   UNL A   1      45.102  36.350  27.597  1.00  0.00     0.167 HD
ATOM     51  C   UNL A   1      46.525  32.209  27.749  1.00  0.00     0.034 A 
ATOM     52  C   UNL A   1      45.539  39.117  27.531  1.00  0.00     0.034 A 
ATOM     53  C   UNL A   1      47.627  32.959  27.217  1.00  0.00     0.049 A 
ATOM     54  C   UNL A   1      46.861  38.484  27.162  1.00  0.00     0.074 A 
ATOM     55  C   UNL A   1      48.838  32.483  26.747  1.00  0.00     0.029 A 
ATOM     56  N   UNL A   1      47.668  34.338  27.113  1.00  0.00    -0.354 N 
ATOM     57  N   UNL A   1      47.170  37.215  27.053  1.00  0.00    -0.248 NA
ATOM     58  C   UNL A   1      47.976  39.396  26.857  1.00  0.00     0.031 C 
ATOM     59  C   UNL A   1      49.628  33.580  26.395  1.00  0.00     0.029 A 
ATOM     60  C   UNL A   1      48.895  34.735  26.614  1.00  0.00     0.049 A 
ATOM     61  H   UNL A   1      46.932  34.946  27.356  1.00  0.00     0.167 HD
ATOM     62  C   UNL A   1      48.499  37.177  26.638  1.00  0.00     0.074 A 
ATOM     63  C   UNL A   1      48.932  38.551  26.492  1.00  0.00     0.031 C 
ATOM     64  C   UNL A   1      49.296  36.103  26.415  1.00  0.00     0.034 A 
BRANCH  51  65
ATOM     65  C   UNL A   1      46.694  30.725  27.911  1.00  0.00     0.023 A 
ATOM     66  C   UNL A   1      47.017  30.191  29.174  1.00  0.00     0.012 A 
ATOM     67  C   UNL A   1      46.465  29.860  26.824  1.00  0.00     0.148 A 
ATOM     68  C   UNL A   1      47.128  28.812  29.348  1.00  0.00     0.002 A 
ATOM     69  C   UNL A   1      46.535  28.487  27.016  1.00  0.00     0.091 A 
ATOM     70  F   UNL A   1      46.187  30.396  25.628  1.00  0.00    -0.205 F 
ATOM     71  C   UNL A   1      46.875  27.962  28.274  1.00  0.00     0.022 A 
BRANCH  69  72
ATOM     72  S   UNL A   1      46.151  27.308  25.718  1.00  0.00     0.127 S 
ATOM     73  O   UNL A   1      47.092  27.708  24.671  1.00  0.00    -0.237 OA
ATOM     74  O   UNL A   1      46.461  26.032  26.361  1.00  0.00    -0.237 OA
ATOM     75  O   UNL A   1      44.745  27.505  25.396  1.00  0.00    -0.744 OA
ENDBRANCH  69  72
ENDBRANCH  51  65
BRANCH  52  76
ATOM     76  C   UNL A   1      45.407  40.603  27.572  1.00  0.00     0.023 A 
ATOM     77  C   UNL A   1      45.481  41.276  28.807  1.00  0.00     0.012 A 
ATOM     78  C   UNL A   1      45.179  41.349  26.398  1.00  0.00     0.148 A 
ATOM     79  C   UNL A   1      45.295  42.657  28.877  1.00  0.00     0.002 A 
ATOM     80  C   UNL A   1      45.051  42.731  26.468  1.00  0.00     0.091 A 
ATOM     81  F   UNL A   1      45.085  40.689  25.234  1.00  0.00    -0.205 F 
ATOM     82  C   UNL A   1      45.089  43.386  27.709  1.00  0.00     0.022 A 
BRANCH  80  83
ATOM     83  S   UNL A   1      44.899  43.758  25.002  1.00  0.00     0.127 S 
ATOM     84  O   UNL A   1      45.942  43.208  24.141  1.00  0.00    -0.237 OA
ATOM     85  O   UNL A   1      43.530  43.473  24.573  1.00  0.00    -0.237 OA
ATOM     86  O   UNL A   1      45.110  45.125  25.461  1.00  0.00    -0.744 OA
ENDBRANCH  80  83
ENDBRANCH  52  76
BRANCH  64  87
ATOM     87  C   UNL A   1      50.712  36.346  25.955  1.00  0.00     0.023 A 
ATOM     88  C   UNL A   1      50.995  36.440  24.580  1.00  0.00     0.012 A 
ATOM     89  C   UNL A   1      51.736  36.596  26.891  1.00  0.00     0.148 A 
ATOM     90  C   UNL A   1      52.281  36.756  24.140  1.00  0.00     0.002 A 
ATOM     91  C   UNL A   1      53.003  36.959  26.447  1.00  0.00     0.091 A 
ATOM     92  F   UNL A   1      51.448  36.491  28.197  1.00  0.00    -0.205 F 
ATOM     93  C   UNL A   1      53.279  37.028  25.073  1.00  0.00     0.022 A 
BRANCH  91  94
ATOM     94  S   UNL A   1      54.325  37.426  27.571  1.00  0.00     0.127 S 
ATOM     95  O   UNL A   1      54.086  36.529  28.701  1.00  0.00    -0.237 OA
ATOM     96  O   UNL A   1      55.521  37.115  26.788  1.00  0.00    -0.237 OA
ATOM     97  O   UNL A   1      54.135  38.842  27.853  1.00  0.00    -0.744 OA
ENDBRANCH  91  94
ENDBRANCH  64  87
ENDBRANCH  38  39
ENDBRANCH  31  33
ENDBRANCH  30  31
ENDBRANCH  29  30
ENDBRANCH  28  29
ENDBRANCH  27  28
ENDBRANCH  26  27
ENDBRANCH   1  26
TORSDOF 26
ENDMDL
MODEL 3
REMARK VINA RESULT:      -8.4      3.430      8.980
REMARK SMILES C[C@@](NC(=O)CSCc1ccccc1)(C(=O)OCCOCCOCCOC(=O)c1ccc(-c2c3nc(c(-c4cccc(S(=O)(=O)[O-])c4F)c4ccc([nH]4)c(-c4cccc(S(=O)(=O)[O-])c4F)c4nc(c(-c5cccc(S(=O)(=O)[O-])c5F)c5ccc2[nH]5)C=C4)C=C3)cc1)C1CC1
REMARK SMILES IDX 21 1 20 2 19 3 18 4 17 5 15 6 16 7 2 8 1 9 3 10 4 11 5 13
REMARK SMILES IDX 6 14 7 15 8 16 9 17 10 18 14 19 11 20 13 21 12 22 92 23
REMARK SMILES IDX 93 24 94 25 22 26 23 27 24 28 25 29 26 30 27 31 28 32 29 33
REMARK SMILES IDX 30 34 91 35 31 36 90 37 32 38 33 39 34 40 84 41 35 42 89 43
REMARK SMILES IDX 83 44 85 45 36 46 88 47 82 48 81 49 37 51 69 52 49 53 68 54
REMARK SMILES IDX 50 55 53 56 67 57 86 58 51 59 52 60 66 62 87 63 54 64 38 65
REMARK SMILES IDX 39 66 47 67 40 68 42 69 48 70 41 71 43 72 44 73 45 74 46 75
REMARK SMILES IDX 70 76 71 77 79 78 72 79 74 80 80 81 73 82 75 83 76 84 77 85
REMARK SMILES IDX 78 86 55 87 56 88 64 89 57 90 59 91 65 92 58 93 60 94 61 95
REMARK SMILES IDX 62 96 63 97
REMARK H PARENT 3 12 85 50 53 61
REMARK Flexibility Score: inf
ROOT
ATOM      1  C   UNL A   1      40.744  24.206  26.952  1.00  0.00     0.188 C 
ENDROOT
BRANCH   1   2
ATOM      2  O   UNL A   1      39.739  23.277  27.327  1.00  0.00    -0.376 OA
BRANCH   2   3
ATOM      3  C   UNL A   1      38.924  22.731  26.293  1.00  0.00     0.202 C 
BRANCH   3   4
ATOM      4  C   UNL A   1      37.798  23.600  25.723  1.00  0.00     0.261 C 
BRANCH   4   5
ATOM      5  O   UNL A   1      36.601  22.839  25.453  1.00  0.00    -0.461 OA
BRANCH   5   6
ATOM      6  C   UNL A   1      36.025  23.027  24.237  1.00  0.00     0.331 C 
ATOM      7  O   UNL A   1      36.674  23.295  23.229  1.00  0.00    -0.249 OA
BRANCH   6   8
ATOM      8  C   UNL A   1      34.452  23.021  24.270  1.00  0.00     0.138 C 
ATOM      9  C   UNL A   1      33.685  22.675  22.970  1.00  0.00     0.048 C 
BRANCH   8  10
ATOM     10  N   UNL A   1      34.028  22.040  25.303  1.00  0.00    -0.340 N 
ATOM     11  C   UNL A   1      33.461  22.264  26.527  1.00  0.00     0.230 C 
ATOM     12  H   UNL A   1      34.175  21.094  25.074  1.00  0.00     0.164 HD
ATOM     13  O   UNL A   1      33.638  21.421  27.412  1.00  0.00    -0.274 OA
BRANCH  11  14
ATOM     14  C   UNL A   1      32.575  23.474  26.783  1.00  0.00     0.169 C 
BRANCH  14  15
ATOM     15  S   UNL A   1      30.801  23.103  26.645  1.00  0.00    -0.147 SA
BRANCH  15  16
ATOM     16  C   UNL A   1      30.405  23.892  25.059  1.00  0.00     0.105 C 
BRANCH  16  17
ATOM     17  C   UNL A   1      30.573  25.381  25.176  1.00  0.00    -0.038 A 
ATOM     18  C   UNL A   1      30.970  25.957  26.392  1.00  0.00     0.004 A 
ATOM     19  C   UNL A   1      30.481  26.191  24.035  1.00  0.00     0.004 A 
ATOM     20  C   UNL A   1      31.305  27.309  26.454  1.00  0.00     0.000 A 
ATOM     21  C   UNL A   1      30.847  27.532  24.092  1.00  0.00     0.000 A 
ATOM     22  C   UNL A   1      31.264  28.089  25.300  1.00  0.00     0.000 A 
ENDBRANCH  16  17
ENDBRANCH  15  16
ENDBRANCH  14  15
ENDBRANCH  11  14
ENDBRANCH   8  10
BRANCH   8  23
ATOM     23  C   UNL A   1      33.895  24.391  24.726  1.00  0.00     0.026 C 
ATOM     24  C   UNL A   1      34.773  25.518  25.214  1.00  0.00     0.007 C 
ATOM     25  C   UNL A   1      34.047  25.655  23.903  1.00  0.00     0.007 C 
ENDBRANCH   8  23
ENDBRANCH   6   8
ENDBRANCH   5   6
ENDBRANCH   4   5
ENDBRANCH   3   4
ENDBRANCH   2   3
ENDBRANCH   1   2
BRANCH   1  26
ATOM     26  C   UNL A   1      42.156  23.657  26.704  1.00  0.00     0.188 C 
BRANCH  26  27
ATOM     27  O   UNL A   1      42.376  22.850  25.576  1.00  0.00    -0.376 OA
BRANCH  27  28
ATOM     28  C   UNL A   1      42.851  21.523  25.722  1.00  0.00     0.202 C 
BRANCH  28  29
ATOM     29  C   UNL A   1      44.257  21.013  25.337  1.00  0.00     0.261 C 
BRANCH  29  30
ATOM     30  O   UNL A   1      45.397  21.654  25.910  1.00  0.00    -0.460 OA
BRANCH  30  31
ATOM     31  C   UNL A   1      45.982  22.643  25.179  1.00  0.00     0.338 C 
ATOM     32  O   UNL A   1      46.366  22.579  24.040  1.00  0.00    -0.246 OA
BRANCH  31  33
ATOM     33  C   UNL A   1      45.790  23.904  25.952  1.00  0.00     0.060 A 
ATOM     34  C   UNL A   1      45.347  25.046  25.264  1.00  0.00     0.016 A 
ATOM     35  C   UNL A   1      45.920  23.926  27.342  1.00  0.00     0.016 A 
ATOM     36  C   UNL A   1      45.030  26.212  25.967  1.00  0.00     0.010 A 
ATOM     37  C   UNL A   1      45.635  25.103  28.039  1.00  0.00     0.010 A 
ATOM     38  C   UNL A   1      45.207  26.256  27.355  1.00  0.00    -0.014 A 
BRANCH  38  39
ATOM     39  C   UNL A   1      45.167  27.547  28.081  1.00  0.00     0.031 A 
ATOM     40  C   UNL A   1      43.840  27.997  28.624  1.00  0.00     0.074 A 
ATOM     41  C   UNL A   1      46.249  28.340  28.193  1.00  0.00     0.049 A 
ATOM     42  N   UNL A   1      43.509  29.138  29.167  1.00  0.00    -0.248 NA
ATOM     43  C   UNL A   1      42.733  27.029  28.533  1.00  0.00     0.031 C 
ATOM     44  C   UNL A   1      47.593  28.017  27.720  1.00  0.00     0.029 A 
ATOM     45  N   UNL A   1      46.366  29.612  28.703  1.00  0.00    -0.354 N 
ATOM     46  C   UNL A   1      42.151  29.044  29.436  1.00  0.00     0.074 A 
ATOM     47  C   UNL A   1      41.719  27.730  29.014  1.00  0.00     0.031 C 
ATOM     48  C   UNL A   1      48.389  29.086  27.913  1.00  0.00     0.029 A 
ATOM     49  C   UNL A   1      47.602  30.177  28.488  1.00  0.00     0.049 A 
ATOM     50  H   UNL A   1      45.636  30.073  29.175  1.00  0.00     0.167 HD
ATOM     51  C   UNL A   1      41.330  29.970  29.982  1.00  0.00     0.034 A 
ATOM     52  C   UNL A   1      48.031  31.441  28.688  1.00  0.00     0.034 A 
ATOM     53  C   UNL A   1      41.756  31.271  30.414  1.00  0.00     0.049 A 
ATOM     54  C   UNL A   1      47.082  32.467  29.264  1.00  0.00     0.074 A 
ATOM     55  C   UNL A   1      41.011  32.248  31.048  1.00  0.00     0.029 A 
ATOM     56  N   UNL A   1      43.026  31.788  30.230  1.00  0.00    -0.354 N 
ATOM     57  N   UNL A   1      45.840  32.319  29.655  1.00  0.00    -0.248 NA
ATOM     58  C   UNL A   1      47.602  33.834  29.441  1.00  0.00     0.031 C 
ATOM     59  C   UNL A   1      41.821  33.374  31.212  1.00  0.00     0.029 A 
ATOM     60  C   UNL A   1      43.079  33.084  30.711  1.00  0.00     0.049 A 
ATOM     61  H   UNL A   1      43.780  31.305  29.819  1.00  0.00     0.167 HD
ATOM     62  C   UNL A   1      45.443  33.559  30.152  1.00  0.00     0.074 A 
ATOM     63  C   UNL A   1      46.583  34.442  30.034  1.00  0.00     0.031 C 
ATOM     64  C   UNL A   1      44.237  33.937  30.644  1.00  0.00     0.034 A 
BRANCH  51  65
ATOM     65  C   UNL A   1      39.880  29.611  30.145  1.00  0.00     0.023 A 
ATOM     66  C   UNL A   1      39.441  28.995  31.332  1.00  0.00     0.012 A 
ATOM     67  C   UNL A   1      38.947  29.949  29.146  1.00  0.00     0.148 A 
ATOM     68  C   UNL A   1      38.090  28.702  31.516  1.00  0.00     0.002 A 
ATOM     69  C   UNL A   1      37.599  29.694  29.355  1.00  0.00     0.091 A 
ATOM     70  F   UNL A   1      39.397  30.509  28.014  1.00  0.00    -0.205 F 
ATOM     71  C   UNL A   1      37.170  29.063  30.534  1.00  0.00     0.022 A 
BRANCH  69  72
ATOM     72  S   UNL A   1      36.329  30.188  28.187  1.00  0.00     0.127 S 
ATOM     73  O   UNL A   1      35.155  29.496  28.719  1.00  0.00    -0.237 OA
ATOM     74  O   UNL A   1      36.308  31.641  28.355  1.00  0.00    -0.237 OA
ATOM     75  O   UNL A   1      36.782  29.731  26.881  1.00  0.00    -0.744 OA
ENDBRANCH  69  72
ENDBRANCH  51  65
BRANCH  52  76
ATOM     76  C   UNL A   1      49.426  31.832  28.330  1.00  0.00     0.023 A 
ATOM     77  C   UNL A   1      50.457  31.687  29.278  1.00  0.00     0.012 A 
ATOM     78  C   UNL A   1      49.731  32.376  27.065  1.00  0.00     0.148 A 
ATOM     79  C   UNL A   1      51.755  32.108  28.990  1.00  0.00     0.002 A 
ATOM     80  C   UNL A   1      51.038  32.740  26.764  1.00  0.00     0.091 A 
ATOM     81  F   UNL A   1      48.733  32.532  26.184  1.00  0.00    -0.205 F 
ATOM     82  C   UNL A   1      52.049  32.626  27.731  1.00  0.00     0.022 A 
BRANCH  80  83
ATOM     83  S   UNL A   1      51.525  33.307  25.130  1.00  0.00     0.127 S 
ATOM     84  O   UNL A   1      52.847  33.870  25.391  1.00  0.00    -0.237 OA
ATOM     85  O   UNL A   1      51.526  32.061  24.365  1.00  0.00    -0.237 OA
ATOM     86  O   UNL A   1      50.499  34.259  24.725  1.00  0.00    -0.744 OA
ENDBRANCH  80  83
ENDBRANCH  52  76
BRANCH  64  87
ATOM     87  C   UNL A   1      44.077  35.356  31.131  1.00  0.00     0.023 A 
ATOM     88  C   UNL A   1      44.312  35.662  32.484  1.00  0.00     0.012 A 
ATOM     89  C   UNL A   1      43.806  36.398  30.222  1.00  0.00     0.148 A 
ATOM     90  C   UNL A   1      44.258  36.982  32.932  1.00  0.00     0.002 A 
ATOM     91  C   UNL A   1      43.803  37.717  30.665  1.00  0.00     0.091 A 
ATOM     92  F   UNL A   1      43.574  36.084  28.939  1.00  0.00    -0.205 F 
ATOM     93  C   UNL A   1      44.018  38.008  32.021  1.00  0.00     0.022 A 
BRANCH  91  94
ATOM     94  S   UNL A   1      43.603  39.112  29.550  1.00  0.00     0.127 S 
ATOM     95  O   UNL A   1      44.897  39.135  28.867  1.00  0.00    -0.237 OA
ATOM     96  O   UNL A   1      42.480  38.683  28.716  1.00  0.00    -0.237 OA
ATOM     97  O   UNL A   1      43.326  40.267  30.393  1.00  0.00    -0.744 OA
ENDBRANCH  91  94
ENDBRANCH  64  87
ENDBRANCH  38  39
ENDBRANCH  31  33
ENDBRANCH  30  31
ENDBRANCH  29  30
ENDBRANCH  28  29
ENDBRANCH  27  28
ENDBRANCH  26  27
ENDBRANCH   1  26
TORSDOF 26
ENDMDL
