MODEL 1
REMARK VINA RESULT:     -10.8      0.000      0.000
REMARK SMILES C[C@H]1CCC[C@H](C)N1C(=O)[C@H]1[C@@H](C(=O)OCCOCCOCCOC(=O)c2ccc(-c3c4nc(c(-c5cccc(S(=O)(=O)[O-])c5F)c5ccc([nH]5)c(-c5cccc(S(=O)(=O)[O-])c5F)c5nc(c(-c6cccc(S(=O)(=O)[O-])c6F)c6ccc3[nH]6)C=C5)C=C4)cc2)[C@H]2CC[C@@H]1O2
REMARK SMILES IDX 20 1 19 2 18 3 17 4 16 5 15 6 13 7 14 8 12 9 11 10 93 11
REMARK SMILES IDX 90 12 92 13 94 14 91 15 9 16 1 17 2 18 3 19 8 20 4 21 6 22
REMARK SMILES IDX 5 23 7 24 10 25 21 26 22 27 23 28 24 29 25 30 26 31 27 32
REMARK SMILES IDX 28 33 89 34 29 35 88 36 30 37 31 38 32 39 82 40 33 41 87 42
REMARK SMILES IDX 81 43 83 44 34 45 86 46 80 47 79 48 35 50 67 51 47 52 66 53
REMARK SMILES IDX 48 54 51 55 65 56 84 57 49 58 50 59 64 61 85 62 52 63 36 64
REMARK SMILES IDX 37 65 45 66 38 67 40 68 46 69 39 70 41 71 42 72 43 73 44 74
REMARK SMILES IDX 68 75 69 76 77 77 70 78 72 79 78 80 71 81 73 82 74 83 75 84
REMARK SMILES IDX 76 85 53 86 54 87 62 88 55 89 57 90 63 91 56 92 58 93 59 94
REMARK SMILES IDX 60 95 61 96
REMARK H PARENT 83 49 51 60
REMARK Flexibility Score: inf
ROOT
ATOM      1  C   UNL A   1      34.866  22.818  24.396  1.00  0.00     0.188 C 
ENDROOT
BRANCH   1   2
ATOM      2  C   UNL A   1      34.250  23.338  23.099  1.00  0.00     0.188 C 
BRANCH   2   3
ATOM      3  O   UNL A   1      32.842  23.559  23.186  1.00  0.00    -0.376 OA
BRANCH   3   4
ATOM      4  C   UNL A   1      32.423  24.681  22.396  1.00  0.00     0.202 C 
BRANCH   4   5
ATOM      5  C   UNL A   1      33.606  25.630  22.151  1.00  0.00     0.261 C 
BRANCH   5   6
ATOM      6  O   UNL A   1      33.152  26.999  22.115  1.00  0.00    -0.463 OA
BRANCH   6   7
ATOM      7  C   UNL A   1      33.361  27.842  23.167  1.00  0.00     0.312 C 
ATOM      8  O   UNL A   1      33.839  28.953  23.087  1.00  0.00    -0.252 OA
BRANCH   7   9
ATOM      9  C   UNL A   1      32.924  27.121  24.425  1.00  0.00     0.143 C 
ATOM     10  C   UNL A   1      31.722  27.583  25.260  1.00  0.00     0.124 C 
ATOM     11  C   UNL A   1      32.265  27.413  26.691  1.00  0.00     0.132 C 
ATOM     12  C   UNL A   1      34.020  26.976  25.474  1.00  0.00     0.133 C 
ATOM     13  C   UNL A   1      33.226  28.475  27.168  1.00  0.00     0.035 C 
ATOM     14  O   UNL A   1      33.225  26.312  26.496  1.00  0.00    -0.373 OA
ATOM     15  C   UNL A   1      34.425  28.230  26.257  1.00  0.00     0.036 C 
BRANCH  10  16
ATOM     16  C   UNL A   1      31.054  28.880  24.815  1.00  0.00     0.229 C 
ATOM     17  C   UNL A   1      29.075  26.428  24.451  1.00  0.00     0.031 C 
ATOM     18  C   UNL A   1      29.159  27.645  23.525  1.00  0.00     0.082 C 
ATOM     19  C   UNL A   1      27.694  27.907  23.129  1.00  0.00     0.025 C 
ATOM     20  N   UNL A   1      29.905  28.837  23.993  1.00  0.00    -0.337 N 
ATOM     21  C   UNL A   1      27.398  29.205  22.417  1.00  0.00     0.004 C 
ATOM     22  C   UNL A   1      29.615  30.092  23.236  1.00  0.00     0.082 C 
ATOM     23  C   UNL A   1      28.119  30.357  23.086  1.00  0.00     0.025 C 
ATOM     24  C   UNL A   1      30.274  30.072  21.848  1.00  0.00     0.031 C 
ATOM     25  O   UNL A   1      31.559  29.952  25.151  1.00  0.00    -0.274 OA
ENDBRANCH  10  16
ENDBRANCH   7   9
ENDBRANCH   6   7
ENDBRANCH   5   6
ENDBRANCH   4   5
ENDBRANCH   3   4
ENDBRANCH   2   3
ENDBRANCH   1   2
BRANCH   1  26
ATOM     26  O   UNL A   1      34.620  21.463  24.738  1.00  0.00    -0.376 OA
BRANCH  26  27
ATOM     27  C   UNL A   1      35.758  20.648  24.976  1.00  0.00     0.202 C 
BRANCH  27  28
ATOM     28  C   UNL A   1      37.117  21.362  24.963  1.00  0.00     0.261 C 
BRANCH  28  29
ATOM     29  O   UNL A   1      37.619  21.819  26.242  1.00  0.00    -0.460 OA
BRANCH  29  30
ATOM     30  C   UNL A   1      38.971  21.976  26.317  1.00  0.00     0.338 C 
ATOM     31  O   UNL A   1      39.803  21.165  25.940  1.00  0.00    -0.246 OA
BRANCH  30  32
ATOM     32  C   UNL A   1      39.360  23.307  26.868  1.00  0.00     0.060 A 
ATOM     33  C   UNL A   1      38.698  24.445  26.378  1.00  0.00     0.016 A 
ATOM     34  C   UNL A   1      40.366  23.473  27.827  1.00  0.00     0.016 A 
ATOM     35  C   UNL A   1      38.988  25.725  26.881  1.00  0.00     0.010 A 
ATOM     36  C   UNL A   1      40.686  24.764  28.300  1.00  0.00     0.010 A 
ATOM     37  C   UNL A   1      39.995  25.903  27.840  1.00  0.00    -0.014 A 
BRANCH  37  38
ATOM     38  C   UNL A   1      40.463  27.282  28.187  1.00  0.00     0.031 A 
ATOM     39  C   UNL A   1      41.936  27.558  28.095  1.00  0.00     0.074 A 
ATOM     40  C   UNL A   1      39.654  28.290  28.576  1.00  0.00     0.049 A 
ATOM     41  N   UNL A   1      42.573  28.680  28.291  1.00  0.00    -0.248 NA
ATOM     42  C   UNL A   1      42.792  26.429  27.697  1.00  0.00     0.031 C 
ATOM     43  C   UNL A   1      38.206  28.230  28.614  1.00  0.00     0.029 A 
ATOM     44  N   UNL A   1      39.925  29.563  29.030  1.00  0.00    -0.354 N 
ATOM     45  C   UNL A   1      43.903  28.402  28.027  1.00  0.00     0.074 A 
ATOM     46  C   UNL A   1      43.985  27.001  27.674  1.00  0.00     0.031 C 
ATOM     47  C   UNL A   1      37.710  29.352  29.160  1.00  0.00     0.029 A 
ATOM     48  C   UNL A   1      38.811  30.246  29.476  1.00  0.00     0.049 A 
ATOM     49  H   UNL A   1      40.830  29.950  29.035  1.00  0.00     0.167 HD
ATOM     50  C   UNL A   1      44.964  29.239  28.063  1.00  0.00     0.034 A 
ATOM     51  C   UNL A   1      38.667  31.453  30.060  1.00  0.00     0.034 A 
ATOM     52  C   UNL A   1      44.903  30.615  28.470  1.00  0.00     0.049 A 
ATOM     53  C   UNL A   1      39.877  32.332  30.191  1.00  0.00     0.074 A 
ATOM     54  C   UNL A   1      45.935  31.533  28.539  1.00  0.00     0.029 A 
ATOM     55  N   UNL A   1      43.762  31.259  28.923  1.00  0.00    -0.354 N 
ATOM     56  N   UNL A   1      41.105  32.091  29.806  1.00  0.00    -0.248 NA
ATOM     57  C   UNL A   1      39.680  33.668  30.775  1.00  0.00     0.031 C 
ATOM     58  C   UNL A   1      45.428  32.716  29.084  1.00  0.00     0.029 A 
ATOM     59  C   UNL A   1      44.071  32.553  29.305  1.00  0.00     0.049 A 
ATOM     60  H   UNL A   1      42.865  30.855  28.966  1.00  0.00     0.167 HD
ATOM     61  C   UNL A   1      41.817  33.257  30.052  1.00  0.00     0.074 A 
ATOM     62  C   UNL A   1      40.880  34.210  30.611  1.00  0.00     0.031 C 
ATOM     63  C   UNL A   1      43.130  33.510  29.831  1.00  0.00     0.034 A 
BRANCH  50  64
ATOM     64  C   UNL A   1      46.290  28.654  27.673  1.00  0.00     0.023 A 
ATOM     65  C   UNL A   1      47.312  28.527  28.636  1.00  0.00     0.012 A 
ATOM     66  C   UNL A   1      46.525  28.245  26.349  1.00  0.00     0.148 A 
ATOM     67  C   UNL A   1      48.567  28.040  28.273  1.00  0.00     0.002 A 
ATOM     68  C   UNL A   1      47.762  27.717  26.006  1.00  0.00     0.091 A 
ATOM     69  F   UNL A   1      45.546  28.406  25.448  1.00  0.00    -0.205 F 
ATOM     70  C   UNL A   1      48.787  27.628  26.961  1.00  0.00     0.022 A 
BRANCH  68  71
ATOM     71  S   UNL A   1      48.123  27.104  24.360  1.00  0.00     0.127 S 
ATOM     72  O   UNL A   1      49.536  26.746  24.483  1.00  0.00    -0.237 OA
ATOM     73  O   UNL A   1      47.211  25.966  24.252  1.00  0.00    -0.237 OA
ATOM     74  O   UNL A   1      47.837  28.203  23.448  1.00  0.00    -0.744 OA
ENDBRANCH  68  71
ENDBRANCH  50  64
BRANCH  51  75
ATOM     75  C   UNL A   1      37.324  31.933  30.516  1.00  0.00     0.023 A 
ATOM     76  C   UNL A   1      36.893  31.676  31.832  1.00  0.00     0.012 A 
ATOM     77  C   UNL A   1      36.465  32.630  29.641  1.00  0.00     0.148 A 
ATOM     78  C   UNL A   1      35.619  32.065  32.256  1.00  0.00     0.002 A 
ATOM     79  C   UNL A   1      35.215  33.054  30.082  1.00  0.00     0.091 A 
ATOM     80  F   UNL A   1      36.886  32.860  28.389  1.00  0.00    -0.205 F 
ATOM     81  C   UNL A   1      34.783  32.757  31.384  1.00  0.00     0.022 A 
BRANCH  79  82
ATOM     82  S   UNL A   1      34.107  34.036  29.063  1.00  0.00     0.127 S 
ATOM     83  O   UNL A   1      35.014  35.042  28.516  1.00  0.00    -0.237 OA
ATOM     84  O   UNL A   1      33.628  33.047  28.098  1.00  0.00    -0.237 OA
ATOM     85  O   UNL A   1      33.080  34.539  29.967  1.00  0.00    -0.744 OA
ENDBRANCH  79  82
ENDBRANCH  51  75
BRANCH  63  86
ATOM     86  C   UNL A   1      43.642  34.885  30.163  1.00  0.00     0.023 A 
ATOM     87  C   UNL A   1      44.229  35.139  31.418  1.00  0.00     0.012 A 
ATOM     88  C   UNL A   1      43.615  35.905  29.192  1.00  0.00     0.148 A 
ATOM     89  C   UNL A   1      44.755  36.396  31.711  1.00  0.00     0.002 A 
ATOM     90  C   UNL A   1      44.191  37.137  29.470  1.00  0.00     0.091 A 
ATOM     91  F   UNL A   1      43.030  35.650  28.012  1.00  0.00    -0.205 F 
ATOM     92  C   UNL A   1      44.750  37.389  30.735  1.00  0.00     0.022 A 
BRANCH  90  93
ATOM     93  S   UNL A   1      44.326  38.437  28.239  1.00  0.00     0.127 S 
ATOM     94  O   UNL A   1      44.906  37.715  27.107  1.00  0.00    -0.237 OA
ATOM     95  O   UNL A   1      42.930  38.837  28.057  1.00  0.00    -0.237 OA
ATOM     96  O   UNL A   1      45.177  39.462  28.827  1.00  0.00    -0.744 OA
ENDBRANCH  90  93
ENDBRANCH  63  86
ENDBRANCH  37  38
ENDBRANCH  30  32
ENDBRANCH  29  30
ENDBRANCH  28  29
ENDBRANCH  27  28
ENDBRANCH  26  27
ENDBRANCH   1  26
TORSDOF 21
ENDMDL
MODEL 2
REMARK VINA RESULT:     -10.5      5.815     10.453
REMARK SMILES C[C@H]1CCC[C@H](C)N1C(=O)[C@H]1[C@@H](C(=O)OCCOCCOCCOC(=O)c2ccc(-c3c4nc(c(-c5cccc(S(=O)(=O)[O-])c5F)c5ccc([nH]5)c(-c5cccc(S(=O)(=O)[O-])c5F)c5nc(c(-c6cccc(S(=O)(=O)[O-])c6F)c6ccc3[nH]6)C=C5)C=C4)cc2)[C@H]2CC[C@@H]1O2
REMARK SMILES IDX 20 1 19 2 18 3 17 4 16 5 15 6 13 7 14 8 12 9 11 10 93 11
REMARK SMILES IDX 90 12 92 13 94 14 91 15 9 16 1 17 2 18 3 19 8 20 4 21 6 22
REMARK SMILES IDX 5 23 7 24 10 25 21 26 22 27 23 28 24 29 25 30 26 31 27 32
REMARK SMILES IDX 28 33 89 34 29 35 88 36 30 37 31 38 32 39 82 40 33 41 87 42
REMARK SMILES IDX 81 43 83 44 34 45 86 46 80 47 79 48 35 50 67 51 47 52 66 53
REMARK SMILES IDX 48 54 51 55 65 56 84 57 49 58 50 59 64 61 85 62 52 63 36 64
REMARK SMILES IDX 37 65 45 66 38 67 40 68 46 69 39 70 41 71 42 72 43 73 44 74
REMARK SMILES IDX 68 75 69 76 77 77 70 78 72 79 78 80 71 81 73 82 74 83 75 84
REMARK SMILES IDX 76 85 53 86 54 87 62 88 55 89 57 90 63 91 56 92 58 93 59 94
REMARK SMILES IDX 60 95 61 96
REMARK H PARENT 83 49 51 60
REMARK Flexibility Score: inf
ROOT
ATOM      1  C   UNL A   1      34.342  31.979  28.071  1.00  0.00     0.188 C 
ENDROOT
BRANCH   1   2
ATOM      2  C   UNL A   1      34.708  30.686  27.344  1.00  0.00     0.188 C 
BRANCH   2   3
ATOM      3  O   UNL A   1      33.645  29.734  27.306  1.00  0.00    -0.376 OA
BRANCH   3   4
ATOM      4  C   UNL A   1      33.734  28.871  26.163  1.00  0.00     0.202 C 
BRANCH   4   5
ATOM      5  C   UNL A   1      33.520  27.410  26.583  1.00  0.00     0.261 C 
BRANCH   5   6
ATOM      6  O   UNL A   1      34.095  26.517  25.607  1.00  0.00    -0.463 OA
BRANCH   6   7
ATOM      7  C   UNL A   1      33.696  25.216  25.516  1.00  0.00     0.312 C 
ATOM      8  O   UNL A   1      33.088  24.610  26.372  1.00  0.00    -0.252 OA
BRANCH   7   9
ATOM      9  C   UNL A   1      34.180  24.679  24.185  1.00  0.00     0.143 C 
ATOM     10  C   UNL A   1      33.262  24.567  22.961  1.00  0.00     0.124 C 
ATOM     11  C   UNL A   1      33.675  23.194  22.398  1.00  0.00     0.132 C 
ATOM     12  C   UNL A   1      34.803  23.290  24.261  1.00  0.00     0.133 C 
ATOM     13  C   UNL A   1      33.138  21.987  23.129  1.00  0.00     0.035 C 
ATOM     14  O   UNL A   1      35.078  23.122  22.842  1.00  0.00    -0.373 OA
ATOM     15  C   UNL A   1      33.860  22.099  24.469  1.00  0.00     0.036 C 
BRANCH  10  16
ATOM     16  C   UNL A   1      31.795  24.921  23.188  1.00  0.00     0.229 C 
ATOM     17  C   UNL A   1      33.373  27.411  22.016  1.00  0.00     0.031 C 
ATOM     18  C   UNL A   1      32.228  27.484  23.031  1.00  0.00     0.082 C 
ATOM     19  C   UNL A   1      31.450  28.747  22.616  1.00  0.00     0.025 C 
ATOM     20  N   UNL A   1      31.397  26.276  23.245  1.00  0.00    -0.337 N 
ATOM     21  C   UNL A   1      30.104  28.965  23.263  1.00  0.00     0.004 C 
ATOM     22  C   UNL A   1      30.091  26.530  23.925  1.00  0.00     0.082 C 
ATOM     23  C   UNL A   1      29.309  27.677  23.290  1.00  0.00     0.025 C 
ATOM     24  C   UNL A   1      30.287  26.810  25.423  1.00  0.00     0.031 C 
ATOM     25  O   UNL A   1      30.986  24.009  23.362  1.00  0.00    -0.274 OA
ENDBRANCH  10  16
ENDBRANCH   7   9
ENDBRANCH   6   7
ENDBRANCH   5   6
ENDBRANCH   4   5
ENDBRANCH   3   4
ENDBRANCH   2   3
ENDBRANCH   1   2
BRANCH   1  26
ATOM     26  O   UNL A   1      35.090  33.141  27.754  1.00  0.00    -0.376 OA
BRANCH  26  27
ATOM     27  C   UNL A   1      34.396  34.379  27.796  1.00  0.00     0.202 C 
BRANCH  27  28
ATOM     28  C   UNL A   1      33.239  34.473  28.800  1.00  0.00     0.261 C 
BRANCH  28  29
ATOM     29  O   UNL A   1      33.313  35.542  29.773  1.00  0.00    -0.460 OA
BRANCH  29  30
ATOM     30  C   UNL A   1      33.142  35.165  31.071  1.00  0.00     0.338 C 
ATOM     31  O   UNL A   1      32.135  35.351  31.739  1.00  0.00    -0.246 OA
BRANCH  30  32
ATOM     32  C   UNL A   1      34.318  34.419  31.608  1.00  0.00     0.060 A 
ATOM     33  C   UNL A   1      35.593  34.759  31.125  1.00  0.00     0.016 A 
ATOM     34  C   UNL A   1      34.206  33.387  32.546  1.00  0.00     0.016 A 
ATOM     35  C   UNL A   1      36.746  34.125  31.615  1.00  0.00     0.010 A 
ATOM     36  C   UNL A   1      35.362  32.721  33.006  1.00  0.00     0.010 A 
ATOM     37  C   UNL A   1      36.646  33.087  32.553  1.00  0.00    -0.014 A 
BRANCH  37  38
ATOM     38  C   UNL A   1      37.847  32.257  32.884  1.00  0.00     0.031 A 
ATOM     39  C   UNL A   1      38.626  32.623  34.114  1.00  0.00     0.074 A 
ATOM     40  C   UNL A   1      38.275  31.206  32.154  1.00  0.00     0.049 A 
ATOM     41  N   UNL A   1      39.663  32.027  34.635  1.00  0.00    -0.248 NA
ATOM     42  C   UNL A   1      38.148  33.792  34.869  1.00  0.00     0.031 C 
ATOM     43  C   UNL A   1      37.585  30.651  31.006  1.00  0.00     0.029 A 
ATOM     44  N   UNL A   1      39.401  30.416  32.252  1.00  0.00    -0.354 N 
ATOM     45  C   UNL A   1      39.958  32.734  35.788  1.00  0.00     0.074 A 
ATOM     46  C   UNL A   1      39.001  33.816  35.881  1.00  0.00     0.031 C 
ATOM     47  C   UNL A   1      38.333  29.692  30.435  1.00  0.00     0.029 A 
ATOM     48  C   UNL A   1      39.552  29.526  31.207  1.00  0.00     0.049 A 
ATOM     49  H   UNL A   1      40.039  30.481  33.000  1.00  0.00     0.167 HD
ATOM     50  C   UNL A   1      40.931  32.501  36.696  1.00  0.00     0.034 A 
ATOM     51  C   UNL A   1      40.538  28.660  30.896  1.00  0.00     0.034 A 
ATOM     52  C   UNL A   1      41.922  31.469  36.581  1.00  0.00     0.049 A 
ATOM     53  C   UNL A   1      41.670  28.488  31.867  1.00  0.00     0.074 A 
ATOM     54  C   UNL A   1      42.948  31.166  37.458  1.00  0.00     0.029 A 
ATOM     55  N   UNL A   1      42.044  30.601  35.507  1.00  0.00    -0.354 N 
ATOM     56  N   UNL A   1      41.852  29.080  33.021  1.00  0.00    -0.248 NA
ATOM     57  C   UNL A   1      42.700  27.492  31.532  1.00  0.00     0.031 C 
ATOM     58  C   UNL A   1      43.723  30.152  36.888  1.00  0.00     0.029 A 
ATOM     59  C   UNL A   1      43.149  29.785  35.682  1.00  0.00     0.049 A 
ATOM     60  H   UNL A   1      41.436  30.571  34.734  1.00  0.00     0.167 HD
ATOM     61  C   UNL A   1      42.984  28.496  33.574  1.00  0.00     0.074 A 
ATOM     62  C   UNL A   1      43.442  27.495  32.632  1.00  0.00     0.031 C 
ATOM     63  C   UNL A   1      43.584  28.768  34.758  1.00  0.00     0.034 A 
BRANCH  50  64
ATOM     64  C   UNL A   1      40.972  33.420  37.882  1.00  0.00     0.023 A 
ATOM     65  C   UNL A   1      41.941  34.442  37.946  1.00  0.00     0.012 A 
ATOM     66  C   UNL A   1      40.058  33.259  38.938  1.00  0.00     0.148 A 
ATOM     67  C   UNL A   1      42.027  35.264  39.068  1.00  0.00     0.002 A 
ATOM     68  C   UNL A   1      40.120  34.111  40.031  1.00  0.00     0.091 A 
ATOM     69  F   UNL A   1      39.168  32.260  38.865  1.00  0.00    -0.205 F 
ATOM     70  C   UNL A   1      41.112  35.103  40.105  1.00  0.00     0.022 A 
BRANCH  68  71
ATOM     71  S   UNL A   1      38.949  34.024  41.387  1.00  0.00     0.127 S 
ATOM     72  O   UNL A   1      37.681  33.883  40.673  1.00  0.00    -0.237 OA
ATOM     73  O   UNL A   1      39.391  32.821  42.093  1.00  0.00    -0.237 OA
ATOM     74  O   UNL A   1      39.106  35.263  42.136  1.00  0.00    -0.744 OA
ENDBRANCH  68  71
ENDBRANCH  50  64
BRANCH  51  75
ATOM     75  C   UNL A   1      40.479  27.845  29.642  1.00  0.00     0.023 A 
ATOM     76  C   UNL A   1      39.581  26.763  29.545  1.00  0.00     0.012 A 
ATOM     77  C   UNL A   1      41.324  28.129  28.549  1.00  0.00     0.148 A 
ATOM     78  C   UNL A   1      39.555  25.955  28.405  1.00  0.00     0.002 A 
ATOM     79  C   UNL A   1      41.261  27.349  27.398  1.00  0.00     0.091 A 
ATOM     80  F   UNL A   1      42.178  29.156  28.659  1.00  0.00    -0.205 F 
ATOM     81  C   UNL A   1      40.390  26.250  27.331  1.00  0.00     0.022 A 
BRANCH  79  82
ATOM     82  S   UNL A   1      42.228  27.709  25.927  1.00  0.00     0.127 S 
ATOM     83  O   UNL A   1      43.595  27.565  26.422  1.00  0.00    -0.237 OA
ATOM     84  O   UNL A   1      41.791  26.654  25.012  1.00  0.00    -0.237 OA
ATOM     85  O   UNL A   1      41.844  29.054  25.520  1.00  0.00    -0.744 OA
ENDBRANCH  79  82
ENDBRANCH  51  75
BRANCH  63  86
ATOM     86  C   UNL A   1      44.793  27.954  35.132  1.00  0.00     0.023 A 
ATOM     87  C   UNL A   1      46.085  28.424  34.827  1.00  0.00     0.012 A 
ATOM     88  C   UNL A   1      44.644  26.759  35.863  1.00  0.00     0.148 A 
ATOM     89  C   UNL A   1      47.211  27.701  35.220  1.00  0.00     0.002 A 
ATOM     90  C   UNL A   1      45.770  26.075  36.299  1.00  0.00     0.091 A 
ATOM     91  F   UNL A   1      43.405  26.317  36.122  1.00  0.00    -0.205 F 
ATOM     92  C   UNL A   1      47.055  26.537  35.967  1.00  0.00     0.022 A 
BRANCH  90  93
ATOM     93  S   UNL A   1      45.666  24.627  37.357  1.00  0.00     0.127 S 
ATOM     94  O   UNL A   1      47.074  24.385  37.669  1.00  0.00    -0.237 OA
ATOM     95  O   UNL A   1      44.868  25.122  38.480  1.00  0.00    -0.237 OA
ATOM     96  O   UNL A   1      45.016  23.594  36.563  1.00  0.00    -0.744 OA
ENDBRANCH  90  93
ENDBRANCH  63  86
ENDBRANCH  37  38
ENDBRANCH  30  32
ENDBRANCH  29  30
ENDBRANCH  28  29
ENDBRANCH  27  28
ENDBRANCH  26  27
ENDBRANCH   1  26
TORSDOF 21
ENDMDL
MODEL 3
REMARK VINA RESULT:     -10.4      2.259      2.664
REMARK SMILES C[C@H]1CCC[C@H](C)N1C(=O)[C@H]1[C@@H](C(=O)OCCOCCOCCOC(=O)c2ccc(-c3c4nc(c(-c5cccc(S(=O)(=O)[O-])c5F)c5ccc([nH]5)c(-c5cccc(S(=O)(=O)[O-])c5F)c5nc(c(-c6cccc(S(=O)(=O)[O-])c6F)c6ccc3[nH]6)C=C5)C=C4)cc2)[C@H]2CC[C@@H]1O2
REMARK SMILES IDX 20 1 19 2 18 3 17 4 16 5 15 6 13 7 14 8 12 9 11 10 93 11
REMARK SMILES IDX 90 12 92 13 94 14 91 15 9 16 1 17 2 18 3 19 8 20 4 21 6 22
REMARK SMILES IDX 5 23 7 24 10 25 21 26 22 27 23 28 24 29 25 30 26 31 27 32
REMARK SMILES IDX 28 33 89 34 29 35 88 36 30 37 31 38 32 39 82 40 33 41 87 42
REMARK SMILES IDX 81 43 83 44 34 45 86 46 80 47 79 48 35 50 67 51 47 52 66 53
REMARK SMILES IDX 48 54 51 55 65 56 84 57 49 58 50 59 64 61 85 62 52 63 36 64
REMARK SMILES IDX 37 65 45 66 38 67 40 68 46 69 39 70 41 71 42 72 43 73 44 74
REMARK SMILES IDX 68 75 69 76 77 77 70 78 72 79 78 80 71 81 73 82 74 83 75 84
REMARK SMILES IDX 76 85 53 86 54 87 62 88 55 89 57 90 63 91 56 92 58 93 59 94
REMARK SMILES IDX 60 95 61 96
REMARK H PARENT 83 49 51 60
REMARK Flexibility Score: inf
ROOT
ATOM      1  C   UNL A   1      34.987  22.684  24.441  1.00  0.00     0.188 C 
ENDROOT
BRANCH   1   2
ATOM      2  C   UNL A   1      34.545  23.166  23.061  1.00  0.00     0.188 C 
BRANCH   2   3
ATOM      3  O   UNL A   1      33.132  23.332  22.942  1.00  0.00    -0.376 OA
BRANCH   3   4
ATOM      4  C   UNL A   1      32.786  24.568  22.300  1.00  0.00     0.202 C 
BRANCH   4   5
ATOM      5  C   UNL A   1      33.921  25.589  22.468  1.00  0.00     0.261 C 
BRANCH   5   6
ATOM      6  O   UNL A   1      33.439  26.923  22.206  1.00  0.00    -0.463 OA
BRANCH   6   7
ATOM      7  C   UNL A   1      33.331  27.846  23.204  1.00  0.00     0.312 C 
ATOM      8  O   UNL A   1      33.587  29.026  23.096  1.00  0.00    -0.252 OA
BRANCH   7   9
ATOM      9  C   UNL A   1      32.876  27.119  24.453  1.00  0.00     0.143 C 
ATOM     10  C   UNL A   1      31.663  27.576  25.273  1.00  0.00     0.124 C 
ATOM     11  C   UNL A   1      32.185  27.399  26.711  1.00  0.00     0.132 C 
ATOM     12  C   UNL A   1      33.957  26.968  25.517  1.00  0.00     0.133 C 
ATOM     13  C   UNL A   1      33.139  28.459  27.207  1.00  0.00     0.035 C 
ATOM     14  O   UNL A   1      33.148  26.299  26.524  1.00  0.00    -0.373 OA
ATOM     15  C   UNL A   1      34.351  28.218  26.312  1.00  0.00     0.036 C 
BRANCH  10  16
ATOM     16  C   UNL A   1      31.001  28.876  24.825  1.00  0.00     0.229 C 
ATOM     17  C   UNL A   1      28.996  26.438  24.503  1.00  0.00     0.031 C 
ATOM     18  C   UNL A   1      29.081  27.647  23.567  1.00  0.00     0.082 C 
ATOM     19  C   UNL A   1      27.614  27.919  23.185  1.00  0.00     0.025 C 
ATOM     20  N   UNL A   1      29.843  28.836  24.016  1.00  0.00    -0.337 N 
ATOM     21  C   UNL A   1      27.321  29.214  22.467  1.00  0.00     0.004 C 
ATOM     22  C   UNL A   1      29.555  30.088  23.252  1.00  0.00     0.082 C 
ATOM     23  C   UNL A   1      28.059  30.365  23.118  1.00  0.00     0.025 C 
ATOM     24  C   UNL A   1      30.197  30.051  21.857  1.00  0.00     0.031 C 
ATOM     25  O   UNL A   1      31.520  29.946  25.146  1.00  0.00    -0.274 OA
ENDBRANCH  10  16
ENDBRANCH   7   9
ENDBRANCH   6   7
ENDBRANCH   5   6
ENDBRANCH   4   5
ENDBRANCH   3   4
ENDBRANCH   2   3
ENDBRANCH   1   2
BRANCH   1  26
ATOM     26  O   UNL A   1      34.810  21.308  24.740  1.00  0.00    -0.376 OA
BRANCH  26  27
ATOM     27  C   UNL A   1      35.989  20.534  24.905  1.00  0.00     0.202 C 
BRANCH  27  28
ATOM     28  C   UNL A   1      37.315  21.307  24.880  1.00  0.00     0.261 C 
BRANCH  28  29
ATOM     29  O   UNL A   1      37.830  21.748  26.159  1.00  0.00    -0.460 OA
BRANCH  29  30
ATOM     30  C   UNL A   1      39.184  21.686  26.298  1.00  0.00     0.338 C 
ATOM     31  O   UNL A   1      39.884  20.723  26.024  1.00  0.00    -0.246 OA
BRANCH  30  32
ATOM     32  C   UNL A   1      39.767  22.975  26.775  1.00  0.00     0.060 A 
ATOM     33  C   UNL A   1      39.325  24.164  26.173  1.00  0.00     0.016 A 
ATOM     34  C   UNL A   1      40.746  23.047  27.773  1.00  0.00     0.016 A 
ATOM     35  C   UNL A   1      39.803  25.414  26.601  1.00  0.00     0.010 A 
ATOM     36  C   UNL A   1      41.257  24.302  28.171  1.00  0.00     0.010 A 
ATOM     37  C   UNL A   1      40.786  25.499  27.597  1.00  0.00    -0.014 A 
BRANCH  37  38
ATOM     38  C   UNL A   1      41.463  26.806  27.873  1.00  0.00     0.031 A 
ATOM     39  C   UNL A   1      42.892  26.952  27.438  1.00  0.00     0.074 A 
ATOM     40  C   UNL A   1      40.877  27.857  28.484  1.00  0.00     0.049 A 
ATOM     41  N   UNL A   1      43.670  27.997  27.516  1.00  0.00    -0.248 NA
ATOM     42  C   UNL A   1      43.508  25.776  26.802  1.00  0.00     0.031 C 
ATOM     43  C   UNL A   1      39.481  27.927  28.870  1.00  0.00     0.029 A 
ATOM     44  N   UNL A   1      41.378  29.070  28.908  1.00  0.00    -0.354 N 
ATOM     45  C   UNL A   1      44.863  27.616  26.926  1.00  0.00     0.074 A 
ATOM     46  C   UNL A   1      44.714  26.237  26.512  1.00  0.00     0.031 C 
ATOM     47  C   UNL A   1      39.248  29.054  29.562  1.00  0.00     0.029 A 
ATOM     48  C   UNL A   1      40.478  29.822  29.636  1.00  0.00     0.049 A 
ATOM     49  H   UNL A   1      42.294  29.372  28.707  1.00  0.00     0.167 HD
ATOM     50  C   UNL A   1      45.983  28.349  26.736  1.00  0.00     0.034 A 
ATOM     51  C   UNL A   1      40.602  30.999  30.282  1.00  0.00     0.034 A 
ATOM     52  C   UNL A   1      46.163  29.696  27.198  1.00  0.00     0.049 A 
ATOM     53  C   UNL A   1      41.893  31.755  30.149  1.00  0.00     0.074 A 
ATOM     54  C   UNL A   1      47.270  30.511  27.050  1.00  0.00     0.029 A 
ATOM     55  N   UNL A   1      45.234  30.413  27.938  1.00  0.00    -0.354 N 
ATOM     56  N   UNL A   1      42.963  31.427  29.469  1.00  0.00    -0.248 NA
ATOM     57  C   UNL A   1      41.979  33.064  30.814  1.00  0.00     0.031 C 
ATOM     58  C   UNL A   1      47.032  31.700  27.746  1.00  0.00     0.029 A 
ATOM     59  C   UNL A   1      45.757  31.648  28.283  1.00  0.00     0.049 A 
ATOM     60  H   UNL A   1      44.337  30.090  28.182  1.00  0.00     0.167 HD
ATOM     61  C   UNL A   1      43.830  32.506  29.580  1.00  0.00     0.074 A 
ATOM     62  C   UNL A   1      43.155  33.504  30.385  1.00  0.00     0.031 C 
ATOM     63  C   UNL A   1      45.071  32.652  29.057  1.00  0.00     0.034 A 
BRANCH  50  64
ATOM     64  C   UNL A   1      47.111  27.670  26.015  1.00  0.00     0.023 A 
ATOM     65  C   UNL A   1      47.178  27.723  24.608  1.00  0.00     0.012 A 
ATOM     66  C   UNL A   1      48.093  26.967  26.734  1.00  0.00     0.148 A 
ATOM     67  C   UNL A   1      48.187  27.048  23.924  1.00  0.00     0.002 A 
ATOM     68  C   UNL A   1      49.121  26.336  26.048  1.00  0.00     0.091 A 
ATOM     69  F   UNL A   1      47.986  26.907  28.069  1.00  0.00    -0.205 F 
ATOM     70  C   UNL A   1      49.161  26.362  24.645  1.00  0.00     0.022 A 
BRANCH  68  71
ATOM     71  S   UNL A   1      50.455  25.480  26.888  1.00  0.00     0.127 S 
ATOM     72  O   UNL A   1      50.942  26.516  27.799  1.00  0.00    -0.237 OA
ATOM     73  O   UNL A   1      49.746  24.378  27.539  1.00  0.00    -0.237 OA
ATOM     74  O   UNL A   1      51.391  25.075  25.849  1.00  0.00    -0.744 OA
ENDBRANCH  68  71
ENDBRANCH  50  64
BRANCH  51  75
ATOM     75  C   UNL A   1      39.463  31.570  31.068  1.00  0.00     0.023 A 
ATOM     76  C   UNL A   1      38.417  32.244  30.405  1.00  0.00     0.012 A 
ATOM     77  C   UNL A   1      39.422  31.462  32.473  1.00  0.00     0.148 A 
ATOM     78  C   UNL A   1      37.377  32.834  31.128  1.00  0.00     0.002 A 
ATOM     79  C   UNL A   1      38.359  32.013  33.184  1.00  0.00     0.091 A 
ATOM     80  F   UNL A   1      40.427  30.825  33.090  1.00  0.00    -0.205 F 
ATOM     81  C   UNL A   1      37.345  32.715  32.514  1.00  0.00     0.022 A 
BRANCH  79  82
ATOM     82  S   UNL A   1      38.180  31.828  34.962  1.00  0.00     0.127 S 
ATOM     83  O   UNL A   1      39.421  32.421  35.453  1.00  0.00    -0.237 OA
ATOM     84  O   UNL A   1      36.974  32.614  35.228  1.00  0.00    -0.237 OA
ATOM     85  O   UNL A   1      38.029  30.398  35.198  1.00  0.00    -0.744 OA
ENDBRANCH  79  82
ENDBRANCH  51  75
BRANCH  63  86
ATOM     86  C   UNL A   1      45.786  33.951  29.307  1.00  0.00     0.023 A 
ATOM     87  C   UNL A   1      46.695  34.066  30.377  1.00  0.00     0.012 A 
ATOM     88  C   UNL A   1      45.617  35.035  28.423  1.00  0.00     0.148 A 
ATOM     89  C   UNL A   1      47.402  35.250  30.580  1.00  0.00     0.002 A 
ATOM     90  C   UNL A   1      46.366  36.190  28.599  1.00  0.00     0.091 A 
ATOM     91  F   UNL A   1      44.730  34.914  27.425  1.00  0.00    -0.205 F 
ATOM     92  C   UNL A   1      47.249  36.305  29.685  1.00  0.00     0.022 A 
BRANCH  90  93
ATOM     93  S   UNL A   1      46.315  37.557  27.434  1.00  0.00     0.127 S 
ATOM     94  O   UNL A   1      47.123  37.039  26.332  1.00  0.00    -0.237 OA
ATOM     95  O   UNL A   1      44.883  37.662  27.145  1.00  0.00    -0.237 OA
ATOM     96  O   UNL A   1      46.875  38.704  28.135  1.00  0.00    -0.744 OA
ENDBRANCH  90  93
ENDBRANCH  63  86
ENDBRANCH  37  38
ENDBRANCH  30  32
ENDBRANCH  29  30
ENDBRANCH  28  29
ENDBRANCH  27  28
ENDBRANCH  26  27
ENDBRANCH   1  26
TORSDOF 21
ENDMDL
