MODEL 1
REMARK VINA RESULT:     -10.3      0.000      0.000
REMARK SMILES COC(=O)c1cccc(-c2cnc(Cl)cc2C(=O)OCCOCCOCCOC(=O)c2ccc(-c3c4nc(c(-c5cccc(S(=O)(=O)[O-])c5F)c5ccc([nH]5)c(-c5cccc(S(=O)(=O)[O-])c5F)c5nc(c(-c6cccc(S(=O)(=O)[O-])c6F)c6ccc3[nH]6)C=C5)C=C4)cc2)c1
REMARK SMILES IDX 23 1 22 2 21 3 20 4 19 5 17 6 18 7 16 8 10 9 11 10 12 11
REMARK SMILES IDX 15 12 13 13 14 14 9 15 5 16 6 17 94 18 7 19 8 20 3 21 4 22
REMARK SMILES IDX 2 23 1 24 24 25 25 26 26 27 27 28 28 29 29 30 30 31 31 32
REMARK SMILES IDX 32 33 93 34 33 35 92 36 34 37 35 38 36 39 86 40 37 41 91 42
REMARK SMILES IDX 85 43 87 44 38 45 90 46 84 47 83 48 39 50 71 51 51 52 70 53
REMARK SMILES IDX 52 54 55 55 69 56 88 57 53 58 54 59 68 61 89 62 56 63 40 64
REMARK SMILES IDX 41 65 49 66 42 67 44 68 50 69 43 70 45 71 46 72 47 73 48 74
REMARK SMILES IDX 72 75 73 76 81 77 74 78 76 79 82 80 75 81 77 82 78 83 79 84
REMARK SMILES IDX 80 85 57 86 58 87 66 88 59 89 61 90 67 91 60 92 62 93 63 94
REMARK SMILES IDX 64 95 65 96
REMARK H PARENT 87 49 55 60
REMARK Flexibility Score: inf
ROOT
ATOM      1  C   UNL A   1      39.839  22.048  26.477  1.00  0.00     0.188 C 
ENDROOT
BRANCH   1   2
ATOM      2  O   UNL A   1      38.484  22.234  26.074  1.00  0.00    -0.376 OA
BRANCH   2   3
ATOM      3  C   UNL A   1      38.016  21.218  25.189  1.00  0.00     0.202 C 
BRANCH   3   4
ATOM      4  C   UNL A   1      36.524  21.374  24.888  1.00  0.00     0.261 C 
BRANCH   4   5
ATOM      5  O   UNL A   1      36.023  22.702  25.134  1.00  0.00    -0.460 OA
BRANCH   5   6
ATOM      6  C   UNL A   1      35.386  23.347  24.129  1.00  0.00     0.339 C 
ATOM      7  O   UNL A   1      35.677  23.301  22.949  1.00  0.00    -0.246 OA
BRANCH   6   8
ATOM      8  C   UNL A   1      34.239  24.097  24.718  1.00  0.00     0.072 A 
ATOM      9  C   UNL A   1      32.925  23.579  24.698  1.00  0.00     0.015 A 
ATOM     10  C   UNL A   1      31.942  24.385  25.272  1.00  0.00     0.122 A 
ATOM     11  N   UNL A   1      32.171  25.590  25.850  1.00  0.00    -0.244 NA
ATOM     12  C   UNL A   1      34.503  25.338  25.312  1.00  0.00     0.057 A 
ATOM     13  C   UNL A   1      33.443  26.026  25.859  1.00  0.00     0.129 A 
ATOM     14  Cl  UNL A   1      33.679  27.550  26.609  1.00  0.00    -0.062 Cl
BRANCH   9  15
ATOM     15  C   UNL A   1      32.586  22.275  24.119  1.00  0.00    -0.015 A 
ATOM     16  C   UNL A   1      32.827  19.849  24.126  1.00  0.00     0.060 A 
ATOM     17  C   UNL A   1      32.342  19.796  22.818  1.00  0.00     0.016 A 
ATOM     18  C   UNL A   1      32.884  21.080  24.795  1.00  0.00     0.024 A 
ATOM     19  C   UNL A   1      31.914  20.961  22.187  1.00  0.00     0.002 A 
ATOM     20  C   UNL A   1      32.055  22.195  22.824  1.00  0.00     0.009 A 
BRANCH  16  21
ATOM     21  C   UNL A   1      33.317  18.588  24.730  1.00  0.00     0.337 C 
ATOM     22  O   UNL A   1      34.403  18.105  24.453  1.00  0.00    -0.246 OA
BRANCH  21  23
ATOM     23  O   UNL A   1      32.408  18.056  25.585  1.00  0.00    -0.465 OA
ATOM     24  C   UNL A   1      32.528  16.632  25.677  1.00  0.00     0.282 C 
ENDBRANCH  21  23
ENDBRANCH  16  21
ENDBRANCH   9  15
ENDBRANCH   6   8
ENDBRANCH   5   6
ENDBRANCH   4   5
ENDBRANCH   3   4
ENDBRANCH   2   3
ENDBRANCH   1   2
BRANCH   1  25
ATOM     25  C   UNL A   1      40.234  20.565  26.554  1.00  0.00     0.188 C 
BRANCH  25  26
ATOM     26  O   UNL A   1      41.605  20.191  26.605  1.00  0.00    -0.376 OA
BRANCH  26  27
ATOM     27  C   UNL A   1      42.098  19.330  25.599  1.00  0.00     0.202 C 
BRANCH  27  28
ATOM     28  C   UNL A   1      43.295  18.439  25.955  1.00  0.00     0.261 C 
BRANCH  28  29
ATOM     29  O   UNL A   1      44.588  18.944  25.600  1.00  0.00    -0.460 OA
BRANCH  29  30
ATOM     30  C   UNL A   1      44.652  19.677  24.458  1.00  0.00     0.338 C 
ATOM     31  O   UNL A   1      44.634  19.268  23.312  1.00  0.00    -0.246 OA
BRANCH  30  32
ATOM     32  C   UNL A   1      44.686  21.105  24.846  1.00  0.00     0.060 A 
ATOM     33  C   UNL A   1      44.384  22.107  23.917  1.00  0.00     0.016 A 
ATOM     34  C   UNL A   1      45.017  21.445  26.157  1.00  0.00     0.016 A 
ATOM     35  C   UNL A   1      44.393  23.458  24.310  1.00  0.00     0.010 A 
ATOM     36  C   UNL A   1      45.009  22.787  26.546  1.00  0.00     0.010 A 
ATOM     37  C   UNL A   1      44.712  23.813  25.628  1.00  0.00    -0.014 A 
BRANCH  37  38
ATOM     38  C   UNL A   1      44.879  25.233  26.066  1.00  0.00     0.031 A 
ATOM     39  C   UNL A   1      46.265  25.815  26.099  1.00  0.00     0.074 A 
ATOM     40  C   UNL A   1      43.856  25.984  26.523  1.00  0.00     0.049 A 
ATOM     41  N   UNL A   1      46.662  26.978  26.545  1.00  0.00    -0.248 NA
ATOM     42  C   UNL A   1      47.348  24.965  25.578  1.00  0.00     0.031 C 
ATOM     43  C   UNL A   1      42.463  25.567  26.560  1.00  0.00     0.029 A 
ATOM     44  N   UNL A   1      43.831  27.243  27.081  1.00  0.00    -0.354 N 
ATOM     45  C   UNL A   1      48.040  26.988  26.384  1.00  0.00     0.074 A 
ATOM     46  C   UNL A   1      48.416  25.693  25.861  1.00  0.00     0.031 C 
ATOM     47  C   UNL A   1      41.722  26.515  27.157  1.00  0.00     0.029 A 
ATOM     48  C   UNL A   1      42.589  27.624  27.542  1.00  0.00     0.049 A 
ATOM     49  H   UNL A   1      44.628  27.818  27.145  1.00  0.00     0.167 HD
ATOM     50  C   UNL A   1      48.915  27.997  26.601  1.00  0.00     0.034 A 
ATOM     51  C   UNL A   1      42.186  28.734  28.194  1.00  0.00     0.034 A 
ATOM     52  C   UNL A   1      48.552  29.300  27.080  1.00  0.00     0.049 A 
ATOM     53  C   UNL A   1      43.182  29.837  28.451  1.00  0.00     0.074 A 
ATOM     54  C   UNL A   1      49.363  30.407  27.254  1.00  0.00     0.029 A 
ATOM     55  N   UNL A   1      47.275  29.673  27.468  1.00  0.00    -0.354 N 
ATOM     56  N   UNL A   1      44.454  29.885  28.140  1.00  0.00    -0.248 NA
ATOM     57  C   UNL A   1      42.675  31.062  29.090  1.00  0.00     0.031 C 
ATOM     58  C   UNL A   1      48.579  31.445  27.769  1.00  0.00     0.029 A 
ATOM     59  C   UNL A   1      47.276  30.992  27.887  1.00  0.00     0.049 A 
ATOM     60  H   UNL A   1      46.485  29.087  27.448  1.00  0.00     0.167 HD
ATOM     61  C   UNL A   1      44.882  31.163  28.484  1.00  0.00     0.074 A 
ATOM     62  C   UNL A   1      43.734  31.859  29.025  1.00  0.00     0.031 C 
ATOM     63  C   UNL A   1      46.117  31.706  28.360  1.00  0.00     0.034 A 
BRANCH  50  64
ATOM     64  C   UNL A   1      50.354  27.725  26.257  1.00  0.00     0.023 A 
ATOM     65  C   UNL A   1      51.284  27.507  27.295  1.00  0.00     0.012 A 
ATOM     66  C   UNL A   1      50.786  27.692  24.919  1.00  0.00     0.148 A 
ATOM     67  C   UNL A   1      52.633  27.317  27.010  1.00  0.00     0.002 A 
ATOM     68  C   UNL A   1      52.125  27.451  24.641  1.00  0.00     0.091 A 
ATOM     69  F   UNL A   1      49.888  27.922  23.951  1.00  0.00    -0.205 F 
ATOM     70  C   UNL A   1      53.052  27.281  25.683  1.00  0.00     0.022 A 
BRANCH  68  71
ATOM     71  S   UNL A   1      52.754  27.312  22.966  1.00  0.00     0.127 S 
ATOM     72  O   UNL A   1      53.262  28.662  22.729  1.00  0.00    -0.237 OA
ATOM     73  O   UNL A   1      53.788  26.287  23.113  1.00  0.00    -0.237 OA
ATOM     74  O   UNL A   1      51.620  26.918  22.141  1.00  0.00    -0.744 OA
ENDBRANCH  68  71
ENDBRANCH  50  64
BRANCH  51  75
ATOM     75  C   UNL A   1      40.752  28.924  28.573  1.00  0.00     0.023 A 
ATOM     76  C   UNL A   1      39.829  29.309  27.580  1.00  0.00     0.012 A 
ATOM     77  C   UNL A   1      40.305  28.766  29.899  1.00  0.00     0.148 A 
ATOM     78  C   UNL A   1      38.499  29.581  27.906  1.00  0.00     0.002 A 
ATOM     79  C   UNL A   1      38.968  28.997  30.210  1.00  0.00     0.091 A 
ATOM     80  F   UNL A   1      41.196  28.398  30.830  1.00  0.00    -0.205 F 
ATOM     81  C   UNL A   1      38.069  29.423  29.219  1.00  0.00     0.022 A 
BRANCH  79  82
ATOM     82  S   UNL A   1      38.283  28.738  31.850  1.00  0.00     0.127 S 
ATOM     83  O   UNL A   1      38.564  27.321  32.071  1.00  0.00    -0.237 OA
ATOM     84  O   UNL A   1      39.088  29.659  32.653  1.00  0.00    -0.237 OA
ATOM     85  O   UNL A   1      36.874  29.090  31.749  1.00  0.00    -0.744 OA
ENDBRANCH  79  82
ENDBRANCH  51  75
BRANCH  63  86
ATOM     86  C   UNL A   1      46.302  33.149  28.753  1.00  0.00     0.023 A 
ATOM     87  C   UNL A   1      46.732  33.479  30.052  1.00  0.00     0.012 A 
ATOM     88  C   UNL A   1      46.141  34.172  27.797  1.00  0.00     0.148 A 
ATOM     89  C   UNL A   1      46.977  34.807  30.400  1.00  0.00     0.002 A 
ATOM     90  C   UNL A   1      46.436  35.486  28.135  1.00  0.00     0.091 A 
ATOM     91  F   UNL A   1      45.709  33.839  26.571  1.00  0.00    -0.205 F 
ATOM     92  C   UNL A   1      46.843  35.807  29.440  1.00  0.00     0.022 A 
BRANCH  90  93
ATOM     93  S   UNL A   1      46.395  36.824  26.936  1.00  0.00     0.127 S 
ATOM     94  O   UNL A   1      46.969  36.183  25.754  1.00  0.00    -0.237 OA
ATOM     95  O   UNL A   1      44.964  37.110  26.842  1.00  0.00    -0.237 OA
ATOM     96  O   UNL A   1      47.192  37.902  27.509  1.00  0.00    -0.744 OA
ENDBRANCH  90  93
ENDBRANCH  63  86
ENDBRANCH  37  38
ENDBRANCH  30  32
ENDBRANCH  29  30
ENDBRANCH  28  29
ENDBRANCH  27  28
ENDBRANCH  26  27
ENDBRANCH  25  26
ENDBRANCH   1  25
TORSDOF 23
ENDMDL
MODEL 2
REMARK VINA RESULT:     -10.2      2.477      8.473
REMARK SMILES COC(=O)c1cccc(-c2cnc(Cl)cc2C(=O)OCCOCCOCCOC(=O)c2ccc(-c3c4nc(c(-c5cccc(S(=O)(=O)[O-])c5F)c5ccc([nH]5)c(-c5cccc(S(=O)(=O)[O-])c5F)c5nc(c(-c6cccc(S(=O)(=O)[O-])c6F)c6ccc3[nH]6)C=C5)C=C4)cc2)c1
REMARK SMILES IDX 23 1 22 2 21 3 20 4 19 5 17 6 18 7 16 8 10 9 11 10 12 11
REMARK SMILES IDX 15 12 13 13 14 14 9 15 5 16 6 17 94 18 7 19 8 20 3 21 4 22
REMARK SMILES IDX 2 23 1 24 24 25 25 26 26 27 27 28 28 29 29 30 30 31 31 32
REMARK SMILES IDX 32 33 93 34 33 35 92 36 34 37 35 38 36 39 86 40 37 41 91 42
REMARK SMILES IDX 85 43 87 44 38 45 90 46 84 47 83 48 39 50 71 51 51 52 70 53
REMARK SMILES IDX 52 54 55 55 69 56 88 57 53 58 54 59 68 61 89 62 56 63 40 64
REMARK SMILES IDX 41 65 49 66 42 67 44 68 50 69 43 70 45 71 46 72 47 73 48 74
REMARK SMILES IDX 72 75 73 76 81 77 74 78 76 79 82 80 75 81 77 82 78 83 79 84
REMARK SMILES IDX 80 85 57 86 58 87 66 88 59 89 61 90 67 91 60 92 62 93 63 94
REMARK SMILES IDX 64 95 65 96
REMARK H PARENT 87 49 55 60
REMARK Flexibility Score: inf
ROOT
ATOM      1  C   UNL A   1      35.231  22.015  25.897  1.00  0.00     0.188 C 
ENDROOT
BRANCH   1   2
ATOM      2  O   UNL A   1      34.630  21.331  26.994  1.00  0.00    -0.376 OA
BRANCH   2   3
ATOM      3  C   UNL A   1      34.020  22.209  27.938  1.00  0.00     0.202 C 
BRANCH   3   4
ATOM      4  C   UNL A   1      33.151  23.264  27.248  1.00  0.00     0.261 C 
BRANCH   4   5
ATOM      5  O   UNL A   1      31.774  23.242  27.670  1.00  0.00    -0.460 OA
BRANCH   5   6
ATOM      6  C   UNL A   1      30.814  23.480  26.746  1.00  0.00     0.339 C 
ATOM      7  O   UNL A   1      29.719  23.965  26.956  1.00  0.00    -0.246 OA
BRANCH   6   8
ATOM      8  C   UNL A   1      31.349  23.075  25.413  1.00  0.00     0.072 A 
ATOM      9  C   UNL A   1      31.628  24.024  24.406  1.00  0.00     0.015 A 
ATOM     10  C   UNL A   1      32.113  23.512  23.202  1.00  0.00     0.122 A 
ATOM     11  N   UNL A   1      32.345  22.199  22.958  1.00  0.00    -0.244 NA
ATOM     12  C   UNL A   1      31.583  21.712  25.189  1.00  0.00     0.057 A 
ATOM     13  C   UNL A   1      32.081  21.341  23.959  1.00  0.00     0.129 A 
ATOM     14  Cl  UNL A   1      32.401  19.694  23.602  1.00  0.00    -0.062 Cl
BRANCH   9  15
ATOM     15  C   UNL A   1      31.433  25.466  24.588  1.00  0.00    -0.015 A 
ATOM     16  C   UNL A   1      30.317  27.532  23.933  1.00  0.00     0.060 A 
ATOM     17  C   UNL A   1      31.314  28.274  24.569  1.00  0.00     0.016 A 
ATOM     18  C   UNL A   1      30.344  26.132  24.001  1.00  0.00     0.024 A 
ATOM     19  C   UNL A   1      32.325  27.622  25.271  1.00  0.00     0.002 A 
ATOM     20  C   UNL A   1      32.396  26.229  25.263  1.00  0.00     0.009 A 
BRANCH  16  21
ATOM     21  C   UNL A   1      29.297  28.274  23.156  1.00  0.00     0.337 C 
ATOM     22  O   UNL A   1      29.558  29.282  22.520  1.00  0.00    -0.246 OA
BRANCH  21  23
ATOM     23  O   UNL A   1      28.070  27.705  23.270  1.00  0.00    -0.465 OA
ATOM     24  C   UNL A   1      27.019  28.674  23.188  1.00  0.00     0.282 C 
ENDBRANCH  21  23
ENDBRANCH  16  21
ENDBRANCH   9  15
ENDBRANCH   6   8
ENDBRANCH   5   6
ENDBRANCH   4   5
ENDBRANCH   3   4
ENDBRANCH   2   3
ENDBRANCH   1   2
BRANCH   1  25
ATOM     25  C   UNL A   1      35.807  21.054  24.846  1.00  0.00     0.188 C 
BRANCH  25  26
ATOM     26  O   UNL A   1      37.168  21.159  24.449  1.00  0.00    -0.376 OA
BRANCH  26  27
ATOM     27  C   UNL A   1      38.082  20.204  24.949  1.00  0.00     0.202 C 
BRANCH  27  28
ATOM     28  C   UNL A   1      39.295  20.727  25.729  1.00  0.00     0.261 C 
BRANCH  28  29
ATOM     29  O   UNL A   1      40.041  19.752  26.469  1.00  0.00    -0.460 OA
BRANCH  29  30
ATOM     30  C   UNL A   1      41.350  19.618  26.134  1.00  0.00     0.338 C 
ATOM     31  O   UNL A   1      41.887  18.661  25.608  1.00  0.00    -0.246 OA
BRANCH  30  32
ATOM     32  C   UNL A   1      42.027  20.891  26.466  1.00  0.00     0.060 A 
ATOM     33  C   UNL A   1      42.258  21.253  27.798  1.00  0.00     0.016 A 
ATOM     34  C   UNL A   1      42.441  21.731  25.433  1.00  0.00     0.016 A 
ATOM     35  C   UNL A   1      42.929  22.453  28.097  1.00  0.00     0.010 A 
ATOM     36  C   UNL A   1      43.121  22.914  25.734  1.00  0.00     0.010 A 
ATOM     37  C   UNL A   1      43.361  23.300  27.067  1.00  0.00    -0.014 A 
BRANCH  37  38
ATOM     38  C   UNL A   1      43.947  24.652  27.324  1.00  0.00     0.031 A 
ATOM     39  C   UNL A   1      43.035  25.752  27.792  1.00  0.00     0.074 A 
ATOM     40  C   UNL A   1      45.236  24.954  27.064  1.00  0.00     0.049 A 
ATOM     41  N   UNL A   1      43.294  27.021  27.971  1.00  0.00    -0.248 NA
ATOM     42  C   UNL A   1      41.641  25.373  28.076  1.00  0.00     0.031 C 
ATOM     43  C   UNL A   1      46.240  24.008  26.604  1.00  0.00     0.029 A 
ATOM     44  N   UNL A   1      45.916  26.151  27.110  1.00  0.00    -0.354 N 
ATOM     45  C   UNL A   1      42.093  27.595  28.361  1.00  0.00     0.074 A 
ATOM     46  C   UNL A   1      41.092  26.550  28.330  1.00  0.00     0.031 C 
ATOM     47  C   UNL A   1      47.391  24.655  26.356  1.00  0.00     0.029 A 
ATOM     48  C   UNL A   1      47.212  26.073  26.647  1.00  0.00     0.049 A 
ATOM     49  H   UNL A   1      45.512  26.985  27.444  1.00  0.00     0.167 HD
ATOM     50  C   UNL A   1      41.846  28.864  28.761  1.00  0.00     0.034 A 
ATOM     51  C   UNL A   1      48.153  27.025  26.480  1.00  0.00     0.034 A 
ATOM     52  C   UNL A   1      42.836  29.900  28.837  1.00  0.00     0.049 A 
ATOM     53  C   UNL A   1      47.851  28.439  26.907  1.00  0.00     0.074 A 
ATOM     54  C   UNL A   1      42.691  31.193  29.305  1.00  0.00     0.029 A 
ATOM     55  N   UNL A   1      44.153  29.766  28.429  1.00  0.00    -0.354 N 
ATOM     56  N   UNL A   1      46.751  28.924  27.427  1.00  0.00    -0.248 NA
ATOM     57  C   UNL A   1      48.938  29.424  26.783  1.00  0.00     0.031 C 
ATOM     58  C   UNL A   1      43.918  31.849  29.161  1.00  0.00     0.029 A 
ATOM     59  C   UNL A   1      44.832  30.956  28.630  1.00  0.00     0.049 A 
ATOM     60  H   UNL A   1      44.548  28.947  28.053  1.00  0.00     0.167 HD
ATOM     61  C   UNL A   1      47.034  30.247  27.752  1.00  0.00     0.074 A 
ATOM     62  C   UNL A   1      48.409  30.488  27.371  1.00  0.00     0.031 C 
ATOM     63  C   UNL A   1      46.221  31.174  28.315  1.00  0.00     0.034 A 
BRANCH  50  64
ATOM     64  C   UNL A   1      40.441  29.169  29.202  1.00  0.00     0.023 A 
ATOM     65  C   UNL A   1      39.518  29.684  28.266  1.00  0.00     0.012 A 
ATOM     66  C   UNL A   1      40.036  28.956  30.532  1.00  0.00     0.148 A 
ATOM     67  C   UNL A   1      38.231  30.035  28.660  1.00  0.00     0.002 A 
ATOM     68  C   UNL A   1      38.734  29.262  30.905  1.00  0.00     0.091 A 
ATOM     69  F   UNL A   1      40.936  28.487  31.407  1.00  0.00    -0.205 F 
ATOM     70  C   UNL A   1      37.837  29.818  29.978  1.00  0.00     0.022 A 
BRANCH  68  71
ATOM     71  S   UNL A   1      38.104  28.952  32.557  1.00  0.00     0.127 S 
ATOM     72  O   UNL A   1      38.450  27.543  32.744  1.00  0.00    -0.237 OA
ATOM     73  O   UNL A   1      38.890  29.886  33.363  1.00  0.00    -0.237 OA
ATOM     74  O   UNL A   1      36.678  29.243  32.506  1.00  0.00    -0.744 OA
ENDBRANCH  68  71
ENDBRANCH  50  64
BRANCH  51  75
ATOM     75  C   UNL A   1      49.516  26.677  25.974  1.00  0.00     0.023 A 
ATOM     76  C   UNL A   1      50.408  25.995  26.827  1.00  0.00     0.012 A 
ATOM     77  C   UNL A   1      49.947  27.041  24.684  1.00  0.00     0.148 A 
ATOM     78  C   UNL A   1      51.718  25.727  26.426  1.00  0.00     0.002 A 
ATOM     79  C   UNL A   1      51.242  26.733  24.274  1.00  0.00     0.091 A 
ATOM     80  F   UNL A   1      49.086  27.687  23.886  1.00  0.00    -0.205 F 
ATOM     81  C   UNL A   1      52.133  26.093  25.150  1.00  0.00     0.022 A 
BRANCH  79  82
ATOM     82  S   UNL A   1      51.855  27.077  22.621  1.00  0.00     0.127 S 
ATOM     83  O   UNL A   1      52.185  28.497  22.713  1.00  0.00    -0.237 OA
ATOM     84  O   UNL A   1      53.007  26.179  22.543  1.00  0.00    -0.237 OA
ATOM     85  O   UNL A   1      50.761  26.744  21.719  1.00  0.00    -0.744 OA
ENDBRANCH  79  82
ENDBRANCH  51  75
BRANCH  63  86
ATOM     86  C   UNL A   1      46.799  32.531  28.625  1.00  0.00     0.023 A 
ATOM     87  C   UNL A   1      47.379  32.783  29.883  1.00  0.00     0.012 A 
ATOM     88  C   UNL A   1      46.851  33.526  27.627  1.00  0.00     0.148 A 
ATOM     89  C   UNL A   1      47.981  34.012  30.151  1.00  0.00     0.002 A 
ATOM     90  C   UNL A   1      47.498  34.728  27.883  1.00  0.00     0.091 A 
ATOM     91  F   UNL A   1      46.274  33.274  26.443  1.00  0.00    -0.205 F 
ATOM     92  C   UNL A   1      48.054  34.977  29.149  1.00  0.00     0.022 A 
BRANCH  90  93
ATOM     93  S   UNL A   1      47.734  35.985  26.622  1.00  0.00     0.127 S 
ATOM     94  O   UNL A   1      48.476  37.009  27.357  1.00  0.00    -0.237 OA
ATOM     95  O   UNL A   1      48.516  35.270  25.614  1.00  0.00    -0.237 OA
ATOM     96  O   UNL A   1      46.398  36.375  26.188  1.00  0.00    -0.744 OA
ENDBRANCH  90  93
ENDBRANCH  63  86
ENDBRANCH  37  38
ENDBRANCH  30  32
ENDBRANCH  29  30
ENDBRANCH  28  29
ENDBRANCH  27  28
ENDBRANCH  26  27
ENDBRANCH  25  26
ENDBRANCH   1  25
TORSDOF 23
ENDMDL
MODEL 3
REMARK VINA RESULT:     -10.1      4.166      6.277
REMARK SMILES COC(=O)c1cccc(-c2cnc(Cl)cc2C(=O)OCCOCCOCCOC(=O)c2ccc(-c3c4nc(c(-c5cccc(S(=O)(=O)[O-])c5F)c5ccc([nH]5)c(-c5cccc(S(=O)(=O)[O-])c5F)c5nc(c(-c6cccc(S(=O)(=O)[O-])c6F)c6ccc3[nH]6)C=C5)C=C4)cc2)c1
REMARK SMILES IDX 23 1 22 2 21 3 20 4 19 5 17 6 18 7 16 8 10 9 11 10 12 11
REMARK SMILES IDX 15 12 13 13 14 14 9 15 5 16 6 17 94 18 7 19 8 20 3 21 4 22
REMARK SMILES IDX 2 23 1 24 24 25 25 26 26 27 27 28 28 29 29 30 30 31 31 32
REMARK SMILES IDX 32 33 93 34 33 35 92 36 34 37 35 38 36 39 86 40 37 41 91 42
REMARK SMILES IDX 85 43 87 44 38 45 90 46 84 47 83 48 39 50 71 51 51 52 70 53
REMARK SMILES IDX 52 54 55 55 69 56 88 57 53 58 54 59 68 61 89 62 56 63 40 64
REMARK SMILES IDX 41 65 49 66 42 67 44 68 50 69 43 70 45 71 46 72 47 73 48 74
REMARK SMILES IDX 72 75 73 76 81 77 74 78 76 79 82 80 75 81 77 82 78 83 79 84
REMARK SMILES IDX 80 85 57 86 58 87 66 88 59 89 61 90 67 91 60 92 62 93 63 94
REMARK SMILES IDX 64 95 65 96
REMARK H PARENT 87 49 55 60
REMARK Flexibility Score: inf
ROOT
ATOM      1  C   UNL A   1      33.912  20.941  26.578  1.00  0.00     0.188 C 
ENDROOT
BRANCH   1   2
ATOM      2  O   UNL A   1      33.061  22.018  26.964  1.00  0.00    -0.376 OA
BRANCH   2   3
ATOM      3  C   UNL A   1      33.751  23.259  27.100  1.00  0.00     0.202 C 
BRANCH   3   4
ATOM      4  C   UNL A   1      32.815  24.451  26.887  1.00  0.00     0.261 C 
BRANCH   4   5
ATOM      5  O   UNL A   1      31.420  24.123  27.037  1.00  0.00    -0.460 OA
BRANCH   5   6
ATOM      6  C   UNL A   1      30.538  24.638  26.150  1.00  0.00     0.339 C 
ATOM      7  O   UNL A   1      29.510  25.230  26.420  1.00  0.00    -0.246 OA
BRANCH   6   8
ATOM      8  C   UNL A   1      31.067  24.386  24.777  1.00  0.00     0.072 A 
ATOM      9  C   UNL A   1      31.336  25.442  23.880  1.00  0.00     0.015 A 
ATOM     10  C   UNL A   1      31.815  25.070  22.624  1.00  0.00     0.122 A 
ATOM     11  N   UNL A   1      32.052  23.793  22.235  1.00  0.00    -0.244 NA
ATOM     12  C   UNL A   1      31.306  23.058  24.402  1.00  0.00     0.057 A 
ATOM     13  C   UNL A   1      31.798  22.828  23.136  1.00  0.00     0.129 A 
ATOM     14  Cl  UNL A   1      32.122  21.232  22.596  1.00  0.00    -0.062 Cl
BRANCH   9  15
ATOM     15  C   UNL A   1      31.135  26.855  24.221  1.00  0.00    -0.015 A 
ATOM     16  C   UNL A   1      30.138  29.018  23.704  1.00  0.00     0.060 A 
ATOM     17  C   UNL A   1      31.052  29.644  24.553  1.00  0.00     0.016 A 
ATOM     18  C   UNL A   1      30.139  27.621  23.592  1.00  0.00     0.024 A 
ATOM     19  C   UNL A   1      31.955  28.880  25.288  1.00  0.00     0.002 A 
ATOM     20  C   UNL A   1      32.011  27.497  25.108  1.00  0.00     0.009 A 
BRANCH  16  21
ATOM     21  C   UNL A   1      29.236  29.882  22.906  1.00  0.00     0.337 C 
ATOM     22  O   UNL A   1      28.747  29.523  21.848  1.00  0.00    -0.246 OA
BRANCH  21  23
ATOM     23  O   UNL A   1      29.060  31.094  23.491  1.00  0.00    -0.465 OA
ATOM     24  C   UNL A   1      27.743  31.611  23.264  1.00  0.00     0.282 C 
ENDBRANCH  21  23
ENDBRANCH  16  21
ENDBRANCH   9  15
ENDBRANCH   6   8
ENDBRANCH   5   6
ENDBRANCH   4   5
ENDBRANCH   3   4
ENDBRANCH   2   3
ENDBRANCH   1   2
BRANCH   1  25
ATOM     25  C   UNL A   1      34.714  21.250  25.306  1.00  0.00     0.188 C 
BRANCH  25  26
ATOM     26  O   UNL A   1      36.043  20.763  25.161  1.00  0.00    -0.376 OA
BRANCH  26  27
ATOM     27  C   UNL A   1      36.997  21.607  24.548  1.00  0.00     0.202 C 
BRANCH  27  28
ATOM     28  C   UNL A   1      37.614  22.717  25.408  1.00  0.00     0.261 C 
BRANCH  28  29
ATOM     29  O   UNL A   1      38.447  22.288  26.493  1.00  0.00    -0.460 OA
BRANCH  29  30
ATOM     30  C   UNL A   1      39.780  22.507  26.349  1.00  0.00     0.338 C 
ATOM     31  O   UNL A   1      40.616  21.732  25.923  1.00  0.00    -0.246 OA
BRANCH  30  32
ATOM     32  C   UNL A   1      40.048  23.906  26.748  1.00  0.00     0.060 A 
ATOM     33  C   UNL A   1      40.388  24.871  25.792  1.00  0.00     0.016 A 
ATOM     34  C   UNL A   1      39.952  24.259  28.093  1.00  0.00     0.016 A 
ATOM     35  C   UNL A   1      40.612  26.203  26.184  1.00  0.00     0.010 A 
ATOM     36  C   UNL A   1      40.159  25.587  28.476  1.00  0.00     0.010 A 
ATOM     37  C   UNL A   1      40.506  26.574  27.533  1.00  0.00    -0.014 A 
BRANCH  37  38
ATOM     38  C   UNL A   1      40.873  27.937  28.027  1.00  0.00     0.031 A 
ATOM     39  C   UNL A   1      42.330  28.291  28.139  1.00  0.00     0.074 A 
ATOM     40  C   UNL A   1      39.960  28.827  28.468  1.00  0.00     0.049 A 
ATOM     41  N   UNL A   1      42.883  29.364  28.643  1.00  0.00    -0.248 NA
ATOM     42  C   UNL A   1      43.289  27.296  27.634  1.00  0.00     0.031 C 
ATOM     43  C   UNL A   1      38.519  28.634  28.432  1.00  0.00     0.029 A 
ATOM     44  N   UNL A   1      40.107  30.057  29.070  1.00  0.00    -0.354 N 
ATOM     45  C   UNL A   1      44.251  29.160  28.540  1.00  0.00     0.074 A 
ATOM     46  C   UNL A   1      44.444  27.837  27.987  1.00  0.00     0.031 C 
ATOM     47  C   UNL A   1      37.909  29.671  29.031  1.00  0.00     0.029 A 
ATOM     48  C   UNL A   1      38.919  30.616  29.492  1.00  0.00     0.049 A 
ATOM     49  H   UNL A   1      40.980  30.497  29.187  1.00  0.00     0.167 HD
ATOM     50  C   UNL A   1      45.263  30.011  28.829  1.00  0.00     0.034 A 
ATOM     51  C   UNL A   1      38.665  31.757  30.166  1.00  0.00     0.034 A 
ATOM     52  C   UNL A   1      45.087  31.340  29.339  1.00  0.00     0.049 A 
ATOM     53  C   UNL A   1      39.809  32.681  30.503  1.00  0.00     0.074 A 
ATOM     54  C   UNL A   1      46.052  32.300  29.587  1.00  0.00     0.029 A 
ATOM     55  N   UNL A   1      43.867  31.899  29.687  1.00  0.00    -0.354 N 
ATOM     56  N   UNL A   1      41.086  32.536  30.248  1.00  0.00    -0.248 NA
ATOM     57  C   UNL A   1      39.471  33.952  31.164  1.00  0.00     0.031 C 
ATOM     58  C   UNL A   1      45.417  33.434  30.104  1.00  0.00     0.029 A 
ATOM     59  C   UNL A   1      44.055  33.189  30.152  1.00  0.00     0.049 A 
ATOM     60  H   UNL A   1      42.997  31.447  29.613  1.00  0.00     0.167 HD
ATOM     61  C   UNL A   1      41.692  33.720  30.655  1.00  0.00     0.074 A 
ATOM     62  C   UNL A   1      40.643  34.572  31.172  1.00  0.00     0.031 C 
ATOM     63  C   UNL A   1      43.002  34.063  30.602  1.00  0.00     0.034 A 
BRANCH  50  64
ATOM     64  C   UNL A   1      46.655  29.525  28.536  1.00  0.00     0.023 A 
ATOM     65  C   UNL A   1      47.218  29.762  27.263  1.00  0.00     0.012 A 
ATOM     66  C   UNL A   1      47.403  28.835  29.508  1.00  0.00     0.148 A 
ATOM     67  C   UNL A   1      48.479  29.269  26.943  1.00  0.00     0.002 A 
ATOM     68  C   UNL A   1      48.681  28.391  29.196  1.00  0.00     0.091 A 
ATOM     69  F   UNL A   1      46.841  28.604  30.702  1.00  0.00    -0.205 F 
ATOM     70  C   UNL A   1      49.213  28.590  27.911  1.00  0.00     0.022 A 
BRANCH  68  71
ATOM     71  S   UNL A   1      49.738  27.572  30.393  1.00  0.00     0.127 S 
ATOM     72  O   UNL A   1      50.899  27.226  29.573  1.00  0.00    -0.237 OA
ATOM     73  O   UNL A   1      49.974  28.636  31.369  1.00  0.00    -0.237 OA
ATOM     74  O   UNL A   1      48.973  26.441  30.899  1.00  0.00    -0.744 OA
ENDBRANCH  68  71
ENDBRANCH  50  64
BRANCH  51  75
ATOM     75  C   UNL A   1      37.263  32.161  30.491  1.00  0.00     0.023 A 
ATOM     76  C   UNL A   1      36.717  31.789  31.737  1.00  0.00     0.012 A 
ATOM     77  C   UNL A   1      36.461  32.871  29.577  1.00  0.00     0.148 A 
ATOM     78  C   UNL A   1      35.386  32.070  32.048  1.00  0.00     0.002 A 
ATOM     79  C   UNL A   1      35.147  33.187  29.911  1.00  0.00     0.091 A 
ATOM     80  F   UNL A   1      36.997  33.218  28.400  1.00  0.00    -0.205 F 
ATOM     81  C   UNL A   1      34.603  32.771  31.136  1.00  0.00     0.022 A 
BRANCH  79  82
ATOM     82  S   UNL A   1      34.074  34.163  28.851  1.00  0.00     0.127 S 
ATOM     83  O   UNL A   1      33.628  33.169  27.878  1.00  0.00    -0.237 OA
ATOM     84  O   UNL A   1      33.050  34.604  29.797  1.00  0.00    -0.237 OA
ATOM     85  O   UNL A   1      34.912  35.230  28.320  1.00  0.00    -0.744 OA
ENDBRANCH  79  82
ENDBRANCH  51  75
BRANCH  63  86
ATOM     86  C   UNL A   1      43.392  35.447  31.054  1.00  0.00     0.023 A 
ATOM     87  C   UNL A   1      43.765  35.676  32.392  1.00  0.00     0.012 A 
ATOM     88  C   UNL A   1      43.481  36.500  30.121  1.00  0.00     0.148 A 
ATOM     89  C   UNL A   1      44.198  36.937  32.800  1.00  0.00     0.002 A 
ATOM     90  C   UNL A   1      43.963  37.740  30.522  1.00  0.00     0.091 A 
ATOM     91  F   UNL A   1      43.101  36.268  28.856  1.00  0.00    -0.205 F 
ATOM     92  C   UNL A   1      44.311  37.963  31.864  1.00  0.00     0.022 A 
BRANCH  90  93
ATOM     93  S   UNL A   1      44.242  39.087  29.367  1.00  0.00     0.127 S 
ATOM     94  O   UNL A   1      42.880  39.398  28.936  1.00  0.00    -0.237 OA
ATOM     95  O   UNL A   1      44.858  40.103  30.221  1.00  0.00    -0.237 OA
ATOM     96  O   UNL A   1      45.118  38.555  28.332  1.00  0.00    -0.744 OA
ENDBRANCH  90  93
ENDBRANCH  63  86
ENDBRANCH  37  38
ENDBRANCH  30  32
ENDBRANCH  29  30
ENDBRANCH  28  29
ENDBRANCH  27  28
ENDBRANCH  26  27
ENDBRANCH  25  26
ENDBRANCH   1  25
TORSDOF 23
ENDMDL
