MODEL 1
REMARK VINA RESULT:      -9.6      0.000      0.000
REMARK SMILES Cc1ccc(Cl)c(Nc2ccccc2C(=O)NCC(=O)OCCOCCOCCOC(=O)c2ccc(-c3c4nc(c(-c5cccc(S(=O)(=O)[O-])c5F)c5ccc([nH]5)c(-c5cccc(S(=O)(=O)[O-])c5F)c5nc(c(-c6cccc(S(=O)(=O)[O-])c6F)c6ccc3[nH]6)C=C5)C=C4)cc2)c1Cl
REMARK SMILES IDX 25 1 24 2 23 3 22 4 21 5 19 6 20 7 18 8 17 9 15 10 16 11
REMARK SMILES IDX 14 13 9 14 10 15 11 16 13 17 12 18 8 19 7 21 1 22 2 23 3 24
REMARK SMILES IDX 96 25 4 26 97 27 5 28 6 29 26 30 27 31 28 32 29 33 30 34
REMARK SMILES IDX 31 35 32 36 33 37 34 38 95 39 35 40 94 41 36 42 37 43 38 44
REMARK SMILES IDX 88 45 39 46 93 47 87 48 89 49 40 50 92 51 86 52 85 53 41 55
REMARK SMILES IDX 73 56 53 57 72 58 54 59 57 60 71 61 90 62 55 63 56 64 70 66
REMARK SMILES IDX 91 67 58 68 42 69 43 70 51 71 44 72 46 73 52 74 45 75 47 76
REMARK SMILES IDX 48 77 49 78 50 79 74 80 75 81 83 82 76 83 78 84 84 85 77 86
REMARK SMILES IDX 79 87 80 88 81 89 82 90 59 91 60 92 68 93 61 94 63 95 69 96
REMARK SMILES IDX 62 97 64 98 65 99 66 100 67 101
REMARK H PARENT 17 12 8 20 89 54 57 65
REMARK Flexibility Score: inf
ROOT
ATOM      1  C   UNL A   1      35.001  32.857  28.607  1.00  0.00     0.188 C 
ENDROOT
BRANCH   1   2
ATOM      2  O   UNL A   1      34.593  31.730  27.858  1.00  0.00    -0.376 OA
BRANCH   2   3
ATOM      3  C   UNL A   1      35.399  30.557  27.885  1.00  0.00     0.202 C 
BRANCH   3   4
ATOM      4  C   UNL A   1      34.913  29.220  27.305  1.00  0.00     0.261 C 
BRANCH   4   5
ATOM      5  O   UNL A   1      33.701  29.290  26.542  1.00  0.00    -0.462 OA
BRANCH   5   6
ATOM      6  C   UNL A   1      32.937  28.179  26.708  1.00  0.00     0.325 C 
ATOM      7  O   UNL A   1      31.791  28.197  27.158  1.00  0.00    -0.250 OA
BRANCH   6   8
ATOM      8  C   UNL A   1      33.460  26.952  25.990  1.00  0.00     0.239 C 
BRANCH   8   9
ATOM      9  N   UNL A   1      33.861  26.834  24.606  1.00  0.00    -0.341 N 
ATOM     10  C   UNL A   1      33.195  27.391  23.526  1.00  0.00     0.253 C 
ATOM     11  O   UNL A   1      33.769  27.485  22.442  1.00  0.00    -0.269 OA
ATOM     12  H   UNL A   1      34.674  26.314  24.414  1.00  0.00     0.164 HD
BRANCH  10  13
ATOM     13  C   UNL A   1      31.723  27.654  23.601  1.00  0.00     0.063 A 
ATOM     14  C   UNL A   1      30.671  26.727  23.424  1.00  0.00     0.051 A 
ATOM     15  C   UNL A   1      29.379  27.248  23.195  1.00  0.00     0.027 A 
ATOM     16  C   UNL A   1      29.117  28.619  23.225  1.00  0.00     0.002 A 
ATOM     17  C   UNL A   1      31.432  29.032  23.705  1.00  0.00     0.016 A 
ATOM     18  C   UNL A   1      30.138  29.510  23.523  1.00  0.00     0.001 A 
BRANCH  14  19
ATOM     19  N   UNL A   1      30.757  25.316  23.468  1.00  0.00    -0.352 N 
ATOM     20  H   UNL A   1      30.279  24.879  22.727  1.00  0.00     0.167 HD
BRANCH  19  21
ATOM     21  C   UNL A   1      31.380  24.394  24.346  1.00  0.00     0.077 A 
ATOM     22  C   UNL A   1      33.918  21.511  24.450  1.00  0.00     0.046 C 
ATOM     23  C   UNL A   1      32.864  22.505  24.859  1.00  0.00    -0.030 A 
ATOM     24  C   UNL A   1      32.331  22.434  26.153  1.00  0.00     0.006 A 
ATOM     25  C   UNL A   1      32.404  23.502  23.968  1.00  0.00     0.069 A 
ATOM     26  C   UNL A   1      31.369  23.346  26.571  1.00  0.00     0.023 A 
ATOM     27  Cl  UNL A   1      33.242  23.714  22.457  1.00  0.00    -0.082 Cl
ATOM     28  C   UNL A   1      30.908  24.315  25.680  1.00  0.00     0.066 A 
ATOM     29  Cl  UNL A   1      29.691  25.413  26.254  1.00  0.00    -0.082 Cl
ENDBRANCH  19  21
ENDBRANCH  14  19
ENDBRANCH  10  13
ENDBRANCH   8   9
ENDBRANCH   6   8
ENDBRANCH   5   6
ENDBRANCH   4   5
ENDBRANCH   3   4
ENDBRANCH   2   3
ENDBRANCH   1   2
BRANCH   1  30
ATOM     30  C   UNL A   1      33.941  33.972  28.669  1.00  0.00     0.188 C 
BRANCH  30  31
ATOM     31  O   UNL A   1      34.229  35.293  28.234  1.00  0.00    -0.376 OA
BRANCH  31  32
ATOM     32  C   UNL A   1      33.565  36.377  28.885  1.00  0.00     0.202 C 
BRANCH  32  33
ATOM     33  C   UNL A   1      32.652  36.157  30.113  1.00  0.00     0.261 C 
BRANCH  33  34
ATOM     34  O   UNL A   1      33.270  36.298  31.401  1.00  0.00    -0.460 OA
BRANCH  34  35
ATOM     35  C   UNL A   1      33.133  35.225  32.223  1.00  0.00     0.338 C 
ATOM     36  O   UNL A   1      32.100  34.781  32.688  1.00  0.00    -0.246 OA
BRANCH  35  37
ATOM     37  C   UNL A   1      34.420  34.498  32.290  1.00  0.00     0.060 A 
ATOM     38  C   UNL A   1      34.438  33.254  32.944  1.00  0.00     0.016 A 
ATOM     39  C   UNL A   1      35.588  35.032  31.752  1.00  0.00     0.016 A 
ATOM     40  C   UNL A   1      35.627  32.541  33.069  1.00  0.00     0.010 A 
ATOM     41  C   UNL A   1      36.791  34.335  31.918  1.00  0.00     0.010 A 
ATOM     42  C   UNL A   1      36.817  33.103  32.599  1.00  0.00    -0.014 A 
BRANCH  42  43
ATOM     43  C   UNL A   1      38.112  32.520  33.018  1.00  0.00     0.031 A 
ATOM     44  C   UNL A   1      38.696  31.422  32.174  1.00  0.00     0.074 A 
ATOM     45  C   UNL A   1      38.751  32.934  34.125  1.00  0.00     0.049 A 
ATOM     46  N   UNL A   1      39.752  30.682  32.387  1.00  0.00    -0.248 NA
ATOM     47  C   UNL A   1      37.985  31.115  30.922  1.00  0.00     0.031 C 
ATOM     48  C   UNL A   1      38.304  34.009  35.007  1.00  0.00     0.029 A 
ATOM     49  N   UNL A   1      39.896  32.460  34.716  1.00  0.00    -0.354 N 
ATOM     50  C   UNL A   1      39.805  29.790  31.324  1.00  0.00     0.074 A 
ATOM     51  C   UNL A   1      38.682  30.088  30.461  1.00  0.00     0.031 C 
ATOM     52  C   UNL A   1      39.140  34.080  36.058  1.00  0.00     0.029 A 
ATOM     53  C   UNL A   1      40.154  33.032  35.938  1.00  0.00     0.049 A 
ATOM     54  H   UNL A   1      40.475  31.779  34.304  1.00  0.00     0.167 HD
ATOM     55  C   UNL A   1      40.705  28.809  31.086  1.00  0.00     0.034 A 
ATOM     56  C   UNL A   1      41.074  32.714  36.872  1.00  0.00     0.034 A 
ATOM     57  C   UNL A   1      41.823  28.517  31.941  1.00  0.00     0.049 A 
ATOM     58  C   UNL A   1      42.046  31.592  36.607  1.00  0.00     0.074 A 
ATOM     59  C   UNL A   1      42.819  27.574  31.761  1.00  0.00     0.029 A 
ATOM     60  N   UNL A   1      42.079  29.146  33.149  1.00  0.00    -0.354 N 
ATOM     61  N   UNL A   1      42.152  30.823  35.551  1.00  0.00    -0.248 NA
ATOM     62  C   UNL A   1      43.043  31.312  37.652  1.00  0.00     0.031 C 
ATOM     63  C   UNL A   1      43.655  27.606  32.882  1.00  0.00     0.029 A 
ATOM     64  C   UNL A   1      43.206  28.600  33.738  1.00  0.00     0.049 A 
ATOM     65  H   UNL A   1      41.539  29.875  33.532  1.00  0.00     0.167 HD
ATOM     66  C   UNL A   1      43.244  29.993  35.787  1.00  0.00     0.074 A 
ATOM     67  C   UNL A   1      43.775  30.365  37.082  1.00  0.00     0.031 C 
ATOM     68  C   UNL A   1      43.756  29.008  35.006  1.00  0.00     0.034 A 
BRANCH  55  69
ATOM     69  C   UNL A   1      40.501  27.969  29.854  1.00  0.00     0.023 A 
ATOM     70  C   UNL A   1      39.512  26.965  29.840  1.00  0.00     0.012 A 
ATOM     71  C   UNL A   1      41.284  28.185  28.704  1.00  0.00     0.148 A 
ATOM     72  C   UNL A   1      39.335  26.160  28.714  1.00  0.00     0.002 A 
ATOM     73  C   UNL A   1      41.069  27.413  27.570  1.00  0.00     0.091 A 
ATOM     74  F   UNL A   1      42.240  29.125  28.748  1.00  0.00    -0.205 F 
ATOM     75  C   UNL A   1      40.106  26.391  27.578  1.00  0.00     0.022 A 
BRANCH  73  76
ATOM     76  S   UNL A   1      41.958  27.691  26.035  1.00  0.00     0.127 S 
ATOM     77  O   UNL A   1      41.476  26.584  25.210  1.00  0.00    -0.237 OA
ATOM     78  O   UNL A   1      41.470  29.010  25.631  1.00  0.00    -0.237 OA
ATOM     79  O   UNL A   1      43.372  27.648  26.378  1.00  0.00    -0.744 OA
ENDBRANCH  73  76
ENDBRANCH  55  69
BRANCH  56  80
ATOM     80  C   UNL A   1      41.118  33.475  38.153  1.00  0.00     0.023 A 
ATOM     81  C   UNL A   1      40.391  33.012  39.265  1.00  0.00     0.012 A 
ATOM     82  C   UNL A   1      41.905  34.637  38.278  1.00  0.00     0.148 A 
ATOM     83  C   UNL A   1      40.430  33.705  40.476  1.00  0.00     0.002 A 
ATOM     84  C   UNL A   1      41.983  35.290  39.502  1.00  0.00     0.091 A 
ATOM     85  F   UNL A   1      42.577  35.067  37.202  1.00  0.00    -0.205 F 
ATOM     86  C   UNL A   1      41.235  34.835  40.598  1.00  0.00     0.022 A 
BRANCH  84  87
ATOM     87  S   UNL A   1      43.093  36.672  39.791  1.00  0.00     0.127 S 
ATOM     88  O   UNL A   1      44.396  36.073  39.513  1.00  0.00    -0.237 OA
ATOM     89  O   UNL A   1      42.631  37.636  38.792  1.00  0.00    -0.237 OA
ATOM     90  O   UNL A   1      42.870  37.079  41.171  1.00  0.00    -0.744 OA
ENDBRANCH  84  87
ENDBRANCH  56  80
BRANCH  68  91
ATOM     91  C   UNL A   1      44.985  28.282  35.496  1.00  0.00     0.023 A 
ATOM     92  C   UNL A   1      46.265  28.823  35.267  1.00  0.00     0.012 A 
ATOM     93  C   UNL A   1      44.860  27.105  36.261  1.00  0.00     0.148 A 
ATOM     94  C   UNL A   1      47.403  28.189  35.767  1.00  0.00     0.002 A 
ATOM     95  C   UNL A   1      45.993  26.507  36.800  1.00  0.00     0.091 A 
ATOM     96  F   UNL A   1      43.635  26.596  36.454  1.00  0.00    -0.205 F 
ATOM     97  C   UNL A   1      47.266  27.040  36.543  1.00  0.00     0.022 A 
BRANCH  95  98
ATOM     98  S   UNL A   1      45.905  25.085  37.894  1.00  0.00     0.127 S 
ATOM     99  O   UNL A   1      47.311  24.696  37.990  1.00  0.00    -0.237 OA
ATOM    100  O   UNL A   1      45.347  25.665  39.115  1.00  0.00    -0.237 OA
ATOM    101  O   UNL A   1      45.036  24.121  37.231  1.00  0.00    -0.744 OA
ENDBRANCH  95  98
ENDBRANCH  68  91
ENDBRANCH  42  43
ENDBRANCH  35  37
ENDBRANCH  34  35
ENDBRANCH  33  34
ENDBRANCH  32  33
ENDBRANCH  31  32
ENDBRANCH  30  31
ENDBRANCH   1  30
TORSDOF 24
ENDMDL
MODEL 2
REMARK VINA RESULT:      -9.4      2.313      7.408
REMARK SMILES Cc1ccc(Cl)c(Nc2ccccc2C(=O)NCC(=O)OCCOCCOCCOC(=O)c2ccc(-c3c4nc(c(-c5cccc(S(=O)(=O)[O-])c5F)c5ccc([nH]5)c(-c5cccc(S(=O)(=O)[O-])c5F)c5nc(c(-c6cccc(S(=O)(=O)[O-])c6F)c6ccc3[nH]6)C=C5)C=C4)cc2)c1Cl
REMARK SMILES IDX 25 1 24 2 23 3 22 4 21 5 19 6 20 7 18 8 17 9 15 10 16 11
REMARK SMILES IDX 14 13 9 14 10 15 11 16 13 17 12 18 8 19 7 21 1 22 2 23 3 24
REMARK SMILES IDX 96 25 4 26 97 27 5 28 6 29 26 30 27 31 28 32 29 33 30 34
REMARK SMILES IDX 31 35 32 36 33 37 34 38 95 39 35 40 94 41 36 42 37 43 38 44
REMARK SMILES IDX 88 45 39 46 93 47 87 48 89 49 40 50 92 51 86 52 85 53 41 55
REMARK SMILES IDX 73 56 53 57 72 58 54 59 57 60 71 61 90 62 55 63 56 64 70 66
REMARK SMILES IDX 91 67 58 68 42 69 43 70 51 71 44 72 46 73 52 74 45 75 47 76
REMARK SMILES IDX 48 77 49 78 50 79 74 80 75 81 83 82 76 83 78 84 84 85 77 86
REMARK SMILES IDX 79 87 80 88 81 89 82 90 59 91 60 92 68 93 61 94 63 95 69 96
REMARK SMILES IDX 62 97 64 98 65 99 66 100 67 101
REMARK H PARENT 17 12 8 20 89 54 57 65
REMARK Flexibility Score: inf
ROOT
ATOM      1  C   UNL A   1      35.594  32.383  28.536  1.00  0.00     0.188 C 
ENDROOT
BRANCH   1   2
ATOM      2  O   UNL A   1      35.050  31.427  27.649  1.00  0.00    -0.376 OA
BRANCH   2   3
ATOM      3  C   UNL A   1      35.593  30.111  27.635  1.00  0.00     0.202 C 
BRANCH   3   4
ATOM      4  C   UNL A   1      34.802  28.906  27.104  1.00  0.00     0.261 C 
BRANCH   4   5
ATOM      5  O   UNL A   1      33.436  29.176  26.761  1.00  0.00    -0.462 OA
BRANCH   5   6
ATOM      6  C   UNL A   1      32.620  28.141  27.089  1.00  0.00     0.325 C 
ATOM      7  O   UNL A   1      31.569  28.271  27.717  1.00  0.00    -0.250 OA
BRANCH   6   8
ATOM      8  C   UNL A   1      32.914  26.856  26.343  1.00  0.00     0.239 C 
BRANCH   8   9
ATOM      9  N   UNL A   1      33.435  26.706  25.002  1.00  0.00    -0.341 N 
ATOM     10  C   UNL A   1      32.919  27.308  23.867  1.00  0.00     0.253 C 
ATOM     11  O   UNL A   1      33.598  27.356  22.843  1.00  0.00    -0.269 OA
ATOM     12  H   UNL A   1      34.222  26.125  24.885  1.00  0.00     0.164 HD
BRANCH  10  13
ATOM     13  C   UNL A   1      31.470  27.682  23.804  1.00  0.00     0.063 A 
ATOM     14  C   UNL A   1      30.375  26.842  23.500  1.00  0.00     0.051 A 
ATOM     15  C   UNL A   1      29.155  27.464  23.158  1.00  0.00     0.027 A 
ATOM     16  C   UNL A   1      28.993  28.850  23.198  1.00  0.00     0.002 A 
ATOM     17  C   UNL A   1      31.273  29.076  23.914  1.00  0.00     0.016 A 
ATOM     18  C   UNL A   1      30.042  29.655  23.618  1.00  0.00     0.001 A 
BRANCH  14  19
ATOM     19  N   UNL A   1      30.351  25.428  23.515  1.00  0.00    -0.352 N 
ATOM     20  H   UNL A   1      29.759  25.046  22.828  1.00  0.00     0.167 HD
BRANCH  19  21
ATOM     21  C   UNL A   1      30.993  24.441  24.304  1.00  0.00     0.077 A 
ATOM     22  C   UNL A   1      33.474  21.513  24.111  1.00  0.00     0.046 C 
ATOM     23  C   UNL A   1      32.459  22.497  24.629  1.00  0.00    -0.030 A 
ATOM     24  C   UNL A   1      31.982  22.351  25.939  1.00  0.00     0.006 A 
ATOM     25  C   UNL A   1      31.981  23.557  23.825  1.00  0.00     0.069 A 
ATOM     26  C   UNL A   1      31.058  23.252  26.457  1.00  0.00     0.023 A 
ATOM     27  Cl  UNL A   1      32.757  23.851  22.294  1.00  0.00    -0.082 Cl
ATOM     28  C   UNL A   1      30.578  24.283  25.651  1.00  0.00     0.066 A 
ATOM     29  Cl  UNL A   1      29.410  25.364  26.347  1.00  0.00    -0.082 Cl
ENDBRANCH  19  21
ENDBRANCH  14  19
ENDBRANCH  10  13
ENDBRANCH   8   9
ENDBRANCH   6   8
ENDBRANCH   5   6
ENDBRANCH   4   5
ENDBRANCH   3   4
ENDBRANCH   2   3
ENDBRANCH   1   2
BRANCH   1  30
ATOM     30  C   UNL A   1      34.623  33.527  28.880  1.00  0.00     0.188 C 
BRANCH  30  31
ATOM     31  O   UNL A   1      34.818  34.841  28.374  1.00  0.00    -0.376 OA
BRANCH  31  32
ATOM     32  C   UNL A   1      33.942  35.874  28.827  1.00  0.00     0.202 C 
BRANCH  32  33
ATOM     33  C   UNL A   1      32.740  35.578  29.754  1.00  0.00     0.261 C 
BRANCH  33  34
ATOM     34  O   UNL A   1      32.745  36.232  31.032  1.00  0.00    -0.460 OA
BRANCH  34  35
ATOM     35  C   UNL A   1      32.669  35.397  32.102  1.00  0.00     0.338 C 
ATOM     36  O   UNL A   1      31.665  35.045  32.692  1.00  0.00    -0.246 OA
BRANCH  35  37
ATOM     37  C   UNL A   1      33.989  34.763  32.315  1.00  0.00     0.060 A 
ATOM     38  C   UNL A   1      34.017  33.386  32.599  1.00  0.00     0.016 A 
ATOM     39  C   UNL A   1      35.169  35.500  32.269  1.00  0.00     0.016 A 
ATOM     40  C   UNL A   1      35.226  32.742  32.844  1.00  0.00     0.010 A 
ATOM     41  C   UNL A   1      36.379  34.860  32.560  1.00  0.00     0.010 A 
ATOM     42  C   UNL A   1      36.408  33.488  32.875  1.00  0.00    -0.014 A 
BRANCH  42  43
ATOM     43  C   UNL A   1      37.632  32.889  33.454  1.00  0.00     0.031 A 
ATOM     44  C   UNL A   1      37.930  33.158  34.902  1.00  0.00     0.074 A 
ATOM     45  C   UNL A   1      38.471  32.142  32.718  1.00  0.00     0.049 A 
ATOM     46  N   UNL A   1      38.984  32.843  35.606  1.00  0.00    -0.248 NA
ATOM     47  C   UNL A   1      36.897  33.890  35.654  1.00  0.00     0.031 C 
ATOM     48  C   UNL A   1      38.277  31.784  31.316  1.00  0.00     0.029 A 
ATOM     49  N   UNL A   1      39.683  31.586  33.048  1.00  0.00    -0.354 N 
ATOM     50  C   UNL A   1      38.766  33.378  36.869  1.00  0.00     0.074 A 
ATOM     51  C   UNL A   1      37.474  34.030  36.837  1.00  0.00     0.031 C 
ATOM     52  C   UNL A   1      39.360  31.110  30.889  1.00  0.00     0.029 A 
ATOM     53  C   UNL A   1      40.334  31.025  31.977  1.00  0.00     0.049 A 
ATOM     54  H   UNL A   1      40.048  31.590  33.962  1.00  0.00     0.167 HD
ATOM     55  C   UNL A   1      39.568  33.334  37.957  1.00  0.00     0.034 A 
ATOM     56  C   UNL A   1      41.589  30.540  31.876  1.00  0.00     0.034 A 
ATOM     57  C   UNL A   1      40.848  32.683  37.988  1.00  0.00     0.049 A 
ATOM     58  C   UNL A   1      42.483  30.535  33.090  1.00  0.00     0.074 A 
ATOM     59  C   UNL A   1      41.715  32.543  39.057  1.00  0.00     0.029 A 
ATOM     60  N   UNL A   1      41.458  32.085  36.896  1.00  0.00    -0.354 N 
ATOM     61  N   UNL A   1      42.228  30.950  34.307  1.00  0.00    -0.248 NA
ATOM     62  C   UNL A   1      43.831  29.968  32.923  1.00  0.00     0.031 C 
ATOM     63  C   UNL A   1      42.868  31.895  38.600  1.00  0.00     0.029 A 
ATOM     64  C   UNL A   1      42.699  31.591  37.258  1.00  0.00     0.049 A 
ATOM     65  H   UNL A   1      41.066  32.021  35.995  1.00  0.00     0.167 HD
ATOM     66  C   UNL A   1      43.365  30.665  35.058  1.00  0.00     0.074 A 
ATOM     67  C   UNL A   1      44.306  30.028  34.160  1.00  0.00     0.031 C 
ATOM     68  C   UNL A   1      43.610  30.916  36.369  1.00  0.00     0.034 A 
BRANCH  55  69
ATOM     69  C   UNL A   1      39.083  34.030  39.200  1.00  0.00     0.023 A 
ATOM     70  C   UNL A   1      39.485  35.354  39.472  1.00  0.00     0.012 A 
ATOM     71  C   UNL A   1      38.216  33.373  40.094  1.00  0.00     0.148 A 
ATOM     72  C   UNL A   1      39.065  35.997  40.636  1.00  0.00     0.002 A 
ATOM     73  C   UNL A   1      37.763  34.037  41.227  1.00  0.00     0.091 A 
ATOM     74  F   UNL A   1      37.870  32.104  39.834  1.00  0.00    -0.205 F 
ATOM     75  C   UNL A   1      38.198  35.343  41.507  1.00  0.00     0.022 A 
BRANCH  73  76
ATOM     76  S   UNL A   1      36.582  33.305  42.363  1.00  0.00     0.127 S 
ATOM     77  O   UNL A   1      36.330  34.414  43.282  1.00  0.00    -0.237 OA
ATOM     78  O   UNL A   1      35.463  32.980  41.478  1.00  0.00    -0.237 OA
ATOM     79  O   UNL A   1      37.250  32.148  42.944  1.00  0.00    -0.744 OA
ENDBRANCH  73  76
ENDBRANCH  55  69
BRANCH  56  80
ATOM     80  C   UNL A   1      42.074  30.018  30.568  1.00  0.00     0.023 A 
ATOM     81  C   UNL A   1      42.724  30.884  29.668  1.00  0.00     0.012 A 
ATOM     82  C   UNL A   1      41.924  28.659  30.229  1.00  0.00     0.148 A 
ATOM     83  C   UNL A   1      43.196  30.409  28.444  1.00  0.00     0.002 A 
ATOM     84  C   UNL A   1      42.446  28.182  29.033  1.00  0.00     0.091 A 
ATOM     85  F   UNL A   1      41.290  27.856  31.095  1.00  0.00    -0.205 F 
ATOM     86  C   UNL A   1      43.068  29.058  28.132  1.00  0.00     0.022 A 
BRANCH  84  87
ATOM     87  S   UNL A   1      42.447  26.438  28.607  1.00  0.00     0.127 S 
ATOM     88  O   UNL A   1      43.268  25.869  29.673  1.00  0.00    -0.237 OA
ATOM     89  O   UNL A   1      41.023  26.113  28.684  1.00  0.00    -0.237 OA
ATOM     90  O   UNL A   1      43.013  26.356  27.267  1.00  0.00    -0.744 OA
ENDBRANCH  84  87
ENDBRANCH  56  80
BRANCH  68  91
ATOM     91  C   UNL A   1      44.930  30.461  36.942  1.00  0.00     0.023 A 
ATOM     92  C   UNL A   1      46.001  31.368  37.060  1.00  0.00     0.012 A 
ATOM     93  C   UNL A   1      45.075  29.152  37.446  1.00  0.00     0.148 A 
ATOM     94  C   UNL A   1      47.205  30.972  37.644  1.00  0.00     0.002 A 
ATOM     95  C   UNL A   1      46.259  28.780  38.072  1.00  0.00     0.091 A 
ATOM     96  F   UNL A   1      44.051  28.298  37.310  1.00  0.00    -0.205 F 
ATOM     97  C   UNL A   1      47.329  29.684  38.161  1.00  0.00     0.022 A 
BRANCH  95  98
ATOM     98  S   UNL A   1      46.472  27.178  38.856  1.00  0.00     0.127 S 
ATOM     99  O   UNL A   1      46.361  26.271  37.714  1.00  0.00    -0.237 OA
ATOM    100  O   UNL A   1      47.817  27.284  39.422  1.00  0.00    -0.237 OA
ATOM    101  O   UNL A   1      45.408  27.068  39.845  1.00  0.00    -0.744 OA
ENDBRANCH  95  98
ENDBRANCH  68  91
ENDBRANCH  42  43
ENDBRANCH  35  37
ENDBRANCH  34  35
ENDBRANCH  33  34
ENDBRANCH  32  33
ENDBRANCH  31  32
ENDBRANCH  30  31
ENDBRANCH   1  30
TORSDOF 24
ENDMDL
MODEL 3
REMARK VINA RESULT:      -9.2      1.439      7.510
REMARK SMILES Cc1ccc(Cl)c(Nc2ccccc2C(=O)NCC(=O)OCCOCCOCCOC(=O)c2ccc(-c3c4nc(c(-c5cccc(S(=O)(=O)[O-])c5F)c5ccc([nH]5)c(-c5cccc(S(=O)(=O)[O-])c5F)c5nc(c(-c6cccc(S(=O)(=O)[O-])c6F)c6ccc3[nH]6)C=C5)C=C4)cc2)c1Cl
REMARK SMILES IDX 25 1 24 2 23 3 22 4 21 5 19 6 20 7 18 8 17 9 15 10 16 11
REMARK SMILES IDX 14 13 9 14 10 15 11 16 13 17 12 18 8 19 7 21 1 22 2 23 3 24
REMARK SMILES IDX 96 25 4 26 97 27 5 28 6 29 26 30 27 31 28 32 29 33 30 34
REMARK SMILES IDX 31 35 32 36 33 37 34 38 95 39 35 40 94 41 36 42 37 43 38 44
REMARK SMILES IDX 88 45 39 46 93 47 87 48 89 49 40 50 92 51 86 52 85 53 41 55
REMARK SMILES IDX 73 56 53 57 72 58 54 59 57 60 71 61 90 62 55 63 56 64 70 66
REMARK SMILES IDX 91 67 58 68 42 69 43 70 51 71 44 72 46 73 52 74 45 75 47 76
REMARK SMILES IDX 48 77 49 78 50 79 74 80 75 81 83 82 76 83 78 84 84 85 77 86
REMARK SMILES IDX 79 87 80 88 81 89 82 90 59 91 60 92 68 93 61 94 63 95 69 96
REMARK SMILES IDX 62 97 64 98 65 99 66 100 67 101
REMARK H PARENT 17 12 8 20 89 54 57 65
REMARK Flexibility Score: inf
ROOT
ATOM      1  C   UNL A   1      35.097  31.544  27.967  1.00  0.00     0.188 C 
ENDROOT
BRANCH   1   2
ATOM      2  O   UNL A   1      34.186  30.976  27.048  1.00  0.00    -0.376 OA
BRANCH   2   3
ATOM      3  C   UNL A   1      33.623  29.700  27.335  1.00  0.00     0.202 C 
BRANCH   3   4
ATOM      4  C   UNL A   1      32.146  29.379  27.061  1.00  0.00     0.261 C 
BRANCH   4   5
ATOM      5  O   UNL A   1      31.914  28.225  26.242  1.00  0.00    -0.462 OA
BRANCH   5   6
ATOM      6  C   UNL A   1      31.063  28.496  25.219  1.00  0.00     0.325 C 
ATOM      7  O   UNL A   1      31.068  29.553  24.587  1.00  0.00    -0.250 OA
BRANCH   6   8
ATOM      8  C   UNL A   1      30.329  27.285  24.681  1.00  0.00     0.239 C 
BRANCH   8   9
ATOM      9  N   UNL A   1      30.143  26.001  25.321  1.00  0.00    -0.341 N 
ATOM     10  C   UNL A   1      30.984  24.910  25.191  1.00  0.00     0.253 C 
ATOM     11  O   UNL A   1      30.904  23.982  25.995  1.00  0.00    -0.269 OA
ATOM     12  H   UNL A   1      29.351  25.894  25.896  1.00  0.00     0.164 HD
BRANCH  10  13
ATOM     13  C   UNL A   1      31.815  24.739  23.957  1.00  0.00     0.063 A 
ATOM     14  C   UNL A   1      33.122  24.209  23.863  1.00  0.00     0.051 A 
ATOM     15  C   UNL A   1      33.839  24.459  22.673  1.00  0.00     0.027 A 
ATOM     16  C   UNL A   1      33.267  25.126  21.588  1.00  0.00     0.002 A 
ATOM     17  C   UNL A   1      31.223  25.344  22.827  1.00  0.00     0.016 A 
ATOM     18  C   UNL A   1      31.942  25.532  21.650  1.00  0.00     0.001 A 
BRANCH  14  19
ATOM     19  N   UNL A   1      33.800  23.429  24.828  1.00  0.00    -0.352 N 
ATOM     20  H   UNL A   1      33.749  23.809  25.734  1.00  0.00     0.167 HD
BRANCH  19  21
ATOM     21  C   UNL A   1      34.537  22.219  24.776  1.00  0.00     0.077 A 
ATOM     22  C   UNL A   1      34.137  18.405  24.544  1.00  0.00     0.046 C 
ATOM     23  C   UNL A   1      34.746  19.773  24.698  1.00  0.00    -0.030 A 
ATOM     24  C   UNL A   1      36.118  19.878  24.965  1.00  0.00     0.006 A 
ATOM     25  C   UNL A   1      33.966  20.946  24.579  1.00  0.00     0.069 A 
ATOM     26  C   UNL A   1      36.717  21.126  25.096  1.00  0.00     0.023 A 
ATOM     27  Cl  UNL A   1      32.323  20.796  24.020  1.00  0.00    -0.082 Cl
ATOM     28  C   UNL A   1      35.937  22.277  24.996  1.00  0.00     0.066 A 
ATOM     29  Cl  UNL A   1      36.739  23.805  25.188  1.00  0.00    -0.082 Cl
ENDBRANCH  19  21
ENDBRANCH  14  19
ENDBRANCH  10  13
ENDBRANCH   8   9
ENDBRANCH   6   8
ENDBRANCH   5   6
ENDBRANCH   4   5
ENDBRANCH   3   4
ENDBRANCH   2   3
ENDBRANCH   1   2
BRANCH   1  30
ATOM     30  C   UNL A   1      34.654  32.917  28.505  1.00  0.00     0.188 C 
BRANCH  30  31
ATOM     31  O   UNL A   1      34.729  34.087  27.701  1.00  0.00    -0.376 OA
BRANCH  31  32
ATOM     32  C   UNL A   1      34.281  35.320  28.264  1.00  0.00     0.202 C 
BRANCH  32  33
ATOM     33  C   UNL A   1      33.199  35.370  29.367  1.00  0.00     0.261 C 
BRANCH  33  34
ATOM     34  O   UNL A   1      33.564  36.024  30.591  1.00  0.00    -0.460 OA
BRANCH  34  35
ATOM     35  C   UNL A   1      33.474  35.249  31.704  1.00  0.00     0.338 C 
ATOM     36  O   UNL A   1      32.521  35.147  32.454  1.00  0.00    -0.246 OA
BRANCH  35  37
ATOM     37  C   UNL A   1      34.636  34.335  31.753  1.00  0.00     0.060 A 
ATOM     38  C   UNL A   1      34.416  33.016  32.187  1.00  0.00     0.016 A 
ATOM     39  C   UNL A   1      35.917  34.764  31.414  1.00  0.00     0.016 A 
ATOM     40  C   UNL A   1      35.478  32.122  32.288  1.00  0.00     0.010 A 
ATOM     41  C   UNL A   1      36.990  33.877  31.559  1.00  0.00     0.010 A 
ATOM     42  C   UNL A   1      36.776  32.564  32.022  1.00  0.00    -0.014 A 
BRANCH  42  43
ATOM     43  C   UNL A   1      37.928  31.734  32.442  1.00  0.00     0.031 A 
ATOM     44  C   UNL A   1      38.601  32.070  33.744  1.00  0.00     0.074 A 
ATOM     45  C   UNL A   1      38.384  30.720  31.687  1.00  0.00     0.049 A 
ATOM     46  N   UNL A   1      39.686  31.569  34.271  1.00  0.00    -0.248 NA
ATOM     47  C   UNL A   1      37.963  33.121  34.554  1.00  0.00     0.031 C 
ATOM     48  C   UNL A   1      37.800  30.277  30.425  1.00  0.00     0.029 A 
ATOM     49  N   UNL A   1      39.477  29.908  31.861  1.00  0.00    -0.354 N 
ATOM     50  C   UNL A   1      39.890  32.275  35.450  1.00  0.00     0.074 A 
ATOM     51  C   UNL A   1      38.810  33.232  35.565  1.00  0.00     0.031 C 
ATOM     52  C   UNL A   1      38.572  29.304  29.910  1.00  0.00     0.029 A 
ATOM     53  C   UNL A   1      39.721  29.086  30.788  1.00  0.00     0.049 A 
ATOM     54  H   UNL A   1      40.031  29.915  32.675  1.00  0.00     0.167 HD
ATOM     55  C   UNL A   1      40.885  32.141  36.355  1.00  0.00     0.034 A 
ATOM     56  C   UNL A   1      40.775  28.285  30.526  1.00  0.00     0.034 A 
ATOM     57  C   UNL A   1      41.954  31.187  36.243  1.00  0.00     0.049 A 
ATOM     58  C   UNL A   1      41.895  28.178  31.529  1.00  0.00     0.074 A 
ATOM     59  C   UNL A   1      42.985  30.942  37.132  1.00  0.00     0.029 A 
ATOM     60  N   UNL A   1      42.146  30.339  35.163  1.00  0.00    -0.354 N 
ATOM     61  N   UNL A   1      42.025  28.773  32.690  1.00  0.00    -0.248 NA
ATOM     62  C   UNL A   1      43.002  27.267  31.197  1.00  0.00     0.031 C 
ATOM     63  C   UNL A   1      43.822  29.973  36.570  1.00  0.00     0.029 A 
ATOM     64  C   UNL A   1      43.289  29.582  35.352  1.00  0.00     0.049 A 
ATOM     65  H   UNL A   1      41.555  30.283  34.377  1.00  0.00     0.167 HD
ATOM     66  C   UNL A   1      43.206  28.285  33.242  1.00  0.00     0.074 A 
ATOM     67  C   UNL A   1      43.746  27.333  32.294  1.00  0.00     0.031 C 
ATOM     68  C   UNL A   1      43.793  28.602  34.424  1.00  0.00     0.034 A 
BRANCH  55  69
ATOM     69  C   UNL A   1      40.869  33.068  37.541  1.00  0.00     0.023 A 
ATOM     70  C   UNL A   1      40.038  32.789  38.645  1.00  0.00     0.012 A 
ATOM     71  C   UNL A   1      41.689  34.212  37.564  1.00  0.00     0.148 A 
ATOM     72  C   UNL A   1      39.992  33.658  39.736  1.00  0.00     0.002 A 
ATOM     73  C   UNL A   1      41.674  35.047  38.675  1.00  0.00     0.091 A 
ATOM     74  F   UNL A   1      42.449  34.477  36.492  1.00  0.00    -0.205 F 
ATOM     75  C   UNL A   1      40.816  34.780  39.754  1.00  0.00     0.022 A 
BRANCH  73  76
ATOM     76  S   UNL A   1      42.760  36.469  38.823  1.00  0.00     0.127 S 
ATOM     77  O   UNL A   1      42.429  37.220  37.613  1.00  0.00    -0.237 OA
ATOM     78  O   UNL A   1      42.296  37.083  40.068  1.00  0.00    -0.237 OA
ATOM     79  O   UNL A   1      44.114  35.935  38.880  1.00  0.00    -0.744 OA
ENDBRANCH  73  76
ENDBRANCH  55  69
BRANCH  56  80
ATOM     80  C   UNL A   1      40.816  27.518  29.249  1.00  0.00     0.023 A 
ATOM     81  C   UNL A   1      39.965  26.412  29.071  1.00  0.00     0.012 A 
ATOM     82  C   UNL A   1      41.674  27.904  28.200  1.00  0.00     0.148 A 
ATOM     83  C   UNL A   1      39.981  25.690  27.877  1.00  0.00     0.002 A 
ATOM     84  C   UNL A   1      41.644  27.215  26.993  1.00  0.00     0.091 A 
ATOM     85  F   UNL A   1      42.486  28.952  28.397  1.00  0.00    -0.205 F 
ATOM     86  C   UNL A   1      40.811  26.098  26.835  1.00  0.00     0.022 A 
BRANCH  84  87
ATOM     87  S   UNL A   1      42.577  27.747  25.554  1.00  0.00     0.127 S 
ATOM     88  O   UNL A   1      43.927  27.867  26.099  1.00  0.00    -0.237 OA
ATOM     89  O   UNL A   1      42.378  26.621  24.640  1.00  0.00    -0.237 OA
ATOM     90  O   UNL A   1      41.961  28.993  25.119  1.00  0.00    -0.744 OA
ENDBRANCH  84  87
ENDBRANCH  56  80
BRANCH  68  91
ATOM     91  C   UNL A   1      45.068  27.885  34.797  1.00  0.00     0.023 A 
ATOM     92  C   UNL A   1      46.318  28.454  34.484  1.00  0.00     0.012 A 
ATOM     93  C   UNL A   1      45.020  26.687  35.539  1.00  0.00     0.148 A 
ATOM     94  C   UNL A   1      47.501  27.827  34.878  1.00  0.00     0.002 A 
ATOM     95  C   UNL A   1      46.201  26.095  35.971  1.00  0.00     0.091 A 
ATOM     96  F   UNL A   1      43.823  26.152  35.812  1.00  0.00    -0.205 F 
ATOM     97  C   UNL A   1      47.442  26.656  35.631  1.00  0.00     0.022 A 
BRANCH  95  98
ATOM     98  S   UNL A   1      46.220  24.644  37.030  1.00  0.00     0.127 S 
ATOM     99  O   UNL A   1      45.669  25.177  38.275  1.00  0.00    -0.237 OA
ATOM    100  O   UNL A   1      45.335  23.724  36.315  1.00  0.00    -0.237 OA
ATOM    101  O   UNL A   1      47.611  24.214  37.098  1.00  0.00    -0.744 OA
ENDBRANCH  95  98
ENDBRANCH  68  91
ENDBRANCH  42  43
ENDBRANCH  35  37
ENDBRANCH  34  35
ENDBRANCH  33  34
ENDBRANCH  32  33
ENDBRANCH  31  32
ENDBRANCH  30  31
ENDBRANCH   1  30
TORSDOF 24
ENDMDL
