MODEL 1
REMARK VINA RESULT:     -10.2      0.000      0.000
REMARK SMILES CC(C)[C@@H]1C(=O)Nc2ccccc2N1C(=O)N[C@H](Cc1ccccc1)C(=O)OCCOCCOCCOC(=O)c1ccc(-c2c3nc(c(-c4cccc(S(=O)(=O)[O-])c4F)c4ccc([nH]4)c(-c4cccc(S(=O)(=O)[O-])c4F)c4nc(c(-c5cccc(S(=O)(=O)[O-])c5F)c5ccc2[nH]5)C=C4)C=C3)cc1
REMARK SMILES IDX 32 1 31 2 30 3 29 4 28 5 26 6 27 7 18 8 17 9 15 10 16 11
REMARK SMILES IDX 14 13 4 14 5 15 6 16 7 17 13 18 8 19 12 21 9 22 11 23 10 24
REMARK SMILES IDX 2 25 1 26 3 27 19 28 20 29 21 30 25 31 22 32 24 33 23 34
REMARK SMILES IDX 33 35 34 36 35 37 36 38 37 39 38 40 39 41 40 42 41 43 102 44
REMARK SMILES IDX 42 45 101 46 43 47 44 48 45 49 95 50 46 51 100 52 94 53
REMARK SMILES IDX 96 54 47 55 99 56 93 57 92 58 48 60 80 61 60 62 79 63 61 64
REMARK SMILES IDX 64 65 78 66 97 67 62 68 63 69 77 71 98 72 65 73 49 74 50 75
REMARK SMILES IDX 58 76 51 77 53 78 59 79 52 80 54 81 55 82 56 83 57 84 81 85
REMARK SMILES IDX 82 86 90 87 83 88 85 89 91 90 84 91 86 92 87 93 88 94 89 95
REMARK SMILES IDX 66 96 67 97 75 98 68 99 70 100 76 101 69 102 71 103 72 104
REMARK SMILES IDX 73 105 74 106
REMARK H PARENT 17 12 7 20 96 59 64 70
REMARK Flexibility Score: inf
ROOT
ATOM      1  C   UNL A   1      35.357  33.747  28.467  1.00  0.00     0.188 C 
ENDROOT
BRANCH   1   2
ATOM      2  O   UNL A   1      35.375  32.604  27.627  1.00  0.00    -0.376 OA
BRANCH   2   3
ATOM      3  C   UNL A   1      34.404  31.633  28.058  1.00  0.00     0.202 C 
BRANCH   3   4
ATOM      4  C   UNL A   1      34.485  30.227  27.391  1.00  0.00     0.261 C 
BRANCH   4   5
ATOM      5  O   UNL A   1      33.249  29.775  26.746  1.00  0.00    -0.462 OA
BRANCH   5   6
ATOM      6  C   UNL A   1      33.119  28.463  26.356  1.00  0.00     0.329 C 
ATOM      7  O   UNL A   1      33.994  27.619  26.519  1.00  0.00    -0.250 OA
BRANCH   6   8
ATOM      8  C   UNL A   1      31.813  28.191  25.529  1.00  0.00     0.198 C 
BRANCH   8   9
ATOM      9  N   UNL A   1      31.295  26.805  25.731  1.00  0.00    -0.324 N 
ATOM     10  C   UNL A   1      31.468  25.510  25.481  1.00  0.00     0.323 C 
ATOM     11  O   UNL A   1      30.470  24.869  25.860  1.00  0.00    -0.248 OA
ATOM     12  H   UNL A   1      30.482  26.881  26.282  1.00  0.00     0.166 HD
BRANCH  10  13
ATOM     13  N   UNL A   1      32.577  24.864  25.007  1.00  0.00    -0.280 N 
ATOM     14  C   UNL A   1      33.393  25.025  23.728  1.00  0.00     0.184 C 
ATOM     15  C   UNL A   1      33.950  23.679  23.153  1.00  0.00     0.247 C 
ATOM     16  O   UNL A   1      34.445  23.539  22.031  1.00  0.00    -0.272 OA
ATOM     17  N   UNL A   1      34.034  22.608  23.968  1.00  0.00    -0.322 N 
ATOM     18  C   UNL A   1      33.023  23.740  25.849  1.00  0.00     0.070 A 
ATOM     19  C   UNL A   1      33.676  22.633  25.298  1.00  0.00     0.065 A 
ATOM     20  H   UNL A   1      34.369  21.763  23.592  1.00  0.00     0.170 HD
ATOM     21  C   UNL A   1      32.785  23.692  27.237  1.00  0.00     0.028 A 
ATOM     22  C   UNL A   1      33.983  21.493  26.050  1.00  0.00     0.028 A 
ATOM     23  C   UNL A   1      33.117  22.566  28.006  1.00  0.00     0.002 A 
ATOM     24  C   UNL A   1      33.698  21.456  27.407  1.00  0.00     0.002 A 
BRANCH  14  25
ATOM     25  C   UNL A   1      32.801  25.717  22.466  1.00  0.00     0.015 C 
ATOM     26  C   UNL A   1      31.296  25.548  22.330  1.00  0.00     0.010 C 
ATOM     27  C   UNL A   1      33.432  27.051  22.112  1.00  0.00     0.010 C 
ENDBRANCH  14  25
ENDBRANCH  10  13
ENDBRANCH   8   9
BRANCH   8  28
ATOM     28  C   UNL A   1      31.295  28.676  24.110  1.00  0.00     0.072 C 
BRANCH  28  29
ATOM     29  C   UNL A   1      30.015  29.291  23.544  1.00  0.00    -0.045 A 
ATOM     30  C   UNL A   1      28.969  28.451  23.095  1.00  0.00     0.004 A 
ATOM     31  C   UNL A   1      29.667  30.627  23.765  1.00  0.00     0.004 A 
ATOM     32  C   UNL A   1      27.674  28.899  22.824  1.00  0.00     0.000 A 
ATOM     33  C   UNL A   1      28.346  31.076  23.549  1.00  0.00     0.000 A 
ATOM     34  C   UNL A   1      27.354  30.219  23.073  1.00  0.00     0.000 A 
ENDBRANCH  28  29
ENDBRANCH   8  28
ENDBRANCH   6   8
ENDBRANCH   5   6
ENDBRANCH   4   5
ENDBRANCH   3   4
ENDBRANCH   2   3
ENDBRANCH   1   2
BRANCH   1  35
ATOM     35  C   UNL A   1      34.019  34.021  29.129  1.00  0.00     0.188 C 
BRANCH  35  36
ATOM     36  O   UNL A   1      33.675  35.403  28.918  1.00  0.00    -0.376 OA
BRANCH  36  37
ATOM     37  C   UNL A   1      33.032  36.034  30.016  1.00  0.00     0.202 C 
BRANCH  37  38
ATOM     38  C   UNL A   1      32.741  35.128  31.221  1.00  0.00     0.261 C 
BRANCH  38  39
ATOM     39  O   UNL A   1      32.658  35.851  32.456  1.00  0.00    -0.460 OA
BRANCH  39  40
ATOM     40  C   UNL A   1      33.792  36.518  32.797  1.00  0.00     0.338 C 
ATOM     41  O   UNL A   1      33.894  37.718  33.014  1.00  0.00    -0.246 OA
BRANCH  40  42
ATOM     42  C   UNL A   1      34.895  35.549  33.022  1.00  0.00     0.060 A 
ATOM     43  C   UNL A   1      34.818  34.706  34.141  1.00  0.00     0.016 A 
ATOM     44  C   UNL A   1      35.968  35.426  32.133  1.00  0.00     0.016 A 
ATOM     45  C   UNL A   1      35.838  33.786  34.406  1.00  0.00     0.010 A 
ATOM     46  C   UNL A   1      36.988  34.506  32.397  1.00  0.00     0.010 A 
ATOM     47  C   UNL A   1      36.953  33.716  33.560  1.00  0.00    -0.014 A 
BRANCH  47  48
ATOM     48  C   UNL A   1      38.196  33.036  34.010  1.00  0.00     0.031 A 
ATOM     49  C   UNL A   1      38.663  31.843  33.215  1.00  0.00     0.074 A 
ATOM     50  C   UNL A   1      38.885  33.422  35.099  1.00  0.00     0.049 A 
ATOM     51  N   UNL A   1      39.663  31.031  33.439  1.00  0.00    -0.248 NA
ATOM     52  C   UNL A   1      37.885  31.520  32.005  1.00  0.00     0.031 C 
ATOM     53  C   UNL A   1      38.561  34.559  35.956  1.00  0.00     0.029 A 
ATOM     54  N   UNL A   1      39.999  32.865  35.684  1.00  0.00    -0.354 N 
ATOM     55  C   UNL A   1      39.618  30.088  32.419  1.00  0.00     0.074 A 
ATOM     56  C   UNL A   1      38.482  30.416  31.586  1.00  0.00     0.031 C 
ATOM     57  C   UNL A   1      39.441  34.600  36.975  1.00  0.00     0.029 A 
ATOM     58  C   UNL A   1      40.374  33.478  36.857  1.00  0.00     0.049 A 
ATOM     59  H   UNL A   1      40.484  32.100  35.299  1.00  0.00     0.167 HD
ATOM     60  C   UNL A   1      40.453  29.051  32.179  1.00  0.00     0.034 A 
ATOM     61  C   UNL A   1      41.342  33.158  37.740  1.00  0.00     0.034 A 
ATOM     62  C   UNL A   1      41.590  28.721  32.990  1.00  0.00     0.049 A 
ATOM     63  C   UNL A   1      42.237  31.969  37.473  1.00  0.00     0.074 A 
ATOM     64  C   UNL A   1      42.510  27.704  32.807  1.00  0.00     0.029 A 
ATOM     65  N   UNL A   1      41.960  29.393  34.144  1.00  0.00    -0.354 N 
ATOM     66  N   UNL A   1      42.251  31.155  36.445  1.00  0.00    -0.248 NA
ATOM     67  C   UNL A   1      43.274  31.675  38.476  1.00  0.00     0.031 C 
ATOM     68  C   UNL A   1      43.422  27.744  33.865  1.00  0.00     0.029 A 
ATOM     69  C   UNL A   1      43.090  28.809  34.688  1.00  0.00     0.049 A 
ATOM     70  H   UNL A   1      41.488  30.171  34.521  1.00  0.00     0.167 HD
ATOM     71  C   UNL A   1      43.322  30.288  36.656  1.00  0.00     0.074 A 
ATOM     72  C   UNL A   1      43.941  30.683  37.902  1.00  0.00     0.031 C 
ATOM     73  C   UNL A   1      43.746  29.250  35.892  1.00  0.00     0.034 A 
BRANCH  60  74
ATOM     74  C   UNL A   1      40.172  28.207  30.966  1.00  0.00     0.023 A 
ATOM     75  C   UNL A   1      39.112  27.277  30.995  1.00  0.00     0.012 A 
ATOM     76  C   UNL A   1      40.929  28.359  29.790  1.00  0.00     0.148 A 
ATOM     77  C   UNL A   1      38.833  26.486  29.881  1.00  0.00     0.002 A 
ATOM     78  C   UNL A   1      40.614  27.602  28.668  1.00  0.00     0.091 A 
ATOM     79  F   UNL A   1      41.948  29.231  29.793  1.00  0.00    -0.205 F 
ATOM     80  C   UNL A   1      39.576  26.657  28.715  1.00  0.00     0.022 A 
BRANCH  78  81
ATOM     81  S   UNL A   1      41.460  27.803  27.098  1.00  0.00     0.127 S 
ATOM     82  O   UNL A   1      42.813  27.360  27.432  1.00  0.00    -0.237 OA
ATOM     83  O   UNL A   1      40.716  26.889  26.229  1.00  0.00    -0.237 OA
ATOM     84  O   UNL A   1      41.332  29.211  26.748  1.00  0.00    -0.744 OA
ENDBRANCH  78  81
ENDBRANCH  60  74
BRANCH  61  85
ATOM     85  C   UNL A   1      41.555  33.987  38.964  1.00  0.00     0.023 A 
ATOM     86  C   UNL A   1      40.938  33.608  40.174  1.00  0.00     0.012 A 
ATOM     87  C   UNL A   1      42.332  35.160  38.930  1.00  0.00     0.148 A 
ATOM     88  C   UNL A   1      41.060  34.402  41.316  1.00  0.00     0.002 A 
ATOM     89  C   UNL A   1      42.494  35.918  40.085  1.00  0.00     0.091 A 
ATOM     90  F   UNL A   1      42.891  35.518  37.766  1.00  0.00    -0.205 F 
ATOM     91  C   UNL A   1      41.843  35.551  41.274  1.00  0.00     0.022 A 
BRANCH  89  92
ATOM     92  S   UNL A   1      43.571  37.354  40.157  1.00  0.00     0.127 S 
ATOM     93  O   UNL A   1      42.902  38.276  39.242  1.00  0.00    -0.237 OA
ATOM     94  O   UNL A   1      43.488  37.722  41.571  1.00  0.00    -0.237 OA
ATOM     95  O   UNL A   1      44.882  36.884  39.733  1.00  0.00    -0.744 OA
ENDBRANCH  89  92
ENDBRANCH  61  85
BRANCH  73  96
ATOM     96  C   UNL A   1      44.975  28.494  36.330  1.00  0.00     0.023 A 
ATOM     97  C   UNL A   1      46.254  28.939  35.944  1.00  0.00     0.012 A 
ATOM     98  C   UNL A   1      44.863  27.391  37.202  1.00  0.00     0.148 A 
ATOM     99  C   UNL A   1      47.401  28.282  36.394  1.00  0.00     0.002 A 
ATOM    100  C   UNL A   1      46.010  26.772  37.686  1.00  0.00     0.091 A 
ATOM    101  F   UNL A   1      43.637  26.971  37.548  1.00  0.00    -0.205 F 
ATOM    102  C   UNL A   1      47.279  27.209  37.273  1.00  0.00     0.022 A 
BRANCH 100 103
ATOM    103  S   UNL A   1      45.953  25.447  38.899  1.00  0.00     0.127 S 
ATOM    104  O   UNL A   1      45.144  26.047  39.958  1.00  0.00    -0.237 OA
ATOM    105  O   UNL A   1      45.287  24.375  38.157  1.00  0.00    -0.237 OA
ATOM    106  O   UNL A   1      47.338  25.166  39.253  1.00  0.00    -0.744 OA
ENDBRANCH 100 103
ENDBRANCH  73  96
ENDBRANCH  47  48
ENDBRANCH  40  42
ENDBRANCH  39  40
ENDBRANCH  38  39
ENDBRANCH  37  38
ENDBRANCH  36  37
ENDBRANCH  35  36
ENDBRANCH   1  35
TORSDOF 25
ENDMDL
MODEL 2
REMARK VINA RESULT:      -9.2      4.741      9.525
REMARK SMILES CC(C)[C@@H]1C(=O)Nc2ccccc2N1C(=O)N[C@H](Cc1ccccc1)C(=O)OCCOCCOCCOC(=O)c1ccc(-c2c3nc(c(-c4cccc(S(=O)(=O)[O-])c4F)c4ccc([nH]4)c(-c4cccc(S(=O)(=O)[O-])c4F)c4nc(c(-c5cccc(S(=O)(=O)[O-])c5F)c5ccc2[nH]5)C=C4)C=C3)cc1
REMARK SMILES IDX 32 1 31 2 30 3 29 4 28 5 26 6 27 7 18 8 17 9 15 10 16 11
REMARK SMILES IDX 14 13 4 14 5 15 6 16 7 17 13 18 8 19 12 21 9 22 11 23 10 24
REMARK SMILES IDX 2 25 1 26 3 27 19 28 20 29 21 30 25 31 22 32 24 33 23 34
REMARK SMILES IDX 33 35 34 36 35 37 36 38 37 39 38 40 39 41 40 42 41 43 102 44
REMARK SMILES IDX 42 45 101 46 43 47 44 48 45 49 95 50 46 51 100 52 94 53
REMARK SMILES IDX 96 54 47 55 99 56 93 57 92 58 48 60 80 61 60 62 79 63 61 64
REMARK SMILES IDX 64 65 78 66 97 67 62 68 63 69 77 71 98 72 65 73 49 74 50 75
REMARK SMILES IDX 58 76 51 77 53 78 59 79 52 80 54 81 55 82 56 83 57 84 81 85
REMARK SMILES IDX 82 86 90 87 83 88 85 89 91 90 84 91 86 92 87 93 88 94 89 95
REMARK SMILES IDX 66 96 67 97 75 98 68 99 70 100 76 101 69 102 71 103 72 104
REMARK SMILES IDX 73 105 74 106
REMARK H PARENT 17 12 7 20 96 59 64 70
REMARK Flexibility Score: inf
ROOT
ATOM      1  C   UNL A   1      35.437  32.992  29.112  1.00  0.00     0.188 C 
ENDROOT
BRANCH   1   2
ATOM      2  O   UNL A   1      34.967  32.678  27.812  1.00  0.00    -0.376 OA
BRANCH   2   3
ATOM      3  C   UNL A   1      34.073  31.550  27.845  1.00  0.00     0.202 C 
BRANCH   3   4
ATOM      4  C   UNL A   1      34.582  30.240  27.172  1.00  0.00     0.261 C 
BRANCH   4   5
ATOM      5  O   UNL A   1      33.693  29.684  26.148  1.00  0.00    -0.462 OA
BRANCH   5   6
ATOM      6  C   UNL A   1      33.185  28.415  26.297  1.00  0.00     0.329 C 
ATOM      7  O   UNL A   1      33.780  27.512  26.874  1.00  0.00    -0.250 OA
BRANCH   6   8
ATOM      8  C   UNL A   1      31.845  28.191  25.511  1.00  0.00     0.198 C 
BRANCH   8   9
ATOM      9  N   UNL A   1      31.306  26.810  25.697  1.00  0.00    -0.324 N 
ATOM     10  C   UNL A   1      31.463  25.516  25.437  1.00  0.00     0.323 C 
ATOM     11  O   UNL A   1      30.452  24.886  25.801  1.00  0.00    -0.248 OA
ATOM     12  H   UNL A   1      30.489  26.894  26.241  1.00  0.00     0.166 HD
BRANCH  10  13
ATOM     13  N   UNL A   1      32.567  24.858  24.968  1.00  0.00    -0.280 N 
ATOM     14  C   UNL A   1      33.386  25.005  23.689  1.00  0.00     0.184 C 
ATOM     15  C   UNL A   1      33.932  23.652  23.122  1.00  0.00     0.247 C 
ATOM     16  O   UNL A   1      34.427  23.501  22.002  1.00  0.00    -0.272 OA
ATOM     17  N   UNL A   1      34.006  22.584  23.943  1.00  0.00    -0.322 N 
ATOM     18  C   UNL A   1      33.002  23.734  25.817  1.00  0.00     0.070 A 
ATOM     19  C   UNL A   1      33.646  22.619  25.272  1.00  0.00     0.065 A 
ATOM     20  H   UNL A   1      34.335  21.734  23.572  1.00  0.00     0.170 HD
ATOM     21  C   UNL A   1      32.761  23.696  27.204  1.00  0.00     0.028 A 
ATOM     22  C   UNL A   1      33.943  21.480  26.031  1.00  0.00     0.028 A 
ATOM     23  C   UNL A   1      33.083  22.571  27.980  1.00  0.00     0.002 A 
ATOM     24  C   UNL A   1      33.656  21.453  27.387  1.00  0.00     0.002 A 
BRANCH  14  25
ATOM     25  C   UNL A   1      32.802  25.695  22.423  1.00  0.00     0.015 C 
ATOM     26  C   UNL A   1      31.302  25.499  22.261  1.00  0.00     0.010 C 
ATOM     27  C   UNL A   1      33.413  27.044  22.088  1.00  0.00     0.010 C 
ENDBRANCH  14  25
ENDBRANCH  10  13
ENDBRANCH   8   9
BRANCH   8  28
ATOM     28  C   UNL A   1      31.288  28.722  24.124  1.00  0.00     0.072 C 
BRANCH  28  29
ATOM     29  C   UNL A   1      29.923  29.081  23.538  1.00  0.00    -0.045 A 
ATOM     30  C   UNL A   1      28.935  28.079  23.387  1.00  0.00     0.004 A 
ATOM     31  C   UNL A   1      29.463  30.400  23.467  1.00  0.00     0.004 A 
ATOM     32  C   UNL A   1      27.589  28.346  23.127  1.00  0.00     0.000 A 
ATOM     33  C   UNL A   1      28.095  30.680  23.262  1.00  0.00     0.000 A 
ATOM     34  C   UNL A   1      27.162  29.658  23.084  1.00  0.00     0.000 A 
ENDBRANCH  28  29
ENDBRANCH   8  28
ENDBRANCH   6   8
ENDBRANCH   5   6
ENDBRANCH   4   5
ENDBRANCH   3   4
ENDBRANCH   2   3
ENDBRANCH   1   2
BRANCH   1  35
ATOM     35  C   UNL A   1      34.496  33.861  29.928  1.00  0.00     0.188 C 
BRANCH  35  36
ATOM     36  O   UNL A   1      34.232  33.201  31.180  1.00  0.00    -0.376 OA
BRANCH  36  37
ATOM     37  C   UNL A   1      35.240  32.296  31.604  1.00  0.00     0.202 C 
BRANCH  37  38
ATOM     38  C   UNL A   1      36.020  32.714  32.859  1.00  0.00     0.261 C 
BRANCH  38  39
ATOM     39  O   UNL A   1      36.577  31.600  33.568  1.00  0.00    -0.460 OA
BRANCH  39  40
ATOM     40  C   UNL A   1      37.558  31.926  34.451  1.00  0.00     0.338 C 
ATOM     41  O   UNL A   1      37.405  32.409  35.564  1.00  0.00    -0.246 OA
BRANCH  40  42
ATOM     42  C   UNL A   1      38.872  31.470  33.930  1.00  0.00     0.060 A 
ATOM     43  C   UNL A   1      39.462  32.203  32.888  1.00  0.00     0.016 A 
ATOM     44  C   UNL A   1      39.548  30.375  34.477  1.00  0.00     0.016 A 
ATOM     45  C   UNL A   1      40.692  31.807  32.352  1.00  0.00     0.010 A 
ATOM     46  C   UNL A   1      40.778  29.979  33.942  1.00  0.00     0.010 A 
ATOM     47  C   UNL A   1      41.334  30.663  32.846  1.00  0.00    -0.014 A 
BRANCH  47  48
ATOM     48  C   UNL A   1      42.423  30.018  32.066  1.00  0.00     0.031 A 
ATOM     49  C   UNL A   1      43.824  30.539  32.267  1.00  0.00     0.074 A 
ATOM     50  C   UNL A   1      42.200  29.028  31.183  1.00  0.00     0.049 A 
ATOM     51  N   UNL A   1      44.931  30.207  31.657  1.00  0.00    -0.248 NA
ATOM     52  C   UNL A   1      43.991  31.584  33.292  1.00  0.00     0.031 C 
ATOM     53  C   UNL A   1      40.906  28.417  30.893  1.00  0.00     0.029 A 
ATOM     54  N   UNL A   1      43.075  28.381  30.341  1.00  0.00    -0.354 N 
ATOM     55  C   UNL A   1      45.918  31.020  32.202  1.00  0.00     0.074 A 
ATOM     56  C   UNL A   1      45.277  31.873  33.178  1.00  0.00     0.031 C 
ATOM     57  C   UNL A   1      41.066  27.502  29.918  1.00  0.00     0.029 A 
ATOM     58  C   UNL A   1      42.467  27.480  29.498  1.00  0.00     0.049 A 
ATOM     59  H   UNL A   1      44.045  28.546  30.342  1.00  0.00     0.167 HD
ATOM     60  C   UNL A   1      47.245  31.048  31.934  1.00  0.00     0.034 A 
ATOM     61  C   UNL A   1      42.980  26.741  28.491  1.00  0.00     0.034 A 
ATOM     62  C   UNL A   1      47.896  30.199  30.978  1.00  0.00     0.049 A 
ATOM     63  C   UNL A   1      44.458  26.819  28.182  1.00  0.00     0.074 A 
ATOM     64  C   UNL A   1      49.242  30.139  30.660  1.00  0.00     0.029 A 
ATOM     65  N   UNL A   1      47.253  29.272  30.176  1.00  0.00    -0.354 N 
ATOM     66  N   UNL A   1      45.397  27.511  28.783  1.00  0.00    -0.248 NA
ATOM     67  C   UNL A   1      44.953  25.987  27.072  1.00  0.00     0.031 C 
ATOM     68  C   UNL A   1      49.408  29.190  29.647  1.00  0.00     0.029 A 
ATOM     69  C   UNL A   1      48.171  28.636  29.359  1.00  0.00     0.049 A 
ATOM     70  H   UNL A   1      46.285  29.090  30.186  1.00  0.00     0.167 HD
ATOM     71  C   UNL A   1      46.592  27.161  28.157  1.00  0.00     0.074 A 
ATOM     72  C   UNL A   1      46.262  26.187  27.140  1.00  0.00     0.031 C 
ATOM     73  C   UNL A   1      47.847  27.615  28.396  1.00  0.00     0.034 A 
BRANCH  60  74
ATOM     74  C   UNL A   1      48.085  32.024  32.713  1.00  0.00     0.023 A 
ATOM     75  C   UNL A   1      48.274  33.330  32.217  1.00  0.00     0.012 A 
ATOM     76  C   UNL A   1      48.653  31.661  33.948  1.00  0.00     0.148 A 
ATOM     77  C   UNL A   1      49.046  34.251  32.923  1.00  0.00     0.002 A 
ATOM     78  C   UNL A   1      49.381  32.599  34.670  1.00  0.00     0.091 A 
ATOM     79  F   UNL A   1      48.481  30.407  34.389  1.00  0.00    -0.205 F 
ATOM     80  C   UNL A   1      49.589  33.889  34.154  1.00  0.00     0.022 A 
BRANCH  78  81
ATOM     81  S   UNL A   1      50.054  32.256  36.298  1.00  0.00     0.127 S 
ATOM     82  O   UNL A   1      49.734  33.488  37.016  1.00  0.00    -0.237 OA
ATOM     83  O   UNL A   1      49.274  31.089  36.712  1.00  0.00    -0.237 OA
ATOM     84  O   UNL A   1      51.474  31.999  36.101  1.00  0.00    -0.744 OA
ENDBRANCH  78  81
ENDBRANCH  60  74
BRANCH  61  85
ATOM     85  C   UNL A   1      42.104  25.825  27.703  1.00  0.00     0.023 A 
ATOM     86  C   UNL A   1      41.148  26.370  26.820  1.00  0.00     0.012 A 
ATOM     87  C   UNL A   1      42.186  24.427  27.843  1.00  0.00     0.148 A 
ATOM     88  C   UNL A   1      40.266  25.542  26.123  1.00  0.00     0.002 A 
ATOM     89  C   UNL A   1      41.341  23.605  27.106  1.00  0.00     0.091 A 
ATOM     90  F   UNL A   1      43.084  23.928  28.704  1.00  0.00    -0.205 F 
ATOM     91  C   UNL A   1      40.368  24.161  26.260  1.00  0.00     0.022 A 
BRANCH  89  92
ATOM     92  S   UNL A   1      41.470  21.813  27.131  1.00  0.00     0.127 S 
ATOM     93  O   UNL A   1      40.403  21.450  28.061  1.00  0.00    -0.237 OA
ATOM     94  O   UNL A   1      41.210  21.473  25.732  1.00  0.00    -0.237 OA
ATOM     95  O   UNL A   1      42.824  21.522  27.581  1.00  0.00    -0.744 OA
ENDBRANCH  89  92
ENDBRANCH  61  85
BRANCH  73  96
ATOM     96  C   UNL A   1      48.985  27.029  27.597  1.00  0.00     0.023 A 
ATOM     97  C   UNL A   1      49.641  25.868  28.049  1.00  0.00     0.012 A 
ATOM     98  C   UNL A   1      49.342  27.582  26.350  1.00  0.00     0.148 A 
ATOM     99  C   UNL A   1      50.654  25.283  27.287  1.00  0.00     0.002 A 
ATOM    100  C   UNL A   1      50.317  26.966  25.574  1.00  0.00     0.091 A 
ATOM    101  F   UNL A   1      48.718  28.696  25.942  1.00  0.00    -0.205 F 
ATOM    102  C   UNL A   1      50.983  25.824  26.047  1.00  0.00     0.022 A 
BRANCH 100 103
ATOM    103  S   UNL A   1      50.736  27.534  23.920  1.00  0.00     0.127 S 
ATOM    104  O   UNL A   1      49.486  27.299  23.200  1.00  0.00    -0.237 OA
ATOM    105  O   UNL A   1      51.052  28.945  24.147  1.00  0.00    -0.237 OA
ATOM    106  O   UNL A   1      51.867  26.723  23.492  1.00  0.00    -0.744 OA
ENDBRANCH 100 103
ENDBRANCH  73  96
ENDBRANCH  47  48
ENDBRANCH  40  42
ENDBRANCH  39  40
ENDBRANCH  38  39
ENDBRANCH  37  38
ENDBRANCH  36  37
ENDBRANCH  35  36
ENDBRANCH   1  35
TORSDOF 25
ENDMDL
MODEL 3
REMARK VINA RESULT:      -9.1      8.420      9.684
REMARK SMILES CC(C)[C@@H]1C(=O)Nc2ccccc2N1C(=O)N[C@H](Cc1ccccc1)C(=O)OCCOCCOCCOC(=O)c1ccc(-c2c3nc(c(-c4cccc(S(=O)(=O)[O-])c4F)c4ccc([nH]4)c(-c4cccc(S(=O)(=O)[O-])c4F)c4nc(c(-c5cccc(S(=O)(=O)[O-])c5F)c5ccc2[nH]5)C=C4)C=C3)cc1
REMARK SMILES IDX 32 1 31 2 30 3 29 4 28 5 26 6 27 7 18 8 17 9 15 10 16 11
REMARK SMILES IDX 14 13 4 14 5 15 6 16 7 17 13 18 8 19 12 21 9 22 11 23 10 24
REMARK SMILES IDX 2 25 1 26 3 27 19 28 20 29 21 30 25 31 22 32 24 33 23 34
REMARK SMILES IDX 33 35 34 36 35 37 36 38 37 39 38 40 39 41 40 42 41 43 102 44
REMARK SMILES IDX 42 45 101 46 43 47 44 48 45 49 95 50 46 51 100 52 94 53
REMARK SMILES IDX 96 54 47 55 99 56 93 57 92 58 48 60 80 61 60 62 79 63 61 64
REMARK SMILES IDX 64 65 78 66 97 67 62 68 63 69 77 71 98 72 65 73 49 74 50 75
REMARK SMILES IDX 58 76 51 77 53 78 59 79 52 80 54 81 55 82 56 83 57 84 81 85
REMARK SMILES IDX 82 86 90 87 83 88 85 89 91 90 84 91 86 92 87 93 88 94 89 95
REMARK SMILES IDX 66 96 67 97 75 98 68 99 70 100 76 101 69 102 71 103 72 104
REMARK SMILES IDX 73 105 74 106
REMARK H PARENT 17 12 7 20 96 59 64 70
REMARK Flexibility Score: inf
ROOT
ATOM      1  C   UNL A   1      37.175  30.473  28.651  1.00  0.00     0.188 C 
ENDROOT
BRANCH   1   2
ATOM      2  O   UNL A   1      36.451  30.394  27.434  1.00  0.00    -0.376 OA
BRANCH   2   3
ATOM      3  C   UNL A   1      35.036  30.520  27.665  1.00  0.00     0.202 C 
BRANCH   3   4
ATOM      4  C   UNL A   1      34.130  29.410  27.053  1.00  0.00     0.261 C 
BRANCH   4   5
ATOM      5  O   UNL A   1      33.752  29.621  25.653  1.00  0.00    -0.462 OA
BRANCH   5   6
ATOM      6  C   UNL A   1      33.444  28.543  24.856  1.00  0.00     0.329 C 
ATOM      7  O   UNL A   1      34.012  28.300  23.798  1.00  0.00    -0.250 OA
BRANCH   6   8
ATOM      8  C   UNL A   1      32.181  27.752  25.351  1.00  0.00     0.198 C 
BRANCH   8   9
ATOM      9  N   UNL A   1      32.526  26.378  25.825  1.00  0.00    -0.324 N 
ATOM     10  C   UNL A   1      32.983  25.174  25.494  1.00  0.00     0.323 C 
ATOM     11  O   UNL A   1      32.840  24.390  26.451  1.00  0.00    -0.248 OA
ATOM     12  H   UNL A   1      32.333  26.353  26.791  1.00  0.00     0.166 HD
BRANCH  10  13
ATOM     13  N   UNL A   1      33.641  24.783  24.360  1.00  0.00    -0.280 N 
ATOM     14  C   UNL A   1      33.267  24.841  22.882  1.00  0.00     0.184 C 
ATOM     15  C   UNL A   1      33.774  23.618  22.047  1.00  0.00     0.247 C 
ATOM     16  O   UNL A   1      33.413  23.345  20.898  1.00  0.00    -0.272 OA
ATOM     17  N   UNL A   1      34.781  22.867  22.538  1.00  0.00    -0.322 N 
ATOM     18  C   UNL A   1      34.920  24.096  24.614  1.00  0.00     0.070 A 
ATOM     19  C   UNL A   1      35.412  23.127  23.734  1.00  0.00     0.065 A 
ATOM     20  H   UNL A   1      35.081  22.091  22.013  1.00  0.00     0.170 HD
ATOM     21  C   UNL A   1      35.694  24.340  25.765  1.00  0.00     0.028 A 
ATOM     22  C   UNL A   1      36.548  22.362  24.022  1.00  0.00     0.028 A 
ATOM     23  C   UNL A   1      36.853  23.599  26.048  1.00  0.00     0.002 A 
ATOM     24  C   UNL A   1      37.268  22.594  25.184  1.00  0.00     0.002 A 
BRANCH  14  25
ATOM     25  C   UNL A   1      31.787  24.979  22.421  1.00  0.00     0.015 C 
ATOM     26  C   UNL A   1      30.790  24.349  23.382  1.00  0.00     0.010 C 
ATOM     27  C   UNL A   1      31.442  26.301  21.758  1.00  0.00     0.010 C 
ENDBRANCH  14  25
ENDBRANCH  10  13
ENDBRANCH   8   9
BRANCH   8  28
ATOM     28  C   UNL A   1      30.664  27.715  24.890  1.00  0.00     0.072 C 
BRANCH  28  29
ATOM     29  C   UNL A   1      29.788  28.460  23.883  1.00  0.00    -0.045 A 
ATOM     30  C   UNL A   1      28.521  27.938  23.529  1.00  0.00     0.004 A 
ATOM     31  C   UNL A   1      30.005  29.801  23.553  1.00  0.00     0.004 A 
ATOM     32  C   UNL A   1      27.545  28.665  22.845  1.00  0.00     0.000 A 
ATOM     33  C   UNL A   1      29.002  30.560  22.913  1.00  0.00     0.000 A 
ATOM     34  C   UNL A   1      27.779  29.994  22.552  1.00  0.00     0.000 A 
ENDBRANCH  28  29
ENDBRANCH   8  28
ENDBRANCH   6   8
ENDBRANCH   5   6
ENDBRANCH   4   5
ENDBRANCH   3   4
ENDBRANCH   2   3
ENDBRANCH   1   2
BRANCH   1  35
ATOM     35  C   UNL A   1      36.497  31.296  29.732  1.00  0.00     0.188 C 
BRANCH  35  36
ATOM     36  O   UNL A   1      36.852  30.748  31.016  1.00  0.00    -0.376 OA
BRANCH  36  37
ATOM     37  C   UNL A   1      38.177  30.245  31.106  1.00  0.00     0.202 C 
BRANCH  37  38
ATOM     38  C   UNL A   1      39.250  31.274  31.492  1.00  0.00     0.261 C 
BRANCH  38  39
ATOM     39  O   UNL A   1      38.756  32.294  32.369  1.00  0.00    -0.460 OA
BRANCH  39  40
ATOM     40  C   UNL A   1      38.445  33.466  31.754  1.00  0.00     0.338 C 
ATOM     41  O   UNL A   1      37.363  34.035  31.775  1.00  0.00    -0.246 OA
BRANCH  40  42
ATOM     42  C   UNL A   1      39.669  34.058  31.157  1.00  0.00     0.060 A 
ATOM     43  C   UNL A   1      39.635  34.423  29.802  1.00  0.00     0.016 A 
ATOM     44  C   UNL A   1      40.821  34.302  31.913  1.00  0.00     0.016 A 
ATOM     45  C   UNL A   1      40.766  34.972  29.188  1.00  0.00     0.010 A 
ATOM     46  C   UNL A   1      41.952  34.851  31.299  1.00  0.00     0.010 A 
ATOM     47  C   UNL A   1      41.947  35.144  29.924  1.00  0.00    -0.014 A 
BRANCH  47  48
ATOM     48  C   UNL A   1      43.241  35.364  29.225  1.00  0.00     0.031 A 
ATOM     49  C   UNL A   1      44.074  34.148  28.907  1.00  0.00     0.074 A 
ATOM     50  C   UNL A   1      43.697  36.588  28.903  1.00  0.00     0.049 A 
ATOM     51  N   UNL A   1      45.267  34.070  28.378  1.00  0.00    -0.248 NA
ATOM     52  C   UNL A   1      43.477  32.842  29.241  1.00  0.00     0.031 C 
ATOM     53  C   UNL A   1      42.999  37.848  29.137  1.00  0.00     0.029 A 
ATOM     54  N   UNL A   1      44.889  36.963  28.327  1.00  0.00    -0.354 N 
ATOM     55  C   UNL A   1      45.575  32.715  28.343  1.00  0.00     0.074 A 
ATOM     56  C   UNL A   1      44.453  32.008  28.919  1.00  0.00     0.031 C 
ATOM     57  C   UNL A   1      43.788  38.863  28.734  1.00  0.00     0.029 A 
ATOM     58  C   UNL A   1      45.055  38.326  28.237  1.00  0.00     0.049 A 
ATOM     59  H   UNL A   1      45.560  36.317  28.008  1.00  0.00     0.167 HD
ATOM     60  C   UNL A   1      46.682  32.105  27.860  1.00  0.00     0.034 A 
ATOM     61  C   UNL A   1      46.115  39.052  27.823  1.00  0.00     0.034 A 
ATOM     62  C   UNL A   1      47.797  32.792  27.274  1.00  0.00     0.049 A 
ATOM     63  C   UNL A   1      47.357  38.348  27.325  1.00  0.00     0.074 A 
ATOM     64  C   UNL A   1      48.949  32.253  26.731  1.00  0.00     0.029 A 
ATOM     65  N   UNL A   1      47.907  34.168  27.163  1.00  0.00    -0.354 N 
ATOM     66  N   UNL A   1      47.588  37.064  27.194  1.00  0.00    -0.248 NA
ATOM     67  C   UNL A   1      48.476  39.199  26.887  1.00  0.00     0.031 C 
ATOM     68  C   UNL A   1      49.769  33.305  26.314  1.00  0.00     0.029 A 
ATOM     69  C   UNL A   1      49.111  34.498  26.566  1.00  0.00     0.049 A 
ATOM     70  H   UNL A   1      47.229  34.816  27.464  1.00  0.00     0.167 HD
ATOM     71  C   UNL A   1      48.852  36.957  26.617  1.00  0.00     0.074 A 
ATOM     72  C   UNL A   1      49.333  38.306  26.411  1.00  0.00     0.031 C 
ATOM     73  C   UNL A   1      49.555  35.842  26.298  1.00  0.00     0.034 A 
BRANCH  60  74
ATOM     74  C   UNL A   1      46.724  30.602  27.926  1.00  0.00     0.023 A 
ATOM     75  C   UNL A   1      47.278  29.971  29.060  1.00  0.00     0.012 A 
ATOM     76  C   UNL A   1      46.185  29.818  26.890  1.00  0.00     0.148 A 
ATOM     77  C   UNL A   1      47.325  28.580  29.144  1.00  0.00     0.002 A 
ATOM     78  C   UNL A   1      46.192  28.433  27.003  1.00  0.00     0.091 A 
ATOM     79  F   UNL A   1      45.686  30.438  25.811  1.00  0.00    -0.205 F 
ATOM     80  C   UNL A   1      46.772  27.813  28.121  1.00  0.00     0.022 A 
BRANCH  78  81
ATOM     81  S   UNL A   1      45.437  27.360  25.778  1.00  0.00     0.127 S 
ATOM     82  O   UNL A   1      44.017  27.497  26.100  1.00  0.00    -0.237 OA
ATOM     83  O   UNL A   1      45.841  27.994  24.523  1.00  0.00    -0.237 OA
ATOM     84  O   UNL A   1      46.002  26.036  25.999  1.00  0.00    -0.744 OA
ENDBRANCH  78  81
ENDBRANCH  60  74
BRANCH  61  85
ATOM     85  C   UNL A   1      46.056  40.544  27.823  1.00  0.00     0.023 A 
ATOM     86  C   UNL A   1      46.420  41.251  28.988  1.00  0.00     0.012 A 
ATOM     87  C   UNL A   1      45.614  41.262  26.697  1.00  0.00     0.148 A 
ATOM     88  C   UNL A   1      46.307  42.641  29.043  1.00  0.00     0.002 A 
ATOM     89  C   UNL A   1      45.556  42.651  26.740  1.00  0.00     0.091 A 
ATOM     90  F   UNL A   1      45.250  40.573  25.607  1.00  0.00    -0.205 F 
ATOM     91  C   UNL A   1      45.884  43.341  27.918  1.00  0.00     0.022 A 
BRANCH  89  92
ATOM     92  S   UNL A   1      45.127  43.646  25.307  1.00  0.00     0.127 S 
ATOM     93  O   UNL A   1      45.273  45.003  25.830  1.00  0.00    -0.237 OA
ATOM     94  O   UNL A   1      46.152  43.244  24.344  1.00  0.00    -0.237 OA
ATOM     95  O   UNL A   1      43.773  43.252  24.945  1.00  0.00    -0.744 OA
ENDBRANCH  89  92
ENDBRANCH  61  85
BRANCH  73  96
ATOM     96  C   UNL A   1      50.898  36.009  25.631  1.00  0.00     0.023 A 
ATOM     97  C   UNL A   1      50.982  36.120  24.230  1.00  0.00     0.012 A 
ATOM     98  C   UNL A   1      52.069  36.148  26.405  1.00  0.00     0.148 A 
ATOM     99  C   UNL A   1      52.213  36.335  23.607  1.00  0.00     0.002 A 
ATOM    100  C   UNL A   1      53.283  36.411  25.783  1.00  0.00     0.091 A 
ATOM    101  F   UNL A   1      51.972  36.025  27.737  1.00  0.00    -0.205 F 
ATOM    102  C   UNL A   1      53.359  36.493  24.383  1.00  0.00     0.022 A 
BRANCH 100 103
ATOM    103  S   UNL A   1      54.792  36.728  26.707  1.00  0.00     0.127 S 
ATOM    104  O   UNL A   1      55.566  37.518  25.751  1.00  0.00    -0.237 OA
ATOM    105  O   UNL A   1      54.298  37.480  27.861  1.00  0.00    -0.237 OA
ATOM    106  O   UNL A   1      55.347  35.420  27.030  1.00  0.00    -0.744 OA
ENDBRANCH 100 103
ENDBRANCH  73  96
ENDBRANCH  47  48
ENDBRANCH  40  42
ENDBRANCH  39  40
ENDBRANCH  38  39
ENDBRANCH  37  38
ENDBRANCH  36  37
ENDBRANCH  35  36
ENDBRANCH   1  35
TORSDOF 25
ENDMDL
