MODEL 1
REMARK VINA RESULT:     -11.3      0.000      0.000
REMARK SMILES CCc1cc(S(F)(F)(F)(F)F)cc2c1O[C@@H](C(F)(F)F)C(C(=O)OCCOCCOCCOC(=O)c1ccc(-c3c4nc(c(-c5cccc(S(=O)(=O)[O-])c5F)c5ccc([nH]5)c(-c5cccc(S(=O)(=O)[O-])c5F)c5nc(c(-c6cccc(S(=O)(=O)[O-])c6F)c6ccc3[nH]6)C=C5)C=C4)cc1)=C2
REMARK SMILES IDX 29 1 28 2 27 3 26 4 25 5 24 6 22 7 23 8 21 9 3 10 4 11 14 12
REMARK SMILES IDX 5 13 13 14 15 15 12 16 99 17 16 18 2 19 1 20 6 21 7 22 8 23
REMARK SMILES IDX 9 24 10 25 11 26 17 27 18 28 19 29 20 30 30 31 31 32 32 33
REMARK SMILES IDX 33 34 34 35 35 36 36 37 37 38 98 39 38 40 97 41 39 42 40 43
REMARK SMILES IDX 41 44 91 45 42 46 96 47 90 48 92 49 43 50 95 51 89 52 88 53
REMARK SMILES IDX 44 55 76 56 56 57 75 58 57 59 60 60 74 61 93 62 58 63 59 64
REMARK SMILES IDX 73 66 94 67 61 68 45 69 46 70 54 71 47 72 49 73 55 74 48 75
REMARK SMILES IDX 50 76 51 77 52 78 53 79 77 80 78 81 86 82 79 83 81 84 87 85
REMARK SMILES IDX 80 86 82 87 83 88 84 89 85 90 62 91 63 92 71 93 64 94 66 95
REMARK SMILES IDX 72 96 65 97 67 98 68 99 69 100 70 101
REMARK H PARENT 92 54 60 65
REMARK Flexibility Score: inf
ROOT
ATOM      1  C   UNL A   1      32.633  29.628  25.053  1.00  0.00     0.188 C 
ENDROOT
BRANCH   1   2
ATOM      2  C   UNL A   1      31.292  29.445  24.362  1.00  0.00     0.188 C 
BRANCH   2   3
ATOM      3  O   UNL A   1      31.160  28.098  23.934  1.00  0.00    -0.376 OA
BRANCH   3   4
ATOM      4  C   UNL A   1      30.260  27.414  24.794  1.00  0.00     0.202 C 
BRANCH   4   5
ATOM      5  C   UNL A   1      29.635  26.246  24.048  1.00  0.00     0.261 C 
BRANCH   5   6
ATOM      6  O   UNL A   1      30.325  25.050  24.379  1.00  0.00    -0.460 OA
BRANCH   6   7
ATOM      7  C   UNL A   1      31.322  24.540  23.505  1.00  0.00     0.338 C 
ATOM      8  O   UNL A   1      31.395  24.964  22.309  1.00  0.00    -0.246 OA
BRANCH   7   9
ATOM      9  C   UNL A   1      32.300  23.487  24.000  1.00  0.00     0.087 C 
ATOM     10  C   UNL A   1      35.286  20.730  24.965  1.00  0.00    -0.004 A 
ATOM     11  C   UNL A   1      35.037  19.375  24.850  1.00  0.00     0.032 A 
ATOM     12  C   UNL A   1      34.305  21.616  24.590  1.00  0.00     0.131 A 
ATOM     13  C   UNL A   1      33.839  18.917  24.369  1.00  0.00     0.108 A 
ATOM     14  C   UNL A   1      33.077  21.189  24.116  1.00  0.00     0.019 A 
ATOM     15  O   UNL A   1      34.606  22.956  24.603  1.00  0.00    -0.475 OA
ATOM     16  C   UNL A   1      32.861  19.821  24.010  1.00  0.00     0.036 A 
ATOM     17  C   UNL A   1      32.119  22.204  23.709  1.00  0.00     0.027 C 
ATOM     18  C   UNL A   1      33.508  23.880  24.839  1.00  0.00     0.316 C 
BRANCH  10  19
ATOM     19  C   UNL A   1      36.610  21.138  25.589  1.00  0.00     0.036 C 
ATOM     20  C   UNL A   1      37.745  20.404  24.892  1.00  0.00     0.009 C 
ENDBRANCH  10  19
BRANCH  13  21
ATOM     21  S   UNL A   1      33.542  17.139  24.204  1.00  0.00     0.310 S 
ATOM     22  F   UNL A   1      32.108  17.442  23.599  1.00  0.00    -0.094 F 
ATOM     23  F   UNL A   1      32.885  17.239  25.632  1.00  0.00    -0.094 F 
ATOM     24  F   UNL A   1      33.192  15.626  24.118  1.00  0.00    -0.094 F 
ATOM     25  F   UNL A   1      34.078  17.090  22.719  1.00  0.00    -0.094 F 
ATOM     26  F   UNL A   1      33.802  18.698  24.232  1.00  0.00    -0.094 F 
ENDBRANCH  13  21
BRANCH  18  27
ATOM     27  C   UNL A   1      33.948  25.282  24.448  1.00  0.00     0.430 C 
ATOM     28  F   UNL A   1      35.134  25.542  24.992  1.00  0.00    -0.167 F 
ATOM     29  F   UNL A   1      34.039  25.365  23.124  1.00  0.00    -0.167 F 
ATOM     30  F   UNL A   1      33.056  26.166  24.888  1.00  0.00    -0.167 F 
ENDBRANCH  18  27
ENDBRANCH   7   9
ENDBRANCH   6   7
ENDBRANCH   5   6
ENDBRANCH   4   5
ENDBRANCH   3   4
ENDBRANCH   2   3
ENDBRANCH   1   2
BRANCH   1  31
ATOM     31  O   UNL A   1      32.458  30.404  26.230  1.00  0.00    -0.376 OA
BRANCH  31  32
ATOM     32  C   UNL A   1      31.406  31.337  26.029  1.00  0.00     0.202 C 
BRANCH  32  33
ATOM     33  C   UNL A   1      31.407  32.353  27.159  1.00  0.00     0.261 C 
BRANCH  33  34
ATOM     34  O   UNL A   1      32.383  33.351  26.898  1.00  0.00    -0.460 OA
BRANCH  34  35
ATOM     35  C   UNL A   1      33.009  34.033  27.975  1.00  0.00     0.338 C 
ATOM     36  O   UNL A   1      32.559  35.158  28.360  1.00  0.00    -0.246 OA
BRANCH  35  37
ATOM     37  C   UNL A   1      34.215  33.419  28.664  1.00  0.00     0.060 A 
ATOM     38  C   UNL A   1      35.433  34.078  28.629  1.00  0.00     0.016 A 
ATOM     39  C   UNL A   1      34.078  32.259  29.295  1.00  0.00     0.016 A 
ATOM     40  C   UNL A   1      36.527  33.283  29.049  1.00  0.00     0.010 A 
ATOM     41  C   UNL A   1      35.173  31.602  29.800  1.00  0.00     0.010 A 
ATOM     42  C   UNL A   1      36.418  32.168  29.747  1.00  0.00    -0.014 A 
BRANCH  42  43
ATOM     43  C   UNL A   1      37.611  31.546  30.454  1.00  0.00     0.031 A 
ATOM     44  C   UNL A   1      38.367  30.592  29.771  1.00  0.00     0.074 A 
ATOM     45  C   UNL A   1      37.881  31.968  31.744  1.00  0.00     0.049 A 
ATOM     46  N   UNL A   1      39.462  29.962  30.199  1.00  0.00    -0.248 NA
ATOM     47  C   UNL A   1      38.062  30.118  28.413  1.00  0.00     0.031 C 
ATOM     48  C   UNL A   1      37.128  32.936  32.438  1.00  0.00     0.029 A 
ATOM     49  N   UNL A   1      38.894  31.547  32.577  1.00  0.00    -0.354 N 
ATOM     50  C   UNL A   1      39.916  29.135  29.255  1.00  0.00     0.074 A 
ATOM     51  C   UNL A   1      39.019  29.218  28.095  1.00  0.00     0.031 C 
ATOM     52  C   UNL A   1      37.672  33.087  33.674  1.00  0.00     0.029 A 
ATOM     53  C   UNL A   1      38.774  32.217  33.774  1.00  0.00     0.049 A 
ATOM     54  H   UNL A   1      39.585  30.880  32.354  1.00  0.00     0.167 HD
ATOM     55  C   UNL A   1      41.045  28.316  29.317  1.00  0.00     0.034 A 
ATOM     56  C   UNL A   1      39.571  32.090  34.902  1.00  0.00     0.034 A 
ATOM     57  C   UNL A   1      41.867  28.221  30.429  1.00  0.00     0.049 A 
ATOM     58  C   UNL A   1      40.666  31.227  34.984  1.00  0.00     0.074 A 
ATOM     59  C   UNL A   1      43.013  27.406  30.504  1.00  0.00     0.029 A 
ATOM     60  N   UNL A   1      41.733  28.873  31.634  1.00  0.00    -0.354 N 
ATOM     61  N   UNL A   1      41.143  30.429  34.026  1.00  0.00    -0.248 NA
ATOM     62  C   UNL A   1      41.497  31.061  36.183  1.00  0.00     0.031 C 
ATOM     63  C   UNL A   1      43.557  27.558  31.741  1.00  0.00     0.029 A 
ATOM     64  C   UNL A   1      42.759  28.469  32.459  1.00  0.00     0.049 A 
ATOM     65  H   UNL A   1      41.025  29.517  31.867  1.00  0.00     0.167 HD
ATOM     66  C   UNL A   1      42.214  29.769  34.470  1.00  0.00     0.074 A 
ATOM     67  C   UNL A   1      42.453  30.159  35.867  1.00  0.00     0.031 C 
ATOM     68  C   UNL A   1      43.005  28.858  33.766  1.00  0.00     0.034 A 
BRANCH  55  69
ATOM     69  C   UNL A   1      41.393  27.481  28.095  1.00  0.00     0.023 A 
ATOM     70  C   UNL A   1      42.041  28.075  27.025  1.00  0.00     0.012 A 
ATOM     71  C   UNL A   1      41.077  26.191  28.078  1.00  0.00     0.148 A 
ATOM     72  C   UNL A   1      42.058  27.284  25.853  1.00  0.00     0.002 A 
ATOM     73  C   UNL A   1      41.247  25.444  26.938  1.00  0.00     0.091 A 
ATOM     74  F   UNL A   1      40.593  25.617  29.176  1.00  0.00    -0.205 F 
ATOM     75  C   UNL A   1      41.827  25.984  25.823  1.00  0.00     0.022 A 
BRANCH  73  76
ATOM     76  S   UNL A   1      40.694  23.721  26.910  1.00  0.00     0.127 S 
ATOM     77  O   UNL A   1      40.908  23.093  28.288  1.00  0.00    -0.237 OA
ATOM     78  O   UNL A   1      39.208  23.668  26.549  1.00  0.00    -0.237 OA
ATOM     79  O   UNL A   1      41.595  22.853  25.743  1.00  0.00    -0.744 OA
ENDBRANCH  73  76
ENDBRANCH  55  69
BRANCH  56  80
ATOM     80  C   UNL A   1      39.232  32.937  36.117  1.00  0.00     0.023 A 
ATOM     81  C   UNL A   1      39.808  34.190  36.256  1.00  0.00     0.012 A 
ATOM     82  C   UNL A   1      38.398  32.457  37.032  1.00  0.00     0.148 A 
ATOM     83  C   UNL A   1      39.664  34.746  37.549  1.00  0.00     0.002 A 
ATOM     84  C   UNL A   1      38.202  33.122  38.218  1.00  0.00     0.091 A 
ATOM     85  F   UNL A   1      37.747  31.321  36.798  1.00  0.00    -0.205 F 
ATOM     86  C   UNL A   1      38.786  34.337  38.447  1.00  0.00     0.022 A 
BRANCH  84  87
ATOM     87  S   UNL A   1      37.154  32.381  39.493  1.00  0.00     0.127 S 
ATOM     88  O   UNL A   1      36.857  33.420  40.577  1.00  0.00    -0.237 OA
ATOM     89  O   UNL A   1      35.840  31.911  38.864  1.00  0.00    -0.237 OA
ATOM     90  O   UNL A   1      37.962  31.045  40.189  1.00  0.00    -0.744 OA
ENDBRANCH  84  87
ENDBRANCH  56  80
BRANCH  68  91
ATOM     91  C   UNL A   1      44.208  28.258  34.476  1.00  0.00     0.023 A 
ATOM     92  C   UNL A   1      45.439  28.887  34.388  1.00  0.00     0.012 A 
ATOM     93  C   UNL A   1      44.054  27.140  35.174  1.00  0.00     0.148 A 
ATOM     94  C   UNL A   1      46.520  28.096  34.839  1.00  0.00     0.002 A 
ATOM     95  C   UNL A   1      45.143  26.491  35.703  1.00  0.00     0.091 A 
ATOM     96  F   UNL A   1      42.835  26.644  35.365  1.00  0.00    -0.205 F 
ATOM     97  C   UNL A   1      46.398  27.025  35.603  1.00  0.00     0.022 A 
BRANCH  95  98
ATOM     98  S   UNL A   1      44.913  24.906  36.545  1.00  0.00     0.127 S 
ATOM     99  O   UNL A   1      43.969  25.092  37.736  1.00  0.00    -0.237 OA
ATOM    100  O   UNL A   1      44.309  23.892  35.570  1.00  0.00    -0.237 OA
ATOM    101  O   UNL A   1      46.425  24.331  37.102  1.00  0.00    -0.744 OA
ENDBRANCH  95  98
ENDBRANCH  68  91
ENDBRANCH  42  43
ENDBRANCH  35  37
ENDBRANCH  34  35
ENDBRANCH  33  34
ENDBRANCH  32  33
ENDBRANCH  31  32
ENDBRANCH   1  31
TORSDOF 23
ENDMDL
MODEL 2
REMARK VINA RESULT:     -11.0      2.146      2.525
REMARK SMILES CCc1cc(S(F)(F)(F)(F)F)cc2c1O[C@@H](C(F)(F)F)C(C(=O)OCCOCCOCCOC(=O)c1ccc(-c3c4nc(c(-c5cccc(S(=O)(=O)[O-])c5F)c5ccc([nH]5)c(-c5cccc(S(=O)(=O)[O-])c5F)c5nc(c(-c6cccc(S(=O)(=O)[O-])c6F)c6ccc3[nH]6)C=C5)C=C4)cc1)=C2
REMARK SMILES IDX 29 1 28 2 27 3 26 4 25 5 24 6 22 7 23 8 21 9 3 10 4 11 14 12
REMARK SMILES IDX 5 13 13 14 15 15 12 16 99 17 16 18 2 19 1 20 6 21 7 22 8 23
REMARK SMILES IDX 9 24 10 25 11 26 17 27 18 28 19 29 20 30 30 31 31 32 32 33
REMARK SMILES IDX 33 34 34 35 35 36 36 37 37 38 98 39 38 40 97 41 39 42 40 43
REMARK SMILES IDX 41 44 91 45 42 46 96 47 90 48 92 49 43 50 95 51 89 52 88 53
REMARK SMILES IDX 44 55 76 56 56 57 75 58 57 59 60 60 74 61 93 62 58 63 59 64
REMARK SMILES IDX 73 66 94 67 61 68 45 69 46 70 54 71 47 72 49 73 55 74 48 75
REMARK SMILES IDX 50 76 51 77 52 78 53 79 77 80 78 81 86 82 79 83 81 84 87 85
REMARK SMILES IDX 80 86 82 87 83 88 84 89 85 90 62 91 63 92 71 93 64 94 66 95
REMARK SMILES IDX 72 96 65 97 67 98 68 99 69 100 70 101
REMARK H PARENT 92 54 60 65
REMARK Flexibility Score: inf
ROOT
ATOM      1  C   UNL A   1      32.322  28.654  23.762  1.00  0.00     0.188 C 
ENDROOT
BRANCH   1   2
ATOM      2  C   UNL A   1      30.858  28.633  24.169  1.00  0.00     0.188 C 
BRANCH   2   3
ATOM      3  O   UNL A   1      30.054  28.358  23.032  1.00  0.00    -0.376 OA
BRANCH   3   4
ATOM      4  C   UNL A   1      29.983  26.955  22.830  1.00  0.00     0.202 C 
BRANCH   4   5
ATOM      5  C   UNL A   1      29.564  26.277  24.125  1.00  0.00     0.261 C 
BRANCH   5   6
ATOM      6  O   UNL A   1      30.149  24.985  24.194  1.00  0.00    -0.460 OA
BRANCH   6   7
ATOM      7  C   UNL A   1      30.580  24.467  25.445  1.00  0.00     0.338 C 
ATOM      8  O   UNL A   1      29.987  24.815  26.514  1.00  0.00    -0.246 OA
BRANCH   7   9
ATOM      9  C   UNL A   1      31.749  23.498  25.503  1.00  0.00     0.087 C 
ATOM     10  C   UNL A   1      35.124  21.052  25.230  1.00  0.00    -0.004 A 
ATOM     11  C   UNL A   1      34.977  19.698  24.991  1.00  0.00     0.032 A 
ATOM     12  C   UNL A   1      34.001  21.842  25.262  1.00  0.00     0.131 A 
ATOM     13  C   UNL A   1      33.740  19.149  24.785  1.00  0.00     0.108 A 
ATOM     14  C   UNL A   1      32.733  21.320  25.076  1.00  0.00     0.019 A 
ATOM     15  O   UNL A   1      34.170  23.199  25.387  1.00  0.00    -0.475 OA
ATOM     16  C   UNL A   1      32.621  19.956  24.835  1.00  0.00     0.036 A 
ATOM     17  C   UNL A   1      31.611  22.244  25.090  1.00  0.00     0.027 C 
ATOM     18  C   UNL A   1      33.103  23.944  26.038  1.00  0.00     0.316 C 
BRANCH  10  19
ATOM     19  C   UNL A   1      36.527  21.552  25.530  1.00  0.00     0.036 C 
ATOM     20  C   UNL A   1      37.400  21.381  24.297  1.00  0.00     0.009 C 
ENDBRANCH  10  19
BRANCH  13  21
ATOM     21  S   UNL A   1      33.571  17.378  24.450  1.00  0.00     0.310 S 
ATOM     22  F   UNL A   1      32.089  17.622  23.943  1.00  0.00    -0.094 F 
ATOM     23  F   UNL A   1      32.983  17.282  25.909  1.00  0.00    -0.094 F 
ATOM     24  F   UNL A   1      33.334  15.858  24.224  1.00  0.00    -0.094 F 
ATOM     25  F   UNL A   1      34.032  17.521  22.946  1.00  0.00    -0.094 F 
ATOM     26  F   UNL A   1      33.712  18.942  24.628  1.00  0.00    -0.094 F 
ENDBRANCH  13  21
BRANCH  18  27
ATOM     27  C   UNL A   1      33.286  25.426  25.751  1.00  0.00     0.430 C 
ATOM     28  F   UNL A   1      33.001  25.668  24.474  1.00  0.00    -0.167 F 
ATOM     29  F   UNL A   1      32.471  26.132  26.529  1.00  0.00    -0.167 F 
ATOM     30  F   UNL A   1      34.547  25.773  25.998  1.00  0.00    -0.167 F 
ENDBRANCH  18  27
ENDBRANCH   7   9
ENDBRANCH   6   7
ENDBRANCH   5   6
ENDBRANCH   4   5
ENDBRANCH   3   4
ENDBRANCH   2   3
ENDBRANCH   1   2
BRANCH   1  31
ATOM     31  O   UNL A   1      33.001  29.669  24.488  1.00  0.00    -0.376 OA
BRANCH  31  32
ATOM     32  C   UNL A   1      32.196  30.087  25.582  1.00  0.00     0.202 C 
BRANCH  32  33
ATOM     33  C   UNL A   1      33.086  30.647  26.680  1.00  0.00     0.261 C 
BRANCH  33  34
ATOM     34  O   UNL A   1      32.680  31.972  26.989  1.00  0.00    -0.460 OA
BRANCH  34  35
ATOM     35  C   UNL A   1      33.580  32.857  27.640  1.00  0.00     0.338 C 
ATOM     36  O   UNL A   1      33.353  34.107  27.637  1.00  0.00    -0.246 OA
BRANCH  35  37
ATOM     37  C   UNL A   1      34.813  32.308  28.339  1.00  0.00     0.060 A 
ATOM     38  C   UNL A   1      35.986  33.046  28.337  1.00  0.00     0.016 A 
ATOM     39  C   UNL A   1      34.742  31.130  28.945  1.00  0.00     0.016 A 
ATOM     40  C   UNL A   1      37.122  32.315  28.760  1.00  0.00     0.010 A 
ATOM     41  C   UNL A   1      35.870  30.536  29.456  1.00  0.00     0.010 A 
ATOM     42  C   UNL A   1      37.075  31.182  29.435  1.00  0.00    -0.014 A 
BRANCH  42  43
ATOM     43  C   UNL A   1      38.295  30.624  30.151  1.00  0.00     0.031 A 
ATOM     44  C   UNL A   1      39.083  29.682  29.487  1.00  0.00     0.074 A 
ATOM     45  C   UNL A   1      38.556  31.090  31.427  1.00  0.00     0.049 A 
ATOM     46  N   UNL A   1      40.204  29.106  29.924  1.00  0.00    -0.248 NA
ATOM     47  C   UNL A   1      38.789  29.161  28.144  1.00  0.00     0.031 C 
ATOM     48  C   UNL A   1      37.770  32.046  32.100  1.00  0.00     0.029 A 
ATOM     49  N   UNL A   1      39.589  30.730  32.264  1.00  0.00    -0.354 N 
ATOM     50  C   UNL A   1      40.684  28.272  29.000  1.00  0.00     0.074 A 
ATOM     51  C   UNL A   1      39.779  28.291  27.844  1.00  0.00     0.031 C 
ATOM     52  C   UNL A   1      38.315  32.251  33.328  1.00  0.00     0.029 A 
ATOM     53  C   UNL A   1      39.450  31.426  33.444  1.00  0.00     0.049 A 
ATOM     54  H   UNL A   1      40.303  30.085  32.055  1.00  0.00     0.167 HD
ATOM     55  C   UNL A   1      41.844  27.498  29.076  1.00  0.00     0.034 A 
ATOM     56  C   UNL A   1      40.257  31.359  34.570  1.00  0.00     0.034 A 
ATOM     57  C   UNL A   1      42.675  27.465  30.185  1.00  0.00     0.049 A 
ATOM     58  C   UNL A   1      41.385  30.541  34.667  1.00  0.00     0.074 A 
ATOM     59  C   UNL A   1      43.852  26.696  30.274  1.00  0.00     0.029 A 
ATOM     60  N   UNL A   1      42.523  28.142  31.373  1.00  0.00    -0.354 N 
ATOM     61  N   UNL A   1      41.887  29.737  33.728  1.00  0.00    -0.248 NA
ATOM     62  C   UNL A   1      42.228  30.438  35.865  1.00  0.00     0.031 C 
ATOM     63  C   UNL A   1      44.396  26.901  31.503  1.00  0.00     0.029 A 
ATOM     64  C   UNL A   1      43.568  27.800  32.202  1.00  0.00     0.049 A 
ATOM     65  H   UNL A   1      41.792  28.765  31.593  1.00  0.00     0.167 HD
ATOM     66  C   UNL A   1      42.985  29.130  34.182  1.00  0.00     0.074 A 
ATOM     67  C   UNL A   1      43.216  29.566  35.566  1.00  0.00     0.031 C 
ATOM     68  C   UNL A   1      43.806  28.232  33.497  1.00  0.00     0.034 A 
BRANCH  55  69
ATOM     69  C   UNL A   1      42.218  26.646  27.874  1.00  0.00     0.023 A 
ATOM     70  C   UNL A   1      42.949  27.207  26.840  1.00  0.00     0.012 A 
ATOM     71  C   UNL A   1      41.842  25.372  27.840  1.00  0.00     0.148 A 
ATOM     72  C   UNL A   1      42.991  26.413  25.670  1.00  0.00     0.002 A 
ATOM     73  C   UNL A   1      42.038  24.616  26.710  1.00  0.00     0.091 A 
ATOM     74  F   UNL A   1      41.274  24.824  28.910  1.00  0.00    -0.205 F 
ATOM     75  C   UNL A   1      42.701  25.125  25.628  1.00  0.00     0.022 A 
BRANCH  73  76
ATOM     76  S   UNL A   1      41.407  22.920  26.651  1.00  0.00     0.127 S 
ATOM     77  O   UNL A   1      41.908  22.233  25.380  1.00  0.00    -0.237 OA
ATOM     78  O   UNL A   1      41.901  22.149  27.878  1.00  0.00    -0.237 OA
ATOM     79  O   UNL A   1      39.696  22.949  26.647  1.00  0.00    -0.744 OA
ENDBRANCH  73  76
ENDBRANCH  55  69
BRANCH  56  80
ATOM     80  C   UNL A   1      39.893  32.225  35.764  1.00  0.00     0.023 A 
ATOM     81  C   UNL A   1      39.066  31.713  36.751  1.00  0.00     0.012 A 
ATOM     82  C   UNL A   1      40.366  33.464  35.836  1.00  0.00     0.148 A 
ATOM     83  C   UNL A   1      38.557  32.692  37.637  1.00  0.00     0.002 A 
ATOM     84  C   UNL A   1      39.925  34.325  36.811  1.00  0.00     0.091 A 
ATOM     85  F   UNL A   1      41.275  33.874  34.956  1.00  0.00    -0.205 F 
ATOM     86  C   UNL A   1      39.062  33.903  37.784  1.00  0.00     0.022 A 
BRANCH  84  87
ATOM     87  S   UNL A   1      40.497  36.043  36.809  1.00  0.00     0.127 S 
ATOM     88  O   UNL A   1      39.875  36.789  37.991  1.00  0.00    -0.237 OA
ATOM     89  O   UNL A   1      42.022  36.072  36.933  1.00  0.00    -0.237 OA
ATOM     90  O   UNL A   1      40.030  36.797  35.347  1.00  0.00    -0.744 OA
ENDBRANCH  84  87
ENDBRANCH  56  80
BRANCH  68  91
ATOM     91  C   UNL A   1      45.035  27.697  34.215  1.00  0.00     0.023 A 
ATOM     92  C   UNL A   1      44.946  26.520  34.939  1.00  0.00     0.012 A 
ATOM     93  C   UNL A   1      46.176  28.370  34.129  1.00  0.00     0.148 A 
ATOM     94  C   UNL A   1      46.055  26.282  35.784  1.00  0.00     0.002 A 
ATOM     95  C   UNL A   1      47.263  27.998  34.883  1.00  0.00     0.091 A 
ATOM     96  F   UNL A   1      46.268  29.410  33.307  1.00  0.00    -0.205 F 
ATOM     97  C   UNL A   1      47.227  26.880  35.667  1.00  0.00     0.022 A 
BRANCH  95  98
ATOM     98  S   UNL A   1      48.765  29.007  34.836  1.00  0.00     0.127 S 
ATOM     99  O   UNL A   1      48.443  30.426  35.311  1.00  0.00    -0.237 OA
ATOM    100  O   UNL A   1      49.823  28.390  35.756  1.00  0.00    -0.237 OA
ATOM    101  O   UNL A   1      49.365  29.064  33.236  1.00  0.00    -0.744 OA
ENDBRANCH  95  98
ENDBRANCH  68  91
ENDBRANCH  42  43
ENDBRANCH  35  37
ENDBRANCH  34  35
ENDBRANCH  33  34
ENDBRANCH  32  33
ENDBRANCH  31  32
ENDBRANCH   1  31
TORSDOF 23
ENDMDL
MODEL 3
REMARK VINA RESULT:     -10.9      2.038      3.554
REMARK SMILES CCc1cc(S(F)(F)(F)(F)F)cc2c1O[C@@H](C(F)(F)F)C(C(=O)OCCOCCOCCOC(=O)c1ccc(-c3c4nc(c(-c5cccc(S(=O)(=O)[O-])c5F)c5ccc([nH]5)c(-c5cccc(S(=O)(=O)[O-])c5F)c5nc(c(-c6cccc(S(=O)(=O)[O-])c6F)c6ccc3[nH]6)C=C5)C=C4)cc1)=C2
REMARK SMILES IDX 29 1 28 2 27 3 26 4 25 5 24 6 22 7 23 8 21 9 3 10 4 11 14 12
REMARK SMILES IDX 5 13 13 14 15 15 12 16 99 17 16 18 2 19 1 20 6 21 7 22 8 23
REMARK SMILES IDX 9 24 10 25 11 26 17 27 18 28 19 29 20 30 30 31 31 32 32 33
REMARK SMILES IDX 33 34 34 35 35 36 36 37 37 38 98 39 38 40 97 41 39 42 40 43
REMARK SMILES IDX 41 44 91 45 42 46 96 47 90 48 92 49 43 50 95 51 89 52 88 53
REMARK SMILES IDX 44 55 76 56 56 57 75 58 57 59 60 60 74 61 93 62 58 63 59 64
REMARK SMILES IDX 73 66 94 67 61 68 45 69 46 70 54 71 47 72 49 73 55 74 48 75
REMARK SMILES IDX 50 76 51 77 52 78 53 79 77 80 78 81 86 82 79 83 81 84 87 85
REMARK SMILES IDX 80 86 82 87 83 88 84 89 85 90 62 91 63 92 71 93 64 94 66 95
REMARK SMILES IDX 72 96 65 97 67 98 68 99 69 100 70 101
REMARK H PARENT 92 54 60 65
REMARK Flexibility Score: inf
ROOT
ATOM      1  C   UNL A   1      31.423  27.023  25.017  1.00  0.00     0.188 C 
ENDROOT
BRANCH   1   2
ATOM      2  C   UNL A   1      31.023  26.839  26.471  1.00  0.00     0.188 C 
BRANCH   2   3
ATOM      3  O   UNL A   1      31.344  25.520  26.887  1.00  0.00    -0.376 OA
BRANCH   3   4
ATOM      4  C   UNL A   1      30.600  24.587  26.118  1.00  0.00     0.202 C 
BRANCH   4   5
ATOM      5  C   UNL A   1      30.727  23.204  26.736  1.00  0.00     0.261 C 
BRANCH   5   6
ATOM      6  O   UNL A   1      30.954  22.246  25.713  1.00  0.00    -0.460 OA
BRANCH   6   7
ATOM      7  C   UNL A   1      31.805  22.562  24.621  1.00  0.00     0.338 C 
ATOM      8  O   UNL A   1      31.321  23.092  23.571  1.00  0.00    -0.246 OA
BRANCH   7   9
ATOM      9  C   UNL A   1      33.293  22.265  24.706  1.00  0.00     0.087 C 
ATOM     10  C   UNL A   1      37.266  21.134  25.327  1.00  0.00    -0.004 A 
ATOM     11  C   UNL A   1      38.179  22.057  25.803  1.00  0.00     0.032 A 
ATOM     12  C   UNL A   1      35.955  21.518  25.183  1.00  0.00     0.131 A 
ATOM     13  C   UNL A   1      37.791  23.329  26.130  1.00  0.00     0.108 A 
ATOM     14  C   UNL A   1      35.530  22.799  25.486  1.00  0.00     0.019 A 
ATOM     15  O   UNL A   1      35.039  20.561  24.818  1.00  0.00    -0.475 OA
ATOM     16  C   UNL A   1      36.473  23.700  25.965  1.00  0.00     0.036 A 
ATOM     17  C   UNL A   1      34.115  23.096  25.336  1.00  0.00     0.027 C 
ATOM     18  C   UNL A   1      33.874  21.009  24.071  1.00  0.00     0.316 C 
BRANCH  10  19
ATOM     19  C   UNL A   1      37.808  19.776  24.913  1.00  0.00     0.036 C 
ATOM     20  C   UNL A   1      39.197  19.585  25.501  1.00  0.00     0.009 C 
ENDBRANCH  10  19
BRANCH  13  21
ATOM     21  S   UNL A   1      38.998  24.514  26.773  1.00  0.00     0.310 S 
ATOM     22  F   UNL A   1      40.073  23.352  26.879  1.00  0.00    -0.094 F 
ATOM     23  F   UNL A   1      38.487  24.077  28.198  1.00  0.00    -0.094 F 
ATOM     24  F   UNL A   1      40.052  25.463  27.412  1.00  0.00    -0.094 F 
ATOM     25  F   UNL A   1      39.591  24.833  25.344  1.00  0.00    -0.094 F 
ATOM     26  F   UNL A   1      38.010  23.470  26.117  1.00  0.00    -0.094 F 
ENDBRANCH  13  21
BRANCH  18  27
ATOM     27  C   UNL A   1      32.821  19.912  24.090  1.00  0.00     0.430 C 
ATOM     28  F   UNL A   1      33.406  18.733  23.894  1.00  0.00    -0.167 F 
ATOM     29  F   UNL A   1      32.204  19.910  25.268  1.00  0.00    -0.167 F 
ATOM     30  F   UNL A   1      31.933  20.132  23.124  1.00  0.00    -0.167 F 
ENDBRANCH  18  27
ENDBRANCH   7   9
ENDBRANCH   6   7
ENDBRANCH   5   6
ENDBRANCH   4   5
ENDBRANCH   3   4
ENDBRANCH   2   3
ENDBRANCH   1   2
BRANCH   1  31
ATOM     31  O   UNL A   1      30.662  28.079  24.446  1.00  0.00    -0.376 OA
BRANCH  31  32
ATOM     32  C   UNL A   1      31.519  29.174  24.155  1.00  0.00     0.202 C 
BRANCH  32  33
ATOM     33  C   UNL A   1      31.586  30.098  25.361  1.00  0.00     0.261 C 
BRANCH  33  34
ATOM     34  O   UNL A   1      32.915  30.126  25.861  1.00  0.00    -0.460 OA
BRANCH  34  35
ATOM     35  C   UNL A   1      33.261  31.023  26.907  1.00  0.00     0.338 C 
ATOM     36  O   UNL A   1      32.499  32.002  27.181  1.00  0.00    -0.246 OA
BRANCH  35  37
ATOM     37  C   UNL A   1      34.543  30.812  27.695  1.00  0.00     0.060 A 
ATOM     38  C   UNL A   1      34.888  29.537  28.113  1.00  0.00     0.016 A 
ATOM     39  C   UNL A   1      35.315  31.858  27.965  1.00  0.00     0.016 A 
ATOM     40  C   UNL A   1      35.933  29.511  29.068  1.00  0.00     0.010 A 
ATOM     41  C   UNL A   1      36.399  31.731  28.799  1.00  0.00     0.010 A 
ATOM     42  C   UNL A   1      36.764  30.511  29.297  1.00  0.00    -0.014 A 
BRANCH  42  43
ATOM     43  C   UNL A   1      38.057  30.316  30.072  1.00  0.00     0.031 A 
ATOM     44  C   UNL A   1      39.099  29.615  29.463  1.00  0.00     0.074 A 
ATOM     45  C   UNL A   1      38.126  30.853  31.345  1.00  0.00     0.049 A 
ATOM     46  N   UNL A   1      40.314  29.371  29.956  1.00  0.00    -0.248 NA
ATOM     47  C   UNL A   1      39.016  29.015  28.123  1.00  0.00     0.031 C 
ATOM     48  C   UNL A   1      37.082  31.569  31.964  1.00  0.00     0.029 A 
ATOM     49  N   UNL A   1      39.181  30.799  32.229  1.00  0.00    -0.354 N 
ATOM     50  C   UNL A   1      41.042  28.687  29.072  1.00  0.00     0.074 A 
ATOM     51  C   UNL A   1      40.216  28.442  27.882  1.00  0.00     0.031 C 
ATOM     52  C   UNL A   1      37.498  31.930  33.207  1.00  0.00     0.029 A 
ATOM     53  C   UNL A   1      38.808  31.448  33.385  1.00  0.00     0.049 A 
ATOM     54  H   UNL A   1      40.052  30.369  32.064  1.00  0.00     0.167 HD
ATOM     55  C   UNL A   1      42.363  28.259  29.211  1.00  0.00     0.034 A 
ATOM     56  C   UNL A   1      39.553  31.618  34.542  1.00  0.00     0.034 A 
ATOM     57  C   UNL A   1      43.124  28.468  30.351  1.00  0.00     0.049 A 
ATOM     58  C   UNL A   1      40.856  31.140  34.702  1.00  0.00     0.074 A 
ATOM     59  C   UNL A   1      44.460  28.049  30.503  1.00  0.00     0.029 A 
ATOM     60  N   UNL A   1      42.742  29.095  31.515  1.00  0.00    -0.354 N 
ATOM     61  N   UNL A   1      41.597  30.489  33.803  1.00  0.00    -0.248 NA
ATOM     62  C   UNL A   1      41.643  31.286  35.933  1.00  0.00     0.031 C 
ATOM     63  C   UNL A   1      44.875  28.412  31.747  1.00  0.00     0.029 A 
ATOM     64  C   UNL A   1      43.805  29.061  32.391  1.00  0.00     0.049 A 
ATOM     65  H   UNL A   1      41.861  29.498  31.692  1.00  0.00     0.167 HD
ATOM     66  C   UNL A   1      42.798  30.210  34.313  1.00  0.00     0.074 A 
ATOM     67  C   UNL A   1      42.842  30.711  35.694  1.00  0.00     0.031 C 
ATOM     68  C   UNL A   1      43.860  29.560  33.683  1.00  0.00     0.034 A 
BRANCH  55  69
ATOM     69  C   UNL A   1      43.006  27.524  28.045  1.00  0.00     0.023 A 
ATOM     70  C   UNL A   1      43.394  28.233  26.921  1.00  0.00     0.012 A 
ATOM     71  C   UNL A   1      43.192  26.211  28.130  1.00  0.00     0.148 A 
ATOM     72  C   UNL A   1      43.712  27.418  25.810  1.00  0.00     0.002 A 
ATOM     73  C   UNL A   1      43.636  25.497  27.044  1.00  0.00     0.091 A 
ATOM     74  F   UNL A   1      42.949  25.583  29.276  1.00  0.00    -0.205 F 
ATOM     75  C   UNL A   1      43.981  26.127  25.880  1.00  0.00     0.022 A 
BRANCH  73  76
ATOM     76  S   UNL A   1      43.764  23.695  27.153  1.00  0.00     0.127 S 
ATOM     77  O   UNL A   1      45.086  23.316  27.822  1.00  0.00    -0.237 OA
ATOM     78  O   UNL A   1      42.598  23.149  27.982  1.00  0.00    -0.237 OA
ATOM     79  O   UNL A   1      43.708  23.023  25.580  1.00  0.00    -0.744 OA
ENDBRANCH  73  76
ENDBRANCH  55  69
BRANCH  56  80
ATOM     80  C   UNL A   1      38.917  32.369  35.700  1.00  0.00     0.023 A 
ATOM     81  C   UNL A   1      39.089  33.740  35.801  1.00  0.00     0.012 A 
ATOM     82  C   UNL A   1      38.216  31.694  36.604  1.00  0.00     0.148 A 
ATOM     83  C   UNL A   1      38.720  34.273  37.059  1.00  0.00     0.002 A 
ATOM     84  C   UNL A   1      37.769  32.312  37.747  1.00  0.00     0.091 A 
ATOM     85  F   UNL A   1      37.941  30.409  36.400  1.00  0.00    -0.205 F 
ATOM     86  C   UNL A   1      37.956  33.653  37.940  1.00  0.00     0.022 A 
BRANCH  84  87
ATOM     87  S   UNL A   1      36.922  31.338  39.015  1.00  0.00     0.127 S 
ATOM     88  O   UNL A   1      37.727  31.384  40.316  1.00  0.00    -0.237 OA
ATOM     89  O   UNL A   1      35.528  31.921  39.258  1.00  0.00    -0.237 OA
ATOM     90  O   UNL A   1      36.779  29.718  38.488  1.00  0.00    -0.744 OA
ENDBRANCH  84  87
ENDBRANCH  56  80
BRANCH  68  91
ATOM     91  C   UNL A   1      45.156  29.390  34.460  1.00  0.00     0.023 A 
ATOM     92  C   UNL A   1      46.112  30.391  34.425  1.00  0.00     0.012 A 
ATOM     93  C   UNL A   1      45.345  28.280  35.164  1.00  0.00     0.148 A 
ATOM     94  C   UNL A   1      47.370  30.001  34.939  1.00  0.00     0.002 A 
ATOM     95  C   UNL A   1      46.560  28.027  35.755  1.00  0.00     0.091 A 
ATOM     96  F   UNL A   1      44.351  27.408  35.300  1.00  0.00    -0.205 F 
ATOM     97  C   UNL A   1      47.570  28.947  35.709  1.00  0.00     0.022 A 
BRANCH  95  98
ATOM     98  S   UNL A   1      46.825  26.452  36.604  1.00  0.00     0.127 S 
ATOM     99  O   UNL A   1      46.278  26.542  38.032  1.00  0.00    -0.237 OA
ATOM    100  O   UNL A   1      46.097  25.335  35.851  1.00  0.00    -0.237 OA
ATOM    101  O   UNL A   1      48.499  26.106  36.657  1.00  0.00    -0.744 OA
ENDBRANCH  95  98
ENDBRANCH  68  91
ENDBRANCH  42  43
ENDBRANCH  35  37
ENDBRANCH  34  35
ENDBRANCH  33  34
ENDBRANCH  32  33
ENDBRANCH  31  32
ENDBRANCH   1  31
TORSDOF 23
ENDMDL
