MODEL 1
REMARK VINA RESULT:      -8.3      0.000      0.000
REMARK SMILES O=C(OCCOCCOCCOC(=O)[C@H]1O[C@@H](Oc2c(-c3cc(O)c(O)c(O)c3)oc3cc(O)cc(O)c3c2=O)[C@H](O)[C@@H](O)[C@@H]1O)c1ccc(-c2c3nc(c(-c4cccc(S(=O)(=O)[O-])c4F)c4ccc([nH]4)c(-c4cccc(S(=O)(=O)[O-])c4F)c4nc(c(-c5cccc(S(=O)(=O)[O-])c5F)c5ccc2[nH]5)C=C4)C=C3)cc1
REMARK SMILES IDX 8 1 7 2 6 3 5 4 4 5 3 6 2 7 1 8 47 9 48 10 109 11 49 12
REMARK SMILES IDX 108 13 50 14 51 15 52 16 102 17 53 18 107 19 101 20 103 21
REMARK SMILES IDX 54 22 106 23 100 24 99 25 55 27 87 28 67 29 86 30 68 31
REMARK SMILES IDX 71 32 85 33 104 34 69 35 70 36 84 38 105 39 72 40 56 41
REMARK SMILES IDX 57 42 65 43 58 44 60 45 66 46 59 47 61 48 62 49 63 50 64 51
REMARK SMILES IDX 88 52 89 53 97 54 90 55 92 56 98 57 91 58 93 59 94 60 95 61
REMARK SMILES IDX 96 62 73 63 74 64 82 65 75 66 77 67 83 68 76 69 78 70 79 71
REMARK SMILES IDX 80 72 81 73 9 74 10 75 11 76 12 77 13 78 14 79 15 80 16 81
REMARK SMILES IDX 45 82 17 83 43 84 41 85 46 86 18 88 19 89 20 90 39 91 30 92
REMARK SMILES IDX 38 93 40 94 31 95 36 96 32 97 35 98 33 99 21 100 22 101
REMARK SMILES IDX 29 102 23 103 27 104 25 105 24 106 28 108 26 110 37 112
REMARK SMILES IDX 34 114 44 116 42 118
REMARK H PARENT 103 26 71 37 46 87 24 107 28 109 26 111 37 113 34 115 44 117
REMARK H PARENT 42 119
REMARK Flexibility Score: inf
ROOT
ATOM      1  C   UNL A   1      38.761  33.083  34.232  1.00  0.00     0.188 C 
ENDROOT
BRANCH   1   2
ATOM      2  C   UNL A   1      38.460  34.397  33.516  1.00  0.00     0.188 C 
BRANCH   2   3
ATOM      3  O   UNL A   1      37.102  34.812  33.623  1.00  0.00    -0.376 OA
BRANCH   3   4
ATOM      4  C   UNL A   1      36.128  33.804  33.339  1.00  0.00     0.202 C 
BRANCH   4   5
ATOM      5  C   UNL A   1      35.246  34.034  32.091  1.00  0.00     0.261 C 
BRANCH   5   6
ATOM      6  O   UNL A   1      35.893  33.752  30.833  1.00  0.00    -0.460 OA
BRANCH   6   7
ATOM      7  C   UNL A   1      36.359  32.561  30.367  1.00  0.00     0.338 C 
ATOM      8  O   UNL A   1      35.602  31.840  29.720  1.00  0.00    -0.246 OA
BRANCH   7   9
ATOM      9  C   UNL A   1      37.746  32.080  30.634  1.00  0.00     0.060 A 
ATOM     10  C   UNL A   1      38.017  30.942  31.384  1.00  0.00     0.016 A 
ATOM     11  C   UNL A   1      38.832  32.740  30.046  1.00  0.00     0.016 A 
ATOM     12  C   UNL A   1      39.283  30.501  31.657  1.00  0.00     0.010 A 
ATOM     13  C   UNL A   1      40.128  32.238  30.220  1.00  0.00     0.010 A 
ATOM     14  C   UNL A   1      40.339  31.106  31.029  1.00  0.00    -0.014 A 
BRANCH  14  15
ATOM     15  C   UNL A   1      41.639  30.489  31.221  1.00  0.00     0.031 A 
ATOM     16  C   UNL A   1      42.050  29.320  30.389  1.00  0.00     0.074 A 
ATOM     17  C   UNL A   1      42.477  31.080  32.096  1.00  0.00     0.049 A 
ATOM     18  N   UNL A   1      43.166  28.641  30.386  1.00  0.00    -0.248 NA
ATOM     19  C   UNL A   1      41.117  28.950  29.307  1.00  0.00     0.031 C 
ATOM     20  C   UNL A   1      42.385  32.853  32.920  1.00  0.00     0.029 A 
ATOM     21  N   UNL A   1      43.644  30.133  33.057  1.00  0.00    -0.354 N 
ATOM     22  C   UNL A   1      43.074  27.778  29.303  1.00  0.00     0.074 A 
ATOM     23  C   UNL A   1      41.798  28.012  28.667  1.00  0.00     0.031 C 
ATOM     24  C   UNL A   1      43.283  32.803  34.424  1.00  0.00     0.029 A 
ATOM     25  C   UNL A   1      44.171  30.981  34.579  1.00  0.00     0.049 A 
ATOM     26  H   UNL A   1      43.969  29.243  32.791  1.00  0.00     0.167 HD
ATOM     27  C   UNL A   1      43.981  26.885  28.852  1.00  0.00     0.034 A 
ATOM     28  C   UNL A   1      45.234  30.322  35.235  1.00  0.00     0.034 A 
ATOM     29  C   UNL A   1      45.241  26.621  29.476  1.00  0.00     0.049 A 
ATOM     30  C   UNL A   1      46.039  29.133  34.531  1.00  0.00     0.074 A 
ATOM     31  C   UNL A   1      46.206  25.713  29.082  1.00  0.00     0.029 A 
ATOM     32  N   UNL A   1      45.671  27.196  30.659  1.00  0.00    -0.354 N 
ATOM     33  N   UNL A   1      46.004  28.606  33.322  1.00  0.00    -0.248 NA
ATOM     34  C   UNL A   1      47.187  28.610  35.324  1.00  0.00     0.031 C 
ATOM     35  C   UNL A   1      47.188  25.679  30.071  1.00  0.00     0.029 A 
ATOM     36  C   UNL A   1      46.860  26.610  31.045  1.00  0.00     0.049 A 
ATOM     37  H   UNL A   1      45.201  27.909  31.149  1.00  0.00     0.167 HD
ATOM     38  C   UNL A   1      47.145  27.781  33.214  1.00  0.00     0.074 A 
ATOM     39  C   UNL A   1      47.900  27.960  34.424  1.00  0.00     0.031 C 
ATOM     40  C   UNL A   1      47.566  26.908  32.257  1.00  0.00     0.034 A 
BRANCH  27  41
ATOM     41  C   UNL A   1      43.599  26.060  27.662  1.00  0.00     0.023 A 
ATOM     42  C   UNL A   1      43.964  26.459  26.363  1.00  0.00     0.012 A 
ATOM     43  C   UNL A   1      42.896  24.859  27.861  1.00  0.00     0.148 A 
ATOM     44  C   UNL A   1      43.604  25.676  25.267  1.00  0.00     0.002 A 
ATOM     45  C   UNL A   1      42.575  24.069  26.770  1.00  0.00     0.091 A 
ATOM     46  F   UNL A   1      42.549  24.525  29.111  1.00  0.00    -0.205 F 
ATOM     47  C   UNL A   1      42.917  24.480  25.471  1.00  0.00     0.022 A 
BRANCH  45  48
ATOM     48  S   UNL A   1      41.748  22.488  26.944  1.00  0.00     0.127 S 
ATOM     49  O   UNL A   1      41.597  22.083  25.547  1.00  0.00    -0.237 OA
ATOM     50  O   UNL A   1      42.730  21.715  27.704  1.00  0.00    -0.237 OA
ATOM     51  O   UNL A   1      40.503  22.759  27.648  1.00  0.00    -0.744 OA
ENDBRANCH  45  48
ENDBRANCH  27  41
BRANCH  28  52
ATOM     52  C   UNL A   1      45.989  30.731  36.480  1.00  0.00     0.023 A 
ATOM     53  C   UNL A   1      47.006  31.724  36.415  1.00  0.00     0.012 A 
ATOM     54  C   UNL A   1      45.745  30.110  37.710  1.00  0.00     0.148 A 
ATOM     55  C   UNL A   1      47.671  32.159  37.563  1.00  0.00     0.002 A 
ATOM     56  C   UNL A   1      46.376  30.587  38.860  1.00  0.00     0.091 A 
ATOM     57  F   UNL A   1      44.857  29.108  37.748  1.00  0.00    -0.205 F 
ATOM     58  C   UNL A   1      47.335  31.610  38.794  1.00  0.00     0.022 A 
BRANCH  56  59
ATOM     59  S   UNL A   1      45.706  30.167  40.475  1.00  0.00     0.127 S 
ATOM     60  O   UNL A   1      44.655  31.159  40.650  1.00  0.00    -0.237 OA
ATOM     61  O   UNL A   1      45.256  28.789  40.280  1.00  0.00    -0.237 OA
ATOM     62  O   UNL A   1      46.881  30.269  41.337  1.00  0.00    -0.744 OA
ENDBRANCH  56  59
ENDBRANCH  28  52
BRANCH  40  63
ATOM     63  C   UNL A   1      48.832  26.095  32.523  1.00  0.00     0.023 A 
ATOM     64  C   UNL A   1      48.727  24.853  33.188  1.00  0.00     0.012 A 
ATOM     65  C   UNL A   1      50.095  26.496  32.033  1.00  0.00     0.148 A 
ATOM     66  C   UNL A   1      49.852  24.056  33.408  1.00  0.00     0.002 A 
ATOM     67  C   UNL A   1      51.202  25.665  32.200  1.00  0.00     0.091 A 
ATOM     68  F   UNL A   1      50.188  27.670  31.391  1.00  0.00    -0.205 F 
ATOM     69  C   UNL A   1      51.085  24.456  32.905  1.00  0.00     0.022 A 
BRANCH  67  70
ATOM     70  S   UNL A   1      52.815  26.023  31.488  1.00  0.00     0.127 S 
ATOM     71  O   UNL A   1      53.180  27.258  32.181  1.00  0.00    -0.237 OA
ATOM     72  O   UNL A   1      53.592  24.849  31.884  1.00  0.00    -0.237 OA
ATOM     73  O   UNL A   1      52.603  26.159  30.054  1.00  0.00    -0.744 OA
ENDBRANCH  67  70
ENDBRANCH  40  63
ENDBRANCH  14  15
ENDBRANCH   7   9
ENDBRANCH   6   7
ENDBRANCH   5   6
ENDBRANCH   4   5
ENDBRANCH   3   4
ENDBRANCH   2   3
ENDBRANCH   1   2
BRANCH   1  74
ATOM     74  O   UNL A   1      39.646  33.124  35.344  1.00  0.00    -0.376 OA
BRANCH  74  75
ATOM     75  C   UNL A   1      39.906  31.898  36.017  1.00  0.00     0.202 C 
BRANCH  75  76
ATOM     76  C   UNL A   1      40.356  30.644  35.221  1.00  0.00     0.261 C 
BRANCH  76  77
ATOM     77  O   UNL A   1      40.340  29.340  35.878  1.00  0.00    -0.461 OA
BRANCH  77  78
ATOM     78  C   UNL A   1      41.579  28.864  36.188  1.00  0.00     0.338 C 
ATOM     79  O   UNL A   1      42.325  29.506  36.929  1.00  0.00    -0.249 OA
BRANCH  78  80
ATOM     80  C   UNL A   1      41.936  27.372  35.719  1.00  0.00     0.263 C 
ATOM     81  O   UNL A   1      43.093  26.941  34.960  1.00  0.00    -0.322 OA
ATOM     82  C   UNL A   1      41.587  26.450  36.905  1.00  0.00     0.186 C 
ATOM     83  C   UNL A   1      43.839  25.613  35.157  1.00  0.00     0.340 C 
ATOM     84  C   UNL A   1      41.589  25.035  36.355  1.00  0.00     0.181 C 
ATOM     85  C   UNL A   1      42.983  24.540  35.927  1.00  0.00     0.214 C 
BRANCH  82  86
ATOM     86  O   UNL A   1      40.329  26.686  37.553  1.00  0.00    -0.387 OA
ATOM     87  H   UNL A   1      40.032  25.873  37.989  1.00  0.00     0.211 HD
ENDBRANCH  82  86
BRANCH  83  88
ATOM     88  O   UNL A   1      45.609  25.611  35.637  1.00  0.00    -0.454 OA
BRANCH  88  89
ATOM     89  C   UNL A   1      46.635  24.760  37.196  1.00  0.00     0.214 A 
ATOM     90  C   UNL A   1      47.079  23.306  37.381  1.00  0.00     0.181 A 
ATOM     91  C   UNL A   1      46.706  25.305  38.686  1.00  0.00     0.239 A 
ATOM     92  O   UNL A   1      47.991  22.971  38.443  1.00  0.00    -0.452 OA
ATOM     93  C   UNL A   1      47.998  25.246  39.280  1.00  0.00     0.111 A 
ATOM     94  O   UNL A   1      45.756  25.542  39.435  1.00  0.00    -0.285 OA
ATOM     95  C   UNL A   1      48.583  23.995  39.177  1.00  0.00     0.146 A 
ATOM     96  C   UNL A   1      48.466  26.277  40.100  1.00  0.00     0.134 A 
ATOM     97  C   UNL A   1      49.705  23.771  39.968  1.00  0.00     0.094 A 
ATOM     98  C   UNL A   1      49.591  26.058  40.868  1.00  0.00     0.093 A 
ATOM     99  C   UNL A   1      50.187  24.797  40.808  1.00  0.00     0.123 A 
BRANCH  90 100
ATOM    100  C   UNL A   1      46.660  21.868  36.523  1.00  0.00     0.029 A 
ATOM    101  C   UNL A   1      47.239  21.510  35.300  1.00  0.00     0.062 A 
ATOM    102  C   UNL A   1      45.872  20.755  37.064  1.00  0.00     0.062 A 
ATOM    103  C   UNL A   1      47.016  20.204  34.747  1.00  0.00     0.162 A 
ATOM    104  C   UNL A   1      45.676  19.484  36.558  1.00  0.00     0.162 A 
ATOM    105  C   UNL A   1      46.228  19.219  35.355  1.00  0.00     0.200 A 
BRANCH 103 106
ATOM    106  O   UNL A   1      47.642  19.830  33.585  1.00  0.00    -0.504 OA
ATOM    107  H   UNL A   1      47.346  20.170  32.764  1.00  0.00     0.293 HD
ENDBRANCH 103 106
BRANCH 104 108
ATOM    108  O   UNL A   1      45.070  18.482  37.254  1.00  0.00    -0.504 OA
ATOM    109  H   UNL A   1      44.256  18.639  37.690  1.00  0.00     0.293 HD
ENDBRANCH 104 108
BRANCH 105 110
ATOM    110  O   UNL A   1      46.014  17.994  34.789  1.00  0.00    -0.502 OA
ATOM    111  H   UNL A   1      45.888  17.921  33.864  1.00  0.00     0.293 HD
ENDBRANCH 105 110
ENDBRANCH  90 100
BRANCH  96 112
ATOM    112  O   UNL A   1      47.789  27.459  40.213  1.00  0.00    -0.507 OA
ATOM    113  H   UNL A   1      47.600  27.812  41.060  1.00  0.00     0.293 HD
ENDBRANCH  96 112
BRANCH  99 114
ATOM    114  O   UNL A   1      51.242  24.515  41.629  1.00  0.00    -0.508 OA
ATOM    115  H   UNL A   1      52.100  24.405  41.269  1.00  0.00     0.293 HD
ENDBRANCH  99 114
ENDBRANCH  88  89
ENDBRANCH  83  88
BRANCH  84 116
ATOM    116  O   UNL A   1      41.009  24.116  37.290  1.00  0.00    -0.387 OA
ATOM    117  H   UNL A   1      41.271  24.361  38.191  1.00  0.00     0.211 HD
ENDBRANCH  84 116
BRANCH  85 118
ATOM    118  O   UNL A   1      42.747  23.373  35.118  1.00  0.00    -0.384 OA
ATOM    119  H   UNL A   1      43.257  23.441  34.295  1.00  0.00     0.211 HD
ENDBRANCH  85 118
ENDBRANCH  78  80
ENDBRANCH  77  78
ENDBRANCH  76  77
ENDBRANCH  75  76
ENDBRANCH  74  75
ENDBRANCH   1  74
TORSDOF 31
ENDMDL
MODEL 2
REMARK VINA RESULT:      -8.3      1.157      3.292
REMARK SMILES O=C(OCCOCCOCCOC(=O)[C@H]1O[C@@H](Oc2c(-c3cc(O)c(O)c(O)c3)oc3cc(O)cc(O)c3c2=O)[C@H](O)[C@@H](O)[C@@H]1O)c1ccc(-c2c3nc(c(-c4cccc(S(=O)(=O)[O-])c4F)c4ccc([nH]4)c(-c4cccc(S(=O)(=O)[O-])c4F)c4nc(c(-c5cccc(S(=O)(=O)[O-])c5F)c5ccc2[nH]5)C=C4)C=C3)cc1
REMARK SMILES IDX 8 1 7 2 6 3 5 4 4 5 3 6 2 7 1 8 47 9 48 10 109 11 49 12
REMARK SMILES IDX 108 13 50 14 51 15 52 16 102 17 53 18 107 19 101 20 103 21
REMARK SMILES IDX 54 22 106 23 100 24 99 25 55 27 87 28 67 29 86 30 68 31
REMARK SMILES IDX 71 32 85 33 104 34 69 35 70 36 84 38 105 39 72 40 56 41
REMARK SMILES IDX 57 42 65 43 58 44 60 45 66 46 59 47 61 48 62 49 63 50 64 51
REMARK SMILES IDX 88 52 89 53 97 54 90 55 92 56 98 57 91 58 93 59 94 60 95 61
REMARK SMILES IDX 96 62 73 63 74 64 82 65 75 66 77 67 83 68 76 69 78 70 79 71
REMARK SMILES IDX 80 72 81 73 9 74 10 75 11 76 12 77 13 78 14 79 15 80 16 81
REMARK SMILES IDX 45 82 17 83 43 84 41 85 46 86 18 88 19 89 20 90 39 91 30 92
REMARK SMILES IDX 38 93 40 94 31 95 36 96 32 97 35 98 33 99 21 100 22 101
REMARK SMILES IDX 29 102 23 103 27 104 25 105 24 106 28 108 26 110 37 112
REMARK SMILES IDX 34 114 44 116 42 118
REMARK H PARENT 103 26 71 37 46 87 24 107 28 109 26 111 37 113 34 115 44 117
REMARK H PARENT 42 119
REMARK Flexibility Score: inf
ROOT
ATOM      1  C   UNL A   1      38.803  32.978  34.412  1.00  0.00     0.188 C 
ENDROOT
BRANCH   1   2
ATOM      2  C   UNL A   1      38.400  34.246  33.662  1.00  0.00     0.188 C 
BRANCH   2   3
ATOM      3  O   UNL A   1      37.052  34.644  33.889  1.00  0.00    -0.376 OA
BRANCH   3   4
ATOM      4  C   UNL A   1      36.058  33.690  33.505  1.00  0.00     0.202 C 
BRANCH   4   5
ATOM      5  C   UNL A   1      35.251  34.017  32.227  1.00  0.00     0.261 C 
BRANCH   5   6
ATOM      6  O   UNL A   1      35.915  33.682  30.991  1.00  0.00    -0.460 OA
BRANCH   6   7
ATOM      7  C   UNL A   1      36.366  32.468  30.572  1.00  0.00     0.338 C 
ATOM      8  O   UNL A   1      35.584  31.711  29.999  1.00  0.00    -0.246 OA
BRANCH   7   9
ATOM      9  C   UNL A   1      37.765  32.005  30.804  1.00  0.00     0.060 A 
ATOM     10  C   UNL A   1      38.072  30.890  31.573  1.00  0.00     0.016 A 
ATOM     11  C   UNL A   1      38.825  32.658  30.162  1.00  0.00     0.016 A 
ATOM     12  C   UNL A   1      39.350  30.466  31.814  1.00  0.00     0.010 A 
ATOM     13  C   UNL A   1      40.131  32.171  30.304  1.00  0.00     0.010 A 
ATOM     14  C   UNL A   1      40.379  31.063  31.134  1.00  0.00    -0.014 A 
BRANCH  14  15
ATOM     15  C   UNL A   1      41.690  30.462  31.298  1.00  0.00     0.031 A 
ATOM     16  C   UNL A   1      42.106  29.313  30.441  1.00  0.00     0.074 A 
ATOM     17  C   UNL A   1      42.532  31.050  32.171  1.00  0.00     0.049 A 
ATOM     18  N   UNL A   1      43.231  28.650  30.411  1.00  0.00    -0.248 NA
ATOM     19  C   UNL A   1      41.163  28.947  29.365  1.00  0.00     0.031 C 
ATOM     20  C   UNL A   1      42.427  32.806  33.027  1.00  0.00     0.029 A 
ATOM     21  N   UNL A   1      43.725  30.103  33.100  1.00  0.00    -0.354 N 
ATOM     22  C   UNL A   1      43.136  27.803  29.315  1.00  0.00     0.074 A 
ATOM     23  C   UNL A   1      41.848  28.030  28.700  1.00  0.00     0.031 C 
ATOM     24  C   UNL A   1      43.346  32.745  34.518  1.00  0.00     0.029 A 
ATOM     25  C   UNL A   1      44.262  30.933  34.629  1.00  0.00     0.049 A 
ATOM     26  H   UNL A   1      44.059  29.223  32.815  1.00  0.00     0.167 HD
ATOM     27  C   UNL A   1      44.049  26.932  28.836  1.00  0.00     0.034 A 
ATOM     28  C   UNL A   1      45.343  30.278  35.259  1.00  0.00     0.034 A 
ATOM     29  C   UNL A   1      45.321  26.675  29.438  1.00  0.00     0.049 A 
ATOM     30  C   UNL A   1      46.155  29.113  34.523  1.00  0.00     0.074 A 
ATOM     31  C   UNL A   1      46.293  25.789  29.015  1.00  0.00     0.029 A 
ATOM     32  N   UNL A   1      45.759  27.236  30.625  1.00  0.00    -0.354 N 
ATOM     33  N   UNL A   1      46.110  28.606  33.306  1.00  0.00    -0.248 NA
ATOM     34  C   UNL A   1      47.321  28.593  35.292  1.00  0.00     0.031 C 
ATOM     35  C   UNL A   1      47.290  25.752  29.990  1.00  0.00     0.029 A 
ATOM     36  C   UNL A   1      46.962  26.661  30.984  1.00  0.00     0.049 A 
ATOM     37  H   UNL A   1      45.287  27.934  31.133  1.00  0.00     0.167 HD
ATOM     38  C   UNL A   1      47.261  27.800  33.168  1.00  0.00     0.074 A 
ATOM     39  C   UNL A   1      48.030  27.969  34.371  1.00  0.00     0.031 C 
ATOM     40  C   UNL A   1      47.681  26.949  32.192  1.00  0.00     0.034 A 
BRANCH  27  41
ATOM     41  C   UNL A   1      43.663  26.122  27.638  1.00  0.00     0.023 A 
ATOM     42  C   UNL A   1      44.013  26.542  26.342  1.00  0.00     0.012 A 
ATOM     43  C   UNL A   1      42.969  24.913  27.825  1.00  0.00     0.148 A 
ATOM     44  C   UNL A   1      43.649  25.772  25.237  1.00  0.00     0.002 A 
ATOM     45  C   UNL A   1      42.644  24.136  26.725  1.00  0.00     0.091 A 
ATOM     46  F   UNL A   1      42.635  24.558  29.074  1.00  0.00    -0.205 F 
ATOM     47  C   UNL A   1      42.972  24.568  25.430  1.00  0.00     0.022 A 
BRANCH  45  48
ATOM     48  S   UNL A   1      41.829  22.547  26.884  1.00  0.00     0.127 S 
ATOM     49  O   UNL A   1      41.881  22.055  25.508  1.00  0.00    -0.237 OA
ATOM     50  O   UNL A   1      42.709  21.849  27.819  1.00  0.00    -0.237 OA
ATOM     51  O   UNL A   1      40.493  22.828  27.391  1.00  0.00    -0.744 OA
ENDBRANCH  45  48
ENDBRANCH  27  41
BRANCH  28  52
ATOM     52  C   UNL A   1      46.109  30.677  36.500  1.00  0.00     0.023 A 
ATOM     53  C   UNL A   1      46.991  31.793  36.477  1.00  0.00     0.012 A 
ATOM     54  C   UNL A   1      46.012  29.932  37.680  1.00  0.00     0.148 A 
ATOM     55  C   UNL A   1      47.660  32.215  37.628  1.00  0.00     0.002 A 
ATOM     56  C   UNL A   1      46.642  30.390  38.839  1.00  0.00     0.091 A 
ATOM     57  F   UNL A   1      45.257  28.825  37.670  1.00  0.00    -0.205 F 
ATOM     58  C   UNL A   1      47.463  31.528  38.820  1.00  0.00     0.022 A 
BRANCH  56  59
ATOM     59  S   UNL A   1      46.118  29.758  40.439  1.00  0.00     0.127 S 
ATOM     60  O   UNL A   1      44.671  29.893  40.375  1.00  0.00    -0.237 OA
ATOM     61  O   UNL A   1      46.632  28.389  40.420  1.00  0.00    -0.237 OA
ATOM     62  O   UNL A   1      46.838  30.625  41.368  1.00  0.00    -0.744 OA
ENDBRANCH  56  59
ENDBRANCH  28  52
BRANCH  40  63
ATOM     63  C   UNL A   1      48.962  26.149  32.426  1.00  0.00     0.023 A 
ATOM     64  C   UNL A   1      48.878  24.870  33.018  1.00  0.00     0.012 A 
ATOM     65  C   UNL A   1      50.220  26.605  31.974  1.00  0.00     0.148 A 
ATOM     66  C   UNL A   1      50.017  24.087  33.207  1.00  0.00     0.002 A 
ATOM     67  C   UNL A   1      51.344  25.790  32.107  1.00  0.00     0.091 A 
ATOM     68  F   UNL A   1      50.295  27.815  31.401  1.00  0.00    -0.205 F 
ATOM     69  C   UNL A   1      51.246  24.541  32.742  1.00  0.00     0.022 A 
BRANCH  67  70
ATOM     70  S   UNL A   1      52.956  26.224  31.436  1.00  0.00     0.127 S 
ATOM     71  O   UNL A   1      53.724  25.006  31.691  1.00  0.00    -0.237 OA
ATOM     72  O   UNL A   1      52.647  26.465  30.027  1.00  0.00    -0.237 OA
ATOM     73  O   UNL A   1      53.398  27.399  32.174  1.00  0.00    -0.744 OA
ENDBRANCH  67  70
ENDBRANCH  40  63
ENDBRANCH  14  15
ENDBRANCH   7   9
ENDBRANCH   6   7
ENDBRANCH   5   6
ENDBRANCH   4   5
ENDBRANCH   3   4
ENDBRANCH   2   3
ENDBRANCH   1   2
BRANCH   1  74
ATOM     74  O   UNL A   1      39.589  33.127  35.587  1.00  0.00    -0.376 OA
BRANCH  74  75
ATOM     75  C   UNL A   1      40.026  31.939  36.235  1.00  0.00     0.202 C 
BRANCH  75  76
ATOM     76  C   UNL A   1      40.384  30.677  35.406  1.00  0.00     0.261 C 
BRANCH  76  77
ATOM     77  O   UNL A   1      40.368  29.370  36.058  1.00  0.00    -0.461 OA
BRANCH  77  78
ATOM     78  C   UNL A   1      41.604  28.819  36.216  1.00  0.00     0.338 C 
ATOM     79  O   UNL A   1      42.456  29.387  36.902  1.00  0.00    -0.249 OA
BRANCH  78  80
ATOM     80  C   UNL A   1      41.831  27.335  35.650  1.00  0.00     0.263 C 
ATOM     81  O   UNL A   1      42.859  26.890  34.731  1.00  0.00    -0.322 OA
ATOM     82  C   UNL A   1      41.595  26.378  36.836  1.00  0.00     0.186 C 
ATOM     83  C   UNL A   1      43.564  25.525  34.781  1.00  0.00     0.340 C 
ATOM     84  C   UNL A   1      41.462  24.989  36.239  1.00  0.00     0.181 C 
ATOM     85  C   UNL A   1      42.765  24.456  35.616  1.00  0.00     0.214 C 
BRANCH  82  86
ATOM     86  O   UNL A   1      40.442  26.637  37.650  1.00  0.00    -0.387 OA
ATOM     87  H   UNL A   1      39.790  25.931  37.521  1.00  0.00     0.211 HD
ENDBRANCH  82  86
BRANCH  83  88
ATOM     88  O   UNL A   1      45.379  25.431  35.026  1.00  0.00    -0.454 OA
BRANCH  88  89
ATOM     89  C   UNL A   1      46.598  24.055  35.936  1.00  0.00     0.214 A 
ATOM     90  C   UNL A   1      47.832  24.289  36.812  1.00  0.00     0.181 A 
ATOM     91  C   UNL A   1      46.801  22.542  35.499  1.00  0.00     0.239 A 
ATOM     92  O   UNL A   1      48.405  23.188  37.541  1.00  0.00    -0.452 OA
ATOM     93  C   UNL A   1      46.836  21.612  36.575  1.00  0.00     0.111 A 
ATOM     94  O   UNL A   1      47.155  22.131  34.392  1.00  0.00    -0.285 OA
ATOM     95  C   UNL A   1      47.731  21.969  37.569  1.00  0.00     0.146 A 
ATOM     96  C   UNL A   1      46.224  20.359  36.470  1.00  0.00     0.134 A 
ATOM     97  C   UNL A   1      48.037  20.989  38.507  1.00  0.00     0.094 A 
ATOM     98  C   UNL A   1      46.513  19.396  37.414  1.00  0.00     0.093 A 
ATOM     99  C   UNL A   1      47.435  19.717  38.412  1.00  0.00     0.123 A 
BRANCH  90 100
ATOM    100  C   UNL A   1      48.765  25.709  37.112  1.00  0.00     0.029 A 
ATOM    101  C   UNL A   1      48.616  26.495  38.261  1.00  0.00     0.062 A 
ATOM    102  C   UNL A   1      49.960  26.115  36.364  1.00  0.00     0.062 A 
ATOM    103  C   UNL A   1      49.564  27.530  38.560  1.00  0.00     0.162 A 
ATOM    104  C   UNL A   1      50.898  27.087  36.658  1.00  0.00     0.162 A 
ATOM    105  C   UNL A   1      50.671  27.834  37.758  1.00  0.00     0.200 A 
BRANCH 103 106
ATOM    106  O   UNL A   1      49.458  28.250  39.723  1.00  0.00    -0.504 OA
ATOM    107  H   UNL A   1      48.630  28.605  39.979  1.00  0.00     0.293 HD
ENDBRANCH 103 106
BRANCH 104 108
ATOM    108  O   UNL A   1      52.066  27.237  35.972  1.00  0.00    -0.504 OA
ATOM    109  H   UNL A   1      52.371  26.554  35.409  1.00  0.00     0.293 HD
ENDBRANCH 104 108
BRANCH 105 110
ATOM    110  O   UNL A   1      51.542  28.845  38.057  1.00  0.00    -0.502 OA
ATOM    111  H   UNL A   1      51.445  29.326  38.855  1.00  0.00     0.293 HD
ENDBRANCH 105 110
ENDBRANCH  90 100
BRANCH  96 112
ATOM    112  O   UNL A   1      45.412  20.051  35.414  1.00  0.00    -0.507 OA
ATOM    113  H   UNL A   1      45.759  20.041  34.544  1.00  0.00     0.293 HD
ENDBRANCH  96 112
BRANCH  99 114
ATOM    114  O   UNL A   1      47.819  18.754  39.303  1.00  0.00    -0.508 OA
ATOM    115  H   UNL A   1      48.391  18.064  39.031  1.00  0.00     0.293 HD
ENDBRANCH  99 114
ENDBRANCH  88  89
ENDBRANCH  83  88
BRANCH  84 116
ATOM    116  O   UNL A   1      40.965  24.055  37.207  1.00  0.00    -0.387 OA
ATOM    117  H   UNL A   1      41.698  23.519  37.547  1.00  0.00     0.211 HD
ENDBRANCH  84 116
BRANCH  85 118
ATOM    118  O   UNL A   1      42.374  23.335  34.801  1.00  0.00    -0.384 OA
ATOM    119  H   UNL A   1      42.142  22.585  35.372  1.00  0.00     0.211 HD
ENDBRANCH  85 118
ENDBRANCH  78  80
ENDBRANCH  77  78
ENDBRANCH  76  77
ENDBRANCH  75  76
ENDBRANCH  74  75
ENDBRANCH   1  74
TORSDOF 31
ENDMDL
MODEL 3
REMARK VINA RESULT:      -8.2      5.034     11.612
REMARK SMILES O=C(OCCOCCOCCOC(=O)[C@H]1O[C@@H](Oc2c(-c3cc(O)c(O)c(O)c3)oc3cc(O)cc(O)c3c2=O)[C@H](O)[C@@H](O)[C@@H]1O)c1ccc(-c2c3nc(c(-c4cccc(S(=O)(=O)[O-])c4F)c4ccc([nH]4)c(-c4cccc(S(=O)(=O)[O-])c4F)c4nc(c(-c5cccc(S(=O)(=O)[O-])c5F)c5ccc2[nH]5)C=C4)C=C3)cc1
REMARK SMILES IDX 8 1 7 2 6 3 5 4 4 5 3 6 2 7 1 8 47 9 48 10 109 11 49 12
REMARK SMILES IDX 108 13 50 14 51 15 52 16 102 17 53 18 107 19 101 20 103 21
REMARK SMILES IDX 54 22 106 23 100 24 99 25 55 27 87 28 67 29 86 30 68 31
REMARK SMILES IDX 71 32 85 33 104 34 69 35 70 36 84 38 105 39 72 40 56 41
REMARK SMILES IDX 57 42 65 43 58 44 60 45 66 46 59 47 61 48 62 49 63 50 64 51
REMARK SMILES IDX 88 52 89 53 97 54 90 55 92 56 98 57 91 58 93 59 94 60 95 61
REMARK SMILES IDX 96 62 73 63 74 64 82 65 75 66 77 67 83 68 76 69 78 70 79 71
REMARK SMILES IDX 80 72 81 73 9 74 10 75 11 76 12 77 13 78 14 79 15 80 16 81
REMARK SMILES IDX 45 82 17 83 43 84 41 85 46 86 18 88 19 89 20 90 39 91 30 92
REMARK SMILES IDX 38 93 40 94 31 95 36 96 32 97 35 98 33 99 21 100 22 101
REMARK SMILES IDX 29 102 23 103 27 104 25 105 24 106 28 108 26 110 37 112
REMARK SMILES IDX 34 114 44 116 42 118
REMARK H PARENT 103 26 71 37 46 87 24 107 28 109 26 111 37 113 34 115 44 117
REMARK H PARENT 42 119
REMARK Flexibility Score: inf
ROOT
ATOM      1  C   UNL A   1      49.954  25.216  33.292  1.00  0.00     0.188 C 
ENDROOT
BRANCH   1   2
ATOM      2  C   UNL A   1      49.164  24.577  34.432  1.00  0.00     0.188 C 
BRANCH   2   3
ATOM      3  O   UNL A   1      48.782  23.227  34.180  1.00  0.00    -0.376 OA
BRANCH   3   4
ATOM      4  C   UNL A   1      47.795  22.694  35.067  1.00  0.00     0.202 C 
BRANCH   4   5
ATOM      5  C   UNL A   1      46.401  22.423  34.457  1.00  0.00     0.261 C 
BRANCH   5   6
ATOM      6  O   UNL A   1      45.367  23.335  34.884  1.00  0.00    -0.460 OA
BRANCH   6   7
ATOM      7  C   UNL A   1      44.237  23.707  34.221  1.00  0.00     0.338 C 
ATOM      8  O   UNL A   1      43.332  22.886  34.086  1.00  0.00    -0.246 OA
BRANCH   7   9
ATOM      9  C   UNL A   1      44.063  25.064  33.628  1.00  0.00     0.060 A 
ATOM     10  C   UNL A   1      43.828  26.198  34.396  1.00  0.00     0.016 A 
ATOM     11  C   UNL A   1      44.219  25.240  32.247  1.00  0.00     0.016 A 
ATOM     12  C   UNL A   1      43.643  27.445  33.865  1.00  0.00     0.010 A 
ATOM     13  C   UNL A   1      44.146  26.527  31.697  1.00  0.00     0.010 A 
ATOM     14  C   UNL A   1      43.861  27.628  32.526  1.00  0.00    -0.014 A 
BRANCH  14  15
ATOM     15  C   UNL A   1      43.819  28.999  32.050  1.00  0.00     0.031 A 
ATOM     16  C   UNL A   1      42.518  29.625  31.669  1.00  0.00     0.074 A 
ATOM     17  C   UNL A   1      44.973  29.694  32.070  1.00  0.00     0.049 A 
ATOM     18  N   UNL A   1      42.259  30.833  31.243  1.00  0.00    -0.248 NA
ATOM     19  C   UNL A   1      41.317  28.811  31.939  1.00  0.00     0.031 C 
ATOM     20  C   UNL A   1      46.666  29.288  32.964  1.00  0.00     0.029 A 
ATOM     21  N   UNL A   1      45.329  30.950  30.855  1.00  0.00    -0.354 N 
ATOM     22  C   UNL A   1      40.875  30.926  31.206  1.00  0.00     0.074 A 
ATOM     23  C   UNL A   1      40.341  29.659  31.651  1.00  0.00     0.031 C 
ATOM     24  C   UNL A   1      47.950  30.114  32.105  1.00  0.00     0.029 A 
ATOM     25  C   UNL A   1      47.110  31.270  30.658  1.00  0.00     0.049 A 
ATOM     26  H   UNL A   1      44.633  31.423  30.344  1.00  0.00     0.167 HD
ATOM     27  C   UNL A   1      40.106  31.981  30.863  1.00  0.00     0.034 A 
ATOM     28  C   UNL A   1      47.381  32.392  29.844  1.00  0.00     0.034 A 
ATOM     29  C   UNL A   1      40.610  33.237  30.400  1.00  0.00     0.049 A 
ATOM     30  C   UNL A   1      46.221  33.405  29.409  1.00  0.00     0.074 A 
ATOM     31  C   UNL A   1      39.885  34.350  30.016  1.00  0.00     0.029 A 
ATOM     32  N   UNL A   1      41.948  33.518  30.182  1.00  0.00    -0.354 N 
ATOM     33  N   UNL A   1      44.943  33.507  29.720  1.00  0.00    -0.248 NA
ATOM     34  C   UNL A   1      46.692  34.584  28.629  1.00  0.00     0.031 C 
ATOM     35  C   UNL A   1      40.780  35.280  29.488  1.00  0.00     0.029 A 
ATOM     36  C   UNL A   1      42.062  34.767  29.603  1.00  0.00     0.049 A 
ATOM     37  H   UNL A   1      42.698  32.922  30.404  1.00  0.00     0.167 HD
ATOM     38  C   UNL A   1      44.518  34.766  29.246  1.00  0.00     0.074 A 
ATOM     39  C   UNL A   1      45.684  35.429  28.729  1.00  0.00     0.031 C 
ATOM     40  C   UNL A   1      43.295  35.362  29.175  1.00  0.00     0.034 A 
BRANCH  27  41
ATOM     41  C   UNL A   1      38.622  31.787  30.892  1.00  0.00     0.023 A 
ATOM     42  C   UNL A   1      37.902  31.923  32.093  1.00  0.00     0.012 A 
ATOM     43  C   UNL A   1      37.946  31.498  29.693  1.00  0.00     0.148 A 
ATOM     44  C   UNL A   1      36.519  31.745  32.101  1.00  0.00     0.002 A 
ATOM     45  C   UNL A   1      36.569  31.358  29.704  1.00  0.00     0.091 A 
ATOM     46  F   UNL A   1      38.670  31.356  28.574  1.00  0.00    -0.205 F 
ATOM     47  C   UNL A   1      35.853  31.469  30.907  1.00  0.00     0.022 A 
BRANCH  45  48
ATOM     48  S   UNL A   1      35.626  31.064  28.207  1.00  0.00     0.127 S 
ATOM     49  O   UNL A   1      34.305  30.753  28.752  1.00  0.00    -0.237 OA
ATOM     50  O   UNL A   1      35.721  32.357  27.532  1.00  0.00    -0.237 OA
ATOM     51  O   UNL A   1      36.288  29.963  27.522  1.00  0.00    -0.744 OA
ENDBRANCH  45  48
ENDBRANCH  27  41
BRANCH  28  52
ATOM     52  C   UNL A   1      48.711  33.017  29.490  1.00  0.00     0.023 A 
ATOM     53  C   UNL A   1      49.444  33.756  30.460  1.00  0.00     0.012 A 
ATOM     54  C   UNL A   1      49.227  32.930  28.192  1.00  0.00     0.148 A 
ATOM     55  C   UNL A   1      50.702  34.288  30.170  1.00  0.00     0.002 A 
ATOM     56  C   UNL A   1      50.508  33.419  27.925  1.00  0.00     0.091 A 
ATOM     57  F   UNL A   1      48.488  32.319  27.256  1.00  0.00    -0.205 F 
ATOM     58  C   UNL A   1      51.249  34.094  28.907  1.00  0.00     0.022 A 
BRANCH  56  59
ATOM     59  S   UNL A   1      51.374  32.868  26.449  1.00  0.00     0.127 S 
ATOM     60  O   UNL A   1      51.688  31.482  26.764  1.00  0.00    -0.237 OA
ATOM     61  O   UNL A   1      50.374  33.072  25.402  1.00  0.00    -0.237 OA
ATOM     62  O   UNL A   1      52.486  33.811  26.369  1.00  0.00    -0.744 OA
ENDBRANCH  56  59
ENDBRANCH  28  52
BRANCH  40  63
ATOM     63  C   UNL A   1      43.190  36.727  28.496  1.00  0.00     0.023 A 
ATOM     64  C   UNL A   1      42.664  36.807  27.187  1.00  0.00     0.012 A 
ATOM     65  C   UNL A   1      43.504  37.926  29.174  1.00  0.00     0.148 A 
ATOM     66  C   UNL A   1      42.507  38.038  26.548  1.00  0.00     0.002 A 
ATOM     67  C   UNL A   1      43.283  39.154  28.554  1.00  0.00     0.091 A 
ATOM     68  F   UNL A   1      43.991  37.846  30.421  1.00  0.00    -0.205 F 
ATOM     69  C   UNL A   1      42.805  39.210  27.234  1.00  0.00     0.022 A 
BRANCH  67  70
ATOM     70  S   UNL A   1      43.519  40.731  29.387  1.00  0.00     0.127 S 
ATOM     71  O   UNL A   1      44.762  40.500  30.121  1.00  0.00    -0.237 OA
ATOM     72  O   UNL A   1      43.639  41.658  28.261  1.00  0.00    -0.237 OA
ATOM     73  O   UNL A   1      42.339  40.930  30.217  1.00  0.00    -0.744 OA
ENDBRANCH  67  70
ENDBRANCH  40  63
ENDBRANCH  14  15
ENDBRANCH   7   9
ENDBRANCH   6   7
ENDBRANCH   5   6
ENDBRANCH   4   5
ENDBRANCH   3   4
ENDBRANCH   2   3
ENDBRANCH   1   2
BRANCH   1  74
ATOM     74  O   UNL A   1      49.325  26.253  32.552  1.00  0.00    -0.376 OA
BRANCH  74  75
ATOM     75  C   UNL A   1      50.162  27.112  31.788  1.00  0.00     0.202 C 
BRANCH  75  76
ATOM     76  C   UNL A   1      49.816  27.437  30.311  1.00  0.00     0.261 C 
BRANCH  76  77
ATOM     77  O   UNL A   1      49.064  26.462  29.525  1.00  0.00    -0.461 OA
BRANCH  77  78
ATOM     78  C   UNL A   1      47.871  26.931  29.061  1.00  0.00     0.338 C 
ATOM     79  O   UNL A   1      47.066  27.457  29.832  1.00  0.00    -0.249 OA
BRANCH  78  80
ATOM     80  C   UNL A   1      47.653  26.952  27.472  1.00  0.00     0.263 C 
ATOM     81  O   UNL A   1      47.340  25.829  26.611  1.00  0.00    -0.322 OA
ATOM     82  C   UNL A   1      46.835  28.223  27.163  1.00  0.00     0.186 C 
ATOM     83  C   UNL A   1      46.421  25.882  25.381  1.00  0.00     0.340 C 
ATOM     84  C   UNL A   1      46.927  28.431  25.662  1.00  0.00     0.181 C 
ATOM     85  C   UNL A   1      46.206  27.345  24.843  1.00  0.00     0.214 C 
BRANCH  82  86
ATOM     86  O   UNL A   1      47.254  29.430  27.817  1.00  0.00    -0.387 OA
ATOM     87  H   UNL A   1      46.904  30.196  27.337  1.00  0.00     0.211 HD
ENDBRANCH  82  86
BRANCH  83  88
ATOM     88  O   UNL A   1      44.903  24.854  25.318  1.00  0.00    -0.454 OA
BRANCH  88  89
ATOM     89  C   UNL A   1      43.009  25.108  26.063  1.00  0.00     0.214 A 
ATOM     90  C   UNL A   1      42.012  24.051  26.546  1.00  0.00     0.181 A 
ATOM     91  C   UNL A   1      42.055  26.351  25.805  1.00  0.00     0.239 A 
ATOM     92  O   UNL A   1      40.824  24.463  27.248  1.00  0.00    -0.452 OA
ATOM     93  C   UNL A   1      41.353  26.811  26.954  1.00  0.00     0.111 A 
ATOM     94  O   UNL A   1      41.689  26.791  24.713  1.00  0.00    -0.285 OA
ATOM     95  C   UNL A   1      40.685  25.797  27.621  1.00  0.00     0.146 A 
ATOM     96  C   UNL A   1      41.164  28.176  27.190  1.00  0.00     0.134 A 
ATOM     97  C   UNL A   1      39.754  26.194  28.575  1.00  0.00     0.094 A 
ATOM     98  C   UNL A   1      40.255  28.566  28.151  1.00  0.00     0.093 A 
ATOM     99  C   UNL A   1      39.544  27.568  28.820  1.00  0.00     0.123 A 
BRANCH  90 100
ATOM    100  C   UNL A   1      42.007  22.333  26.390  1.00  0.00     0.029 A 
ATOM    101  C   UNL A   1      42.824  21.644  25.485  1.00  0.00     0.062 A 
ATOM    102  C   UNL A   1      41.369  21.396  27.322  1.00  0.00     0.062 A 
ATOM    103  C   UNL A   1      42.937  20.215  25.555  1.00  0.00     0.162 A 
ATOM    104  C   UNL A   1      41.496  20.024  27.420  1.00  0.00     0.162 A 
ATOM    105  C   UNL A   1      42.266  19.419  26.491  1.00  0.00     0.200 A 
BRANCH 103 106
ATOM    106  O   UNL A   1      43.793  19.548  24.715  1.00  0.00    -0.504 OA
ATOM    107  H   UNL A   1      44.719  19.658  24.807  1.00  0.00     0.293 HD
ENDBRANCH 103 106
BRANCH 104 108
ATOM    108  O   UNL A   1      40.990  19.292  28.452  1.00  0.00    -0.504 OA
ATOM    109  H   UNL A   1      40.523  18.499  28.281  1.00  0.00     0.293 HD
ENDBRANCH 104 108
BRANCH 105 110
ATOM    110  O   UNL A   1      42.375  18.057  26.513  1.00  0.00    -0.502 OA
ATOM    111  H   UNL A   1      42.715  17.626  27.272  1.00  0.00     0.293 HD
ENDBRANCH 105 110
ENDBRANCH  90 100
BRANCH  96 112
ATOM    112  O   UNL A   1      41.799  29.122  26.435  1.00  0.00    -0.507 OA
ATOM    113  H   UNL A   1      42.680  28.980  26.150  1.00  0.00     0.293 HD
ENDBRANCH  96 112
BRANCH  99 114
ATOM    114  O   UNL A   1      38.566  27.921  29.706  1.00  0.00    -0.508 OA
ATOM    115  H   UNL A   1      38.554  27.547  30.566  1.00  0.00     0.293 HD
ENDBRANCH  99 114
ENDBRANCH  88  89
ENDBRANCH  83  88
BRANCH  84 116
ATOM    116  O   UNL A   1      46.445  29.728  25.289  1.00  0.00    -0.387 OA
ATOM    117  H   UNL A   1      45.632  29.634  24.767  1.00  0.00     0.211 HD
ENDBRANCH  84 116
BRANCH  85 118
ATOM    118  O   UNL A   1      46.695  27.489  23.496  1.00  0.00    -0.384 OA
ATOM    119  H   UNL A   1      46.863  26.611  23.117  1.00  0.00     0.211 HD
ENDBRANCH  85 118
ENDBRANCH  78  80
ENDBRANCH  77  78
ENDBRANCH  76  77
ENDBRANCH  75  76
ENDBRANCH  74  75
ENDBRANCH   1  74
TORSDOF 31
ENDMDL
