MODEL 1
REMARK VINA RESULT:      -9.2      0.000      0.000
REMARK SMILES CCCC[C@H]([NH3+])C(=O)Nc1snc(C)c1C(=O)OCCOCCOCCOC(=O)c1ccc(-c2c3nc(c(-c4cccc(S(=O)(=O)[O-])c4F)c4ccc([nH]4)c(-c4cccc(S(=O)(=O)[O-])c4F)c4nc(c(-c5cccc(S(=O)(=O)[O-])c5F)c5ccc2[nH]5)C=C4)C=C3)cc1
REMARK SMILES IDX 22 1 21 2 20 3 19 4 18 5 16 6 17 7 15 8 10 9 11 10 12 11
REMARK SMILES IDX 13 12 14 13 9 14 7 15 8 16 5 18 4 19 3 20 2 21 1 22 6 23
REMARK SMILES IDX 23 27 24 28 25 29 26 30 27 31 28 32 29 33 30 34 31 35 92 36
REMARK SMILES IDX 32 37 91 38 33 39 34 40 35 41 85 42 36 43 90 44 84 45 86 46
REMARK SMILES IDX 37 47 89 48 83 49 82 50 38 52 70 53 50 54 69 55 51 56 54 57
REMARK SMILES IDX 68 58 87 59 52 60 53 61 67 63 88 64 55 65 39 66 40 67 48 68
REMARK SMILES IDX 41 69 43 70 49 71 42 72 44 73 45 74 46 75 47 76 71 77 72 78
REMARK SMILES IDX 80 79 73 80 75 81 81 82 74 83 76 84 77 85 78 86 79 87 56 88
REMARK SMILES IDX 57 89 65 90 58 91 60 92 66 93 59 94 61 95 62 96 63 97 64 98
REMARK H PARENT 9 17 6 24 6 25 6 26 86 51 54 62
REMARK Flexibility Score: inf
ROOT
ATOM      1  C   UNL A   1      30.597  26.818  23.866  1.00  0.00     0.188 C 
ENDROOT
BRANCH   1   2
ATOM      2  O   UNL A   1      30.229  25.840  24.820  1.00  0.00    -0.376 OA
BRANCH   2   3
ATOM      3  C   UNL A   1      30.990  24.643  24.769  1.00  0.00     0.202 C 
BRANCH   3   4
ATOM      4  C   UNL A   1      31.318  23.995  26.124  1.00  0.00     0.261 C 
BRANCH   4   5
ATOM      5  O   UNL A   1      32.697  23.659  26.386  1.00  0.00    -0.460 OA
BRANCH   5   6
ATOM      6  C   UNL A   1      33.669  24.482  25.894  1.00  0.00     0.343 C 
ATOM      7  O   UNL A   1      33.742  25.661  26.166  1.00  0.00    -0.246 OA
BRANCH   6   8
ATOM      8  C   UNL A   1      34.666  23.762  25.108  1.00  0.00     0.117 A 
ATOM      9  C   UNL A   1      34.424  22.831  24.115  1.00  0.00     0.131 A 
ATOM     10  S   UNL A   1      35.873  22.001  23.753  1.00  0.00    -0.017 S 
ATOM     11  N   UNL A   1      36.854  22.963  24.660  1.00  0.00    -0.195 NA
ATOM     12  C   UNL A   1      36.100  23.811  25.366  1.00  0.00     0.068 A 
ATOM     13  C   UNL A   1      36.817  24.636  26.383  1.00  0.00     0.069 C 
BRANCH   9  14
ATOM     14  N   UNL A   1      33.356  22.367  23.393  1.00  0.00    -0.310 N 
ATOM     15  C   UNL A   1      32.702  21.179  23.403  1.00  0.00     0.283 C 
ATOM     16  O   UNL A   1      31.977  20.946  22.423  1.00  0.00    -0.268 OA
ATOM     17  H   UNL A   1      32.999  23.017  22.746  1.00  0.00     0.171 HD
BRANCH  15  18
ATOM     18  C   UNL A   1      32.743  20.138  24.560  1.00  0.00     0.271 C 
BRANCH  18  19
ATOM     19  C   UNL A   1      32.446  18.673  24.185  1.00  0.00     0.075 C 
BRANCH  19  20
ATOM     20  C   UNL A   1      33.588  17.885  23.516  1.00  0.00     0.006 C 
BRANCH  20  21
ATOM     21  C   UNL A   1      33.702  16.406  23.906  1.00  0.00    -0.003 C 
ATOM     22  C   UNL A   1      33.131  16.068  25.279  1.00  0.00     0.004 C 
ENDBRANCH  20  21
ENDBRANCH  19  20
ENDBRANCH  18  19
BRANCH  18  23
ATOM     23  N   UNL A   1      32.072  20.659  25.755  1.00  0.00    -0.347 N 
ATOM     24  H   UNL A   1      31.099  20.872  25.533  1.00  0.00     0.345 HD
ATOM     25  H   UNL A   1      32.544  21.508  26.066  1.00  0.00     0.345 HD
ATOM     26  H   UNL A   1      32.107  19.958  26.496  1.00  0.00     0.345 HD
ENDBRANCH  18  23
ENDBRANCH  15  18
ENDBRANCH   9  14
ENDBRANCH   6   8
ENDBRANCH   5   6
ENDBRANCH   4   5
ENDBRANCH   3   4
ENDBRANCH   2   3
ENDBRANCH   1   2
BRANCH   1  27
ATOM     27  C   UNL A   1      31.617  27.855  24.381  1.00  0.00     0.188 C 
BRANCH  27  28
ATOM     28  O   UNL A   1      31.230  28.970  25.178  1.00  0.00    -0.376 OA
BRANCH  28  29
ATOM     29  C   UNL A   1      32.167  29.973  25.567  1.00  0.00     0.202 C 
BRANCH  29  30
ATOM     30  C   UNL A   1      32.053  30.654  26.930  1.00  0.00     0.261 C 
BRANCH  30  31
ATOM     31  O   UNL A   1      33.236  31.341  27.288  1.00  0.00    -0.460 OA
BRANCH  31  32
ATOM     32  C   UNL A   1      33.034  32.621  27.650  1.00  0.00     0.338 C 
ATOM     33  O   UNL A   1      32.067  33.321  27.395  1.00  0.00    -0.246 OA
BRANCH  32  34
ATOM     34  C   UNL A   1      34.151  33.046  28.501  1.00  0.00     0.060 A 
ATOM     35  C   UNL A   1      35.100  33.878  27.904  1.00  0.00     0.016 A 
ATOM     36  C   UNL A   1      34.340  32.476  29.771  1.00  0.00     0.016 A 
ATOM     37  C   UNL A   1      36.371  33.846  28.408  1.00  0.00     0.010 A 
ATOM     38  C   UNL A   1      35.607  32.454  30.285  1.00  0.00     0.010 A 
ATOM     39  C   UNL A   1      36.611  32.998  29.492  1.00  0.00    -0.014 A 
BRANCH  39  40
ATOM     40  C   UNL A   1      37.940  32.449  29.577  1.00  0.00     0.031 A 
ATOM     41  C   UNL A   1      38.033  31.022  29.260  1.00  0.00     0.074 A 
ATOM     42  C   UNL A   1      38.973  33.248  29.908  1.00  0.00     0.049 A 
ATOM     43  N   UNL A   1      38.279  30.049  30.070  1.00  0.00    -0.248 NA
ATOM     44  C   UNL A   1      37.646  30.622  27.903  1.00  0.00     0.031 C 
ATOM     45  C   UNL A   1      38.995  34.718  29.937  1.00  0.00     0.029 A 
ATOM     46  N   UNL A   1      40.268  32.916  30.141  1.00  0.00    -0.354 N 
ATOM     47  C   UNL A   1      38.326  28.928  29.253  1.00  0.00     0.074 A 
ATOM     48  C   UNL A   1      37.717  29.295  28.001  1.00  0.00     0.031 C 
ATOM     49  C   UNL A   1      40.277  35.139  29.903  1.00  0.00     0.029 A 
ATOM     50  C   UNL A   1      41.146  33.980  29.990  1.00  0.00     0.049 A 
ATOM     51  H   UNL A   1      40.556  32.008  30.393  1.00  0.00     0.167 HD
ATOM     52  C   UNL A   1      39.133  27.877  29.548  1.00  0.00     0.034 A 
ATOM     53  C   UNL A   1      42.486  33.888  29.827  1.00  0.00     0.034 A 
ATOM     54  C   UNL A   1      39.570  27.887  30.917  1.00  0.00     0.049 A 
ATOM     55  C   UNL A   1      42.902  32.542  30.288  1.00  0.00     0.074 A 
ATOM     56  C   UNL A   1      38.940  27.859  32.145  1.00  0.00     0.029 A 
ATOM     57  N   UNL A   1      40.860  28.291  31.155  1.00  0.00    -0.354 N 
ATOM     58  N   UNL A   1      42.851  32.148  31.531  1.00  0.00    -0.248 NA
ATOM     59  C   UNL A   1      43.001  31.478  29.302  1.00  0.00     0.031 C 
ATOM     60  C   UNL A   1      39.761  28.643  33.006  1.00  0.00     0.029 A 
ATOM     61  C   UNL A   1      40.857  29.094  32.265  1.00  0.00     0.049 A 
ATOM     62  H   UNL A   1      41.650  28.047  30.621  1.00  0.00     0.167 HD
ATOM     63  C   UNL A   1      42.481  30.809  31.461  1.00  0.00     0.074 A 
ATOM     64  C   UNL A   1      42.720  30.426  30.074  1.00  0.00     0.031 C 
ATOM     65  C   UNL A   1      41.745  30.225  32.454  1.00  0.00     0.034 A 
BRANCH  52  66
ATOM     66  C   UNL A   1      39.816  27.051  28.493  1.00  0.00     0.023 A 
ATOM     67  C   UNL A   1      39.606  25.660  28.513  1.00  0.00     0.012 A 
ATOM     68  C   UNL A   1      40.833  27.541  27.640  1.00  0.00     0.148 A 
ATOM     69  C   UNL A   1      40.377  24.798  27.726  1.00  0.00     0.002 A 
ATOM     70  C   UNL A   1      41.521  26.694  26.785  1.00  0.00     0.091 A 
ATOM     71  F   UNL A   1      41.250  28.807  27.745  1.00  0.00    -0.205 F 
ATOM     72  C   UNL A   1      41.319  25.316  26.843  1.00  0.00     0.022 A 
BRANCH  70  73
ATOM     73  S   UNL A   1      42.668  27.357  25.572  1.00  0.00     0.127 S 
ATOM     74  O   UNL A   1      42.935  26.185  24.746  1.00  0.00    -0.237 OA
ATOM     75  O   UNL A   1      41.867  28.401  24.932  1.00  0.00    -0.237 OA
ATOM     76  O   UNL A   1      43.784  27.869  26.359  1.00  0.00    -0.744 OA
ENDBRANCH  70  73
ENDBRANCH  52  66
BRANCH  53  77
ATOM     77  C   UNL A   1      43.365  34.770  29.031  1.00  0.00     0.023 A 
ATOM     78  C   UNL A   1      43.172  34.879  27.642  1.00  0.00     0.012 A 
ATOM     79  C   UNL A   1      44.243  35.685  29.659  1.00  0.00     0.148 A 
ATOM     80  C   UNL A   1      43.821  35.876  26.903  1.00  0.00     0.002 A 
ATOM     81  C   UNL A   1      44.899  36.663  28.919  1.00  0.00     0.091 A 
ATOM     82  F   UNL A   1      44.366  35.651  30.993  1.00  0.00    -0.205 F 
ATOM     83  C   UNL A   1      44.680  36.768  27.541  1.00  0.00     0.022 A 
BRANCH  81  84
ATOM     84  S   UNL A   1      46.022  37.847  29.672  1.00  0.00     0.127 S 
ATOM     85  O   UNL A   1      46.557  38.545  28.501  1.00  0.00    -0.237 OA
ATOM     86  O   UNL A   1      45.117  38.642  30.497  1.00  0.00    -0.237 OA
ATOM     87  O   UNL A   1      47.010  37.058  30.397  1.00  0.00    -0.744 OA
ENDBRANCH  81  84
ENDBRANCH  53  77
BRANCH  65  88
ATOM     88  C   UNL A   1      41.599  30.968  33.762  1.00  0.00     0.023 A 
ATOM     89  C   UNL A   1      42.579  30.885  34.775  1.00  0.00     0.012 A 
ATOM     90  C   UNL A   1      40.560  31.905  33.899  1.00  0.00     0.148 A 
ATOM     91  C   UNL A   1      42.509  31.699  35.908  1.00  0.00     0.002 A 
ATOM     92  C   UNL A   1      40.522  32.747  35.006  1.00  0.00     0.091 A 
ATOM     93  F   UNL A   1      39.641  31.982  32.925  1.00  0.00    -0.205 F 
ATOM     94  C   UNL A   1      41.489  32.640  36.018  1.00  0.00     0.022 A 
BRANCH  92  95
ATOM     95  S   UNL A   1      39.313  34.068  35.140  1.00  0.00     0.127 S 
ATOM     96  O   UNL A   1      38.062  33.328  35.282  1.00  0.00    -0.237 OA
ATOM     97  O   UNL A   1      39.746  34.773  36.348  1.00  0.00    -0.237 OA
ATOM     98  O   UNL A   1      39.447  34.853  33.918  1.00  0.00    -0.744 OA
ENDBRANCH  92  95
ENDBRANCH  65  88
ENDBRANCH  39  40
ENDBRANCH  32  34
ENDBRANCH  31  32
ENDBRANCH  30  31
ENDBRANCH  29  30
ENDBRANCH  28  29
ENDBRANCH  27  28
ENDBRANCH   1  27
TORSDOF 26
ENDMDL
MODEL 2
REMARK VINA RESULT:      -9.0      1.840      2.113
REMARK SMILES CCCC[C@H]([NH3+])C(=O)Nc1snc(C)c1C(=O)OCCOCCOCCOC(=O)c1ccc(-c2c3nc(c(-c4cccc(S(=O)(=O)[O-])c4F)c4ccc([nH]4)c(-c4cccc(S(=O)(=O)[O-])c4F)c4nc(c(-c5cccc(S(=O)(=O)[O-])c5F)c5ccc2[nH]5)C=C4)C=C3)cc1
REMARK SMILES IDX 22 1 21 2 20 3 19 4 18 5 16 6 17 7 15 8 10 9 11 10 12 11
REMARK SMILES IDX 13 12 14 13 9 14 7 15 8 16 5 18 4 19 3 20 2 21 1 22 6 23
REMARK SMILES IDX 23 27 24 28 25 29 26 30 27 31 28 32 29 33 30 34 31 35 92 36
REMARK SMILES IDX 32 37 91 38 33 39 34 40 35 41 85 42 36 43 90 44 84 45 86 46
REMARK SMILES IDX 37 47 89 48 83 49 82 50 38 52 70 53 50 54 69 55 51 56 54 57
REMARK SMILES IDX 68 58 87 59 52 60 53 61 67 63 88 64 55 65 39 66 40 67 48 68
REMARK SMILES IDX 41 69 43 70 49 71 42 72 44 73 45 74 46 75 47 76 71 77 72 78
REMARK SMILES IDX 80 79 73 80 75 81 81 82 74 83 76 84 77 85 78 86 79 87 56 88
REMARK SMILES IDX 57 89 65 90 58 91 60 92 66 93 59 94 61 95 62 96 63 97 64 98
REMARK H PARENT 9 17 6 24 6 25 6 26 86 51 54 62
REMARK Flexibility Score: inf
ROOT
ATOM      1  C   UNL A   1      30.803  26.561  23.992  1.00  0.00     0.188 C 
ENDROOT
BRANCH   1   2
ATOM      2  O   UNL A   1      30.316  25.617  24.926  1.00  0.00    -0.376 OA
BRANCH   2   3
ATOM      3  C   UNL A   1      31.137  24.472  25.099  1.00  0.00     0.202 C 
BRANCH   3   4
ATOM      4  C   UNL A   1      31.643  24.214  26.528  1.00  0.00     0.261 C 
BRANCH   4   5
ATOM      5  O   UNL A   1      33.011  23.781  26.683  1.00  0.00    -0.460 OA
BRANCH   5   6
ATOM      6  C   UNL A   1      33.979  24.422  25.966  1.00  0.00     0.343 C 
ATOM      7  O   UNL A   1      34.096  25.629  25.939  1.00  0.00    -0.246 OA
BRANCH   6   8
ATOM      8  C   UNL A   1      34.917  23.497  25.340  1.00  0.00     0.117 A 
ATOM      9  C   UNL A   1      34.602  22.408  24.548  1.00  0.00     0.131 A 
ATOM     10  S   UNL A   1      35.988  21.426  24.359  1.00  0.00    -0.017 S 
ATOM     11  N   UNL A   1      37.041  22.478  25.063  1.00  0.00    -0.195 NA
ATOM     12  C   UNL A   1      36.354  23.496  25.587  1.00  0.00     0.068 A 
ATOM     13  C   UNL A   1      37.135  24.454  26.424  1.00  0.00     0.069 C 
BRANCH   9  14
ATOM     14  N   UNL A   1      33.498  21.885  23.927  1.00  0.00    -0.310 N 
ATOM     15  C   UNL A   1      32.948  20.645  23.948  1.00  0.00     0.283 C 
ATOM     16  O   UNL A   1      32.134  20.393  23.045  1.00  0.00    -0.268 OA
ATOM     17  H   UNL A   1      33.015  22.529  23.361  1.00  0.00     0.171 HD
BRANCH  15  18
ATOM     18  C   UNL A   1      33.209  19.561  25.035  1.00  0.00     0.271 C 
BRANCH  18  19
ATOM     19  C   UNL A   1      32.744  18.129  24.711  1.00  0.00     0.075 C 
BRANCH  19  20
ATOM     20  C   UNL A   1      33.545  17.367  23.638  1.00  0.00     0.006 C 
BRANCH  20  21
ATOM     21  C   UNL A   1      34.068  15.984  24.046  1.00  0.00    -0.003 C 
ATOM     22  C   UNL A   1      35.082  16.000  25.184  1.00  0.00     0.004 C 
ENDBRANCH  20  21
ENDBRANCH  19  20
ENDBRANCH  18  19
BRANCH  18  23
ATOM     23  N   UNL A   1      32.883  20.072  26.369  1.00  0.00    -0.347 N 
ATOM     24  H   UNL A   1      33.059  19.345  27.064  1.00  0.00     0.345 HD
ATOM     25  H   UNL A   1      31.900  20.341  26.400  1.00  0.00     0.345 HD
ATOM     26  H   UNL A   1      33.466  20.885  26.573  1.00  0.00     0.345 HD
ENDBRANCH  18  23
ENDBRANCH  15  18
ENDBRANCH   9  14
ENDBRANCH   6   8
ENDBRANCH   5   6
ENDBRANCH   4   5
ENDBRANCH   3   4
ENDBRANCH   2   3
ENDBRANCH   1   2
BRANCH   1  27
ATOM     27  C   UNL A   1      31.789  27.589  24.584  1.00  0.00     0.188 C 
BRANCH  27  28
ATOM     28  O   UNL A   1      31.348  28.747  25.287  1.00  0.00    -0.376 OA
BRANCH  28  29
ATOM     29  C   UNL A   1      32.233  29.826  25.580  1.00  0.00     0.202 C 
BRANCH  29  30
ATOM     30  C   UNL A   1      32.166  30.540  26.930  1.00  0.00     0.261 C 
BRANCH  30  31
ATOM     31  O   UNL A   1      33.326  31.304  27.192  1.00  0.00    -0.460 OA
BRANCH  31  32
ATOM     32  C   UNL A   1      33.069  32.556  27.615  1.00  0.00     0.338 C 
ATOM     33  O   UNL A   1      32.057  33.210  27.425  1.00  0.00    -0.246 OA
BRANCH  32  34
ATOM     34  C   UNL A   1      34.193  33.008  28.442  1.00  0.00     0.060 A 
ATOM     35  C   UNL A   1      35.152  33.796  27.803  1.00  0.00     0.016 A 
ATOM     36  C   UNL A   1      34.378  32.499  29.738  1.00  0.00     0.016 A 
ATOM     37  C   UNL A   1      36.423  33.773  28.306  1.00  0.00     0.010 A 
ATOM     38  C   UNL A   1      35.645  32.486  30.251  1.00  0.00     0.010 A 
ATOM     39  C   UNL A   1      36.654  32.977  29.430  1.00  0.00    -0.014 A 
BRANCH  39  40
ATOM     40  C   UNL A   1      37.977  32.415  29.540  1.00  0.00     0.031 A 
ATOM     41  C   UNL A   1      38.062  30.988  29.222  1.00  0.00     0.074 A 
ATOM     42  C   UNL A   1      39.010  33.204  29.893  1.00  0.00     0.049 A 
ATOM     43  N   UNL A   1      38.283  30.011  30.034  1.00  0.00    -0.248 NA
ATOM     44  C   UNL A   1      37.699  30.594  27.857  1.00  0.00     0.031 C 
ATOM     45  C   UNL A   1      39.045  34.674  29.926  1.00  0.00     0.029 A 
ATOM     46  N   UNL A   1      40.297  32.859  30.152  1.00  0.00    -0.354 N 
ATOM     47  C   UNL A   1      38.336  28.891  29.216  1.00  0.00     0.074 A 
ATOM     48  C   UNL A   1      37.755  29.267  27.953  1.00  0.00     0.031 C 
ATOM     49  C   UNL A   1      40.332  35.082  29.919  1.00  0.00     0.029 A 
ATOM     50  C   UNL A   1      41.188  33.915  30.020  1.00  0.00     0.049 A 
ATOM     51  H   UNL A   1      40.572  31.948  30.407  1.00  0.00     0.167 HD
ATOM     52  C   UNL A   1      39.127  27.832  29.525  1.00  0.00     0.034 A 
ATOM     53  C   UNL A   1      42.529  33.812  29.884  1.00  0.00     0.034 A 
ATOM     54  C   UNL A   1      39.537  27.835  30.903  1.00  0.00     0.049 A 
ATOM     55  C   UNL A   1      42.924  32.461  30.350  1.00  0.00     0.074 A 
ATOM     56  C   UNL A   1      38.883  27.811  32.118  1.00  0.00     0.029 A 
ATOM     57  N   UNL A   1      40.826  28.227  31.167  1.00  0.00    -0.354 N 
ATOM     58  N   UNL A   1      42.845  32.064  31.591  1.00  0.00    -0.248 NA
ATOM     59  C   UNL A   1      43.033  31.398  29.364  1.00  0.00     0.031 C 
ATOM     60  C   UNL A   1      39.694  28.586  32.997  1.00  0.00     0.029 A 
ATOM     61  C   UNL A   1      40.808  29.028  32.278  1.00  0.00     0.049 A 
ATOM     62  H   UNL A   1      41.624  27.977  30.648  1.00  0.00     0.167 HD
ATOM     63  C   UNL A   1      42.464  30.729  31.511  1.00  0.00     0.074 A 
ATOM     64  C   UNL A   1      42.726  30.347  30.128  1.00  0.00     0.031 C 
ATOM     65  C   UNL A   1      41.703  30.151  32.488  1.00  0.00     0.034 A 
BRANCH  52  66
ATOM     66  C   UNL A   1      39.824  27.002  28.482  1.00  0.00     0.023 A 
ATOM     67  C   UNL A   1      39.622  25.610  28.511  1.00  0.00     0.012 A 
ATOM     68  C   UNL A   1      40.844  27.491  27.634  1.00  0.00     0.148 A 
ATOM     69  C   UNL A   1      40.404  24.746  27.738  1.00  0.00     0.002 A 
ATOM     70  C   UNL A   1      41.544  26.642  26.790  1.00  0.00     0.091 A 
ATOM     71  F   UNL A   1      41.254  28.761  27.732  1.00  0.00    -0.205 F 
ATOM     72  C   UNL A   1      41.350  25.263  26.858  1.00  0.00     0.022 A 
BRANCH  70  73
ATOM     73  S   UNL A   1      42.696  27.301  25.582  1.00  0.00     0.127 S 
ATOM     74  O   UNL A   1      42.982  26.124  24.771  1.00  0.00    -0.237 OA
ATOM     75  O   UNL A   1      41.892  28.331  24.922  1.00  0.00    -0.237 OA
ATOM     76  O   UNL A   1      43.801  27.833  26.373  1.00  0.00    -0.744 OA
ENDBRANCH  70  73
ENDBRANCH  52  66
BRANCH  53  77
ATOM     77  C   UNL A   1      43.433  34.687  29.107  1.00  0.00     0.023 A 
ATOM     78  C   UNL A   1      43.926  35.870  29.685  1.00  0.00     0.012 A 
ATOM     79  C   UNL A   1      43.999  34.251  27.886  1.00  0.00     0.148 A 
ATOM     80  C   UNL A   1      44.962  36.589  29.076  1.00  0.00     0.002 A 
ATOM     81  C   UNL A   1      45.015  34.978  27.275  1.00  0.00     0.091 A 
ATOM     82  F   UNL A   1      43.602  33.080  27.370  1.00  0.00    -0.205 F 
ATOM     83  C   UNL A   1      45.507  36.142  27.875  1.00  0.00     0.022 A 
BRANCH  81  84
ATOM     84  S   UNL A   1      45.766  34.464  25.724  1.00  0.00     0.127 S 
ATOM     85  O   UNL A   1      46.786  35.496  25.525  1.00  0.00    -0.237 OA
ATOM     86  O   UNL A   1      46.291  33.144  26.064  1.00  0.00    -0.237 OA
ATOM     87  O   UNL A   1      44.697  34.484  24.734  1.00  0.00    -0.744 OA
ENDBRANCH  81  84
ENDBRANCH  53  77
BRANCH  65  88
ATOM     88  C   UNL A   1      41.538  30.892  33.794  1.00  0.00     0.023 A 
ATOM     89  C   UNL A   1      40.371  31.630  34.085  1.00  0.00     0.012 A 
ATOM     90  C   UNL A   1      42.485  30.690  34.814  1.00  0.00     0.148 A 
ATOM     91  C   UNL A   1      40.167  32.175  35.356  1.00  0.00     0.002 A 
ATOM     92  C   UNL A   1      42.254  31.193  36.090  1.00  0.00     0.091 A 
ATOM     93  F   UNL A   1      43.585  29.977  34.527  1.00  0.00    -0.205 F 
ATOM     94  C   UNL A   1      41.101  31.946  36.362  1.00  0.00     0.022 A 
BRANCH  92  95
ATOM     95  S   UNL A   1      43.351  30.818  37.461  1.00  0.00     0.127 S 
ATOM     96  O   UNL A   1      44.568  31.535  37.087  1.00  0.00    -0.237 OA
ATOM     97  O   UNL A   1      42.635  31.385  38.605  1.00  0.00    -0.237 OA
ATOM     98  O   UNL A   1      43.460  29.364  37.494  1.00  0.00    -0.744 OA
ENDBRANCH  92  95
ENDBRANCH  65  88
ENDBRANCH  39  40
ENDBRANCH  32  34
ENDBRANCH  31  32
ENDBRANCH  30  31
ENDBRANCH  29  30
ENDBRANCH  28  29
ENDBRANCH  27  28
ENDBRANCH   1  27
TORSDOF 26
ENDMDL
MODEL 3
REMARK VINA RESULT:      -8.9      1.061      2.537
REMARK SMILES CCCC[C@H]([NH3+])C(=O)Nc1snc(C)c1C(=O)OCCOCCOCCOC(=O)c1ccc(-c2c3nc(c(-c4cccc(S(=O)(=O)[O-])c4F)c4ccc([nH]4)c(-c4cccc(S(=O)(=O)[O-])c4F)c4nc(c(-c5cccc(S(=O)(=O)[O-])c5F)c5ccc2[nH]5)C=C4)C=C3)cc1
REMARK SMILES IDX 22 1 21 2 20 3 19 4 18 5 16 6 17 7 15 8 10 9 11 10 12 11
REMARK SMILES IDX 13 12 14 13 9 14 7 15 8 16 5 18 4 19 3 20 2 21 1 22 6 23
REMARK SMILES IDX 23 27 24 28 25 29 26 30 27 31 28 32 29 33 30 34 31 35 92 36
REMARK SMILES IDX 32 37 91 38 33 39 34 40 35 41 85 42 36 43 90 44 84 45 86 46
REMARK SMILES IDX 37 47 89 48 83 49 82 50 38 52 70 53 50 54 69 55 51 56 54 57
REMARK SMILES IDX 68 58 87 59 52 60 53 61 67 63 88 64 55 65 39 66 40 67 48 68
REMARK SMILES IDX 41 69 43 70 49 71 42 72 44 73 45 74 46 75 47 76 71 77 72 78
REMARK SMILES IDX 80 79 73 80 75 81 81 82 74 83 76 84 77 85 78 86 79 87 56 88
REMARK SMILES IDX 57 89 65 90 58 91 60 92 66 93 59 94 61 95 62 96 63 97 64 98
REMARK H PARENT 9 17 6 24 6 25 6 26 86 51 54 62
REMARK Flexibility Score: inf
ROOT
ATOM      1  C   UNL A   1      30.993  26.564  23.748  1.00  0.00     0.188 C 
ENDROOT
BRANCH   1   2
ATOM      2  O   UNL A   1      30.859  25.340  24.445  1.00  0.00    -0.376 OA
BRANCH   2   3
ATOM      3  C   UNL A   1      30.802  24.188  23.619  1.00  0.00     0.202 C 
BRANCH   3   4
ATOM      4  C   UNL A   1      31.977  23.996  22.647  1.00  0.00     0.261 C 
BRANCH   4   5
ATOM      5  O   UNL A   1      32.750  22.783  22.766  1.00  0.00    -0.460 OA
BRANCH   5   6
ATOM      6  C   UNL A   1      32.105  21.588  22.633  1.00  0.00     0.343 C 
ATOM      7  O   UNL A   1      31.399  21.316  21.685  1.00  0.00    -0.246 OA
BRANCH   6   8
ATOM      8  C   UNL A   1      32.453  20.643  23.689  1.00  0.00     0.117 A 
ATOM      9  C   UNL A   1      32.859  20.950  24.974  1.00  0.00     0.131 A 
ATOM     10  S   UNL A   1      33.505  19.551  25.713  1.00  0.00    -0.017 S 
ATOM     11  N   UNL A   1      33.061  18.506  24.520  1.00  0.00    -0.195 NA
ATOM     12  C   UNL A   1      32.572  19.203  23.491  1.00  0.00     0.068 A 
ATOM     13  C   UNL A   1      32.289  18.427  22.247  1.00  0.00     0.069 C 
BRANCH   9  14
ATOM     14  N   UNL A   1      32.929  22.053  25.784  1.00  0.00    -0.310 N 
ATOM     15  C   UNL A   1      33.785  23.105  25.810  1.00  0.00     0.283 C 
ATOM     16  O   UNL A   1      33.784  23.785  26.849  1.00  0.00    -0.268 OA
ATOM     17  H   UNL A   1      32.229  22.088  26.474  1.00  0.00     0.171 HD
BRANCH  15  18
ATOM     18  C   UNL A   1      34.703  23.550  24.635  1.00  0.00     0.271 C 
BRANCH  18  19
ATOM     19  C   UNL A   1      36.097  22.896  24.557  1.00  0.00     0.075 C 
BRANCH  19  20
ATOM     20  C   UNL A   1      36.473  21.934  25.699  1.00  0.00     0.006 C 
BRANCH  20  21
ATOM     21  C   UNL A   1      37.701  21.048  25.453  1.00  0.00    -0.003 C 
ATOM     22  C   UNL A   1      39.025  21.666  25.890  1.00  0.00     0.004 C 
ENDBRANCH  20  21
ENDBRANCH  19  20
ENDBRANCH  18  19
BRANCH  18  23
ATOM     23  N   UNL A   1      34.648  25.003  24.451  1.00  0.00    -0.347 N 
ATOM     24  H   UNL A   1      33.799  25.250  23.941  1.00  0.00     0.345 HD
ATOM     25  H   UNL A   1      35.464  25.310  23.922  1.00  0.00     0.345 HD
ATOM     26  H   UNL A   1      34.642  25.461  25.363  1.00  0.00     0.345 HD
ENDBRANCH  18  23
ENDBRANCH  15  18
ENDBRANCH   9  14
ENDBRANCH   6   8
ENDBRANCH   5   6
ENDBRANCH   4   5
ENDBRANCH   3   4
ENDBRANCH   2   3
ENDBRANCH   1   2
BRANCH   1  27
ATOM     27  C   UNL A   1      32.033  27.529  24.356  1.00  0.00     0.188 C 
BRANCH  27  28
ATOM     28  O   UNL A   1      31.772  28.919  24.525  1.00  0.00    -0.376 OA
BRANCH  28  29
ATOM     29  C   UNL A   1      32.588  29.737  25.360  1.00  0.00     0.202 C 
BRANCH  29  30
ATOM     30  C   UNL A   1      32.000  30.411  26.599  1.00  0.00     0.261 C 
BRANCH  30  31
ATOM     31  O   UNL A   1      32.992  31.017  27.403  1.00  0.00    -0.460 OA
BRANCH  31  32
ATOM     32  C   UNL A   1      32.855  32.350  27.525  1.00  0.00     0.338 C 
ATOM     33  O   UNL A   1      31.929  33.040  27.131  1.00  0.00    -0.246 OA
BRANCH  32  34
ATOM     34  C   UNL A   1      33.985  32.865  28.307  1.00  0.00     0.060 A 
ATOM     35  C   UNL A   1      34.931  33.613  27.604  1.00  0.00     0.016 A 
ATOM     36  C   UNL A   1      34.186  32.448  29.633  1.00  0.00     0.016 A 
ATOM     37  C   UNL A   1      36.208  33.632  28.094  1.00  0.00     0.010 A 
ATOM     38  C   UNL A   1      35.459  32.478  30.132  1.00  0.00     0.010 A 
ATOM     39  C   UNL A   1      36.456  32.917  29.267  1.00  0.00    -0.014 A 
BRANCH  39  40
ATOM     40  C   UNL A   1      37.784  32.372  29.402  1.00  0.00     0.031 A 
ATOM     41  C   UNL A   1      37.892  30.946  29.089  1.00  0.00     0.074 A 
ATOM     42  C   UNL A   1      38.801  33.175  29.770  1.00  0.00     0.049 A 
ATOM     43  N   UNL A   1      38.111  29.973  29.908  1.00  0.00    -0.248 NA
ATOM     44  C   UNL A   1      37.557  30.543  27.719  1.00  0.00     0.031 C 
ATOM     45  C   UNL A   1      38.817  34.645  29.798  1.00  0.00     0.029 A 
ATOM     46  N   UNL A   1      40.087  32.847  30.051  1.00  0.00    -0.354 N 
ATOM     47  C   UNL A   1      38.192  28.852  29.095  1.00  0.00     0.074 A 
ATOM     48  C   UNL A   1      37.628  29.217  27.821  1.00  0.00     0.031 C 
ATOM     49  C   UNL A   1      40.098  35.070  29.812  1.00  0.00     0.029 A 
ATOM     50  C   UNL A   1      40.967  33.914  29.931  1.00  0.00     0.049 A 
ATOM     51  H   UNL A   1      40.369  31.940  30.314  1.00  0.00     0.167 HD
ATOM     52  C   UNL A   1      38.991  27.804  29.420  1.00  0.00     0.034 A 
ATOM     53  C   UNL A   1      42.312  33.826  29.818  1.00  0.00     0.034 A 
ATOM     54  C   UNL A   1      39.377  27.816  30.805  1.00  0.00     0.049 A 
ATOM     55  C   UNL A   1      42.715  32.482  30.295  1.00  0.00     0.074 A 
ATOM     56  C   UNL A   1      38.703  27.787  32.009  1.00  0.00     0.029 A 
ATOM     57  N   UNL A   1      40.656  28.225  31.090  1.00  0.00    -0.354 N 
ATOM     58  N   UNL A   1      42.620  32.088  31.536  1.00  0.00    -0.248 NA
ATOM     59  C   UNL A   1      42.854  31.418  29.314  1.00  0.00     0.031 C 
ATOM     60  C   UNL A   1      39.489  28.575  32.899  1.00  0.00     0.029 A 
ATOM     61  C   UNL A   1      40.610  29.028  32.198  1.00  0.00     0.049 A 
ATOM     62  H   UNL A   1      41.467  27.983  30.585  1.00  0.00     0.167 HD
ATOM     63  C   UNL A   1      42.257  30.748  31.453  1.00  0.00     0.074 A 
ATOM     64  C   UNL A   1      42.548  30.365  30.076  1.00  0.00     0.031 C 
ATOM     65  C   UNL A   1      41.487  30.163  32.419  1.00  0.00     0.034 A 
BRANCH  52  66
ATOM     66  C   UNL A   1      39.715  26.980  28.392  1.00  0.00     0.023 A 
ATOM     67  C   UNL A   1      39.501  25.590  28.398  1.00  0.00     0.012 A 
ATOM     68  C   UNL A   1      40.769  27.469  27.584  1.00  0.00     0.148 A 
ATOM     69  C   UNL A   1      40.301  24.728  27.641  1.00  0.00     0.002 A 
ATOM     70  C   UNL A   1      41.489  26.623  26.755  1.00  0.00     0.091 A 
ATOM     71  F   UNL A   1      41.185  28.734  27.711  1.00  0.00    -0.205 F 
ATOM     72  C   UNL A   1      41.281  25.246  26.800  1.00  0.00     0.022 A 
BRANCH  70  73
ATOM     73  S   UNL A   1      42.687  27.286  25.594  1.00  0.00     0.127 S 
ATOM     74  O   UNL A   1      41.957  28.414  25.026  1.00  0.00    -0.237 OA
ATOM     75  O   UNL A   1      43.801  27.645  26.474  1.00  0.00    -0.237 OA
ATOM     76  O   UNL A   1      42.982  26.178  24.692  1.00  0.00    -0.744 OA
ENDBRANCH  70  73
ENDBRANCH  52  66
BRANCH  53  77
ATOM     77  C   UNL A   1      43.217  34.711  29.054  1.00  0.00     0.023 A 
ATOM     78  C   UNL A   1      43.509  34.418  27.710  1.00  0.00     0.012 A 
ATOM     79  C   UNL A   1      43.613  35.969  29.567  1.00  0.00     0.148 A 
ATOM     80  C   UNL A   1      44.159  35.354  26.896  1.00  0.00     0.002 A 
ATOM     81  C   UNL A   1      44.275  36.888  28.760  1.00  0.00     0.091 A 
ATOM     82  F   UNL A   1      43.262  36.297  30.818  1.00  0.00    -0.205 F 
ATOM     83  C   UNL A   1      44.539  36.588  27.420  1.00  0.00     0.022 A 
BRANCH  81  84
ATOM     84  S   UNL A   1      44.796  38.499  29.366  1.00  0.00     0.127 S 
ATOM     85  O   UNL A   1      43.521  39.098  29.767  1.00  0.00    -0.237 OA
ATOM     86  O   UNL A   1      45.676  38.137  30.474  1.00  0.00    -0.237 OA
ATOM     87  O   UNL A   1      45.438  39.163  28.239  1.00  0.00    -0.744 OA
ENDBRANCH  81  84
ENDBRANCH  53  77
BRANCH  65  88
ATOM     88  C   UNL A   1      41.291  30.906  33.720  1.00  0.00     0.023 A 
ATOM     89  C   UNL A   1      42.236  30.832  34.766  1.00  0.00     0.012 A 
ATOM     90  C   UNL A   1      40.240  31.835  33.820  1.00  0.00     0.148 A 
ATOM     91  C   UNL A   1      42.121  31.647  35.895  1.00  0.00     0.002 A 
ATOM     92  C   UNL A   1      40.157  32.678  34.924  1.00  0.00     0.091 A 
ATOM     93  F   UNL A   1      39.354  31.903  32.815  1.00  0.00    -0.205 F 
ATOM     94  C   UNL A   1      41.090  32.580  35.968  1.00  0.00     0.022 A 
BRANCH  92  95
ATOM     95  S   UNL A   1      38.934  33.989  35.015  1.00  0.00     0.127 S 
ATOM     96  O   UNL A   1      37.681  33.240  35.048  1.00  0.00    -0.237 OA
ATOM     97  O   UNL A   1      39.279  34.659  36.271  1.00  0.00    -0.237 OA
ATOM     98  O   UNL A   1      39.146  34.812  33.829  1.00  0.00    -0.744 OA
ENDBRANCH  92  95
ENDBRANCH  65  88
ENDBRANCH  39  40
ENDBRANCH  32  34
ENDBRANCH  31  32
ENDBRANCH  30  31
ENDBRANCH  29  30
ENDBRANCH  28  29
ENDBRANCH  27  28
ENDBRANCH   1  27
TORSDOF 26
ENDMDL
