MODEL 1
REMARK VINA RESULT:     -10.0      0.000      0.000
REMARK SMILES O=C(CS(=O)(=O)NCc1ccc(N2CCOCC2)nc1)OCCOCCOCCOC(=O)c1ccc(-c2c3nc(c(-c4cccc(S(=O)(=O)[O-])c4F)c4ccc([nH]4)c(-c4cccc(S(=O)(=O)[O-])c4F)c4nc(c(-c5cccc(S(=O)(=O)[O-])c5F)c5ccc2[nH]5)C=C4)C=C3)cc1
REMARK SMILES IDX 25 1 24 2 23 3 22 4 21 5 2 6 1 7 3 8 4 9 5 10 6 11 7 12 8 14
REMARK SMILES IDX 9 15 10 16 20 17 11 18 19 19 12 20 13 21 14 22 18 23 15 24
REMARK SMILES IDX 17 25 16 26 26 27 27 28 28 29 29 30 30 31 31 32 32 33 33 34
REMARK SMILES IDX 34 35 95 36 35 37 94 38 36 39 37 40 38 41 88 42 39 43 93 44
REMARK SMILES IDX 87 45 89 46 40 47 92 48 86 49 85 50 41 52 73 53 53 54 72 55
REMARK SMILES IDX 54 56 57 57 71 58 90 59 55 60 56 61 70 63 91 64 58 65 42 66
REMARK SMILES IDX 43 67 51 68 44 69 46 70 52 71 45 72 47 73 48 74 49 75 50 76
REMARK SMILES IDX 74 77 75 78 83 79 76 80 78 81 84 82 77 83 79 84 80 85 81 86
REMARK SMILES IDX 82 87 59 88 60 89 68 90 61 91 63 92 69 93 62 94 64 95 65 96
REMARK SMILES IDX 66 97 67 98
REMARK H PARENT 7 13 89 51 57 62
REMARK Flexibility Score: inf
ROOT
ATOM      1  C   UNL A   1      34.079  31.342  28.110  1.00  0.00     0.188 C 
ENDROOT
BRANCH   1   2
ATOM      2  O   UNL A   1      33.767  30.540  26.989  1.00  0.00    -0.376 OA
BRANCH   2   3
ATOM      3  C   UNL A   1      33.108  29.308  27.218  1.00  0.00     0.202 C 
BRANCH   3   4
ATOM      4  C   UNL A   1      33.122  28.364  26.028  1.00  0.00     0.261 C 
BRANCH   4   5
ATOM      5  O   UNL A   1      33.863  27.125  26.186  1.00  0.00    -0.462 OA
BRANCH   5   6
ATOM      6  C   UNL A   1      33.910  25.977  25.490  1.00  0.00     0.322 C 
ATOM      7  O   UNL A   1      34.177  26.052  24.288  1.00  0.00    -0.251 OA
BRANCH   6   8
ATOM      8  C   UNL A   1      33.551  24.666  26.074  1.00  0.00     0.276 C 
BRANCH   8   9
ATOM      9  S   UNL A   1      31.844  24.274  25.928  1.00  0.00     0.222 S 
ATOM     10  O   UNL A   1      31.690  23.098  25.109  1.00  0.00    -0.212 OA
ATOM     11  O   UNL A   1      31.302  24.279  27.269  1.00  0.00    -0.212 OA
BRANCH   9  12
ATOM     12  N   UNL A   1      31.119  25.566  25.192  1.00  0.00    -0.210 NA
ATOM     13  H   UNL A   1      31.744  26.354  25.365  1.00  0.00     0.141 HD
BRANCH  12  14
ATOM     14  C   UNL A   1      30.756  25.674  23.785  1.00  0.00     0.135 C 
BRANCH  14  15
ATOM     15  C   UNL A   1      30.116  26.963  23.374  1.00  0.00    -0.015 A 
ATOM     16  C   UNL A   1      28.746  27.174  23.503  1.00  0.00     0.010 A 
ATOM     17  C   UNL A   1      30.873  28.020  22.878  1.00  0.00     0.118 A 
ATOM     18  C   UNL A   1      28.224  28.430  23.221  1.00  0.00     0.047 A 
ATOM     19  N   UNL A   1      30.373  29.235  22.549  1.00  0.00    -0.239 NA
ATOM     20  C   UNL A   1      29.063  29.439  22.761  1.00  0.00     0.128 A 
BRANCH  20  21
ATOM     21  N   UNL A   1      28.521  30.661  22.491  1.00  0.00    -0.352 N 
ATOM     22  C   UNL A   1      27.821  30.927  21.246  1.00  0.00     0.146 C 
ATOM     23  C   UNL A   1      28.374  31.643  23.546  1.00  0.00     0.146 C 
ATOM     24  C   UNL A   1      28.246  32.326  20.760  1.00  0.00     0.181 C 
ATOM     25  C   UNL A   1      28.825  32.993  22.967  1.00  0.00     0.181 C 
ATOM     26  O   UNL A   1      28.079  33.334  21.780  1.00  0.00    -0.378 OA
ENDBRANCH  20  21
ENDBRANCH  14  15
ENDBRANCH  12  14
ENDBRANCH   9  12
ENDBRANCH   8   9
ENDBRANCH   6   8
ENDBRANCH   5   6
ENDBRANCH   4   5
ENDBRANCH   3   4
ENDBRANCH   2   3
ENDBRANCH   1   2
BRANCH   1  27
ATOM     27  C   UNL A   1      35.114  32.459  27.859  1.00  0.00     0.188 C 
BRANCH  27  28
ATOM     28  O   UNL A   1      34.716  33.823  27.789  1.00  0.00    -0.376 OA
BRANCH  28  29
ATOM     29  C   UNL A   1      33.366  34.187  28.035  1.00  0.00     0.202 C 
BRANCH  29  30
ATOM     30  C   UNL A   1      33.081  35.339  29.009  1.00  0.00     0.261 C 
BRANCH  30  31
ATOM     31  O   UNL A   1      32.633  34.934  30.314  1.00  0.00    -0.460 OA
BRANCH  31  32
ATOM     32  C   UNL A   1      33.469  35.225  31.343  1.00  0.00     0.338 C 
ATOM     33  O   UNL A   1      33.248  35.995  32.265  1.00  0.00    -0.246 OA
BRANCH  32  34
ATOM     34  C   UNL A   1      34.648  34.325  31.324  1.00  0.00     0.060 A 
ATOM     35  C   UNL A   1      34.462  32.999  31.745  1.00  0.00     0.016 A 
ATOM     36  C   UNL A   1      35.913  34.757  30.918  1.00  0.00     0.016 A 
ATOM     37  C   UNL A   1      35.546  32.123  31.824  1.00  0.00     0.010 A 
ATOM     38  C   UNL A   1      37.005  33.883  31.018  1.00  0.00     0.010 A 
ATOM     39  C   UNL A   1      36.835  32.576  31.515  1.00  0.00    -0.014 A 
BRANCH  39  40
ATOM     40  C   UNL A   1      38.012  31.775  31.946  1.00  0.00     0.031 A 
ATOM     41  C   UNL A   1      38.652  32.115  33.269  1.00  0.00     0.074 A 
ATOM     42  C   UNL A   1      38.504  30.764  31.209  1.00  0.00     0.049 A 
ATOM     43  N   UNL A   1      39.689  31.576  33.854  1.00  0.00    -0.248 NA
ATOM     44  C   UNL A   1      38.034  33.214  34.033  1.00  0.00     0.031 C 
ATOM     45  C   UNL A   1      37.980  30.318  29.920  1.00  0.00     0.029 A 
ATOM     46  N   UNL A   1      39.582  29.940  31.437  1.00  0.00    -0.354 N 
ATOM     47  C   UNL A   1      39.867  32.285  35.037  1.00  0.00     0.074 A 
ATOM     48  C   UNL A   1      38.839  33.301  35.081  1.00  0.00     0.031 C 
ATOM     49  C   UNL A   1      38.756  29.321  29.456  1.00  0.00     0.029 A 
ATOM     50  C   UNL A   1      39.842  29.070  30.405  1.00  0.00     0.049 A 
ATOM     51  H   UNL A   1      40.116  29.971  32.264  1.00  0.00     0.167 HD
ATOM     52  C   UNL A   1      40.791  32.103  36.010  1.00  0.00     0.034 A 
ATOM     53  C   UNL A   1      40.850  28.189  30.236  1.00  0.00     0.034 A 
ATOM     54  C   UNL A   1      41.807  31.088  35.983  1.00  0.00     0.049 A 
ATOM     55  C   UNL A   1      41.888  28.025  31.322  1.00  0.00     0.074 A 
ATOM     56  C   UNL A   1      42.760  30.801  36.944  1.00  0.00     0.029 A 
ATOM     57  N   UNL A   1      42.014  30.204  34.938  1.00  0.00    -0.354 N 
ATOM     58  N   UNL A   1      41.969  28.620  32.488  1.00  0.00    -0.248 NA
ATOM     59  C   UNL A   1      42.956  27.042  31.080  1.00  0.00     0.031 C 
ATOM     60  C   UNL A   1      43.563  29.761  36.466  1.00  0.00     0.029 A 
ATOM     61  C   UNL A   1      43.088  29.378  35.223  1.00  0.00     0.049 A 
ATOM     62  H   UNL A   1      41.477  30.167  34.114  1.00  0.00     0.167 HD
ATOM     63  C   UNL A   1      43.067  28.056  33.132  1.00  0.00     0.074 A 
ATOM     64  C   UNL A   1      43.610  27.059  32.234  1.00  0.00     0.031 C 
ATOM     65  C   UNL A   1      43.586  28.346  34.351  1.00  0.00     0.034 A 
BRANCH  52  66
ATOM     66  C   UNL A   1      40.729  33.018  37.205  1.00  0.00     0.023 A 
ATOM     67  C   UNL A   1      39.759  32.797  38.204  1.00  0.00     0.012 A 
ATOM     68  C   UNL A   1      41.658  34.065  37.359  1.00  0.00     0.148 A 
ATOM     69  C   UNL A   1      39.694  33.626  39.323  1.00  0.00     0.002 A 
ATOM     70  C   UNL A   1      41.615  34.857  38.500  1.00  0.00     0.091 A 
ATOM     71  F   UNL A   1      42.555  34.272  36.386  1.00  0.00    -0.205 F 
ATOM     72  C   UNL A   1      40.628  34.647  39.476  1.00  0.00     0.022 A 
BRANCH  70  73
ATOM     73  S   UNL A   1      42.821  36.148  38.826  1.00  0.00     0.127 S 
ATOM     74  O   UNL A   1      42.303  37.247  38.014  1.00  0.00    -0.237 OA
ATOM     75  O   UNL A   1      42.684  36.338  40.271  1.00  0.00    -0.237 OA
ATOM     76  O   UNL A   1      44.108  35.611  38.404  1.00  0.00    -0.744 OA
ENDBRANCH  70  73
ENDBRANCH  52  66
BRANCH  53  77
ATOM     77  C   UNL A   1      40.924  27.359  28.999  1.00  0.00     0.023 A 
ATOM     78  C   UNL A   1      40.110  26.215  28.878  1.00  0.00     0.012 A 
ATOM     79  C   UNL A   1      41.802  27.689  27.950  1.00  0.00     0.148 A 
ATOM     80  C   UNL A   1      40.195  25.397  27.749  1.00  0.00     0.002 A 
ATOM     81  C   UNL A   1      41.843  26.902  26.805  1.00  0.00     0.091 A 
ATOM     82  F   UNL A   1      42.584  28.769  28.093  1.00  0.00    -0.205 F 
ATOM     83  C   UNL A   1      41.053  25.745  26.710  1.00  0.00     0.022 A 
BRANCH  81  84
ATOM     84  S   UNL A   1      42.829  27.336  25.369  1.00  0.00     0.127 S 
ATOM     85  O   UNL A   1      44.154  27.514  25.958  1.00  0.00    -0.237 OA
ATOM     86  O   UNL A   1      42.681  26.143  24.534  1.00  0.00    -0.237 OA
ATOM     87  O   UNL A   1      42.213  28.536  24.820  1.00  0.00    -0.744 OA
ENDBRANCH  81  84
ENDBRANCH  53  77
BRANCH  65  88
ATOM     88  C   UNL A   1      44.776  27.549  34.822  1.00  0.00     0.023 A 
ATOM     89  C   UNL A   1      46.082  27.989  34.527  1.00  0.00     0.012 A 
ATOM     90  C   UNL A   1      44.600  26.407  35.631  1.00  0.00     0.148 A 
ATOM     91  C   UNL A   1      47.191  27.286  34.999  1.00  0.00     0.002 A 
ATOM     92  C   UNL A   1      45.710  25.741  36.139  1.00  0.00     0.091 A 
ATOM     93  F   UNL A   1      43.351  25.993  35.889  1.00  0.00    -0.205 F 
ATOM     94  C   UNL A   1      47.006  26.172  35.812  1.00  0.00     0.022 A 
BRANCH  92  95
ATOM     95  S   UNL A   1      45.566  24.356  37.275  1.00  0.00     0.127 S 
ATOM     96  O   UNL A   1      44.804  23.396  36.479  1.00  0.00    -0.237 OA
ATOM     97  O   UNL A   1      46.965  23.990  37.499  1.00  0.00    -0.237 OA
ATOM     98  O   UNL A   1      44.883  24.875  38.453  1.00  0.00    -0.744 OA
ENDBRANCH  92  95
ENDBRANCH  65  88
ENDBRANCH  39  40
ENDBRANCH  32  34
ENDBRANCH  31  32
ENDBRANCH  30  31
ENDBRANCH  29  30
ENDBRANCH  28  29
ENDBRANCH  27  28
ENDBRANCH   1  27
TORSDOF 25
ENDMDL
MODEL 2
REMARK VINA RESULT:      -9.7      6.366     11.626
REMARK SMILES O=C(CS(=O)(=O)NCc1ccc(N2CCOCC2)nc1)OCCOCCOCCOC(=O)c1ccc(-c2c3nc(c(-c4cccc(S(=O)(=O)[O-])c4F)c4ccc([nH]4)c(-c4cccc(S(=O)(=O)[O-])c4F)c4nc(c(-c5cccc(S(=O)(=O)[O-])c5F)c5ccc2[nH]5)C=C4)C=C3)cc1
REMARK SMILES IDX 25 1 24 2 23 3 22 4 21 5 2 6 1 7 3 8 4 9 5 10 6 11 7 12 8 14
REMARK SMILES IDX 9 15 10 16 20 17 11 18 19 19 12 20 13 21 14 22 18 23 15 24
REMARK SMILES IDX 17 25 16 26 26 27 27 28 28 29 29 30 30 31 31 32 32 33 33 34
REMARK SMILES IDX 34 35 95 36 35 37 94 38 36 39 37 40 38 41 88 42 39 43 93 44
REMARK SMILES IDX 87 45 89 46 40 47 92 48 86 49 85 50 41 52 73 53 53 54 72 55
REMARK SMILES IDX 54 56 57 57 71 58 90 59 55 60 56 61 70 63 91 64 58 65 42 66
REMARK SMILES IDX 43 67 51 68 44 69 46 70 52 71 45 72 47 73 48 74 49 75 50 76
REMARK SMILES IDX 74 77 75 78 83 79 76 80 78 81 84 82 77 83 79 84 80 85 81 86
REMARK SMILES IDX 82 87 59 88 60 89 68 90 61 91 63 92 69 93 62 94 64 95 65 96
REMARK SMILES IDX 66 97 67 98
REMARK H PARENT 7 13 89 51 57 62
REMARK Flexibility Score: inf
ROOT
ATOM      1  C   UNL A   1      35.665  22.634  24.039  1.00  0.00     0.188 C 
ENDROOT
BRANCH   1   2
ATOM      2  O   UNL A   1      34.951  23.835  24.250  1.00  0.00    -0.376 OA
BRANCH   2   3
ATOM      3  C   UNL A   1      34.660  24.208  25.585  1.00  0.00     0.202 C 
BRANCH   3   4
ATOM      4  C   UNL A   1      33.546  25.231  25.717  1.00  0.00     0.261 C 
BRANCH   4   5
ATOM      5  O   UNL A   1      32.367  24.821  26.459  1.00  0.00    -0.462 OA
BRANCH   5   6
ATOM      6  C   UNL A   1      31.064  25.139  26.380  1.00  0.00     0.322 C 
ATOM      7  O   UNL A   1      30.255  24.351  26.875  1.00  0.00    -0.251 OA
BRANCH   6   8
ATOM      8  C   UNL A   1      30.566  26.318  25.637  1.00  0.00     0.276 C 
BRANCH   8   9
ATOM      9  S   UNL A   1      29.992  25.940  24.019  1.00  0.00     0.222 S 
ATOM     10  O   UNL A   1      28.567  26.145  23.956  1.00  0.00    -0.212 OA
ATOM     11  O   UNL A   1      30.851  26.652  23.098  1.00  0.00    -0.212 OA
BRANCH   9  12
ATOM     12  N   UNL A   1      30.340  24.346  23.749  1.00  0.00    -0.210 NA
ATOM     13  H   UNL A   1      29.623  24.025  23.098  1.00  0.00     0.141 HD
BRANCH  12  14
ATOM     14  C   UNL A   1      31.590  23.805  23.231  1.00  0.00     0.135 C 
BRANCH  14  15
ATOM     15  C   UNL A   1      31.787  22.333  23.410  1.00  0.00    -0.015 A 
ATOM     16  C   UNL A   1      31.859  21.466  22.322  1.00  0.00     0.010 A 
ATOM     17  C   UNL A   1      31.944  21.772  24.674  1.00  0.00     0.118 A 
ATOM     18  C   UNL A   1      32.165  20.129  22.539  1.00  0.00     0.047 A 
ATOM     19  N   UNL A   1      32.192  20.460  24.907  1.00  0.00    -0.239 NA
ATOM     20  C   UNL A   1      32.339  19.662  23.837  1.00  0.00     0.128 A 
BRANCH  20  21
ATOM     21  N   UNL A   1      32.637  18.344  24.019  1.00  0.00    -0.352 N 
ATOM     22  C   UNL A   1      32.506  17.703  25.316  1.00  0.00     0.146 C 
ATOM     23  C   UNL A   1      32.815  17.473  22.875  1.00  0.00     0.146 C 
ATOM     24  C   UNL A   1      33.728  16.783  25.509  1.00  0.00     0.181 C 
ATOM     25  C   UNL A   1      34.052  16.607  23.160  1.00  0.00     0.181 C 
ATOM     26  O   UNL A   1      33.912  15.879  24.399  1.00  0.00    -0.378 OA
ENDBRANCH  20  21
ENDBRANCH  14  15
ENDBRANCH  12  14
ENDBRANCH   9  12
ENDBRANCH   8   9
ENDBRANCH   6   8
ENDBRANCH   5   6
ENDBRANCH   4   5
ENDBRANCH   3   4
ENDBRANCH   2   3
ENDBRANCH   1   2
BRANCH   1  27
ATOM     27  C   UNL A   1      36.867  22.403  24.980  1.00  0.00     0.188 C 
BRANCH  27  28
ATOM     28  O   UNL A   1      37.594  21.180  24.952  1.00  0.00    -0.376 OA
BRANCH  28  29
ATOM     29  C   UNL A   1      38.814  21.058  25.669  1.00  0.00     0.202 C 
BRANCH  29  30
ATOM     30  C   UNL A   1      39.494  19.683  25.732  1.00  0.00     0.261 C 
BRANCH  30  31
ATOM     31  O   UNL A   1      40.573  19.583  26.678  1.00  0.00    -0.460 OA
BRANCH  31  32
ATOM     32  C   UNL A   1      41.825  19.635  26.155  1.00  0.00     0.338 C 
ATOM     33  O   UNL A   1      42.350  18.798  25.438  1.00  0.00    -0.246 OA
BRANCH  32  34
ATOM     34  C   UNL A   1      42.436  20.963  26.406  1.00  0.00     0.060 A 
ATOM     35  C   UNL A   1      42.645  21.343  27.741  1.00  0.00     0.016 A 
ATOM     36  C   UNL A   1      42.790  21.832  25.370  1.00  0.00     0.016 A 
ATOM     37  C   UNL A   1      43.146  22.610  28.047  1.00  0.00     0.010 A 
ATOM     38  C   UNL A   1      43.273  23.112  25.679  1.00  0.00     0.010 A 
ATOM     39  C   UNL A   1      43.409  23.524  27.019  1.00  0.00    -0.014 A 
BRANCH  39  40
ATOM     40  C   UNL A   1      43.581  24.964  27.350  1.00  0.00     0.031 A 
ATOM     41  C   UNL A   1      44.947  25.575  27.159  1.00  0.00     0.074 A 
ATOM     42  C   UNL A   1      42.567  25.728  27.794  1.00  0.00     0.049 A 
ATOM     43  N   UNL A   1      45.351  26.796  27.387  1.00  0.00    -0.248 NA
ATOM     44  C   UNL A   1      45.997  24.681  26.638  1.00  0.00     0.031 C 
ATOM     45  C   UNL A   1      41.195  25.276  28.012  1.00  0.00     0.029 A 
ATOM     46  N   UNL A   1      42.548  27.053  28.163  1.00  0.00    -0.354 N 
ATOM     47  C   UNL A   1      46.705  26.812  27.068  1.00  0.00     0.074 A 
ATOM     48  C   UNL A   1      47.056  25.476  26.641  1.00  0.00     0.031 C 
ATOM     49  C   UNL A   1      40.474  26.299  28.508  1.00  0.00     0.029 A 
ATOM     50  C   UNL A   1      41.335  27.472  28.659  1.00  0.00     0.049 A 
ATOM     51  H   UNL A   1      43.329  27.645  28.079  1.00  0.00     0.167 HD
ATOM     52  C   UNL A   1      47.579  27.846  27.110  1.00  0.00     0.034 A 
ATOM     53  C   UNL A   1      40.970  28.657  29.190  1.00  0.00     0.034 A 
ATOM     54  C   UNL A   1      47.237  29.180  27.518  1.00  0.00     0.049 A 
ATOM     55  C   UNL A   1      41.971  29.786  29.256  1.00  0.00     0.074 A 
ATOM     56  C   UNL A   1      48.047  30.302  27.552  1.00  0.00     0.029 A 
ATOM     57  N   UNL A   1      45.991  29.572  27.978  1.00  0.00    -0.354 N 
ATOM     58  N   UNL A   1      43.213  29.818  28.836  1.00  0.00    -0.248 NA
ATOM     59  C   UNL A   1      41.507  31.055  29.840  1.00  0.00     0.031 C 
ATOM     60  C   UNL A   1      47.296  31.367  28.061  1.00  0.00     0.029 A 
ATOM     61  C   UNL A   1      46.011  30.916  28.311  1.00  0.00     0.049 A 
ATOM     62  H   UNL A   1      45.207  28.982  28.056  1.00  0.00     0.167 HD
ATOM     63  C   UNL A   1      43.664  31.115  29.066  1.00  0.00     0.074 A 
ATOM     64  C   UNL A   1      42.556  31.845  29.646  1.00  0.00     0.031 C 
ATOM     65  C   UNL A   1      44.887  31.651  28.830  1.00  0.00     0.034 A 
BRANCH  52  66
ATOM     66  C   UNL A   1      48.996  27.574  26.679  1.00  0.00     0.023 A 
ATOM     67  C   UNL A   1      49.925  27.073  27.614  1.00  0.00     0.012 A 
ATOM     68  C   UNL A   1      49.394  27.771  25.343  1.00  0.00     0.148 A 
ATOM     69  C   UNL A   1      51.238  26.802  27.231  1.00  0.00     0.002 A 
ATOM     70  C   UNL A   1      50.691  27.456  24.960  1.00  0.00     0.091 A 
ATOM     71  F   UNL A   1      48.501  28.272  24.477  1.00  0.00    -0.205 F 
ATOM     72  C   UNL A   1      51.617  26.984  25.904  1.00  0.00     0.022 A 
BRANCH  70  73
ATOM     73  S   UNL A   1      51.254  27.582  23.259  1.00  0.00     0.127 S 
ATOM     74  O   UNL A   1      52.707  27.575  23.428  1.00  0.00    -0.237 OA
ATOM     75  O   UNL A   1      50.703  26.364  22.662  1.00  0.00    -0.237 OA
ATOM     76  O   UNL A   1      50.691  28.820  22.740  1.00  0.00    -0.744 OA
ENDBRANCH  70  73
ENDBRANCH  52  66
BRANCH  53  77
ATOM     77  C   UNL A   1      39.578  28.862  29.684  1.00  0.00     0.023 A 
ATOM     78  C   UNL A   1      39.242  28.484  30.999  1.00  0.00     0.012 A 
ATOM     79  C   UNL A   1      38.584  29.417  28.856  1.00  0.00     0.148 A 
ATOM     80  C   UNL A   1      37.935  28.623  31.469  1.00  0.00     0.002 A 
ATOM     81  C   UNL A   1      37.297  29.604  29.347  1.00  0.00     0.091 A 
ATOM     82  F   UNL A   1      38.917  29.751  27.601  1.00  0.00    -0.205 F 
ATOM     83  C   UNL A   1      36.965  29.191  30.647  1.00  0.00     0.022 A 
BRANCH  81  84
ATOM     84  S   UNL A   1      36.014  30.434  28.403  1.00  0.00     0.127 S 
ATOM     85  O   UNL A   1      35.467  29.336  27.610  1.00  0.00    -0.237 OA
ATOM     86  O   UNL A   1      35.134  30.926  29.464  1.00  0.00    -0.237 OA
ATOM     87  O   UNL A   1      36.696  31.480  27.652  1.00  0.00    -0.744 OA
ENDBRANCH  81  84
ENDBRANCH  53  77
BRANCH  65  88
ATOM     88  C   UNL A   1      45.096  33.110  29.149  1.00  0.00     0.023 A 
ATOM     89  C   UNL A   1      45.606  33.492  30.405  1.00  0.00     0.012 A 
ATOM     90  C   UNL A   1      44.864  34.098  28.170  1.00  0.00     0.148 A 
ATOM     91  C   UNL A   1      45.848  34.836  30.694  1.00  0.00     0.002 A 
ATOM     92  C   UNL A   1      45.154  35.430  28.448  1.00  0.00     0.091 A 
ATOM     93  F   UNL A   1      44.362  33.719  26.985  1.00  0.00    -0.205 F 
ATOM     94  C   UNL A   1      45.634  35.801  29.714  1.00  0.00     0.022 A 
BRANCH  92  95
ATOM     95  S   UNL A   1      45.003  36.726  27.213  1.00  0.00     0.127 S 
ATOM     96  O   UNL A   1      45.925  36.260  26.178  1.00  0.00    -0.237 OA
ATOM     97  O   UNL A   1      43.588  36.648  26.849  1.00  0.00    -0.237 OA
ATOM     98  O   UNL A   1      45.387  37.963  27.882  1.00  0.00    -0.744 OA
ENDBRANCH  92  95
ENDBRANCH  65  88
ENDBRANCH  39  40
ENDBRANCH  32  34
ENDBRANCH  31  32
ENDBRANCH  30  31
ENDBRANCH  29  30
ENDBRANCH  28  29
ENDBRANCH  27  28
ENDBRANCH   1  27
TORSDOF 25
ENDMDL
MODEL 3
REMARK VINA RESULT:      -9.5      1.904      2.294
REMARK SMILES O=C(CS(=O)(=O)NCc1ccc(N2CCOCC2)nc1)OCCOCCOCCOC(=O)c1ccc(-c2c3nc(c(-c4cccc(S(=O)(=O)[O-])c4F)c4ccc([nH]4)c(-c4cccc(S(=O)(=O)[O-])c4F)c4nc(c(-c5cccc(S(=O)(=O)[O-])c5F)c5ccc2[nH]5)C=C4)C=C3)cc1
REMARK SMILES IDX 25 1 24 2 23 3 22 4 21 5 2 6 1 7 3 8 4 9 5 10 6 11 7 12 8 14
REMARK SMILES IDX 9 15 10 16 20 17 11 18 19 19 12 20 13 21 14 22 18 23 15 24
REMARK SMILES IDX 17 25 16 26 26 27 27 28 28 29 29 30 30 31 31 32 32 33 33 34
REMARK SMILES IDX 34 35 95 36 35 37 94 38 36 39 37 40 38 41 88 42 39 43 93 44
REMARK SMILES IDX 87 45 89 46 40 47 92 48 86 49 85 50 41 52 73 53 53 54 72 55
REMARK SMILES IDX 54 56 57 57 71 58 90 59 55 60 56 61 70 63 91 64 58 65 42 66
REMARK SMILES IDX 43 67 51 68 44 69 46 70 52 71 45 72 47 73 48 74 49 75 50 76
REMARK SMILES IDX 74 77 75 78 83 79 76 80 78 81 84 82 77 83 79 84 80 85 81 86
REMARK SMILES IDX 82 87 59 88 60 89 68 90 61 91 63 92 69 93 62 94 64 95 65 96
REMARK SMILES IDX 66 97 67 98
REMARK H PARENT 7 13 89 51 57 62
REMARK Flexibility Score: inf
ROOT
ATOM      1  C   UNL A   1      34.109  31.019  28.138  1.00  0.00     0.188 C 
ENDROOT
BRANCH   1   2
ATOM      2  O   UNL A   1      34.080  30.134  27.035  1.00  0.00    -0.376 OA
BRANCH   2   3
ATOM      3  C   UNL A   1      33.208  30.439  25.963  1.00  0.00     0.202 C 
BRANCH   3   4
ATOM      4  C   UNL A   1      32.583  29.223  25.303  1.00  0.00     0.261 C 
BRANCH   4   5
ATOM      5  O   UNL A   1      31.427  28.643  25.965  1.00  0.00    -0.462 OA
BRANCH   5   6
ATOM      6  C   UNL A   1      31.274  27.697  26.906  1.00  0.00     0.322 C 
ATOM      7  O   UNL A   1      31.717  27.939  28.032  1.00  0.00    -0.251 OA
BRANCH   6   8
ATOM      8  C   UNL A   1      30.708  26.360  26.620  1.00  0.00     0.276 C 
BRANCH   8   9
ATOM      9  S   UNL A   1      31.876  25.230  25.951  1.00  0.00     0.222 S 
ATOM     10  O   UNL A   1      33.177  25.849  25.916  1.00  0.00    -0.212 OA
ATOM     11  O   UNL A   1      31.705  23.984  26.668  1.00  0.00    -0.212 OA
BRANCH   9  12
ATOM     12  N   UNL A   1      31.379  24.884  24.412  1.00  0.00    -0.210 NA
ATOM     13  H   UNL A   1      30.359  24.887  24.457  1.00  0.00     0.141 HD
BRANCH  12  14
ATOM     14  C   UNL A   1      31.706  25.632  23.205  1.00  0.00     0.135 C 
BRANCH  14  15
ATOM     15  C   UNL A   1      30.858  26.835  22.933  1.00  0.00    -0.015 A 
ATOM     16  C   UNL A   1      29.550  26.930  23.403  1.00  0.00     0.010 A 
ATOM     17  C   UNL A   1      31.356  27.927  22.230  1.00  0.00     0.118 A 
ATOM     18  C   UNL A   1      28.851  28.117  23.227  1.00  0.00     0.047 A 
ATOM     19  N   UNL A   1      30.671  29.073  22.004  1.00  0.00    -0.239 NA
ATOM     20  C   UNL A   1      29.443  29.171  22.538  1.00  0.00     0.128 A 
BRANCH  20  21
ATOM     21  N   UNL A   1      28.731  30.324  22.380  1.00  0.00    -0.352 N 
ATOM     22  C   UNL A   1      27.942  30.576  21.186  1.00  0.00     0.146 C 
ATOM     23  C   UNL A   1      28.506  31.202  23.509  1.00  0.00     0.146 C 
ATOM     24  C   UNL A   1      28.154  32.050  20.788  1.00  0.00     0.181 C 
ATOM     25  C   UNL A   1      28.746  32.638  23.015  1.00  0.00     0.181 C 
ATOM     26  O   UNL A   1      27.904  32.954  21.886  1.00  0.00    -0.378 OA
ENDBRANCH  20  21
ENDBRANCH  14  15
ENDBRANCH  12  14
ENDBRANCH   9  12
ENDBRANCH   8   9
ENDBRANCH   6   8
ENDBRANCH   5   6
ENDBRANCH   4   5
ENDBRANCH   3   4
ENDBRANCH   2   3
ENDBRANCH   1   2
BRANCH   1  27
ATOM     27  C   UNL A   1      35.083  32.209  28.008  1.00  0.00     0.188 C 
BRANCH  27  28
ATOM     28  O   UNL A   1      34.617  33.498  27.627  1.00  0.00    -0.376 OA
BRANCH  28  29
ATOM     29  C   UNL A   1      33.292  33.900  27.940  1.00  0.00     0.202 C 
BRANCH  29  30
ATOM     30  C   UNL A   1      33.088  35.171  28.778  1.00  0.00     0.261 C 
BRANCH  30  31
ATOM     31  O   UNL A   1      32.550  34.951  30.093  1.00  0.00    -0.460 OA
BRANCH  31  32
ATOM     32  C   UNL A   1      33.368  35.270  31.128  1.00  0.00     0.338 C 
ATOM     33  O   UNL A   1      33.131  36.063  32.026  1.00  0.00    -0.246 OA
BRANCH  32  34
ATOM     34  C   UNL A   1      34.549  34.372  31.151  1.00  0.00     0.060 A 
ATOM     35  C   UNL A   1      34.376  33.081  31.671  1.00  0.00     0.016 A 
ATOM     36  C   UNL A   1      35.805  34.775  30.689  1.00  0.00     0.016 A 
ATOM     37  C   UNL A   1      35.463  32.213  31.792  1.00  0.00     0.010 A 
ATOM     38  C   UNL A   1      36.901  33.912  30.830  1.00  0.00     0.010 A 
ATOM     39  C   UNL A   1      36.745  32.644  31.425  1.00  0.00    -0.014 A 
BRANCH  39  40
ATOM     40  C   UNL A   1      37.932  31.879  31.889  1.00  0.00     0.031 A 
ATOM     41  C   UNL A   1      38.537  32.251  33.220  1.00  0.00     0.074 A 
ATOM     42  C   UNL A   1      38.463  30.871  31.175  1.00  0.00     0.049 A 
ATOM     43  N   UNL A   1      39.575  31.745  33.832  1.00  0.00    -0.248 NA
ATOM     44  C   UNL A   1      37.878  33.344  33.957  1.00  0.00     0.031 C 
ATOM     45  C   UNL A   1      37.976  30.395  29.883  1.00  0.00     0.029 A 
ATOM     46  N   UNL A   1      39.556  30.076  31.436  1.00  0.00    -0.354 N 
ATOM     47  C   UNL A   1      39.712  32.474  35.009  1.00  0.00     0.074 A 
ATOM     48  C   UNL A   1      38.659  33.464  35.019  1.00  0.00     0.031 C 
ATOM     49  C   UNL A   1      38.785  29.412  29.447  1.00  0.00     0.029 A 
ATOM     50  C   UNL A   1      39.858  29.200  30.420  1.00  0.00     0.049 A 
ATOM     51  H   UNL A   1      40.073  30.131  32.272  1.00  0.00     0.167 HD
ATOM     52  C   UNL A   1      40.620  32.327  36.002  1.00  0.00     0.034 A 
ATOM     53  C   UNL A   1      40.890  28.342  30.283  1.00  0.00     0.034 A 
ATOM     54  C   UNL A   1      41.662  31.337  36.008  1.00  0.00     0.049 A 
ATOM     55  C   UNL A   1      41.910  28.218  31.390  1.00  0.00     0.074 A 
ATOM     56  C   UNL A   1      42.603  31.087  36.991  1.00  0.00     0.029 A 
ATOM     57  N   UNL A   1      41.911  30.445  34.979  1.00  0.00    -0.354 N 
ATOM     58  N   UNL A   1      41.953  28.829  32.549  1.00  0.00    -0.248 NA
ATOM     59  C   UNL A   1      43.007  27.258  31.182  1.00  0.00     0.031 C 
ATOM     60  C   UNL A   1      43.440  30.060  36.543  1.00  0.00     0.029 A 
ATOM     61  C   UNL A   1      42.999  29.650  35.296  1.00  0.00     0.049 A 
ATOM     62  H   UNL A   1      41.391  30.385  34.145  1.00  0.00     0.167 HD
ATOM     63  C   UNL A   1      43.052  28.301  33.222  1.00  0.00     0.074 A 
ATOM     64  C   UNL A   1      43.637  27.306  32.349  1.00  0.00     0.031 C 
ATOM     65  C   UNL A   1      43.539  28.619  34.447  1.00  0.00     0.034 A 
BRANCH  52  66
ATOM     66  C   UNL A   1      40.513  33.255  37.183  1.00  0.00     0.023 A 
ATOM     67  C   UNL A   1      41.284  34.435  37.216  1.00  0.00     0.012 A 
ATOM     68  C   UNL A   1      39.618  32.981  38.235  1.00  0.00     0.148 A 
ATOM     69  C   UNL A   1      41.189  35.313  38.295  1.00  0.00     0.002 A 
ATOM     70  C   UNL A   1      39.496  33.884  39.284  1.00  0.00     0.091 A 
ATOM     71  F   UNL A   1      38.914  31.842  38.196  1.00  0.00    -0.205 F 
ATOM     72  C   UNL A   1      40.288  35.043  39.322  1.00  0.00     0.022 A 
BRANCH  70  73
ATOM     73  S   UNL A   1      38.309  33.665  40.615  1.00  0.00     0.127 S 
ATOM     74  O   UNL A   1      38.887  32.535  41.341  1.00  0.00    -0.237 OA
ATOM     75  O   UNL A   1      38.392  34.948  41.315  1.00  0.00    -0.237 OA
ATOM     76  O   UNL A   1      37.028  33.407  39.972  1.00  0.00    -0.744 OA
ENDBRANCH  70  73
ENDBRANCH  52  66
BRANCH  53  77
ATOM     77  C   UNL A   1      41.009  27.499  29.059  1.00  0.00     0.023 A 
ATOM     78  C   UNL A   1      40.306  26.280  28.981  1.00  0.00     0.012 A 
ATOM     79  C   UNL A   1      41.821  27.891  27.978  1.00  0.00     0.148 A 
ATOM     80  C   UNL A   1      40.438  25.451  27.865  1.00  0.00     0.002 A 
ATOM     81  C   UNL A   1      41.905  27.088  26.846  1.00  0.00     0.091 A 
ATOM     82  F   UNL A   1      42.498  29.043  28.078  1.00  0.00    -0.205 F 
ATOM     83  C   UNL A   1      41.228  25.859  26.795  1.00  0.00     0.022 A 
BRANCH  81  84
ATOM     84  S   UNL A   1      42.804  27.587  25.373  1.00  0.00     0.127 S 
ATOM     85  O   UNL A   1      42.731  26.378  24.555  1.00  0.00    -0.237 OA
ATOM     86  O   UNL A   1      41.992  28.706  24.893  1.00  0.00    -0.237 OA
ATOM     87  O   UNL A   1      44.134  27.961  25.834  1.00  0.00    -0.744 OA
ENDBRANCH  81  84
ENDBRANCH  53  77
BRANCH  65  88
ATOM     88  C   UNL A   1      44.739  27.858  34.952  1.00  0.00     0.023 A 
ATOM     89  C   UNL A   1      44.563  26.670  35.689  1.00  0.00     0.012 A 
ATOM     90  C   UNL A   1      46.045  28.277  34.624  1.00  0.00     0.148 A 
ATOM     91  C   UNL A   1      45.666  25.932  36.120  1.00  0.00     0.002 A 
ATOM     92  C   UNL A   1      47.137  27.510  35.014  1.00  0.00     0.091 A 
ATOM     93  F   UNL A   1      46.196  29.419  33.936  1.00  0.00    -0.205 F 
ATOM     94  C   UNL A   1      46.949  26.344  35.773  1.00  0.00     0.022 A 
BRANCH  92  95
ATOM     95  S   UNL A   1      48.820  27.912  34.527  1.00  0.00     0.127 S 
ATOM     96  O   UNL A   1      49.583  26.860  35.197  1.00  0.00    -0.237 OA
ATOM     97  O   UNL A   1      48.761  27.789  33.070  1.00  0.00    -0.237 OA
ATOM     98  O   UNL A   1      49.063  29.266  35.009  1.00  0.00    -0.744 OA
ENDBRANCH  92  95
ENDBRANCH  65  88
ENDBRANCH  39  40
ENDBRANCH  32  34
ENDBRANCH  31  32
ENDBRANCH  30  31
ENDBRANCH  29  30
ENDBRANCH  28  29
ENDBRANCH  27  28
ENDBRANCH   1  27
TORSDOF 25
ENDMDL
