MODEL 1
REMARK VINA RESULT:     -10.6      0.000      0.000
REMARK SMILES O=C(OCCOCCOCCOC(=O)[C@H]1C[C@@H]2CCCC[C@H]2N1C(=O)CN1CSCC1=O)c1ccc(-c2c3nc(c(-c4cccc(S(=O)(=O)[O-])c4F)c4ccc([nH]4)c(-c4cccc(S(=O)(=O)[O-])c4F)c4nc(c(-c5cccc(S(=O)(=O)[O-])c5F)c5ccc2[nH]5)C=C4)C=C3)cc1
REMARK SMILES IDX 7 1 6 2 5 3 4 4 3 5 2 6 1 7 33 8 34 9 95 10 35 11 94 12
REMARK SMILES IDX 36 13 37 14 38 15 88 16 39 17 93 18 87 19 89 20 40 21 92 22
REMARK SMILES IDX 86 23 85 24 41 26 73 27 53 28 72 29 54 30 57 31 71 32 90 33
REMARK SMILES IDX 55 34 56 35 70 37 91 38 58 39 42 40 43 41 51 42 44 43 46 44
REMARK SMILES IDX 52 45 45 46 47 47 48 48 49 49 50 50 74 51 75 52 83 53 76 54
REMARK SMILES IDX 78 55 84 56 77 57 79 58 80 59 81 60 82 61 59 62 60 63 68 64
REMARK SMILES IDX 61 65 63 66 69 67 62 68 64 69 65 70 66 71 67 72 8 73 9 74
REMARK SMILES IDX 10 75 11 76 12 77 13 78 14 79 15 80 16 81 23 82 17 83 22 84
REMARK SMILES IDX 18 85 21 86 19 87 20 88 24 89 25 90 26 91 27 92 28 93 31 94
REMARK SMILES IDX 29 95 30 96 32 97
REMARK H PARENT 89 25 57 36
REMARK Flexibility Score: inf
ROOT
ATOM      1  C   UNL A   1      32.199  29.315  26.499  1.00  0.00     0.188 C 
ENDROOT
BRANCH   1   2
ATOM      2  O   UNL A   1      32.531  30.620  26.977  1.00  0.00    -0.376 OA
BRANCH   2   3
ATOM      3  C   UNL A   1      31.481  31.582  26.842  1.00  0.00     0.202 C 
BRANCH   3   4
ATOM      4  C   UNL A   1      31.925  33.050  26.707  1.00  0.00     0.261 C 
BRANCH   4   5
ATOM      5  O   UNL A   1      32.230  33.691  27.957  1.00  0.00    -0.460 OA
BRANCH   5   6
ATOM      6  C   UNL A   1      33.386  34.282  28.356  1.00  0.00     0.338 C 
ATOM      7  O   UNL A   1      33.479  35.504  28.247  1.00  0.00    -0.246 OA
BRANCH   6   8
ATOM      8  C   UNL A   1      34.561  33.532  28.903  1.00  0.00     0.060 A 
ATOM      9  C   UNL A   1      34.477  32.436  29.760  1.00  0.00     0.016 A 
ATOM     10  C   UNL A   1      35.843  33.921  28.480  1.00  0.00     0.016 A 
ATOM     11  C   UNL A   1      35.600  31.803  30.268  1.00  0.00     0.010 A 
ATOM     12  C   UNL A   1      36.985  33.251  28.940  1.00  0.00     0.010 A 
ATOM     13  C   UNL A   1      36.865  32.204  29.868  1.00  0.00    -0.014 A 
BRANCH  13  14
ATOM     14  C   UNL A   1      38.035  31.632  30.562  1.00  0.00     0.031 A 
ATOM     15  C   UNL A   1      38.770  30.518  29.884  1.00  0.00     0.074 A 
ATOM     16  C   UNL A   1      38.527  32.178  31.692  1.00  0.00     0.049 A 
ATOM     17  N   UNL A   1      39.798  29.842  30.310  1.00  0.00    -0.248 NA
ATOM     18  C   UNL A   1      38.346  30.174  28.513  1.00  0.00     0.031 C 
ATOM     19  C   UNL A   1      38.094  33.441  32.284  1.00  0.00     0.029 A 
ATOM     20  N   UNL A   1      39.492  31.735  32.561  1.00  0.00    -0.354 N 
ATOM     21  C   UNL A   1      40.149  29.003  29.265  1.00  0.00     0.074 A 
ATOM     22  C   UNL A   1      39.213  29.229  28.189  1.00  0.00     0.031 C 
ATOM     23  C   UNL A   1      38.702  33.608  33.470  1.00  0.00     0.029 A 
ATOM     24  C   UNL A   1      39.507  32.438  33.749  1.00  0.00     0.049 A 
ATOM     25  H   UNL A   1      40.109  30.994  32.360  1.00  0.00     0.167 HD
ATOM     26  C   UNL A   1      41.185  28.139  29.213  1.00  0.00     0.034 A 
ATOM     27  C   UNL A   1      40.058  32.121  34.935  1.00  0.00     0.034 A 
ATOM     28  C   UNL A   1      42.089  27.932  30.309  1.00  0.00     0.049 A 
ATOM     29  C   UNL A   1      41.027  30.985  34.939  1.00  0.00     0.074 A 
ATOM     30  C   UNL A   1      43.172  27.078  30.383  1.00  0.00     0.029 A 
ATOM     31  N   UNL A   1      41.991  28.569  31.537  1.00  0.00    -0.354 N 
ATOM     32  N   UNL A   1      41.356  30.195  33.948  1.00  0.00    -0.248 NA
ATOM     33  C   UNL A   1      41.789  30.783  36.174  1.00  0.00     0.031 C 
ATOM     34  C   UNL A   1      43.691  27.155  31.679  1.00  0.00     0.029 A 
ATOM     35  C   UNL A   1      42.966  28.097  32.393  1.00  0.00     0.049 A 
ATOM     36  H   UNL A   1      41.323  29.256  31.766  1.00  0.00     0.167 HD
ATOM     37  C   UNL A   1      42.423  29.449  34.412  1.00  0.00     0.074 A 
ATOM     38  C   UNL A   1      42.663  29.869  35.781  1.00  0.00     0.031 C 
ATOM     39  C   UNL A   1      43.163  28.527  33.752  1.00  0.00     0.034 A 
BRANCH  26  40
ATOM     40  C   UNL A   1      41.353  27.334  27.960  1.00  0.00     0.023 A 
ATOM     41  C   UNL A   1      41.863  27.926  26.788  1.00  0.00     0.012 A 
ATOM     42  C   UNL A   1      41.018  25.967  27.961  1.00  0.00     0.148 A 
ATOM     43  C   UNL A   1      42.019  27.170  25.625  1.00  0.00     0.002 A 
ATOM     44  C   UNL A   1      41.217  25.212  26.815  1.00  0.00     0.091 A 
ATOM     45  F   UNL A   1      40.503  25.440  29.080  1.00  0.00    -0.205 F 
ATOM     46  C   UNL A   1      41.706  25.812  25.643  1.00  0.00     0.022 A 
BRANCH  44  47
ATOM     47  S   UNL A   1      40.901  23.447  26.757  1.00  0.00     0.127 S 
ATOM     48  O   UNL A   1      41.308  23.031  28.100  1.00  0.00    -0.237 OA
ATOM     49  O   UNL A   1      39.460  23.407  26.516  1.00  0.00    -0.237 OA
ATOM     50  O   UNL A   1      41.722  22.923  25.675  1.00  0.00    -0.744 OA
ENDBRANCH  44  47
ENDBRANCH  26  40
BRANCH  27  51
ATOM     51  C   UNL A   1      39.772  32.864  36.194  1.00  0.00     0.023 A 
ATOM     52  C   UNL A   1      40.442  34.067  36.472  1.00  0.00     0.012 A 
ATOM     53  C   UNL A   1      38.878  32.339  37.154  1.00  0.00     0.148 A 
ATOM     54  C   UNL A   1      40.224  34.737  37.679  1.00  0.00     0.002 A 
ATOM     55  C   UNL A   1      38.636  33.031  38.341  1.00  0.00     0.091 A 
ATOM     56  F   UNL A   1      38.274  31.171  36.889  1.00  0.00    -0.205 F 
ATOM     57  C   UNL A   1      39.315  34.228  38.605  1.00  0.00     0.022 A 
BRANCH  55  58
ATOM     58  S   UNL A   1      37.394  32.506  39.540  1.00  0.00     0.127 S 
ATOM     59  O   UNL A   1      37.246  33.701  40.363  1.00  0.00    -0.237 OA
ATOM     60  O   UNL A   1      36.245  32.203  38.683  1.00  0.00    -0.237 OA
ATOM     61  O   UNL A   1      37.961  31.340  40.203  1.00  0.00    -0.744 OA
ENDBRANCH  55  58
ENDBRANCH  27  51
BRANCH  39  62
ATOM     62  C   UNL A   1      44.311  27.938  34.509  1.00  0.00     0.023 A 
ATOM     63  C   UNL A   1      45.586  28.530  34.428  1.00  0.00     0.012 A 
ATOM     64  C   UNL A   1      44.109  26.810  35.324  1.00  0.00     0.148 A 
ATOM     65  C   UNL A   1      46.658  27.978  35.121  1.00  0.00     0.002 A 
ATOM     66  C   UNL A   1      45.167  26.305  36.062  1.00  0.00     0.091 A 
ATOM     67  F   UNL A   1      42.890  26.252  35.355  1.00  0.00    -0.205 F 
ATOM     68  C   UNL A   1      46.446  26.876  35.947  1.00  0.00     0.022 A 
BRANCH  66  69
ATOM     69  S   UNL A   1      44.960  24.963  37.232  1.00  0.00     0.127 S 
ATOM     70  O   UNL A   1      46.342  24.697  37.627  1.00  0.00    -0.237 OA
ATOM     71  O   UNL A   1      44.136  25.586  38.267  1.00  0.00    -0.237 OA
ATOM     72  O   UNL A   1      44.305  23.886  36.502  1.00  0.00    -0.744 OA
ENDBRANCH  66  69
ENDBRANCH  39  62
ENDBRANCH  13  14
ENDBRANCH   6   8
ENDBRANCH   5   6
ENDBRANCH   4   5
ENDBRANCH   3   4
ENDBRANCH   2   3
ENDBRANCH   1   2
BRANCH   1  73
ATOM     73  C   UNL A   1      31.617  28.389  27.570  1.00  0.00     0.188 C 
BRANCH  73  74
ATOM     74  O   UNL A   1      31.534  26.998  27.272  1.00  0.00    -0.376 OA
BRANCH  74  75
ATOM     75  C   UNL A   1      30.783  26.608  26.127  1.00  0.00     0.202 C 
BRANCH  75  76
ATOM     76  C   UNL A   1      30.213  25.177  26.047  1.00  0.00     0.261 C 
BRANCH  76  77
ATOM     77  O   UNL A   1      30.947  24.235  26.835  1.00  0.00    -0.462 OA
BRANCH  77  78
ATOM     78  C   UNL A   1      31.111  23.005  26.271  1.00  0.00     0.328 C 
ATOM     79  O   UNL A   1      30.249  22.133  26.259  1.00  0.00    -0.250 OA
BRANCH  78  80
ATOM     80  C   UNL A   1      32.492  22.911  25.597  1.00  0.00     0.195 C 
ATOM     81  C   UNL A   1      33.470  21.914  26.223  1.00  0.00     0.043 C 
ATOM     82  N   UNL A   1      32.309  22.479  24.214  1.00  0.00    -0.324 N 
ATOM     83  C   UNL A   1      33.180  20.654  25.435  1.00  0.00     0.014 C 
ATOM     84  C   UNL A   1      32.838  21.152  24.026  1.00  0.00     0.089 C 
ATOM     85  C   UNL A   1      34.272  19.614  25.256  1.00  0.00     0.006 C 
ATOM     86  C   UNL A   1      31.958  20.068  23.424  1.00  0.00     0.025 C 
ATOM     87  C   UNL A   1      33.687  18.456  24.439  1.00  0.00     0.000 C 
ATOM     88  C   UNL A   1      32.853  18.842  23.206  1.00  0.00     0.002 C 
BRANCH  82  89
ATOM     89  C   UNL A   1      31.939  23.416  23.274  1.00  0.00     0.243 C 
ATOM     90  O   UNL A   1      30.743  23.628  23.039  1.00  0.00    -0.273 OA
BRANCH  89  91
ATOM     91  C   UNL A   1      33.010  24.103  22.413  1.00  0.00     0.220 C 
BRANCH  91  92
ATOM     92  N   UNL A   1      33.198  25.524  22.666  1.00  0.00    -0.323 N 
ATOM     93  C   UNL A   1      33.663  25.981  23.949  1.00  0.00     0.190 C 
ATOM     94  C   UNL A   1      33.331  26.413  21.610  1.00  0.00     0.233 C 
ATOM     95  S   UNL A   1      33.865  27.760  23.851  1.00  0.00    -0.130 SA
ATOM     96  C   UNL A   1      33.527  27.833  22.084  1.00  0.00     0.171 C 
ATOM     97  O   UNL A   1      33.249  26.107  20.431  1.00  0.00    -0.274 OA
ENDBRANCH  91  92
ENDBRANCH  89  91
ENDBRANCH  82  89
ENDBRANCH  78  80
ENDBRANCH  77  78
ENDBRANCH  76  77
ENDBRANCH  75  76
ENDBRANCH  74  75
ENDBRANCH  73  74
ENDBRANCH   1  73
TORSDOF 23
ENDMDL
MODEL 2
REMARK VINA RESULT:     -10.5      1.813      7.817
REMARK SMILES O=C(OCCOCCOCCOC(=O)[C@H]1C[C@@H]2CCCC[C@H]2N1C(=O)CN1CSCC1=O)c1ccc(-c2c3nc(c(-c4cccc(S(=O)(=O)[O-])c4F)c4ccc([nH]4)c(-c4cccc(S(=O)(=O)[O-])c4F)c4nc(c(-c5cccc(S(=O)(=O)[O-])c5F)c5ccc2[nH]5)C=C4)C=C3)cc1
REMARK SMILES IDX 7 1 6 2 5 3 4 4 3 5 2 6 1 7 33 8 34 9 95 10 35 11 94 12
REMARK SMILES IDX 36 13 37 14 38 15 88 16 39 17 93 18 87 19 89 20 40 21 92 22
REMARK SMILES IDX 86 23 85 24 41 26 73 27 53 28 72 29 54 30 57 31 71 32 90 33
REMARK SMILES IDX 55 34 56 35 70 37 91 38 58 39 42 40 43 41 51 42 44 43 46 44
REMARK SMILES IDX 52 45 45 46 47 47 48 48 49 49 50 50 74 51 75 52 83 53 76 54
REMARK SMILES IDX 78 55 84 56 77 57 79 58 80 59 81 60 82 61 59 62 60 63 68 64
REMARK SMILES IDX 61 65 63 66 69 67 62 68 64 69 65 70 66 71 67 72 8 73 9 74
REMARK SMILES IDX 10 75 11 76 12 77 13 78 14 79 15 80 16 81 23 82 17 83 22 84
REMARK SMILES IDX 18 85 21 86 19 87 20 88 24 89 25 90 26 91 27 92 28 93 31 94
REMARK SMILES IDX 29 95 30 96 32 97
REMARK H PARENT 89 25 57 36
REMARK Flexibility Score: inf
ROOT
ATOM      1  C   UNL A   1      32.182  28.952  23.838  1.00  0.00     0.188 C 
ENDROOT
BRANCH   1   2
ATOM      2  O   UNL A   1      32.624  29.244  25.165  1.00  0.00    -0.376 OA
BRANCH   2   3
ATOM      3  C   UNL A   1      31.910  30.305  25.804  1.00  0.00     0.202 C 
BRANCH   3   4
ATOM      4  C   UNL A   1      32.553  30.876  27.081  1.00  0.00     0.261 C 
BRANCH   4   5
ATOM      5  O   UNL A   1      32.622  32.313  27.115  1.00  0.00    -0.460 OA
BRANCH   5   6
ATOM      6  C   UNL A   1      33.434  33.113  27.853  1.00  0.00     0.338 C 
ATOM      7  O   UNL A   1      33.147  34.305  27.941  1.00  0.00    -0.246 OA
BRANCH   6   8
ATOM      8  C   UNL A   1      34.669  32.632  28.551  1.00  0.00     0.060 A 
ATOM      9  C   UNL A   1      35.954  32.672  28.014  1.00  0.00     0.016 A 
ATOM     10  C   UNL A   1      34.536  32.156  29.866  1.00  0.00     0.016 A 
ATOM     11  C   UNL A   1      37.057  32.175  28.690  1.00  0.00     0.010 A 
ATOM     12  C   UNL A   1      35.653  31.706  30.584  1.00  0.00     0.010 A 
ATOM     13  C   UNL A   1      36.920  31.684  29.979  1.00  0.00    -0.014 A 
BRANCH  13  14
ATOM     14  C   UNL A   1      38.073  31.002  30.597  1.00  0.00     0.031 A 
ATOM     15  C   UNL A   1      38.497  31.450  31.961  1.00  0.00     0.074 A 
ATOM     16  C   UNL A   1      38.641  29.917  30.034  1.00  0.00     0.049 A 
ATOM     17  N   UNL A   1      39.493  31.026  32.685  1.00  0.00    -0.248 NA
ATOM     18  C   UNL A   1      37.640  32.445  32.634  1.00  0.00     0.031 C 
ATOM     19  C   UNL A   1      38.131  29.199  28.869  1.00  0.00     0.029 A 
ATOM     20  N   UNL A   1      39.786  29.231  30.353  1.00  0.00    -0.354 N 
ATOM     21  C   UNL A   1      39.382  31.691  33.895  1.00  0.00     0.074 A 
ATOM     22  C   UNL A   1      38.238  32.568  33.808  1.00  0.00     0.031 C 
ATOM     23  C   UNL A   1      39.016  28.256  28.505  1.00  0.00     0.029 A 
ATOM     24  C   UNL A   1      40.177  28.352  29.363  1.00  0.00     0.049 A 
ATOM     25  H   UNL A   1      40.277  29.352  31.198  1.00  0.00     0.167 HD
ATOM     26  C   UNL A   1      40.161  31.550  34.988  1.00  0.00     0.034 A 
ATOM     27  C   UNL A   1      41.366  27.756  29.156  1.00  0.00     0.034 A 
ATOM     28  C   UNL A   1      41.298  30.675  35.034  1.00  0.00     0.049 A 
ATOM     29  C   UNL A   1      42.348  27.816  30.279  1.00  0.00     0.074 A 
ATOM     30  C   UNL A   1      42.172  30.453  36.079  1.00  0.00     0.029 A 
ATOM     31  N   UNL A   1      41.734  29.902  33.968  1.00  0.00    -0.354 N 
ATOM     32  N   UNL A   1      42.238  28.445  31.422  1.00  0.00    -0.248 NA
ATOM     33  C   UNL A   1      43.547  26.986  30.141  1.00  0.00     0.031 C 
ATOM     34  C   UNL A   1      43.174  29.589  35.624  1.00  0.00     0.029 A 
ATOM     35  C   UNL A   1      42.892  29.232  34.314  1.00  0.00     0.049 A 
ATOM     36  H   UNL A   1      41.286  29.840  33.094  1.00  0.00     0.167 HD
ATOM     37  C   UNL A   1      43.315  28.026  32.178  1.00  0.00     0.074 A 
ATOM     38  C   UNL A   1      44.077  27.109  31.348  1.00  0.00     0.031 C 
ATOM     39  C   UNL A   1      43.627  28.341  33.457  1.00  0.00     0.034 A 
BRANCH  26  40
ATOM     40  C   UNL A   1      39.834  32.393  36.184  1.00  0.00     0.023 A 
ATOM     41  C   UNL A   1      40.508  33.609  36.413  1.00  0.00     0.012 A 
ATOM     42  C   UNL A   1      38.830  31.975  37.076  1.00  0.00     0.148 A 
ATOM     43  C   UNL A   1      40.198  34.389  37.527  1.00  0.00     0.002 A 
ATOM     44  C   UNL A   1      38.496  32.777  38.158  1.00  0.00     0.091 A 
ATOM     45  F   UNL A   1      38.230  30.797  36.853  1.00  0.00    -0.205 F 
ATOM     46  C   UNL A   1      39.185  33.978  38.393  1.00  0.00     0.022 A 
BRANCH  44  47
ATOM     47  S   UNL A   1      37.168  32.363  39.291  1.00  0.00     0.127 S 
ATOM     48  O   UNL A   1      37.395  33.321  40.373  1.00  0.00    -0.237 OA
ATOM     49  O   UNL A   1      35.984  32.629  38.476  1.00  0.00    -0.237 OA
ATOM     50  O   UNL A   1      37.365  30.966  39.654  1.00  0.00    -0.744 OA
ENDBRANCH  44  47
ENDBRANCH  26  40
BRANCH  27  51
ATOM     51  C   UNL A   1      41.709  27.032  27.900  1.00  0.00     0.023 A 
ATOM     52  C   UNL A   1      42.082  27.747  26.750  1.00  0.00     0.012 A 
ATOM     53  C   UNL A   1      41.601  25.624  27.828  1.00  0.00     0.148 A 
ATOM     54  C   UNL A   1      42.345  27.077  25.552  1.00  0.00     0.002 A 
ATOM     55  C   UNL A   1      41.901  24.957  26.640  1.00  0.00     0.091 A 
ATOM     56  F   UNL A   1      41.210  24.959  28.925  1.00  0.00    -0.205 F 
ATOM     57  C   UNL A   1      42.268  25.686  25.500  1.00  0.00     0.022 A 
BRANCH  55  58
ATOM     58  S   UNL A   1      41.939  23.157  26.515  1.00  0.00     0.127 S 
ATOM     59  O   UNL A   1      42.712  22.790  27.696  1.00  0.00    -0.237 OA
ATOM     60  O   UNL A   1      40.517  22.812  26.579  1.00  0.00    -0.237 OA
ATOM     61  O   UNL A   1      42.561  22.869  25.230  1.00  0.00    -0.744 OA
ENDBRANCH  55  58
ENDBRANCH  27  51
BRANCH  39  62
ATOM     62  C   UNL A   1      44.832  27.663  34.029  1.00  0.00     0.023 A 
ATOM     63  C   UNL A   1      46.097  28.273  33.932  1.00  0.00     0.012 A 
ATOM     64  C   UNL A   1      44.695  26.429  34.690  1.00  0.00     0.148 A 
ATOM     65  C   UNL A   1      47.220  27.639  34.452  1.00  0.00     0.002 A 
ATOM     66  C   UNL A   1      45.807  25.836  35.263  1.00  0.00     0.091 A 
ATOM     67  F   UNL A   1      43.481  25.861  34.739  1.00  0.00    -0.205 F 
ATOM     68  C   UNL A   1      47.074  26.429  35.128  1.00  0.00     0.022 A 
BRANCH  66  69
ATOM     69  S   UNL A   1      45.693  24.339  36.244  1.00  0.00     0.127 S 
ATOM     70  O   UNL A   1      47.087  24.130  36.631  1.00  0.00    -0.237 OA
ATOM     71  O   UNL A   1      44.810  24.757  37.333  1.00  0.00    -0.237 OA
ATOM     72  O   UNL A   1      45.132  23.321  35.366  1.00  0.00    -0.744 OA
ENDBRANCH  66  69
ENDBRANCH  39  62
ENDBRANCH  13  14
ENDBRANCH   6   8
ENDBRANCH   5   6
ENDBRANCH   4   5
ENDBRANCH   3   4
ENDBRANCH   2   3
ENDBRANCH   1   2
BRANCH   1  73
ATOM     73  C   UNL A   1      30.955  28.038  23.777  1.00  0.00     0.188 C 
BRANCH  73  74
ATOM     74  O   UNL A   1      31.152  26.645  24.008  1.00  0.00    -0.376 OA
BRANCH  74  75
ATOM     75  C   UNL A   1      30.239  25.980  24.875  1.00  0.00     0.202 C 
BRANCH  75  76
ATOM     76  C   UNL A   1      30.782  25.033  25.964  1.00  0.00     0.261 C 
BRANCH  76  77
ATOM     77  O   UNL A   1      30.772  23.658  25.569  1.00  0.00    -0.462 OA
BRANCH  77  78
ATOM     78  C   UNL A   1      31.962  23.006  25.694  1.00  0.00     0.328 C 
ATOM     79  O   UNL A   1      32.288  22.352  26.679  1.00  0.00    -0.250 OA
BRANCH  78  80
ATOM     80  C   UNL A   1      32.783  23.150  24.401  1.00  0.00     0.195 C 
ATOM     81  C   UNL A   1      33.968  24.116  24.470  1.00  0.00     0.043 C 
ATOM     82  N   UNL A   1      33.347  21.848  24.056  1.00  0.00    -0.324 N 
ATOM     83  C   UNL A   1      35.097  23.198  24.892  1.00  0.00     0.014 C 
ATOM     84  C   UNL A   1      34.780  21.862  24.209  1.00  0.00     0.089 C 
ATOM     85  C   UNL A   1      36.524  23.537  24.502  1.00  0.00     0.006 C 
ATOM     86  C   UNL A   1      35.457  20.806  25.068  1.00  0.00     0.025 C 
ATOM     87  C   UNL A   1      37.438  22.447  25.075  1.00  0.00     0.000 C 
ATOM     88  C   UNL A   1      36.969  20.994  24.891  1.00  0.00     0.002 C 
BRANCH  82  89
ATOM     89  C   UNL A   1      32.543  20.930  23.417  1.00  0.00     0.243 C 
ATOM     90  O   UNL A   1      32.110  21.161  22.281  1.00  0.00    -0.273 OA
BRANCH  89  91
ATOM     91  C   UNL A   1      32.065  19.676  24.165  1.00  0.00     0.220 C 
BRANCH  91  92
ATOM     92  N   UNL A   1      32.953  18.525  24.086  1.00  0.00    -0.323 N 
ATOM     93  C   UNL A   1      33.506  17.949  25.283  1.00  0.00     0.190 C 
ATOM     94  C   UNL A   1      32.966  17.725  22.954  1.00  0.00     0.233 C 
ATOM     95  S   UNL A   1      34.457  16.506  24.802  1.00  0.00    -0.130 SA
ATOM     96  C   UNL A   1      33.944  16.582  23.077  1.00  0.00     0.171 C 
ATOM     97  O   UNL A   1      32.308  17.936  21.947  1.00  0.00    -0.274 OA
ENDBRANCH  91  92
ENDBRANCH  89  91
ENDBRANCH  82  89
ENDBRANCH  78  80
ENDBRANCH  77  78
ENDBRANCH  76  77
ENDBRANCH  75  76
ENDBRANCH  74  75
ENDBRANCH  73  74
ENDBRANCH   1  73
TORSDOF 23
ENDMDL
MODEL 3
REMARK VINA RESULT:     -10.0      6.038     10.809
REMARK SMILES O=C(OCCOCCOCCOC(=O)[C@H]1C[C@@H]2CCCC[C@H]2N1C(=O)CN1CSCC1=O)c1ccc(-c2c3nc(c(-c4cccc(S(=O)(=O)[O-])c4F)c4ccc([nH]4)c(-c4cccc(S(=O)(=O)[O-])c4F)c4nc(c(-c5cccc(S(=O)(=O)[O-])c5F)c5ccc2[nH]5)C=C4)C=C3)cc1
REMARK SMILES IDX 7 1 6 2 5 3 4 4 3 5 2 6 1 7 33 8 34 9 95 10 35 11 94 12
REMARK SMILES IDX 36 13 37 14 38 15 88 16 39 17 93 18 87 19 89 20 40 21 92 22
REMARK SMILES IDX 86 23 85 24 41 26 73 27 53 28 72 29 54 30 57 31 71 32 90 33
REMARK SMILES IDX 55 34 56 35 70 37 91 38 58 39 42 40 43 41 51 42 44 43 46 44
REMARK SMILES IDX 52 45 45 46 47 47 48 48 49 49 50 50 74 51 75 52 83 53 76 54
REMARK SMILES IDX 78 55 84 56 77 57 79 58 80 59 81 60 82 61 59 62 60 63 68 64
REMARK SMILES IDX 61 65 63 66 69 67 62 68 64 69 65 70 66 71 67 72 8 73 9 74
REMARK SMILES IDX 10 75 11 76 12 77 13 78 14 79 15 80 16 81 23 82 17 83 22 84
REMARK SMILES IDX 18 85 21 86 19 87 20 88 24 89 25 90 26 91 27 92 28 93 31 94
REMARK SMILES IDX 29 95 30 96 32 97
REMARK H PARENT 89 25 57 36
REMARK Flexibility Score: inf
ROOT
ATOM      1  C   UNL A   1      36.841  23.269  25.482  1.00  0.00     0.188 C 
ENDROOT
BRANCH   1   2
ATOM      2  O   UNL A   1      38.093  22.673  25.135  1.00  0.00    -0.376 OA
BRANCH   2   3
ATOM      3  C   UNL A   1      38.553  21.686  26.062  1.00  0.00     0.202 C 
BRANCH   3   4
ATOM      4  C   UNL A   1      38.786  20.278  25.485  1.00  0.00     0.261 C 
BRANCH   4   5
ATOM      5  O   UNL A   1      40.169  19.890  25.417  1.00  0.00    -0.460 OA
BRANCH   5   6
ATOM      6  C   UNL A   1      41.129  19.975  26.374  1.00  0.00     0.338 C 
ATOM      7  O   UNL A   1      41.415  18.955  27.000  1.00  0.00    -0.246 OA
BRANCH   6   8
ATOM      8  C   UNL A   1      41.847  21.242  26.725  1.00  0.00     0.060 A 
ATOM      9  C   UNL A   1      42.089  21.687  28.023  1.00  0.00     0.016 A 
ATOM     10  C   UNL A   1      42.368  22.014  25.673  1.00  0.00     0.016 A 
ATOM     11  C   UNL A   1      42.724  22.889  28.290  1.00  0.00     0.010 A 
ATOM     12  C   UNL A   1      43.065  23.202  25.931  1.00  0.00     0.010 A 
ATOM     13  C   UNL A   1      43.216  23.661  27.250  1.00  0.00    -0.014 A 
BRANCH  13  14
ATOM     14  C   UNL A   1      43.724  25.012  27.557  1.00  0.00     0.031 A 
ATOM     15  C   UNL A   1      42.723  26.067  27.914  1.00  0.00     0.074 A 
ATOM     16  C   UNL A   1      45.043  25.267  27.663  1.00  0.00     0.049 A 
ATOM     17  N   UNL A   1      42.926  27.323  28.188  1.00  0.00    -0.248 NA
ATOM     18  C   UNL A   1      41.320  25.635  28.062  1.00  0.00     0.031 C 
ATOM     19  C   UNL A   1      46.107  24.267  27.643  1.00  0.00     0.029 A 
ATOM     20  N   UNL A   1      45.724  26.452  27.793  1.00  0.00    -0.354 N 
ATOM     21  C   UNL A   1      41.688  27.830  28.548  1.00  0.00     0.074 A 
ATOM     22  C   UNL A   1      40.727  26.758  28.435  1.00  0.00     0.031 C 
ATOM     23  C   UNL A   1      47.299  24.884  27.638  1.00  0.00     0.029 A 
ATOM     24  C   UNL A   1      47.082  26.314  27.583  1.00  0.00     0.049 A 
ATOM     25  H   UNL A   1      45.291  27.309  28.013  1.00  0.00     0.167 HD
ATOM     26  C   UNL A   1      41.397  29.081  28.961  1.00  0.00     0.034 A 
ATOM     27  C   UNL A   1      48.013  27.247  27.310  1.00  0.00     0.034 A 
ATOM     28  C   UNL A   1      42.377  30.126  29.050  1.00  0.00     0.049 A 
ATOM     29  C   UNL A   1      47.615  28.670  27.522  1.00  0.00     0.074 A 
ATOM     30  C   UNL A   1      42.206  31.437  29.445  1.00  0.00     0.029 A 
ATOM     31  N   UNL A   1      43.713  29.978  28.704  1.00  0.00    -0.354 N 
ATOM     32  N   UNL A   1      46.443  29.144  27.863  1.00  0.00    -0.248 NA
ATOM     33  C   UNL A   1      48.687  29.666  27.441  1.00  0.00     0.031 C 
ATOM     34  C   UNL A   1      43.426  32.099  29.280  1.00  0.00     0.029 A 
ATOM     35  C   UNL A   1      44.370  31.186  28.834  1.00  0.00     0.049 A 
ATOM     36  H   UNL A   1      44.131  29.137  28.408  1.00  0.00     0.167 HD
ATOM     37  C   UNL A   1      46.649  30.486  28.118  1.00  0.00     0.074 A 
ATOM     38  C   UNL A   1      48.055  30.749  27.865  1.00  0.00     0.031 C 
ATOM     39  C   UNL A   1      45.764  31.411  28.558  1.00  0.00     0.034 A 
BRANCH  26  40
ATOM     40  C   UNL A   1      39.968  29.386  29.294  1.00  0.00     0.023 A 
ATOM     41  C   UNL A   1      39.041  29.687  28.276  1.00  0.00     0.012 A 
ATOM     42  C   UNL A   1      39.542  29.351  30.634  1.00  0.00     0.148 A 
ATOM     43  C   UNL A   1      37.711  29.968  28.592  1.00  0.00     0.002 A 
ATOM     44  C   UNL A   1      38.209  29.588  30.937  1.00  0.00     0.091 A 
ATOM     45  F   UNL A   1      40.453  29.096  31.584  1.00  0.00    -0.205 F 
ATOM     46  C   UNL A   1      37.294  29.908  29.921  1.00  0.00     0.022 A 
BRANCH  44  47
ATOM     47  S   UNL A   1      37.566  29.473  32.608  1.00  0.00     0.127 S 
ATOM     48  O   UNL A   1      36.190  29.937  32.426  1.00  0.00    -0.237 OA
ATOM     49  O   UNL A   1      37.697  28.044  32.884  1.00  0.00    -0.237 OA
ATOM     50  O   UNL A   1      38.405  30.338  33.426  1.00  0.00    -0.744 OA
ENDBRANCH  44  47
ENDBRANCH  26  40
BRANCH  27  51
ATOM     51  C   UNL A   1      49.393  26.916  26.858  1.00  0.00     0.023 A 
ATOM     52  C   UNL A   1      49.635  26.573  25.517  1.00  0.00     0.012 A 
ATOM     53  C   UNL A   1      50.464  26.875  27.780  1.00  0.00     0.148 A 
ATOM     54  C   UNL A   1      50.916  26.202  25.099  1.00  0.00     0.002 A 
ATOM     55  C   UNL A   1      51.748  26.540  27.350  1.00  0.00     0.091 A 
ATOM     56  F   UNL A   1      50.210  27.170  29.063  1.00  0.00    -0.205 F 
ATOM     57  C   UNL A   1      51.972  26.198  26.009  1.00  0.00     0.022 A 
BRANCH  55  58
ATOM     58  S   UNL A   1      53.190  26.621  28.431  1.00  0.00     0.127 S 
ATOM     59  O   UNL A   1      53.455  28.054  28.473  1.00  0.00    -0.237 OA
ATOM     60  O   UNL A   1      52.673  26.055  29.680  1.00  0.00    -0.237 OA
ATOM     61  O   UNL A   1      54.207  25.802  27.786  1.00  0.00    -0.744 OA
ENDBRANCH  55  58
ENDBRANCH  27  51
BRANCH  39  62
ATOM     62  C   UNL A   1      46.311  32.780  28.812  1.00  0.00     0.023 A 
ATOM     63  C   UNL A   1      46.871  33.094  30.065  1.00  0.00     0.012 A 
ATOM     64  C   UNL A   1      46.294  33.744  27.788  1.00  0.00     0.148 A 
ATOM     65  C   UNL A   1      47.369  34.369  30.308  1.00  0.00     0.002 A 
ATOM     66  C   UNL A   1      46.851  34.991  28.016  1.00  0.00     0.091 A 
ATOM     67  F   UNL A   1      45.727  33.422  26.616  1.00  0.00    -0.205 F 
ATOM     68  C   UNL A   1      47.372  35.312  29.282  1.00  0.00     0.022 A 
BRANCH  66  69
ATOM     69  S   UNL A   1      46.997  36.223  26.723  1.00  0.00     0.127 S 
ATOM     70  O   UNL A   1      47.667  35.467  25.665  1.00  0.00    -0.237 OA
ATOM     71  O   UNL A   1      45.596  36.546  26.452  1.00  0.00    -0.237 OA
ATOM     72  O   UNL A   1      47.773  37.317  27.290  1.00  0.00    -0.744 OA
ENDBRANCH  66  69
ENDBRANCH  39  62
ENDBRANCH  13  14
ENDBRANCH   6   8
ENDBRANCH   5   6
ENDBRANCH   4   5
ENDBRANCH   3   4
ENDBRANCH   2   3
ENDBRANCH   1   2
BRANCH   1  73
ATOM     73  C   UNL A   1      35.693  22.266  25.625  1.00  0.00     0.188 C 
BRANCH  73  74
ATOM     74  O   UNL A   1      34.363  22.748  25.451  1.00  0.00    -0.376 OA
BRANCH  74  75
ATOM     75  C   UNL A   1      34.193  24.126  25.132  1.00  0.00     0.202 C 
BRANCH  75  76
ATOM     76  C   UNL A   1      33.486  24.516  23.818  1.00  0.00     0.261 C 
BRANCH  76  77
ATOM     77  O   UNL A   1      32.612  25.639  23.962  1.00  0.00    -0.462 OA
BRANCH  77  78
ATOM     78  C   UNL A   1      31.292  25.384  23.741  1.00  0.00     0.328 C 
ATOM     79  O   UNL A   1      30.876  24.463  23.046  1.00  0.00    -0.250 OA
BRANCH  78  80
ATOM     80  C   UNL A   1      30.421  26.365  24.546  1.00  0.00     0.195 C 
ATOM     81  C   UNL A   1      30.638  26.359  26.061  1.00  0.00     0.043 C 
ATOM     82  N   UNL A   1      30.716  27.725  24.104  1.00  0.00    -0.324 N 
ATOM     83  C   UNL A   1      31.704  27.422  26.229  1.00  0.00     0.014 C 
ATOM     84  C   UNL A   1      31.382  28.461  25.148  1.00  0.00     0.089 C 
ATOM     85  C   UNL A   1      31.795  28.191  27.534  1.00  0.00     0.006 C 
ATOM     86  C   UNL A   1      32.704  29.154  24.858  1.00  0.00     0.025 C 
ATOM     87  C   UNL A   1      32.964  29.177  27.417  1.00  0.00     0.000 C 
ATOM     88  C   UNL A   1      33.058  29.973  26.105  1.00  0.00     0.002 C 
BRANCH  82  89
ATOM     89  C   UNL A   1      30.126  28.185  22.947  1.00  0.00     0.243 C 
ATOM     90  O   UNL A   1      30.740  28.146  21.873  1.00  0.00    -0.273 OA
BRANCH  89  91
ATOM     91  C   UNL A   1      28.756  28.877  23.007  1.00  0.00     0.220 C 
BRANCH  91  92
ATOM     92  N   UNL A   1      28.689  30.187  22.376  1.00  0.00    -0.323 N 
ATOM     93  C   UNL A   1      27.977  30.362  21.138  1.00  0.00     0.190 C 
ATOM     94  C   UNL A   1      28.938  31.335  23.112  1.00  0.00     0.233 C 
ATOM     95  S   UNL A   1      28.028  32.107  20.724  1.00  0.00    -0.130 SA
ATOM     96  C   UNL A   1      28.807  32.585  22.276  1.00  0.00     0.171 C 
ATOM     97  O   UNL A   1      29.275  31.347  24.285  1.00  0.00    -0.274 OA
ENDBRANCH  91  92
ENDBRANCH  89  91
ENDBRANCH  82  89
ENDBRANCH  78  80
ENDBRANCH  77  78
ENDBRANCH  76  77
ENDBRANCH  75  76
ENDBRANCH  74  75
ENDBRANCH  73  74
ENDBRANCH   1  73
TORSDOF 23
ENDMDL
