MODEL 1
REMARK VINA RESULT:     -10.9      0.000      0.000
REMARK SMILES CC1CCN(C(=O)N[C@@H]2C=C[C@H](C(=O)OCCOCCOCCOC(=O)c3ccc(-c4c5nc(c(-c6cccc(S(=O)(=O)[O-])c6F)c6ccc([nH]6)c(-c6cccc(S(=O)(=O)[O-])c6F)c6nc(c(-c7cccc(S(=O)(=O)[O-])c7F)c7ccc4[nH]7)C=C6)C=C5)cc3)C2)CC1
REMARK SMILES IDX 20 1 19 2 18 3 17 4 16 5 15 6 13 7 14 8 12 9 9 10 10 11
REMARK SMILES IDX 90 12 11 13 8 14 1 15 2 16 3 17 92 18 4 19 91 20 5 21 6 22
REMARK SMILES IDX 7 23 21 25 22 26 23 27 24 28 25 29 26 30 27 31 28 32 89 33
REMARK SMILES IDX 29 34 88 35 30 36 31 37 32 38 82 39 33 40 87 41 81 42 83 43
REMARK SMILES IDX 34 44 86 45 80 46 79 47 35 49 67 50 47 51 66 52 48 53 51 54
REMARK SMILES IDX 65 55 84 56 49 57 50 58 64 60 85 61 52 62 36 63 37 64 45 65
REMARK SMILES IDX 38 66 40 67 46 68 39 69 41 70 42 71 43 72 44 73 68 74 69 75
REMARK SMILES IDX 77 76 70 77 72 78 78 79 71 80 73 81 74 82 75 83 76 84 53 85
REMARK SMILES IDX 54 86 62 87 55 88 57 89 63 90 56 91 58 92 59 93 60 94 61 95
REMARK H PARENT 8 24 83 48 51 59
REMARK Flexibility Score: inf
ROOT
ATOM      1  C   UNL A   1      40.967  21.341  27.426  1.00  0.00     0.188 C 
ENDROOT
BRANCH   1   2
ATOM      2  C   UNL A   1      40.227  21.676  26.121  1.00  0.00     0.188 C 
BRANCH   2   3
ATOM      3  O   UNL A   1      38.820  21.844  26.298  1.00  0.00    -0.376 OA
BRANCH   3   4
ATOM      4  C   UNL A   1      38.102  22.668  25.383  1.00  0.00     0.202 C 
BRANCH   4   5
ATOM      5  C   UNL A   1      36.659  22.956  25.918  1.00  0.00     0.261 C 
BRANCH   5   6
ATOM      6  O   UNL A   1      35.568  22.410  25.109  1.00  0.00    -0.463 OA
BRANCH   6   7
ATOM      7  C   UNL A   1      35.194  21.107  25.409  1.00  0.00     0.312 C 
ATOM      8  O   UNL A   1      35.787  20.130  24.988  1.00  0.00    -0.252 OA
BRANCH   7   9
ATOM      9  C   UNL A   1      33.866  21.038  26.226  1.00  0.00     0.124 C 
ATOM     10  C   UNL A   1      32.570  23.134  26.733  1.00  0.00     0.107 C 
ATOM     11  C   UNL A   1      33.254  22.566  27.941  1.00  0.00    -0.006 C 
ATOM     12  C   UNL A   1      32.716  21.949  25.782  1.00  0.00     0.048 C 
ATOM     13  C   UNL A   1      33.981  21.472  27.664  1.00  0.00    -0.014 C 
BRANCH  10  14
ATOM     14  N   UNL A   1      33.261  24.370  26.425  1.00  0.00    -0.332 N 
ATOM     15  C   UNL A   1      32.006  21.470  22.349  1.00  0.00     0.008 C 
ATOM     16  C   UNL A   1      32.148  23.011  22.322  1.00  0.00    -0.011 C 
ATOM     17  C   UNL A   1      33.543  23.590  22.669  1.00  0.00     0.025 C 
ATOM     18  C   UNL A   1      30.970  23.588  23.146  1.00  0.00     0.025 C 
ATOM     19  C   UNL A   1      33.447  25.052  23.036  1.00  0.00     0.121 C 
ATOM     20  C   UNL A   1      31.254  24.788  24.054  1.00  0.00     0.121 C 
ATOM     21  N   UNL A   1      32.664  25.052  24.246  1.00  0.00    -0.325 N 
ATOM     22  C   UNL A   1      33.345  25.238  25.403  1.00  0.00     0.317 C 
ATOM     23  O   UNL A   1      34.206  26.112  25.515  1.00  0.00    -0.249 OA
ATOM     24  H   UNL A   1      33.830  24.652  27.177  1.00  0.00     0.165 HD
ENDBRANCH  10  14
ENDBRANCH   7   9
ENDBRANCH   6   7
ENDBRANCH   5   6
ENDBRANCH   4   5
ENDBRANCH   3   4
ENDBRANCH   2   3
ENDBRANCH   1   2
BRANCH   1  25
ATOM     25  O   UNL A   1      42.250  20.754  27.229  1.00  0.00    -0.376 OA
BRANCH  25  26
ATOM     26  C   UNL A   1      42.602  20.567  25.858  1.00  0.00     0.202 C 
BRANCH  26  27
ATOM     27  C   UNL A   1      43.906  21.264  25.435  1.00  0.00     0.261 C 
BRANCH  27  28
ATOM     28  O   UNL A   1      44.173  22.444  26.225  1.00  0.00    -0.460 OA
BRANCH  28  29
ATOM     29  C   UNL A   1      44.164  23.620  25.554  1.00  0.00     0.338 C 
ATOM     30  O   UNL A   1      44.688  23.829  24.459  1.00  0.00    -0.246 OA
BRANCH  29  31
ATOM     31  C   UNL A   1      43.354  24.656  26.244  1.00  0.00     0.060 A 
ATOM     32  C   UNL A   1      43.861  25.964  26.277  1.00  0.00     0.016 A 
ATOM     33  C   UNL A   1      42.165  24.363  26.921  1.00  0.00     0.016 A 
ATOM     34  C   UNL A   1      43.229  26.960  27.030  1.00  0.00     0.010 A 
ATOM     35  C   UNL A   1      41.535  25.360  27.684  1.00  0.00     0.010 A 
ATOM     36  C   UNL A   1      42.091  26.650  27.783  1.00  0.00    -0.014 A 
BRANCH  36  37
ATOM     37  C   UNL A   1      41.647  27.569  28.868  1.00  0.00     0.031 A 
ATOM     38  C   UNL A   1      42.366  27.494  30.192  1.00  0.00     0.074 A 
ATOM     39  C   UNL A   1      40.631  28.438  28.716  1.00  0.00     0.049 A 
ATOM     40  N   UNL A   1      42.123  28.128  31.311  1.00  0.00    -0.248 NA
ATOM     41  C   UNL A   1      43.514  26.575  30.259  1.00  0.00     0.031 C 
ATOM     42  C   UNL A   1      39.854  28.636  27.496  1.00  0.00     0.029 A 
ATOM     43  N   UNL A   1      40.059  29.300  29.624  1.00  0.00    -0.354 N 
ATOM     44  C   UNL A   1      43.070  27.668  32.218  1.00  0.00     0.074 A 
ATOM     45  C   UNL A   1      43.884  26.694  31.525  1.00  0.00     0.031 C 
ATOM     46  C   UNL A   1      38.874  29.526  27.743  1.00  0.00     0.029 A 
ATOM     47  C   UNL A   1      38.944  29.947  29.143  1.00  0.00     0.049 A 
ATOM     48  H   UNL A   1      40.414  29.440  30.532  1.00  0.00     0.167 HD
ATOM     49  C   UNL A   1      43.265  28.027  33.509  1.00  0.00     0.034 A 
ATOM     50  C   UNL A   1      38.067  30.761  29.767  1.00  0.00     0.034 A 
ATOM     51  C   UNL A   1      42.469  28.994  34.213  1.00  0.00     0.049 A 
ATOM     52  C   UNL A   1      38.280  31.126  31.218  1.00  0.00     0.074 A 
ATOM     53  C   UNL A   1      42.601  29.428  35.520  1.00  0.00     0.029 A 
ATOM     54  N   UNL A   1      41.389  29.671  33.672  1.00  0.00    -0.354 N 
ATOM     55  N   UNL A   1      39.244  30.765  32.031  1.00  0.00    -0.248 NA
ATOM     56  C   UNL A   1      37.300  32.041  31.828  1.00  0.00     0.031 C 
ATOM     57  C   UNL A   1      41.589  30.362  35.773  1.00  0.00     0.029 A 
ATOM     58  C   UNL A   1      40.840  30.519  34.618  1.00  0.00     0.049 A 
ATOM     59  H   UNL A   1      41.060  29.564  32.750  1.00  0.00     0.167 HD
ATOM     60  C   UNL A   1      39.003  31.428  33.232  1.00  0.00     0.074 A 
ATOM     61  C   UNL A   1      37.815  32.231  33.035  1.00  0.00     0.031 C 
ATOM     62  C   UNL A   1      39.696  31.365  34.396  1.00  0.00     0.034 A 
BRANCH  49  63
ATOM     63  C   UNL A   1      44.414  27.379  34.232  1.00  0.00     0.023 A 
ATOM     64  C   UNL A   1      45.653  28.048  34.295  1.00  0.00     0.012 A 
ATOM     65  C   UNL A   1      44.270  26.125  34.853  1.00  0.00     0.148 A 
ATOM     66  C   UNL A   1      46.743  27.462  34.935  1.00  0.00     0.002 A 
ATOM     67  C   UNL A   1      45.352  25.563  35.522  1.00  0.00     0.091 A 
ATOM     68  F   UNL A   1      43.093  25.490  34.756  1.00  0.00    -0.205 F 
ATOM     69  C   UNL A   1      46.592  26.225  35.554  1.00  0.00     0.022 A 
BRANCH  67  70
ATOM     70  S   UNL A   1      45.231  24.002  36.401  1.00  0.00     0.127 S 
ATOM     71  O   UNL A   1      44.307  23.254  35.550  1.00  0.00    -0.237 OA
ATOM     72  O   UNL A   1      46.613  23.519  36.371  1.00  0.00    -0.237 OA
ATOM     73  O   UNL A   1      44.738  24.334  37.731  1.00  0.00    -0.744 OA
ENDBRANCH  67  70
ENDBRANCH  49  63
BRANCH  50  74
ATOM     74  C   UNL A   1      36.901  31.313  29.018  1.00  0.00     0.023 A 
ATOM     75  C   UNL A   1      36.809  32.700  28.799  1.00  0.00     0.012 A 
ATOM     76  C   UNL A   1      35.884  30.470  28.528  1.00  0.00     0.148 A 
ATOM     77  C   UNL A   1      35.714  33.242  28.124  1.00  0.00     0.002 A 
ATOM     78  C   UNL A   1      34.817  31.011  27.819  1.00  0.00     0.091 A 
ATOM     79  F   UNL A   1      35.974  29.155  28.775  1.00  0.00    -0.205 F 
ATOM     80  C   UNL A   1      34.724  32.398  27.625  1.00  0.00     0.022 A 
BRANCH  78  81
ATOM     81  S   UNL A   1      33.543  29.988  27.069  1.00  0.00     0.127 S 
ATOM     82  O   UNL A   1      33.398  28.922  28.058  1.00  0.00    -0.237 OA
ATOM     83  O   UNL A   1      32.411  30.911  26.993  1.00  0.00    -0.237 OA
ATOM     84  O   UNL A   1      34.078  29.583  25.776  1.00  0.00    -0.744 OA
ENDBRANCH  78  81
ENDBRANCH  50  74
BRANCH  62  85
ATOM     85  C   UNL A   1      39.221  32.206  35.555  1.00  0.00     0.023 A 
ATOM     86  C   UNL A   1      39.437  33.598  35.543  1.00  0.00     0.012 A 
ATOM     87  C   UNL A   1      38.472  31.633  36.604  1.00  0.00     0.148 A 
ATOM     88  C   UNL A   1      38.936  34.404  36.566  1.00  0.00     0.002 A 
ATOM     89  C   UNL A   1      37.939  32.448  37.597  1.00  0.00     0.091 A 
ATOM     90  F   UNL A   1      38.290  30.305  36.610  1.00  0.00    -0.205 F 
ATOM     91  C   UNL A   1      38.177  33.831  37.584  1.00  0.00     0.022 A 
BRANCH  89  92
ATOM     92  S   UNL A   1      36.871  31.806  38.893  1.00  0.00     0.127 S 
ATOM     93  O   UNL A   1      35.637  32.555  38.662  1.00  0.00    -0.237 OA
ATOM     94  O   UNL A   1      36.792  30.383  38.558  1.00  0.00    -0.237 OA
ATOM     95  O   UNL A   1      37.554  32.090  40.148  1.00  0.00    -0.744 OA
ENDBRANCH  89  92
ENDBRANCH  62  85
ENDBRANCH  36  37
ENDBRANCH  29  31
ENDBRANCH  28  29
ENDBRANCH  27  28
ENDBRANCH  26  27
ENDBRANCH  25  26
ENDBRANCH   1  25
TORSDOF 21
ENDMDL
MODEL 2
REMARK VINA RESULT:     -10.3      6.103      8.344
REMARK SMILES CC1CCN(C(=O)N[C@@H]2C=C[C@H](C(=O)OCCOCCOCCOC(=O)c3ccc(-c4c5nc(c(-c6cccc(S(=O)(=O)[O-])c6F)c6ccc([nH]6)c(-c6cccc(S(=O)(=O)[O-])c6F)c6nc(c(-c7cccc(S(=O)(=O)[O-])c7F)c7ccc4[nH]7)C=C6)C=C5)cc3)C2)CC1
REMARK SMILES IDX 20 1 19 2 18 3 17 4 16 5 15 6 13 7 14 8 12 9 9 10 10 11
REMARK SMILES IDX 90 12 11 13 8 14 1 15 2 16 3 17 92 18 4 19 91 20 5 21 6 22
REMARK SMILES IDX 7 23 21 25 22 26 23 27 24 28 25 29 26 30 27 31 28 32 89 33
REMARK SMILES IDX 29 34 88 35 30 36 31 37 32 38 82 39 33 40 87 41 81 42 83 43
REMARK SMILES IDX 34 44 86 45 80 46 79 47 35 49 67 50 47 51 66 52 48 53 51 54
REMARK SMILES IDX 65 55 84 56 49 57 50 58 64 60 85 61 52 62 36 63 37 64 45 65
REMARK SMILES IDX 38 66 40 67 46 68 39 69 41 70 42 71 43 72 44 73 68 74 69 75
REMARK SMILES IDX 77 76 70 77 72 78 78 79 71 80 73 81 74 82 75 83 76 84 53 85
REMARK SMILES IDX 54 86 62 87 55 88 57 89 63 90 56 91 58 92 59 93 60 94 61 95
REMARK H PARENT 8 24 83 48 51 59
REMARK Flexibility Score: inf
ROOT
ATOM      1  C   UNL A   1      40.224  21.136  26.665  1.00  0.00     0.188 C 
ENDROOT
BRANCH   1   2
ATOM      2  C   UNL A   1      40.418  22.660  26.683  1.00  0.00     0.188 C 
BRANCH   2   3
ATOM      3  O   UNL A   1      39.311  23.363  27.250  1.00  0.00    -0.376 OA
BRANCH   3   4
ATOM      4  C   UNL A   1      38.490  24.159  26.400  1.00  0.00     0.202 C 
BRANCH   4   5
ATOM      5  C   UNL A   1      37.585  23.251  25.502  1.00  0.00     0.261 C 
BRANCH   5   6
ATOM      6  O   UNL A   1      36.631  22.405  26.221  1.00  0.00    -0.463 OA
BRANCH   6   7
ATOM      7  C   UNL A   1      35.303  22.799  26.143  1.00  0.00     0.312 C 
ATOM      8  O   UNL A   1      34.582  22.914  27.118  1.00  0.00    -0.252 OA
BRANCH   7   9
ATOM      9  C   UNL A   1      34.808  22.947  24.670  1.00  0.00     0.124 C 
ATOM     10  C   UNL A   1      32.443  23.661  24.186  1.00  0.00     0.107 C 
ATOM     11  C   UNL A   1      32.689  22.215  23.877  1.00  0.00    -0.006 C 
ATOM     12  C   UNL A   1      33.887  24.131  24.351  1.00  0.00     0.048 C 
ATOM     13  C   UNL A   1      33.938  21.821  24.175  1.00  0.00    -0.014 C 
BRANCH  10  14
ATOM     14  N   UNL A   1      31.563  23.682  25.336  1.00  0.00    -0.332 N 
ATOM     15  C   UNL A   1      33.816  28.181  24.203  1.00  0.00     0.008 C 
ATOM     16  C   UNL A   1      32.442  28.036  24.902  1.00  0.00    -0.011 C 
ATOM     17  C   UNL A   1      32.430  27.311  26.273  1.00  0.00     0.025 C 
ATOM     18  C   UNL A   1      31.456  27.476  23.849  1.00  0.00     0.025 C 
ATOM     19  C   UNL A   1      31.036  26.850  26.628  1.00  0.00     0.121 C 
ATOM     20  C   UNL A   1      30.442  26.423  24.309  1.00  0.00     0.121 C 
ATOM     21  N   UNL A   1      30.728  25.872  25.616  1.00  0.00    -0.325 N 
ATOM     22  C   UNL A   1      30.801  24.572  25.994  1.00  0.00     0.317 C 
ATOM     23  O   UNL A   1      30.315  24.178  27.056  1.00  0.00    -0.249 OA
ATOM     24  H   UNL A   1      31.509  22.792  25.755  1.00  0.00     0.165 HD
ENDBRANCH  10  14
ENDBRANCH   7   9
ENDBRANCH   6   7
ENDBRANCH   5   6
ENDBRANCH   4   5
ENDBRANCH   3   4
ENDBRANCH   2   3
ENDBRANCH   1   2
BRANCH   1  25
ATOM     25  O   UNL A   1      40.854  20.460  27.749  1.00  0.00    -0.376 OA
BRANCH  25  26
ATOM     26  C   UNL A   1      42.093  19.841  27.410  1.00  0.00     0.202 C 
BRANCH  26  27
ATOM     27  C   UNL A   1      42.047  18.984  26.133  1.00  0.00     0.261 C 
BRANCH  27  28
ATOM     28  O   UNL A   1      42.614  19.672  24.996  1.00  0.00    -0.460 OA
BRANCH  28  29
ATOM     29  C   UNL A   1      43.966  19.682  24.925  1.00  0.00     0.338 C 
ATOM     30  O   UNL A   1      44.683  18.706  24.703  1.00  0.00    -0.246 OA
BRANCH  29  31
ATOM     31  C   UNL A   1      44.526  21.052  25.052  1.00  0.00     0.060 A 
ATOM     32  C   UNL A   1      45.136  21.395  26.269  1.00  0.00     0.016 A 
ATOM     33  C   UNL A   1      44.397  22.022  24.052  1.00  0.00     0.016 A 
ATOM     34  C   UNL A   1      45.555  22.707  26.517  1.00  0.00     0.010 A 
ATOM     35  C   UNL A   1      44.810  23.341  24.304  1.00  0.00     0.010 A 
ATOM     36  C   UNL A   1      45.346  23.701  25.555  1.00  0.00    -0.014 A 
BRANCH  36  37
ATOM     37  C   UNL A   1      45.424  25.137  25.943  1.00  0.00     0.031 A 
ATOM     38  C   UNL A   1      46.787  25.781  25.991  1.00  0.00     0.074 A 
ATOM     39  C   UNL A   1      44.338  25.865  26.263  1.00  0.00     0.049 A 
ATOM     40  N   UNL A   1      47.129  26.986  26.368  1.00  0.00    -0.248 NA
ATOM     41  C   UNL A   1      47.918  24.945  25.554  1.00  0.00     0.031 C 
ATOM     42  C   UNL A   1      42.958  25.388  26.249  1.00  0.00     0.029 A 
ATOM     43  N   UNL A   1      44.241  27.167  26.700  1.00  0.00    -0.354 N 
ATOM     44  C   UNL A   1      48.512  27.045  26.238  1.00  0.00     0.074 A 
ATOM     45  C   UNL A   1      48.948  25.752  25.758  1.00  0.00     0.031 C 
ATOM     46  C   UNL A   1      42.155  26.368  26.703  1.00  0.00     0.029 A 
ATOM     47  C   UNL A   1      42.965  27.534  27.059  1.00  0.00     0.049 A 
ATOM     48  H   UNL A   1      45.013  27.776  26.752  1.00  0.00     0.167 HD
ATOM     49  C   UNL A   1      49.351  28.079  26.478  1.00  0.00     0.034 A 
ATOM     50  C   UNL A   1      42.509  28.668  27.632  1.00  0.00     0.034 A 
ATOM     51  C   UNL A   1      48.936  29.370  26.951  1.00  0.00     0.049 A 
ATOM     52  C   UNL A   1      43.464  29.801  27.923  1.00  0.00     0.074 A 
ATOM     53  C   UNL A   1      49.717  30.482  27.213  1.00  0.00     0.029 A 
ATOM     54  N   UNL A   1      47.628  29.721  27.243  1.00  0.00    -0.354 N 
ATOM     55  N   UNL A   1      44.754  29.878  27.694  1.00  0.00    -0.248 NA
ATOM     56  C   UNL A   1      42.894  31.019  28.524  1.00  0.00     0.031 C 
ATOM     57  C   UNL A   1      48.879  31.505  27.675  1.00  0.00     0.029 A 
ATOM     58  C   UNL A   1      47.577  31.032  27.685  1.00  0.00     0.049 A 
ATOM     59  H   UNL A   1      46.850  29.126  27.151  1.00  0.00     0.167 HD
ATOM     60  C   UNL A   1      45.140  31.156  28.091  1.00  0.00     0.074 A 
ATOM     61  C   UNL A   1      43.945  31.827  28.557  1.00  0.00     0.031 C 
ATOM     62  C   UNL A   1      46.375  31.716  28.086  1.00  0.00     0.034 A 
BRANCH  49  63
ATOM     63  C   UNL A   1      50.812  27.853  26.198  1.00  0.00     0.023 A 
ATOM     64  C   UNL A   1      51.669  27.500  27.261  1.00  0.00     0.012 A 
ATOM     65  C   UNL A   1      51.333  27.978  24.898  1.00  0.00     0.148 A 
ATOM     66  C   UNL A   1      53.032  27.310  27.038  1.00  0.00     0.002 A 
ATOM     67  C   UNL A   1      52.687  27.750  24.677  1.00  0.00     0.091 A 
ATOM     68  F   UNL A   1      50.507  28.344  23.907  1.00  0.00    -0.205 F 
ATOM     69  C   UNL A   1      53.539  27.427  25.747  1.00  0.00     0.022 A 
BRANCH  67  70
ATOM     70  S   UNL A   1      53.416  27.817  23.037  1.00  0.00     0.127 S 
ATOM     71  O   UNL A   1      52.748  26.699  22.372  1.00  0.00    -0.237 OA
ATOM     72  O   UNL A   1      53.004  29.140  22.566  1.00  0.00    -0.237 OA
ATOM     73  O   UNL A   1      54.851  27.668  23.236  1.00  0.00    -0.744 OA
ENDBRANCH  67  70
ENDBRANCH  49  63
BRANCH  50  74
ATOM     74  C   UNL A   1      41.060  28.805  27.958  1.00  0.00     0.023 A 
ATOM     75  C   UNL A   1      40.144  29.117  26.935  1.00  0.00     0.012 A 
ATOM     76  C   UNL A   1      40.589  28.634  29.274  1.00  0.00     0.148 A 
ATOM     77  C   UNL A   1      38.787  29.278  27.221  1.00  0.00     0.002 A 
ATOM     78  C   UNL A   1      39.230  28.753  29.546  1.00  0.00     0.091 A 
ATOM     79  F   UNL A   1      41.481  28.370  30.239  1.00  0.00    -0.205 F 
ATOM     80  C   UNL A   1      38.328  29.086  28.522  1.00  0.00     0.022 A 
BRANCH  78  81
ATOM     81  S   UNL A   1      38.544  28.439  31.177  1.00  0.00     0.127 S 
ATOM     82  O   UNL A   1      38.781  27.005  31.329  1.00  0.00    -0.237 OA
ATOM     83  O   UNL A   1      39.373  29.290  32.029  1.00  0.00    -0.237 OA
ATOM     84  O   UNL A   1      37.147  28.844  31.098  1.00  0.00    -0.744 OA
ENDBRANCH  78  81
ENDBRANCH  50  74
BRANCH  62  85
ATOM     85  C   UNL A   1      46.515  33.139  28.565  1.00  0.00     0.023 A 
ATOM     86  C   UNL A   1      46.685  33.399  29.940  1.00  0.00     0.012 A 
ATOM     87  C   UNL A   1      46.582  34.208  27.648  1.00  0.00     0.148 A 
ATOM     88  C   UNL A   1      46.896  34.701  30.396  1.00  0.00     0.002 A 
ATOM     89  C   UNL A   1      46.836  35.497  28.106  1.00  0.00     0.091 A 
ATOM     90  F   UNL A   1      46.401  33.946  26.345  1.00  0.00    -0.205 F 
ATOM     91  C   UNL A   1      46.984  35.746  29.479  1.00  0.00     0.022 A 
BRANCH  89  92
ATOM     92  S   UNL A   1      47.058  36.885  26.985  1.00  0.00     0.127 S 
ATOM     93  O   UNL A   1      48.118  36.392  26.106  1.00  0.00    -0.237 OA
ATOM     94  O   UNL A   1      45.743  36.992  26.351  1.00  0.00    -0.237 OA
ATOM     95  O   UNL A   1      47.415  38.020  27.825  1.00  0.00    -0.744 OA
ENDBRANCH  89  92
ENDBRANCH  62  85
ENDBRANCH  36  37
ENDBRANCH  29  31
ENDBRANCH  28  29
ENDBRANCH  27  28
ENDBRANCH  26  27
ENDBRANCH  25  26
ENDBRANCH   1  25
TORSDOF 21
ENDMDL
MODEL 3
REMARK VINA RESULT:     -10.1      7.572     10.667
REMARK SMILES CC1CCN(C(=O)N[C@@H]2C=C[C@H](C(=O)OCCOCCOCCOC(=O)c3ccc(-c4c5nc(c(-c6cccc(S(=O)(=O)[O-])c6F)c6ccc([nH]6)c(-c6cccc(S(=O)(=O)[O-])c6F)c6nc(c(-c7cccc(S(=O)(=O)[O-])c7F)c7ccc4[nH]7)C=C6)C=C5)cc3)C2)CC1
REMARK SMILES IDX 20 1 19 2 18 3 17 4 16 5 15 6 13 7 14 8 12 9 9 10 10 11
REMARK SMILES IDX 90 12 11 13 8 14 1 15 2 16 3 17 92 18 4 19 91 20 5 21 6 22
REMARK SMILES IDX 7 23 21 25 22 26 23 27 24 28 25 29 26 30 27 31 28 32 89 33
REMARK SMILES IDX 29 34 88 35 30 36 31 37 32 38 82 39 33 40 87 41 81 42 83 43
REMARK SMILES IDX 34 44 86 45 80 46 79 47 35 49 67 50 47 51 66 52 48 53 51 54
REMARK SMILES IDX 65 55 84 56 49 57 50 58 64 60 85 61 52 62 36 63 37 64 45 65
REMARK SMILES IDX 38 66 40 67 46 68 39 69 41 70 42 71 43 72 44 73 68 74 69 75
REMARK SMILES IDX 77 76 70 77 72 78 78 79 71 80 73 81 74 82 75 83 76 84 53 85
REMARK SMILES IDX 54 86 62 87 55 88 57 89 63 90 56 91 58 92 59 93 60 94 61 95
REMARK H PARENT 8 24 83 48 51 59
REMARK Flexibility Score: inf
ROOT
ATOM      1  C   UNL A   1      34.863  31.960  29.689  1.00  0.00     0.188 C 
ENDROOT
BRANCH   1   2
ATOM      2  C   UNL A   1      35.105  32.526  28.282  1.00  0.00     0.188 C 
BRANCH   2   3
ATOM      3  O   UNL A   1      34.446  31.784  27.254  1.00  0.00    -0.376 OA
BRANCH   3   4
ATOM      4  C   UNL A   1      33.422  30.862  27.615  1.00  0.00     0.202 C 
BRANCH   4   5
ATOM      5  C   UNL A   1      32.796  30.207  26.339  1.00  0.00     0.261 C 
BRANCH   5   6
ATOM      6  O   UNL A   1      33.726  29.449  25.499  1.00  0.00    -0.463 OA
BRANCH   6   7
ATOM      7  C   UNL A   1      33.224  29.036  24.273  1.00  0.00     0.312 C 
ATOM      8  O   UNL A   1      33.892  29.008  23.254  1.00  0.00    -0.252 OA
BRANCH   7   9
ATOM      9  C   UNL A   1      31.692  28.742  24.320  1.00  0.00     0.124 C 
ATOM     10  C   UNL A   1      30.667  27.065  22.748  1.00  0.00     0.107 C 
ATOM     11  C   UNL A   1      30.308  28.480  22.405  1.00  0.00    -0.006 C 
ATOM     12  C   UNL A   1      31.247  27.286  24.143  1.00  0.00     0.048 C 
ATOM     13  C   UNL A   1      30.888  29.379  23.216  1.00  0.00    -0.014 C 
BRANCH  10  14
ATOM     14  N   UNL A   1      31.542  26.605  21.689  1.00  0.00    -0.332 N 
ATOM     15  C   UNL A   1      32.705  24.891  26.412  1.00  0.00     0.008 C 
ATOM     16  C   UNL A   1      33.014  24.131  25.100  1.00  0.00    -0.011 C 
ATOM     17  C   UNL A   1      33.964  24.832  24.095  1.00  0.00     0.025 C 
ATOM     18  C   UNL A   1      31.657  23.669  24.514  1.00  0.00     0.025 C 
ATOM     19  C   UNL A   1      33.837  24.226  22.717  1.00  0.00     0.121 C 
ATOM     20  C   UNL A   1      31.467  23.757  22.997  1.00  0.00     0.121 C 
ATOM     21  N   UNL A   1      32.485  24.538  22.327  1.00  0.00    -0.325 N 
ATOM     22  C   UNL A   1      32.334  25.549  21.438  1.00  0.00     0.317 C 
ATOM     23  O   UNL A   1      33.043  25.641  20.434  1.00  0.00    -0.249 OA
ATOM     24  H   UNL A   1      31.562  27.248  20.944  1.00  0.00     0.165 HD
ENDBRANCH  10  14
ENDBRANCH   7   9
ENDBRANCH   6   7
ENDBRANCH   5   6
ENDBRANCH   4   5
ENDBRANCH   3   4
ENDBRANCH   2   3
ENDBRANCH   1   2
BRANCH   1  25
ATOM     25  O   UNL A   1      34.414  32.928  30.633  1.00  0.00    -0.376 OA
BRANCH  25  26
ATOM     26  C   UNL A   1      34.798  32.653  31.979  1.00  0.00     0.202 C 
BRANCH  26  27
ATOM     27  C   UNL A   1      36.278  32.934  32.288  1.00  0.00     0.261 C 
BRANCH  27  28
ATOM     28  O   UNL A   1      36.861  31.915  33.129  1.00  0.00    -0.460 OA
BRANCH  28  29
ATOM     29  C   UNL A   1      37.235  30.774  32.502  1.00  0.00     0.338 C 
ATOM     30  O   UNL A   1      36.563  29.746  32.416  1.00  0.00    -0.246 OA
BRANCH  29  31
ATOM     31  C   UNL A   1      38.548  30.911  31.821  1.00  0.00     0.060 A 
ATOM     32  C   UNL A   1      39.623  31.408  32.574  1.00  0.00     0.016 A 
ATOM     33  C   UNL A   1      38.729  30.645  30.459  1.00  0.00     0.016 A 
ATOM     34  C   UNL A   1      40.849  31.701  31.968  1.00  0.00     0.010 A 
ATOM     35  C   UNL A   1      39.957  30.947  29.848  1.00  0.00     0.010 A 
ATOM     36  C   UNL A   1      41.007  31.523  30.588  1.00  0.00    -0.014 A 
BRANCH  36  37
ATOM     37  C   UNL A   1      42.141  32.181  29.880  1.00  0.00     0.031 A 
ATOM     38  C   UNL A   1      43.349  31.340  29.552  1.00  0.00     0.074 A 
ATOM     39  C   UNL A   1      42.131  33.483  29.543  1.00  0.00     0.049 A 
ATOM     40  N   UNL A   1      44.488  31.690  29.012  1.00  0.00    -0.248 NA
ATOM     41  C   UNL A   1      43.256  29.908  29.884  1.00  0.00     0.031 C 
ATOM     42  C   UNL A   1      41.032  34.416  29.778  1.00  0.00     0.029 A 
ATOM     43  N   UNL A   1      43.107  34.253  28.952  1.00  0.00    -0.354 N 
ATOM     44  C   UNL A   1      45.254  30.531  28.961  1.00  0.00     0.074 A 
ATOM     45  C   UNL A   1      44.456  29.470  29.535  1.00  0.00     0.031 C 
ATOM     46  C   UNL A   1      41.412  35.645  29.380  1.00  0.00     0.029 A 
ATOM     47  C   UNL A   1      42.787  35.589  28.879  1.00  0.00     0.049 A 
ATOM     48  H   UNL A   1      43.954  33.882  28.614  1.00  0.00     0.167 HD
ATOM     49  C   UNL A   1      46.502  30.351  28.470  1.00  0.00     0.034 A 
ATOM     50  C   UNL A   1      43.526  36.646  28.481  1.00  0.00     0.034 A 
ATOM     51  C   UNL A   1      47.308  31.391  27.894  1.00  0.00     0.049 A 
ATOM     52  C   UNL A   1      44.929  36.431  27.966  1.00  0.00     0.074 A 
ATOM     53  C   UNL A   1      48.582  31.297  27.361  1.00  0.00     0.029 A 
ATOM     54  N   UNL A   1      46.923  32.717  27.782  1.00  0.00    -0.354 N 
ATOM     55  N   UNL A   1      45.599  35.312  27.825  1.00  0.00    -0.248 NA
ATOM     56  C   UNL A   1      45.669  37.626  27.522  1.00  0.00     0.031 C 
ATOM     57  C   UNL A   1      48.972  32.573  26.937  1.00  0.00     0.029 A 
ATOM     58  C   UNL A   1      47.934  33.455  27.192  1.00  0.00     0.049 A 
ATOM     59  H   UNL A   1      46.058  33.081  28.080  1.00  0.00     0.167 HD
ATOM     60  C   UNL A   1      46.819  35.663  27.251  1.00  0.00     0.074 A 
ATOM     61  C   UNL A   1      46.790  37.096  27.051  1.00  0.00     0.031 C 
ATOM     62  C   UNL A   1      47.874  34.870  26.935  1.00  0.00     0.034 A 
BRANCH  49  63
ATOM     63  C   UNL A   1      47.058  28.953  28.513  1.00  0.00     0.023 A 
ATOM     64  C   UNL A   1      47.831  28.554  29.623  1.00  0.00     0.012 A 
ATOM     65  C   UNL A   1      46.813  28.039  27.473  1.00  0.00     0.148 A 
ATOM     66  C   UNL A   1      48.382  27.275  29.679  1.00  0.00     0.002 A 
ATOM     67  C   UNL A   1      47.335  26.752  27.554  1.00  0.00     0.091 A 
ATOM     68  F   UNL A   1      46.102  28.447  26.412  1.00  0.00    -0.205 F 
ATOM     69  C   UNL A   1      48.128  26.373  28.650  1.00  0.00     0.022 A 
BRANCH  67  70
ATOM     70  S   UNL A   1      47.008  25.504  26.306  1.00  0.00     0.127 S 
ATOM     71  O   UNL A   1      47.705  26.057  25.145  1.00  0.00    -0.237 OA
ATOM     72  O   UNL A   1      47.636  24.314  26.882  1.00  0.00    -0.237 OA
ATOM     73  O   UNL A   1      45.558  25.426  26.194  1.00  0.00    -0.744 OA
ENDBRANCH  67  70
ENDBRANCH  49  63
BRANCH  50  74
ATOM     74  C   UNL A   1      42.947  38.020  28.533  1.00  0.00     0.023 A 
ATOM     75  C   UNL A   1      42.124  38.468  27.482  1.00  0.00     0.012 A 
ATOM     76  C   UNL A   1      43.214  38.883  29.614  1.00  0.00     0.148 A 
ATOM     77  C   UNL A   1      41.594  39.759  27.496  1.00  0.00     0.002 A 
ATOM     78  C   UNL A   1      42.647  40.153  29.643  1.00  0.00     0.091 A 
ATOM     79  F   UNL A   1      44.026  38.449  30.588  1.00  0.00    -0.205 F 
ATOM     80  C   UNL A   1      41.846  40.597  28.580  1.00  0.00     0.022 A 
BRANCH  78  81
ATOM     81  S   UNL A   1      42.852  41.265  31.040  1.00  0.00     0.127 S 
ATOM     82  O   UNL A   1      42.612  40.371  32.171  1.00  0.00    -0.237 OA
ATOM     83  O   UNL A   1      44.240  41.700  30.887  1.00  0.00    -0.237 OA
ATOM     84  O   UNL A   1      41.866  42.320  30.847  1.00  0.00    -0.744 OA
ENDBRANCH  78  81
ENDBRANCH  50  74
BRANCH  62  85
ATOM     85  C   UNL A   1      49.085  35.513  26.305  1.00  0.00     0.023 A 
ATOM     86  C   UNL A   1      49.218  35.526  24.902  1.00  0.00     0.012 A 
ATOM     87  C   UNL A   1      50.036  36.191  27.095  1.00  0.00     0.148 A 
ATOM     88  C   UNL A   1      50.289  36.184  24.298  1.00  0.00     0.002 A 
ATOM     89  C   UNL A   1      51.077  36.881  26.483  1.00  0.00     0.091 A 
ATOM     90  F   UNL A   1      49.904  36.153  28.429  1.00  0.00    -0.205 F 
ATOM     91  C   UNL A   1      51.210  36.872  25.086  1.00  0.00     0.022 A 
BRANCH  89  92
ATOM     92  S   UNL A   1      52.251  37.870  27.419  1.00  0.00     0.127 S 
ATOM     93  O   UNL A   1      51.367  38.616  28.313  1.00  0.00    -0.237 OA
ATOM     94  O   UNL A   1      53.066  36.849  28.079  1.00  0.00    -0.237 OA
ATOM     95  O   UNL A   1      52.970  38.668  26.435  1.00  0.00    -0.744 OA
ENDBRANCH  89  92
ENDBRANCH  62  85
ENDBRANCH  36  37
ENDBRANCH  29  31
ENDBRANCH  28  29
ENDBRANCH  27  28
ENDBRANCH  26  27
ENDBRANCH  25  26
ENDBRANCH   1  25
TORSDOF 21
ENDMDL
