MODEL 1
REMARK VINA RESULT:      -9.7      0.000      0.000
REMARK SMILES O=C(OCCOCCOCCOC(=O)c1cc(Br)n(Cc2ccn(C3CCCC3)n2)c1)c1ccc(-c2c3nc(c(-c4cccc(S(=O)(=O)[O-])c4F)c4ccc([nH]4)c(-c4cccc(S(=O)(=O)[O-])c4F)c4nc(c(-c5cccc(S(=O)(=O)[O-])c5F)c5ccc2[nH]5)C=C4)C=C3)cc1
REMARK SMILES IDX 7 1 6 2 5 3 4 4 3 5 2 6 1 7 32 8 33 9 94 10 34 11 93 12
REMARK SMILES IDX 35 13 36 14 37 15 87 16 38 17 92 18 86 19 88 20 39 21 91 22
REMARK SMILES IDX 85 23 84 24 40 26 72 27 52 28 71 29 53 30 56 31 70 32 89 33
REMARK SMILES IDX 54 34 55 35 69 37 90 38 57 39 41 40 42 41 50 42 43 43 45 44
REMARK SMILES IDX 51 45 44 46 46 47 47 48 48 49 49 50 73 51 74 52 82 53 75 54
REMARK SMILES IDX 77 55 83 56 76 57 78 58 79 59 80 60 81 61 58 62 59 63 67 64
REMARK SMILES IDX 60 65 62 66 68 67 61 68 63 69 64 70 65 71 66 72 8 73 9 74
REMARK SMILES IDX 10 75 11 76 12 77 13 78 14 79 15 80 16 81 31 82 17 83 19 84
REMARK SMILES IDX 18 85 20 86 21 87 22 88 30 89 23 90 24 91 25 92 26 93 29 94
REMARK SMILES IDX 27 95 28 96
REMARK H PARENT 88 25 56 36
REMARK Flexibility Score: inf
ROOT
ATOM      1  C   UNL A   1      31.374  28.951  24.966  1.00  0.00     0.188 C 
ENDROOT
BRANCH   1   2
ATOM      2  O   UNL A   1      32.014  29.890  25.831  1.00  0.00    -0.376 OA
BRANCH   2   3
ATOM      3  C   UNL A   1      32.518  29.350  27.045  1.00  0.00     0.202 C 
BRANCH   3   4
ATOM      4  C   UNL A   1      33.859  28.649  26.847  1.00  0.00     0.261 C 
BRANCH   4   5
ATOM      5  O   UNL A   1      35.032  29.462  27.057  1.00  0.00    -0.460 OA
BRANCH   5   6
ATOM      6  C   UNL A   1      35.731  29.793  28.161  1.00  0.00     0.338 C 
ATOM      7  O   UNL A   1      35.128  30.312  29.098  1.00  0.00    -0.246 OA
BRANCH   6   8
ATOM      8  C   UNL A   1      37.203  29.613  28.288  1.00  0.00     0.060 A 
ATOM      9  C   UNL A   1      38.103  29.659  27.220  1.00  0.00     0.016 A 
ATOM     10  C   UNL A   1      37.680  29.256  29.561  1.00  0.00     0.016 A 
ATOM     11  C   UNL A   1      39.449  29.336  27.412  1.00  0.00     0.010 A 
ATOM     12  C   UNL A   1      39.021  28.922  29.755  1.00  0.00     0.010 A 
ATOM     13  C   UNL A   1      39.900  28.923  28.668  1.00  0.00    -0.014 A 
BRANCH  13  14
ATOM     14  C   UNL A   1      41.239  28.323  28.796  1.00  0.00     0.031 A 
ATOM     15  C   UNL A   1      41.552  26.988  28.182  1.00  0.00     0.074 A 
ATOM     16  C   UNL A   1      42.211  29.061  29.381  1.00  0.00     0.049 A 
ATOM     17  N   UNL A   1      42.718  26.415  28.094  1.00  0.00    -0.248 NA
ATOM     18  C   UNL A   1      40.471  26.201  27.563  1.00  0.00     0.031 C 
ATOM     19  C   UNL A   1      42.110  30.455  29.830  1.00  0.00     0.029 A 
ATOM     20  N   UNL A   1      43.531  28.757  29.583  1.00  0.00    -0.354 N 
ATOM     21  C   UNL A   1      42.554  25.275  27.313  1.00  0.00     0.074 A 
ATOM     22  C   UNL A   1      41.134  25.152  27.069  1.00  0.00     0.031 C 
ATOM     23  C   UNL A   1      43.349  30.939  30.043  1.00  0.00     0.029 A 
ATOM     24  C   UNL A   1      44.314  29.871  29.852  1.00  0.00     0.049 A 
ATOM     25  H   UNL A   1      43.888  27.839  29.543  1.00  0.00     0.167 HD
ATOM     26  C   UNL A   1      43.350  24.176  27.364  1.00  0.00     0.034 A 
ATOM     27  C   UNL A   1      45.663  29.947  29.871  1.00  0.00     0.034 A 
ATOM     28  C   UNL A   1      43.762  23.850  28.691  1.00  0.00     0.049 A 
ATOM     29  C   UNL A   1      46.212  28.585  30.060  1.00  0.00     0.074 A 
ATOM     30  C   UNL A   1      43.273  23.078  29.715  1.00  0.00     0.029 A 
ATOM     31  N   UNL A   1      44.805  24.588  29.178  1.00  0.00    -0.354 N 
ATOM     32  N   UNL A   1      46.105  27.892  31.161  1.00  0.00    -0.248 NA
ATOM     33  C   UNL A   1      46.776  27.865  28.922  1.00  0.00     0.031 C 
ATOM     34  C   UNL A   1      43.967  23.491  30.885  1.00  0.00     0.029 A 
ATOM     35  C   UNL A   1      44.838  24.527  30.546  1.00  0.00     0.049 A 
ATOM     36  H   UNL A   1      45.443  25.091  28.624  1.00  0.00     0.167 HD
ATOM     37  C   UNL A   1      46.199  26.577  30.747  1.00  0.00     0.074 A 
ATOM     38  C   UNL A   1      46.817  26.632  29.431  1.00  0.00     0.031 C 
ATOM     39  C   UNL A   1      45.452  25.591  31.324  1.00  0.00     0.034 A 
BRANCH  26  40
ATOM     40  C   UNL A   1      44.345  23.956  26.250  1.00  0.00     0.023 A 
ATOM     41  C   UNL A   1      44.385  22.675  25.663  1.00  0.00     0.012 A 
ATOM     42  C   UNL A   1      45.350  24.884  25.896  1.00  0.00     0.148 A 
ATOM     43  C   UNL A   1      45.372  22.335  24.734  1.00  0.00     0.002 A 
ATOM     44  C   UNL A   1      46.308  24.553  24.940  1.00  0.00     0.091 A 
ATOM     45  F   UNL A   1      45.407  26.052  26.547  1.00  0.00    -0.205 F 
ATOM     46  C   UNL A   1      46.326  23.276  24.364  1.00  0.00     0.022 A 
BRANCH  44  47
ATOM     47  S   UNL A   1      47.571  25.702  24.383  1.00  0.00     0.127 S 
ATOM     48  O   UNL A   1      48.468  25.742  25.536  1.00  0.00    -0.237 OA
ATOM     49  O   UNL A   1      48.101  25.003  23.212  1.00  0.00    -0.237 OA
ATOM     50  O   UNL A   1      46.872  26.944  24.093  1.00  0.00    -0.744 OA
ENDBRANCH  44  47
ENDBRANCH  26  40
BRANCH  27  51
ATOM     51  C   UNL A   1      46.553  31.125  29.730  1.00  0.00     0.023 A 
ATOM     52  C   UNL A   1      47.051  31.745  30.894  1.00  0.00     0.012 A 
ATOM     53  C   UNL A   1      47.079  31.538  28.484  1.00  0.00     0.148 A 
ATOM     54  C   UNL A   1      48.050  32.719  30.828  1.00  0.00     0.002 A 
ATOM     55  C   UNL A   1      48.050  32.536  28.421  1.00  0.00     0.091 A 
ATOM     56  F   UNL A   1      46.691  30.906  27.368  1.00  0.00    -0.205 F 
ATOM     57  C   UNL A   1      48.549  33.117  29.591  1.00  0.00     0.022 A 
BRANCH  55  58
ATOM     58  S   UNL A   1      48.691  33.134  26.850  1.00  0.00     0.127 S 
ATOM     59  O   UNL A   1      49.363  34.376  27.238  1.00  0.00    -0.237 OA
ATOM     60  O   UNL A   1      49.591  32.057  26.449  1.00  0.00    -0.237 OA
ATOM     61  O   UNL A   1      47.517  33.339  26.009  1.00  0.00    -0.744 OA
ENDBRANCH  55  58
ENDBRANCH  27  51
BRANCH  39  62
ATOM     62  C   UNL A   1      44.955  25.765  32.735  1.00  0.00     0.023 A 
ATOM     63  C   UNL A   1      45.728  25.400  33.853  1.00  0.00     0.012 A 
ATOM     64  C   UNL A   1      43.766  26.488  32.948  1.00  0.00     0.148 A 
ATOM     65  C   UNL A   1      45.320  25.731  35.148  1.00  0.00     0.002 A 
ATOM     66  C   UNL A   1      43.406  26.886  34.230  1.00  0.00     0.091 A 
ATOM     67  F   UNL A   1      43.016  26.831  31.887  1.00  0.00    -0.205 F 
ATOM     68  C   UNL A   1      44.170  26.494  35.337  1.00  0.00     0.022 A 
BRANCH  66  69
ATOM     69  S   UNL A   1      42.059  28.053  34.453  1.00  0.00     0.127 S 
ATOM     70  O   UNL A   1      41.719  27.885  35.864  1.00  0.00    -0.237 OA
ATOM     71  O   UNL A   1      42.674  29.340  34.125  1.00  0.00    -0.237 OA
ATOM     72  O   UNL A   1      41.049  27.624  33.489  1.00  0.00    -0.744 OA
ENDBRANCH  66  69
ENDBRANCH  39  62
ENDBRANCH  13  14
ENDBRANCH   6   8
ENDBRANCH   5   6
ENDBRANCH   4   5
ENDBRANCH   3   4
ENDBRANCH   2   3
ENDBRANCH   1   2
BRANCH   1  73
ATOM     73  C   UNL A   1      31.940  28.937  23.529  1.00  0.00     0.188 C 
BRANCH  73  74
ATOM     74  O   UNL A   1      33.288  28.540  23.264  1.00  0.00    -0.376 OA
BRANCH  74  75
ATOM     75  C   UNL A   1      33.583  27.156  23.217  1.00  0.00     0.202 C 
BRANCH  75  76
ATOM     76  C   UNL A   1      33.135  26.559  21.881  1.00  0.00     0.261 C 
BRANCH  76  77
ATOM     77  O   UNL A   1      32.335  25.373  22.043  1.00  0.00    -0.460 OA
BRANCH  77  78
ATOM     78  C   UNL A   1      32.962  24.200  21.754  1.00  0.00     0.339 C 
ATOM     79  O   UNL A   1      33.367  23.872  20.633  1.00  0.00    -0.246 OA
BRANCH  78  80
ATOM     80  C   UNL A   1      33.001  23.275  22.875  1.00  0.00     0.078 A 
ATOM     81  C   UNL A   1      32.480  21.953  22.869  1.00  0.00     0.051 A 
ATOM     82  C   UNL A   1      33.656  23.429  24.090  1.00  0.00     0.102 A 
ATOM     83  C   UNL A   1      32.917  21.320  24.007  1.00  0.00     0.086 A 
ATOM     84  N   UNL A   1      33.597  22.229  24.781  1.00  0.00    -0.335 N 
ATOM     85  Br  UNL A   1      32.678  19.488  24.299  1.00  0.00    -0.031 Br
BRANCH  84  86
ATOM     86  C   UNL A   1      34.370  21.935  25.990  1.00  0.00     0.180 C 
BRANCH  86  87
ATOM     87  C   UNL A   1      35.795  22.385  25.930  1.00  0.00     0.082 A 
ATOM     88  C   UNL A   1      36.344  23.686  26.039  1.00  0.00     0.047 A 
ATOM     89  N   UNL A   1      36.768  21.465  25.848  1.00  0.00    -0.176 NA
ATOM     90  C   UNL A   1      37.705  23.513  26.032  1.00  0.00     0.109 A 
ATOM     91  N   UNL A   1      37.914  22.171  25.910  1.00  0.00    -0.269 N 
BRANCH  91  92
ATOM     92  C   UNL A   1      39.199  21.530  25.769  1.00  0.00     0.107 C 
ATOM     93  C   UNL A   1      40.246  21.902  26.816  1.00  0.00     0.027 C 
ATOM     94  C   UNL A   1      39.149  20.012  25.868  1.00  0.00     0.027 C 
ATOM     95  C   UNL A   1      41.286  20.785  26.716  1.00  0.00     0.002 C 
ATOM     96  C   UNL A   1      40.622  19.660  25.926  1.00  0.00     0.002 C 
ENDBRANCH  91  92
ENDBRANCH  86  87
ENDBRANCH  84  86
ENDBRANCH  78  80
ENDBRANCH  77  78
ENDBRANCH  76  77
ENDBRANCH  75  76
ENDBRANCH  74  75
ENDBRANCH  73  74
ENDBRANCH   1  73
TORSDOF 23
ENDMDL
MODEL 2
REMARK VINA RESULT:      -9.7      3.584      7.658
REMARK SMILES O=C(OCCOCCOCCOC(=O)c1cc(Br)n(Cc2ccn(C3CCCC3)n2)c1)c1ccc(-c2c3nc(c(-c4cccc(S(=O)(=O)[O-])c4F)c4ccc([nH]4)c(-c4cccc(S(=O)(=O)[O-])c4F)c4nc(c(-c5cccc(S(=O)(=O)[O-])c5F)c5ccc2[nH]5)C=C4)C=C3)cc1
REMARK SMILES IDX 7 1 6 2 5 3 4 4 3 5 2 6 1 7 32 8 33 9 94 10 34 11 93 12
REMARK SMILES IDX 35 13 36 14 37 15 87 16 38 17 92 18 86 19 88 20 39 21 91 22
REMARK SMILES IDX 85 23 84 24 40 26 72 27 52 28 71 29 53 30 56 31 70 32 89 33
REMARK SMILES IDX 54 34 55 35 69 37 90 38 57 39 41 40 42 41 50 42 43 43 45 44
REMARK SMILES IDX 51 45 44 46 46 47 47 48 48 49 49 50 73 51 74 52 82 53 75 54
REMARK SMILES IDX 77 55 83 56 76 57 78 58 79 59 80 60 81 61 58 62 59 63 67 64
REMARK SMILES IDX 60 65 62 66 68 67 61 68 63 69 64 70 65 71 66 72 8 73 9 74
REMARK SMILES IDX 10 75 11 76 12 77 13 78 14 79 15 80 16 81 31 82 17 83 19 84
REMARK SMILES IDX 18 85 20 86 21 87 22 88 30 89 23 90 24 91 25 92 26 93 29 94
REMARK SMILES IDX 27 95 28 96
REMARK H PARENT 88 25 56 36
REMARK Flexibility Score: inf
ROOT
ATOM      1  C   UNL A   1      34.780  24.943  24.270  1.00  0.00     0.188 C 
ENDROOT
BRANCH   1   2
ATOM      2  O   UNL A   1      35.457  24.643  25.491  1.00  0.00    -0.376 OA
BRANCH   2   3
ATOM      3  C   UNL A   1      36.532  23.720  25.378  1.00  0.00     0.202 C 
BRANCH   3   4
ATOM      4  C   UNL A   1      37.655  24.023  26.367  1.00  0.00     0.261 C 
BRANCH   4   5
ATOM      5  O   UNL A   1      38.802  23.151  26.306  1.00  0.00    -0.460 OA
BRANCH   5   6
ATOM      6  C   UNL A   1      40.060  23.258  26.777  1.00  0.00     0.338 C 
ATOM      7  O   UNL A   1      40.719  22.231  26.917  1.00  0.00    -0.246 OA
BRANCH   6   8
ATOM      8  C   UNL A   1      40.677  24.549  27.187  1.00  0.00     0.060 A 
ATOM      9  C   UNL A   1      41.352  24.760  28.392  1.00  0.00     0.016 A 
ATOM     10  C   UNL A   1      40.448  25.647  26.338  1.00  0.00     0.016 A 
ATOM     11  C   UNL A   1      41.773  26.041  28.754  1.00  0.00     0.010 A 
ATOM     12  C   UNL A   1      40.856  26.930  26.702  1.00  0.00     0.010 A 
ATOM     13  C   UNL A   1      41.487  27.134  27.933  1.00  0.00    -0.014 A 
BRANCH  13  14
ATOM     14  C   UNL A   1      41.683  28.500  28.447  1.00  0.00     0.031 A 
ATOM     15  C   UNL A   1      42.964  29.245  28.201  1.00  0.00     0.074 A 
ATOM     16  C   UNL A   1      40.633  29.109  29.045  1.00  0.00     0.049 A 
ATOM     17  N   UNL A   1      43.214  30.495  28.468  1.00  0.00    -0.248 NA
ATOM     18  C   UNL A   1      44.096  28.552  27.560  1.00  0.00     0.031 C 
ATOM     19  C   UNL A   1      39.264  28.593  29.162  1.00  0.00     0.029 A 
ATOM     20  N   UNL A   1      40.541  30.373  29.564  1.00  0.00    -0.354 N 
ATOM     21  C   UNL A   1      44.462  30.786  27.928  1.00  0.00     0.074 A 
ATOM     22  C   UNL A   1      44.994  29.533  27.438  1.00  0.00     0.031 C 
ATOM     23  C   UNL A   1      38.441  29.601  29.510  1.00  0.00     0.029 A 
ATOM     24  C   UNL A   1      39.231  30.797  29.742  1.00  0.00     0.049 A 
ATOM     25  H   UNL A   1      41.325  30.926  29.788  1.00  0.00     0.167 HD
ATOM     26  C   UNL A   1      45.289  31.770  28.365  1.00  0.00     0.034 A 
ATOM     27  C   UNL A   1      38.797  32.049  30.012  1.00  0.00     0.034 A 
ATOM     28  C   UNL A   1      45.287  31.908  29.785  1.00  0.00     0.049 A 
ATOM     29  C   UNL A   1      39.919  32.825  30.587  1.00  0.00     0.074 A 
ATOM     30  C   UNL A   1      45.994  31.369  30.831  1.00  0.00     0.029 A 
ATOM     31  N   UNL A   1      44.232  32.608  30.303  1.00  0.00    -0.354 N 
ATOM     32  N   UNL A   1      40.437  32.610  31.766  1.00  0.00    -0.248 NA
ATOM     33  C   UNL A   1      40.629  33.797  29.760  1.00  0.00     0.031 C 
ATOM     34  C   UNL A   1      45.236  31.646  32.002  1.00  0.00     0.029 A 
ATOM     35  C   UNL A   1      44.071  32.319  31.632  1.00  0.00     0.049 A 
ATOM     36  H   UNL A   1      43.669  33.233  29.793  1.00  0.00     0.167 HD
ATOM     37  C   UNL A   1      41.728  33.094  31.664  1.00  0.00     0.074 A 
ATOM     38  C   UNL A   1      41.713  33.987  30.514  1.00  0.00     0.031 C 
ATOM     39  C   UNL A   1      42.776  32.470  32.276  1.00  0.00     0.034 A 
BRANCH  26  40
ATOM     40  C   UNL A   1      45.405  33.030  27.541  1.00  0.00     0.023 A 
ATOM     41  C   UNL A   1      44.247  33.475  26.872  1.00  0.00     0.012 A 
ATOM     42  C   UNL A   1      46.630  33.672  27.251  1.00  0.00     0.148 A 
ATOM     43  C   UNL A   1      44.296  34.539  25.969  1.00  0.00     0.002 A 
ATOM     44  C   UNL A   1      46.667  34.759  26.380  1.00  0.00     0.091 A 
ATOM     45  F   UNL A   1      47.758  33.172  27.771  1.00  0.00    -0.205 F 
ATOM     46  C   UNL A   1      45.502  35.189  25.731  1.00  0.00     0.022 A 
BRANCH  44  47
ATOM     47  S   UNL A   1      48.170  35.674  26.020  1.00  0.00     0.127 S 
ATOM     48  O   UNL A   1      48.813  34.813  25.029  1.00  0.00    -0.237 OA
ATOM     49  O   UNL A   1      47.626  36.925  25.492  1.00  0.00    -0.237 OA
ATOM     50  O   UNL A   1      48.869  35.795  27.289  1.00  0.00    -0.744 OA
ENDBRANCH  44  47
ENDBRANCH  26  40
BRANCH  27  51
ATOM     51  C   UNL A   1      37.461  32.659  29.805  1.00  0.00     0.023 A 
ATOM     52  C   UNL A   1      36.875  32.596  28.524  1.00  0.00     0.012 A 
ATOM     53  C   UNL A   1      36.666  33.133  30.873  1.00  0.00     0.148 A 
ATOM     54  C   UNL A   1      35.544  32.963  28.316  1.00  0.00     0.002 A 
ATOM     55  C   UNL A   1      35.349  33.532  30.654  1.00  0.00     0.091 A 
ATOM     56  F   UNL A   1      37.166  33.121  32.117  1.00  0.00    -0.205 F 
ATOM     57  C   UNL A   1      34.780  33.434  29.379  1.00  0.00     0.022 A 
BRANCH  55  58
ATOM     58  S   UNL A   1      34.330  34.204  31.976  1.00  0.00     0.127 S 
ATOM     59  O   UNL A   1      33.195  34.767  31.241  1.00  0.00    -0.237 OA
ATOM     60  O   UNL A   1      34.015  33.015  32.761  1.00  0.00    -0.237 OA
ATOM     61  O   UNL A   1      35.162  35.207  32.630  1.00  0.00    -0.744 OA
ENDBRANCH  55  58
ENDBRANCH  27  51
BRANCH  39  62
ATOM     62  C   UNL A   1      42.525  31.617  33.492  1.00  0.00     0.023 A 
ATOM     63  C   UNL A   1      42.290  32.174  34.762  1.00  0.00     0.012 A 
ATOM     64  C   UNL A   1      42.331  30.233  33.318  1.00  0.00     0.148 A 
ATOM     65  C   UNL A   1      41.888  31.373  35.834  1.00  0.00     0.002 A 
ATOM     66  C   UNL A   1      41.853  29.455  34.366  1.00  0.00     0.091 A 
ATOM     67  F   UNL A   1      42.564  29.692  32.110  1.00  0.00    -0.205 F 
ATOM     68  C   UNL A   1      41.647  30.016  35.632  1.00  0.00     0.022 A 
BRANCH  66  69
ATOM     69  S   UNL A   1      41.329  27.766  34.050  1.00  0.00     0.127 S 
ATOM     70  O   UNL A   1      42.514  27.172  33.437  1.00  0.00    -0.237 OA
ATOM     71  O   UNL A   1      41.017  27.258  35.388  1.00  0.00    -0.237 OA
ATOM     72  O   UNL A   1      40.158  27.908  33.190  1.00  0.00    -0.744 OA
ENDBRANCH  66  69
ENDBRANCH  39  62
ENDBRANCH  13  14
ENDBRANCH   6   8
ENDBRANCH   5   6
ENDBRANCH   4   5
ENDBRANCH   3   4
ENDBRANCH   2   3
ENDBRANCH   1   2
BRANCH   1  73
ATOM     73  C   UNL A   1      34.035  26.295  24.282  1.00  0.00     0.188 C 
BRANCH  73  74
ATOM     74  O   UNL A   1      33.835  27.024  25.497  1.00  0.00    -0.376 OA
BRANCH  74  75
ATOM     75  C   UNL A   1      33.330  28.344  25.411  1.00  0.00     0.202 C 
BRANCH  75  76
ATOM     76  C   UNL A   1      32.360  28.470  24.235  1.00  0.00     0.261 C 
BRANCH  76  77
ATOM     77  O   UNL A   1      30.994  28.209  24.609  1.00  0.00    -0.460 OA
BRANCH  77  78
ATOM     78  C   UNL A   1      30.341  27.296  23.841  1.00  0.00     0.339 C 
ATOM     79  O   UNL A   1      29.461  27.566  23.016  1.00  0.00    -0.246 OA
BRANCH  78  80
ATOM     80  C   UNL A   1      30.672  25.920  24.172  1.00  0.00     0.078 A 
ATOM     81  C   UNL A   1      30.541  25.328  25.458  1.00  0.00     0.051 A 
ATOM     82  C   UNL A   1      31.033  24.894  23.308  1.00  0.00     0.102 A 
ATOM     83  C   UNL A   1      30.717  23.973  25.320  1.00  0.00     0.086 A 
ATOM     84  N   UNL A   1      31.064  23.705  24.018  1.00  0.00    -0.335 N 
ATOM     85  Br  UNL A   1      30.390  22.766  26.712  1.00  0.00    -0.031 Br
BRANCH  84  86
ATOM     86  C   UNL A   1      31.175  22.380  23.404  1.00  0.00     0.180 C 
BRANCH  86  87
ATOM     87  C   UNL A   1      32.351  21.585  23.873  1.00  0.00     0.082 A 
ATOM     88  C   UNL A   1      33.618  22.018  24.334  1.00  0.00     0.047 A 
ATOM     89  N   UNL A   1      32.236  20.253  23.986  1.00  0.00    -0.176 NA
ATOM     90  C   UNL A   1      34.268  20.882  24.747  1.00  0.00     0.109 A 
ATOM     91  N   UNL A   1      33.408  19.850  24.515  1.00  0.00    -0.269 N 
BRANCH  91  92
ATOM     92  C   UNL A   1      33.701  18.451  24.713  1.00  0.00     0.107 C 
ATOM     93  C   UNL A   1      32.735  17.690  25.617  1.00  0.00     0.027 C 
ATOM     94  C   UNL A   1      33.684  17.627  23.433  1.00  0.00     0.027 C 
ATOM     95  C   UNL A   1      32.992  16.220  25.284  1.00  0.00     0.002 C 
ATOM     96  C   UNL A   1      33.780  16.215  23.976  1.00  0.00     0.002 C 
ENDBRANCH  91  92
ENDBRANCH  86  87
ENDBRANCH  84  86
ENDBRANCH  78  80
ENDBRANCH  77  78
ENDBRANCH  76  77
ENDBRANCH  75  76
ENDBRANCH  74  75
ENDBRANCH  73  74
ENDBRANCH   1  73
TORSDOF 23
ENDMDL
MODEL 3
REMARK VINA RESULT:      -9.0      2.265      6.669
REMARK SMILES O=C(OCCOCCOCCOC(=O)c1cc(Br)n(Cc2ccn(C3CCCC3)n2)c1)c1ccc(-c2c3nc(c(-c4cccc(S(=O)(=O)[O-])c4F)c4ccc([nH]4)c(-c4cccc(S(=O)(=O)[O-])c4F)c4nc(c(-c5cccc(S(=O)(=O)[O-])c5F)c5ccc2[nH]5)C=C4)C=C3)cc1
REMARK SMILES IDX 7 1 6 2 5 3 4 4 3 5 2 6 1 7 32 8 33 9 94 10 34 11 93 12
REMARK SMILES IDX 35 13 36 14 37 15 87 16 38 17 92 18 86 19 88 20 39 21 91 22
REMARK SMILES IDX 85 23 84 24 40 26 72 27 52 28 71 29 53 30 56 31 70 32 89 33
REMARK SMILES IDX 54 34 55 35 69 37 90 38 57 39 41 40 42 41 50 42 43 43 45 44
REMARK SMILES IDX 51 45 44 46 46 47 47 48 48 49 49 50 73 51 74 52 82 53 75 54
REMARK SMILES IDX 77 55 83 56 76 57 78 58 79 59 80 60 81 61 58 62 59 63 67 64
REMARK SMILES IDX 60 65 62 66 68 67 61 68 63 69 64 70 65 71 66 72 8 73 9 74
REMARK SMILES IDX 10 75 11 76 12 77 13 78 14 79 15 80 16 81 31 82 17 83 19 84
REMARK SMILES IDX 18 85 20 86 21 87 22 88 30 89 23 90 24 91 25 92 26 93 29 94
REMARK SMILES IDX 27 95 28 96
REMARK H PARENT 88 25 56 36
REMARK Flexibility Score: inf
ROOT
ATOM      1  C   UNL A   1      31.711  29.081  25.004  1.00  0.00     0.188 C 
ENDROOT
BRANCH   1   2
ATOM      2  O   UNL A   1      32.217  30.003  25.971  1.00  0.00    -0.376 OA
BRANCH   2   3
ATOM      3  C   UNL A   1      32.474  29.453  27.257  1.00  0.00     0.202 C 
BRANCH   3   4
ATOM      4  C   UNL A   1      33.831  28.758  27.322  1.00  0.00     0.261 C 
BRANCH   4   5
ATOM      5  O   UNL A   1      34.983  29.606  27.135  1.00  0.00    -0.460 OA
BRANCH   5   6
ATOM      6  C   UNL A   1      35.791  30.256  27.997  1.00  0.00     0.338 C 
ATOM      7  O   UNL A   1      35.303  31.137  28.702  1.00  0.00    -0.246 OA
BRANCH   6   8
ATOM      8  C   UNL A   1      37.253  30.001  28.104  1.00  0.00     0.060 A 
ATOM      9  C   UNL A   1      37.894  28.849  27.640  1.00  0.00     0.016 A 
ATOM     10  C   UNL A   1      38.000  30.946  28.830  1.00  0.00     0.016 A 
ATOM     11  C   UNL A   1      39.247  28.632  27.912  1.00  0.00     0.010 A 
ATOM     12  C   UNL A   1      39.348  30.727  29.113  1.00  0.00     0.010 A 
ATOM     13  C   UNL A   1      39.965  29.547  28.686  1.00  0.00    -0.014 A 
BRANCH  13  14
ATOM     14  C   UNL A   1      41.295  29.179  29.197  1.00  0.00     0.031 A 
ATOM     15  C   UNL A   1      41.560  29.084  30.674  1.00  0.00     0.074 A 
ATOM     16  C   UNL A   1      42.240  28.813  28.301  1.00  0.00     0.049 A 
ATOM     17  N   UNL A   1      42.634  28.634  31.255  1.00  0.00    -0.248 NA
ATOM     18  C   UNL A   1      40.517  29.502  31.627  1.00  0.00     0.031 C 
ATOM     19  C   UNL A   1      42.065  28.647  26.853  1.00  0.00     0.029 A 
ATOM     20  N   UNL A   1      43.526  28.392  28.515  1.00  0.00    -0.354 N 
ATOM     21  C   UNL A   1      42.370  28.588  32.620  1.00  0.00     0.074 A 
ATOM     22  C   UNL A   1      41.073  29.201  32.803  1.00  0.00     0.031 C 
ATOM     23  C   UNL A   1      43.114  27.962  26.358  1.00  0.00     0.029 A 
ATOM     24  C   UNL A   1      44.076  27.737  27.422  1.00  0.00     0.049 A 
ATOM     25  H   UNL A   1      44.011  28.539  29.360  1.00  0.00     0.167 HD
ATOM     26  C   UNL A   1      43.312  28.646  33.597  1.00  0.00     0.034 A 
ATOM     27  C   UNL A   1      45.216  27.011  27.381  1.00  0.00     0.034 A 
ATOM     28  C   UNL A   1      44.369  29.556  33.296  1.00  0.00     0.049 A 
ATOM     29  C   UNL A   1      46.071  27.407  28.523  1.00  0.00     0.074 A 
ATOM     30  C   UNL A   1      44.613  30.890  33.506  1.00  0.00     0.029 A 
ATOM     31  N   UNL A   1      45.327  29.079  32.446  1.00  0.00    -0.354 N 
ATOM     32  N   UNL A   1      46.659  28.568  28.637  1.00  0.00    -0.248 NA
ATOM     33  C   UNL A   1      46.163  26.543  29.696  1.00  0.00     0.031 C 
ATOM     34  C   UNL A   1      45.673  31.239  32.625  1.00  0.00     0.029 A 
ATOM     35  C   UNL A   1      46.024  30.113  31.880  1.00  0.00     0.049 A 
ATOM     36  H   UNL A   1      45.494  28.126  32.266  1.00  0.00     0.167 HD
ATOM     37  C   UNL A   1      46.828  28.732  29.999  1.00  0.00     0.074 A 
ATOM     38  C   UNL A   1      46.711  27.395  30.563  1.00  0.00     0.031 C 
ATOM     39  C   UNL A   1      46.686  29.951  30.595  1.00  0.00     0.034 A 
BRANCH  26  40
ATOM     40  C   UNL A   1      43.672  27.373  34.325  1.00  0.00     0.023 A 
ATOM     41  C   UNL A   1      43.490  26.159  33.633  1.00  0.00     0.012 A 
ATOM     42  C   UNL A   1      43.993  27.315  35.700  1.00  0.00     0.148 A 
ATOM     43  C   UNL A   1      43.650  24.928  34.275  1.00  0.00     0.002 A 
ATOM     44  C   UNL A   1      44.190  26.086  36.326  1.00  0.00     0.091 A 
ATOM     45  F   UNL A   1      44.031  28.456  36.401  1.00  0.00    -0.205 F 
ATOM     46  C   UNL A   1      44.012  24.891  35.617  1.00  0.00     0.022 A 
BRANCH  44  47
ATOM     47  S   UNL A   1      44.674  25.933  38.049  1.00  0.00     0.127 S 
ATOM     48  O   UNL A   1      43.434  26.281  38.739  1.00  0.00    -0.237 OA
ATOM     49  O   UNL A   1      45.044  24.519  38.119  1.00  0.00    -0.237 OA
ATOM     50  O   UNL A   1      45.774  26.866  38.233  1.00  0.00    -0.744 OA
ENDBRANCH  44  47
ENDBRANCH  26  40
BRANCH  27  51
ATOM     51  C   UNL A   1      45.647  25.967  26.420  1.00  0.00     0.023 A 
ATOM     52  C   UNL A   1      46.880  26.123  25.754  1.00  0.00     0.012 A 
ATOM     53  C   UNL A   1      44.973  24.733  26.282  1.00  0.00     0.148 A 
ATOM     54  C   UNL A   1      47.435  25.085  25.002  1.00  0.00     0.002 A 
ATOM     55  C   UNL A   1      45.514  23.712  25.502  1.00  0.00     0.091 A 
ATOM     56  F   UNL A   1      43.844  24.522  26.974  1.00  0.00    -0.205 F 
ATOM     57  C   UNL A   1      46.752  23.880  24.873  1.00  0.00     0.022 A 
BRANCH  55  58
ATOM     58  S   UNL A   1      44.650  22.155  25.249  1.00  0.00     0.127 S 
ATOM     59  O   UNL A   1      43.894  22.411  24.021  1.00  0.00    -0.237 OA
ATOM     60  O   UNL A   1      45.751  21.209  25.097  1.00  0.00    -0.237 OA
ATOM     61  O   UNL A   1      43.812  21.983  26.430  1.00  0.00    -0.744 OA
ENDBRANCH  55  58
ENDBRANCH  27  51
BRANCH  39  62
ATOM     62  C   UNL A   1      46.901  31.203  29.786  1.00  0.00     0.023 A 
ATOM     63  C   UNL A   1      48.165  31.811  29.668  1.00  0.00     0.012 A 
ATOM     64  C   UNL A   1      45.852  31.669  28.971  1.00  0.00     0.148 A 
ATOM     65  C   UNL A   1      48.373  32.866  28.775  1.00  0.00     0.002 A 
ATOM     66  C   UNL A   1      46.085  32.663  28.027  1.00  0.00     0.091 A 
ATOM     67  F   UNL A   1      44.640  31.101  29.086  1.00  0.00    -0.205 F 
ATOM     68  C   UNL A   1      47.340  33.278  27.937  1.00  0.00     0.022 A 
BRANCH  66  69
ATOM     69  S   UNL A   1      44.826  33.035  26.801  1.00  0.00     0.127 S 
ATOM     70  O   UNL A   1      44.811  34.496  26.791  1.00  0.00    -0.237 OA
ATOM     71  O   UNL A   1      45.357  32.424  25.581  1.00  0.00    -0.237 OA
ATOM     72  O   UNL A   1      43.625  32.378  27.309  1.00  0.00    -0.744 OA
ENDBRANCH  66  69
ENDBRANCH  39  62
ENDBRANCH  13  14
ENDBRANCH   6   8
ENDBRANCH   5   6
ENDBRANCH   4   5
ENDBRANCH   3   4
ENDBRANCH   2   3
ENDBRANCH   1   2
BRANCH   1  73
ATOM     73  C   UNL A   1      32.545  29.013  23.707  1.00  0.00     0.188 C 
BRANCH  73  74
ATOM     74  O   UNL A   1      33.765  28.268  23.645  1.00  0.00    -0.376 OA
BRANCH  74  75
ATOM     75  C   UNL A   1      33.688  26.854  23.647  1.00  0.00     0.202 C 
BRANCH  75  76
ATOM     76  C   UNL A   1      33.192  26.344  22.293  1.00  0.00     0.261 C 
BRANCH  76  77
ATOM     77  O   UNL A   1      32.370  25.167  22.409  1.00  0.00    -0.460 OA
BRANCH  77  78
ATOM     78  C   UNL A   1      32.955  24.003  22.017  1.00  0.00     0.339 C 
ATOM     79  O   UNL A   1      33.317  23.747  20.863  1.00  0.00    -0.246 OA
BRANCH  78  80
ATOM     80  C   UNL A   1      33.003  22.998  23.067  1.00  0.00     0.078 A 
ATOM     81  C   UNL A   1      32.443  21.695  22.984  1.00  0.00     0.051 A 
ATOM     82  C   UNL A   1      33.703  23.045  24.265  1.00  0.00     0.102 A 
ATOM     83  C   UNL A   1      32.898  20.970  24.058  1.00  0.00     0.086 A 
ATOM     84  N   UNL A   1      33.630  21.800  24.871  1.00  0.00    -0.335 N 
ATOM     85  Br  UNL A   1      32.613  19.128  24.226  1.00  0.00    -0.031 Br
BRANCH  84  86
ATOM     86  C   UNL A   1      34.433  21.398  26.027  1.00  0.00     0.180 C 
BRANCH  86  87
ATOM     87  C   UNL A   1      35.910  21.463  25.800  1.00  0.00     0.082 A 
ATOM     88  C   UNL A   1      36.754  20.610  25.047  1.00  0.00     0.047 A 
ATOM     89  N   UNL A   1      36.599  22.510  26.277  1.00  0.00    -0.176 NA
ATOM     90  C   UNL A   1      37.994  21.197  25.080  1.00  0.00     0.109 A 
ATOM     91  N   UNL A   1      37.857  22.328  25.830  1.00  0.00    -0.269 N 
BRANCH  91  92
ATOM     92  C   UNL A   1      38.926  23.219  26.210  1.00  0.00     0.107 C 
ATOM     93  C   UNL A   1      38.506  24.477  26.966  1.00  0.00     0.027 C 
ATOM     94  C   UNL A   1      39.953  22.593  27.142  1.00  0.00     0.027 C 
ATOM     95  C   UNL A   1      39.797  24.966  27.622  1.00  0.00     0.002 C 
ATOM     96  C   UNL A   1      40.779  23.800  27.542  1.00  0.00     0.002 C 
ENDBRANCH  91  92
ENDBRANCH  86  87
ENDBRANCH  84  86
ENDBRANCH  78  80
ENDBRANCH  77  78
ENDBRANCH  76  77
ENDBRANCH  75  76
ENDBRANCH  74  75
ENDBRANCH  73  74
ENDBRANCH   1  73
TORSDOF 23
ENDMDL
