MODEL 1
REMARK VINA RESULT:      -7.6      0.000      0.000
REMARK SMILES C[C@H]1c2ccc(O)cc2OC(=O)[C@@H]1CC(=O)N[C@@H](CC1=c2ccccc2=NC1)C(=O)OCCOCCOCCOC(=O)c1ccc(-c2c3nc(c(-c4cccc(S(=O)(=O)[O-])c4F)c4ccc([nH]4)c(-c4cccc(S(=O)(=O)[O-])c4F)c4nc(c(-c5cccc(S(=O)(=O)[O-])c5F)c5ccc2[nH]5)C=C4)C=C3)cc1
REMARK SMILES IDX 35 1 34 2 33 3 32 4 31 5 29 6 30 7 18 8 17 9 15 10 16 11
REMARK SMILES IDX 14 13 13 14 1 15 2 16 3 17 4 18 9 19 11 20 5 21 8 22 10 23
REMARK SMILES IDX 12 24 6 25 7 26 19 28 20 29 21 30 28 31 22 32 26 33 27 34
REMARK SMILES IDX 23 35 25 36 24 37 36 38 37 39 38 40 39 41 40 42 41 43 42 44
REMARK SMILES IDX 43 45 44 46 105 47 45 48 104 49 46 50 47 51 48 52 98 53
REMARK SMILES IDX 49 54 103 55 97 56 99 57 50 58 102 59 96 60 95 61 51 63
REMARK SMILES IDX 83 64 63 65 82 66 64 67 67 68 81 69 100 70 65 71 66 72 80 74
REMARK SMILES IDX 101 75 68 76 52 77 53 78 61 79 54 80 56 81 62 82 55 83 57 84
REMARK SMILES IDX 58 85 59 86 60 87 84 88 85 89 93 90 86 91 88 92 94 93 87 94
REMARK SMILES IDX 89 95 90 96 91 97 92 98 69 99 70 100 78 101 71 102 73 103
REMARK SMILES IDX 79 104 72 105 74 106 75 107 76 108 77 109
REMARK H PARENT 17 12 7 27 99 62 67 73
REMARK Flexibility Score: inf
ROOT
ATOM      1  C   UNL A   1      40.117  31.415  36.061  1.00  0.00     0.188 C 
ENDROOT
BRANCH   1   2
ATOM      2  O   UNL A   1      38.965  31.224  36.855  1.00  0.00    -0.376 OA
BRANCH   2   3
ATOM      3  C   UNL A   1      37.989  32.255  36.929  1.00  0.00     0.202 C 
BRANCH   3   4
ATOM      4  C   UNL A   1      38.330  33.742  36.760  1.00  0.00     0.261 C 
BRANCH   4   5
ATOM      5  O   UNL A   1      38.187  34.256  35.423  1.00  0.00    -0.462 OA
BRANCH   5   6
ATOM      6  C   UNL A   1      39.237  34.995  34.996  1.00  0.00     0.329 C 
ATOM      7  O   UNL A   1      39.533  36.092  35.467  1.00  0.00    -0.250 OA
BRANCH   6   8
ATOM      8  C   UNL A   1      40.041  34.406  33.828  1.00  0.00     0.196 C 
BRANCH   8   9
ATOM      9  N   UNL A   1      39.886  34.704  32.390  1.00  0.00    -0.342 N 
ATOM     10  C   UNL A   1      38.792  34.569  31.572  1.00  0.00     0.221 C 
ATOM     11  O   UNL A   1      38.976  34.485  30.356  1.00  0.00    -0.275 OA
ATOM     12  H   UNL A   1      40.695  35.052  31.948  1.00  0.00     0.164 HD
BRANCH  10  13
ATOM     13  C   UNL A   1      37.368  34.668  32.126  1.00  0.00     0.116 C 
BRANCH  13  14
ATOM     14  C   UNL A   1      36.548  33.364  32.189  1.00  0.00     0.116 C 
ATOM     15  C   UNL A   1      35.441  31.439  30.906  1.00  0.00     0.014 C 
ATOM     16  C   UNL A   1      36.119  32.819  30.804  1.00  0.00     0.034 C 
ATOM     17  C   UNL A   1      35.153  33.784  30.169  1.00  0.00    -0.001 A 
ATOM     18  C   UNL A   1      34.966  33.844  28.784  1.00  0.00     0.011 A 
ATOM     19  C   UNL A   1      34.366  34.595  30.991  1.00  0.00     0.138 A 
ATOM     20  C   UNL A   1      35.278  33.564  32.967  1.00  0.00     0.315 C 
ATOM     21  C   UNL A   1      33.994  34.693  28.252  1.00  0.00     0.047 A 
ATOM     22  C   UNL A   1      33.468  35.512  30.473  1.00  0.00     0.093 A 
ATOM     23  O   UNL A   1      34.360  34.424  32.386  1.00  0.00    -0.426 OA
ATOM     24  O   UNL A   1      35.078  33.052  34.063  1.00  0.00    -0.251 OA
ATOM     25  C   UNL A   1      33.259  35.515  29.106  1.00  0.00     0.119 A 
BRANCH  25  26
ATOM     26  O   UNL A   1      32.250  36.298  28.641  1.00  0.00    -0.508 OA
ATOM     27  H   UNL A   1      32.050  37.107  29.067  1.00  0.00     0.293 HD
ENDBRANCH  25  26
ENDBRANCH  13  14
ENDBRANCH  10  13
ENDBRANCH   8   9
BRANCH   8  28
ATOM     28  C   UNL A   1      41.515  34.579  34.248  1.00  0.00     0.070 C 
BRANCH  28  29
ATOM     29  C   UNL A   1      42.627  34.527  33.180  1.00  0.00    -0.037 C 
ATOM     30  C   UNL A   1      43.726  33.795  33.405  1.00  0.00     0.001 A 
ATOM     31  C   UNL A   1      43.101  35.949  32.928  1.00  0.00     0.174 C 
ATOM     32  C   UNL A   1      44.351  32.712  32.696  1.00  0.00     0.010 A 
ATOM     33  C   UNL A   1      44.656  34.828  33.917  1.00  0.00     0.065 A 
ATOM     34  N   UNL A   1      44.361  36.071  33.700  1.00  0.00    -0.280 NA
ATOM     35  C   UNL A   1      45.605  32.382  33.064  1.00  0.00     0.001 A 
ATOM     36  C   UNL A   1      45.836  34.273  34.606  1.00  0.00     0.028 A 
ATOM     37  C   UNL A   1      46.254  33.067  34.179  1.00  0.00     0.002 A 
ENDBRANCH  28  29
ENDBRANCH   8  28
ENDBRANCH   6   8
ENDBRANCH   5   6
ENDBRANCH   4   5
ENDBRANCH   3   4
ENDBRANCH   2   3
ENDBRANCH   1   2
BRANCH   1  38
ATOM     38  C   UNL A   1      40.520  30.303  35.083  1.00  0.00     0.188 C 
BRANCH  38  39
ATOM     39  O   UNL A   1      39.545  29.473  34.496  1.00  0.00    -0.376 OA
BRANCH  39  40
ATOM     40  C   UNL A   1      38.534  30.042  33.682  1.00  0.00     0.202 C 
BRANCH  40  41
ATOM     41  C   UNL A   1      37.798  29.319  32.533  1.00  0.00     0.261 C 
BRANCH  41  42
ATOM     42  O   UNL A   1      38.290  29.489  31.201  1.00  0.00    -0.460 OA
BRANCH  42  43
ATOM     43  C   UNL A   1      39.101  28.494  30.737  1.00  0.00     0.338 C 
ATOM     44  O   UNL A   1      38.792  27.344  30.517  1.00  0.00    -0.246 OA
BRANCH  43  45
ATOM     45  C   UNL A   1      40.375  29.125  30.312  1.00  0.00     0.060 A 
ATOM     46  C   UNL A   1      40.699  29.196  28.959  1.00  0.00     0.016 A 
ATOM     47  C   UNL A   1      41.271  29.600  31.283  1.00  0.00     0.016 A 
ATOM     48  C   UNL A   1      41.918  29.758  28.577  1.00  0.00     0.010 A 
ATOM     49  C   UNL A   1      42.510  30.125  30.900  1.00  0.00     0.010 A 
ATOM     50  C   UNL A   1      42.832  30.229  29.540  1.00  0.00    -0.014 A 
BRANCH  50  51
ATOM     51  C   UNL A   1      44.022  30.994  29.094  1.00  0.00     0.031 A 
ATOM     52  C   UNL A   1      45.288  30.329  28.648  1.00  0.00     0.074 A 
ATOM     53  C   UNL A   1      43.912  32.334  29.031  1.00  0.00     0.049 A 
ATOM     54  N   UNL A   1      46.412  30.880  28.261  1.00  0.00    -0.248 NA
ATOM     55  C   UNL A   1      45.301  28.863  28.627  1.00  0.00     0.031 C 
ATOM     56  C   UNL A   1      42.718  33.094  29.407  1.00  0.00     0.029 A 
ATOM     57  N   UNL A   1      44.792  33.286  28.590  1.00  0.00    -0.354 N 
ATOM     58  C   UNL A   1      47.299  29.834  28.040  1.00  0.00     0.074 A 
ATOM     59  C   UNL A   1      46.547  28.613  28.237  1.00  0.00     0.031 C 
ATOM     60  C   UNL A   1      42.919  34.388  29.119  1.00  0.00     0.029 A 
ATOM     61  C   UNL A   1      44.264  34.554  28.576  1.00  0.00     0.049 A 
ATOM     62  H   UNL A   1      45.713  33.081  28.309  1.00  0.00     0.167 HD
ATOM     63  C   UNL A   1      48.622  29.904  27.743  1.00  0.00     0.034 A 
ATOM     64  C   UNL A   1      44.794  35.717  28.154  1.00  0.00     0.034 A 
ATOM     65  C   UNL A   1      49.301  31.124  27.384  1.00  0.00     0.049 A 
ATOM     66  C   UNL A   1      46.185  35.740  27.595  1.00  0.00     0.074 A 
ATOM     67  C   UNL A   1      50.618  31.286  26.984  1.00  0.00     0.029 A 
ATOM     68  N   UNL A   1      48.711  32.374  27.314  1.00  0.00    -0.354 N 
ATOM     69  N   UNL A   1      47.028  34.746  27.456  1.00  0.00    -0.248 NA
ATOM     70  C   UNL A   1      46.694  37.032  27.115  1.00  0.00     0.031 C 
ATOM     71  C   UNL A   1      50.817  32.627  26.651  1.00  0.00     0.029 A 
ATOM     72  C   UNL A   1      49.621  33.297  26.831  1.00  0.00     0.049 A 
ATOM     73  H   UNL A   1      47.782  32.576  27.570  1.00  0.00     0.167 HD
ATOM     74  C   UNL A   1      48.161  35.290  26.867  1.00  0.00     0.074 A 
ATOM     75  C   UNL A   1      47.890  36.695  26.647  1.00  0.00     0.031 C 
ATOM     76  C   UNL A   1      49.329  34.679  26.561  1.00  0.00     0.034 A 
BRANCH  63  77
ATOM     77  C   UNL A   1      49.467  28.653  27.773  1.00  0.00     0.023 A 
ATOM     78  C   UNL A   1      49.701  27.910  26.605  1.00  0.00     0.012 A 
ATOM     79  C   UNL A   1      50.165  28.312  28.956  1.00  0.00     0.148 A 
ATOM     80  C   UNL A   1      50.603  26.843  26.616  1.00  0.00     0.002 A 
ATOM     81  C   UNL A   1      51.098  27.282  28.947  1.00  0.00     0.091 A 
ATOM     82  F   UNL A   1      49.884  28.997  30.074  1.00  0.00    -0.205 F 
ATOM     83  C   UNL A   1      51.312  26.541  27.777  1.00  0.00     0.022 A 
BRANCH  81  84
ATOM     84  S   UNL A   1      52.116  26.877  30.372  1.00  0.00     0.127 S 
ATOM     85  O   UNL A   1      51.766  27.950  31.301  1.00  0.00    -0.237 OA
ATOM     86  O   UNL A   1      51.611  25.556  30.743  1.00  0.00    -0.237 OA
ATOM     87  O   UNL A   1      53.492  26.899  29.895  1.00  0.00    -0.744 OA
ENDBRANCH  81  84
ENDBRANCH  63  77
BRANCH  64  88
ATOM     88  C   UNL A   1      43.952  36.940  28.177  1.00  0.00     0.023 A 
ATOM     89  C   UNL A   1      42.908  37.076  27.243  1.00  0.00     0.012 A 
ATOM     90  C   UNL A   1      44.130  37.921  29.169  1.00  0.00     0.148 A 
ATOM     91  C   UNL A   1      42.057  38.179  27.292  1.00  0.00     0.002 A 
ATOM     92  C   UNL A   1      43.252  38.994  29.239  1.00  0.00     0.091 A 
ATOM     93  F   UNL A   1      45.132  37.761  30.045  1.00  0.00    -0.205 F 
ATOM     94  C   UNL A   1      42.221  39.131  28.295  1.00  0.00     0.022 A 
BRANCH  92  95
ATOM     95  S   UNL A   1      43.318  40.210  30.558  1.00  0.00     0.127 S 
ATOM     96  O   UNL A   1      43.327  39.358  31.745  1.00  0.00    -0.237 OA
ATOM     97  O   UNL A   1      44.584  40.887  30.274  1.00  0.00    -0.237 OA
ATOM     98  O   UNL A   1      42.134  41.041  30.390  1.00  0.00    -0.744 OA
ENDBRANCH  92  95
ENDBRANCH  64  88
BRANCH  76  99
ATOM     99  C   UNL A   1      50.421  35.497  25.932  1.00  0.00     0.023 A 
ATOM    100  C   UNL A   1      50.612  35.443  24.539  1.00  0.00     0.012 A 
ATOM    101  C   UNL A   1      51.164  36.413  26.703  1.00  0.00     0.148 A 
ATOM    102  C   UNL A   1      51.535  36.285  23.919  1.00  0.00     0.002 A 
ATOM    103  C   UNL A   1      52.061  37.268  26.076  1.00  0.00     0.091 A 
ATOM    104  F   UNL A   1      50.964  36.440  28.028  1.00  0.00    -0.205 F 
ATOM    105  C   UNL A   1      52.249  37.205  24.685  1.00  0.00     0.022 A 
BRANCH 103 106
ATOM    106  S   UNL A   1      52.987  38.526  26.964  1.00  0.00     0.127 S 
ATOM    107  O   UNL A   1      51.914  39.295  27.594  1.00  0.00    -0.237 OA
ATOM    108  O   UNL A   1      53.787  37.724  27.889  1.00  0.00    -0.237 OA
ATOM    109  O   UNL A   1      53.755  39.249  25.959  1.00  0.00    -0.744 OA
ENDBRANCH 103 106
ENDBRANCH  76  99
ENDBRANCH  50  51
ENDBRANCH  43  45
ENDBRANCH  42  43
ENDBRANCH  41  42
ENDBRANCH  40  41
ENDBRANCH  39  40
ENDBRANCH  38  39
ENDBRANCH   1  38
TORSDOF 26
ENDMDL
MODEL 2
REMARK VINA RESULT:      -7.6      5.069     11.145
REMARK SMILES C[C@H]1c2ccc(O)cc2OC(=O)[C@@H]1CC(=O)N[C@@H](CC1=c2ccccc2=NC1)C(=O)OCCOCCOCCOC(=O)c1ccc(-c2c3nc(c(-c4cccc(S(=O)(=O)[O-])c4F)c4ccc([nH]4)c(-c4cccc(S(=O)(=O)[O-])c4F)c4nc(c(-c5cccc(S(=O)(=O)[O-])c5F)c5ccc2[nH]5)C=C4)C=C3)cc1
REMARK SMILES IDX 35 1 34 2 33 3 32 4 31 5 29 6 30 7 18 8 17 9 15 10 16 11
REMARK SMILES IDX 14 13 13 14 1 15 2 16 3 17 4 18 9 19 11 20 5 21 8 22 10 23
REMARK SMILES IDX 12 24 6 25 7 26 19 28 20 29 21 30 28 31 22 32 26 33 27 34
REMARK SMILES IDX 23 35 25 36 24 37 36 38 37 39 38 40 39 41 40 42 41 43 42 44
REMARK SMILES IDX 43 45 44 46 105 47 45 48 104 49 46 50 47 51 48 52 98 53
REMARK SMILES IDX 49 54 103 55 97 56 99 57 50 58 102 59 96 60 95 61 51 63
REMARK SMILES IDX 83 64 63 65 82 66 64 67 67 68 81 69 100 70 65 71 66 72 80 74
REMARK SMILES IDX 101 75 68 76 52 77 53 78 61 79 54 80 56 81 62 82 55 83 57 84
REMARK SMILES IDX 58 85 59 86 60 87 84 88 85 89 93 90 86 91 88 92 94 93 87 94
REMARK SMILES IDX 89 95 90 96 91 97 92 98 69 99 70 100 78 101 71 102 73 103
REMARK SMILES IDX 79 104 72 105 74 106 75 107 76 108 77 109
REMARK H PARENT 17 12 7 27 99 62 67 73
REMARK Flexibility Score: inf
ROOT
ATOM      1  C   UNL A   1      44.081  33.154  43.761  1.00  0.00     0.188 C 
ENDROOT
BRANCH   1   2
ATOM      2  O   UNL A   1      44.305  31.834  43.313  1.00  0.00    -0.376 OA
BRANCH   2   3
ATOM      3  C   UNL A   1      43.450  31.276  42.325  1.00  0.00     0.202 C 
BRANCH   3   4
ATOM      4  C   UNL A   1      41.986  31.702  42.150  1.00  0.00     0.261 C 
BRANCH   4   5
ATOM      5  O   UNL A   1      41.774  32.832  41.285  1.00  0.00    -0.462 OA
BRANCH   5   6
ATOM      6  C   UNL A   1      41.164  32.531  40.116  1.00  0.00     0.329 C 
ATOM      7  O   UNL A   1      41.702  31.895  39.211  1.00  0.00    -0.250 OA
BRANCH   6   8
ATOM      8  C   UNL A   1      39.739  33.076  39.943  1.00  0.00     0.196 C 
BRANCH   8   9
ATOM      9  N   UNL A   1      39.156  34.283  40.562  1.00  0.00    -0.342 N 
ATOM     10  C   UNL A   1      38.181  34.401  41.521  1.00  0.00     0.221 C 
ATOM     11  O   UNL A   1      37.567  35.467  41.604  1.00  0.00    -0.275 OA
ATOM     12  H   UNL A   1      39.524  35.137  40.236  1.00  0.00     0.164 HD
BRANCH  10  13
ATOM     13  C   UNL A   1      37.954  33.303  42.563  1.00  0.00     0.116 C 
BRANCH  13  14
ATOM     14  C   UNL A   1      36.823  32.293  42.281  1.00  0.00     0.116 C 
ATOM     15  C   UNL A   1      34.753  31.060  43.158  1.00  0.00     0.014 C 
ATOM     16  C   UNL A   1      35.960  31.947  43.519  1.00  0.00     0.034 C 
ATOM     17  C   UNL A   1      36.808  31.217  44.528  1.00  0.00    -0.001 A 
ATOM     18  C   UNL A   1      36.493  31.201  45.891  1.00  0.00     0.011 A 
ATOM     19  C   UNL A   1      37.903  30.474  44.081  1.00  0.00     0.138 A 
ATOM     20  C   UNL A   1      37.380  30.987  41.787  1.00  0.00     0.315 C 
ATOM     21  C   UNL A   1      37.261  30.436  46.770  1.00  0.00     0.047 A 
ATOM     22  C   UNL A   1      38.732  29.790  44.954  1.00  0.00     0.093 A 
ATOM     23  O   UNL A   1      38.138  30.283  42.709  1.00  0.00    -0.426 OA
ATOM     24  O   UNL A   1      37.227  30.588  40.638  1.00  0.00    -0.251 OA
ATOM     25  C   UNL A   1      38.369  29.742  46.288  1.00  0.00     0.119 A 
BRANCH  25  26
ATOM     26  O   UNL A   1      39.098  28.923  47.092  1.00  0.00    -0.508 OA
ATOM     27  H   UNL A   1      39.986  28.724  46.876  1.00  0.00     0.293 HD
ENDBRANCH  25  26
ENDBRANCH  13  14
ENDBRANCH  10  13
ENDBRANCH   8   9
BRANCH   8  28
ATOM     28  C   UNL A   1      39.521  33.108  38.416  1.00  0.00     0.070 C 
BRANCH  28  29
ATOM     29  C   UNL A   1      38.416  32.237  37.782  1.00  0.00    -0.037 C 
ATOM     30  C   UNL A   1      38.445  31.986  36.467  1.00  0.00     0.001 A 
ATOM     31  C   UNL A   1      37.078  32.903  38.062  1.00  0.00     0.174 C 
ATOM     32  C   UNL A   1      38.477  30.772  35.696  1.00  0.00     0.010 A 
ATOM     33  C   UNL A   1      37.525  33.029  35.956  1.00  0.00     0.065 A 
ATOM     34  N   UNL A   1      36.732  33.605  36.803  1.00  0.00    -0.280 NA
ATOM     35  C   UNL A   1      38.228  30.880  34.375  1.00  0.00     0.001 A 
ATOM     36  C   UNL A   1      37.634  33.254  34.503  1.00  0.00     0.028 A 
ATOM     37  C   UNL A   1      38.004  32.189  33.768  1.00  0.00     0.002 A 
ENDBRANCH  28  29
ENDBRANCH   8  28
ENDBRANCH   6   8
ENDBRANCH   5   6
ENDBRANCH   4   5
ENDBRANCH   3   4
ENDBRANCH   2   3
ENDBRANCH   1   2
BRANCH   1  38
ATOM     38  C   UNL A   1      44.532  34.315  42.865  1.00  0.00     0.188 C 
BRANCH  38  39
ATOM     39  O   UNL A   1      43.715  35.447  42.688  1.00  0.00    -0.376 OA
BRANCH  39  40
ATOM     40  C   UNL A   1      43.568  36.014  41.397  1.00  0.00     0.202 C 
BRANCH  40  41
ATOM     41  C   UNL A   1      42.297  36.714  40.867  1.00  0.00     0.261 C 
BRANCH  41  42
ATOM     42  O   UNL A   1      41.468  36.001  39.944  1.00  0.00    -0.460 OA
BRANCH  42  43
ATOM     43  C   UNL A   1      41.029  36.717  38.868  1.00  0.00     0.338 C 
ATOM     44  O   UNL A   1      40.630  37.861  38.865  1.00  0.00    -0.246 OA
BRANCH  43  45
ATOM     45  C   UNL A   1      41.359  35.932  37.652  1.00  0.00     0.060 A 
ATOM     46  C   UNL A   1      42.634  35.395  37.495  1.00  0.00     0.016 A 
ATOM     47  C   UNL A   1      40.395  35.782  36.642  1.00  0.00     0.016 A 
ATOM     48  C   UNL A   1      42.940  34.692  36.328  1.00  0.00     0.010 A 
ATOM     49  C   UNL A   1      40.717  35.113  35.457  1.00  0.00     0.010 A 
ATOM     50  C   UNL A   1      41.987  34.542  35.302  1.00  0.00    -0.014 A 
BRANCH  50  51
ATOM     51  C   UNL A   1      42.280  33.628  34.172  1.00  0.00     0.031 A 
ATOM     52  C   UNL A   1      42.679  34.122  32.815  1.00  0.00     0.074 A 
ATOM     53  C   UNL A   1      42.246  32.304  34.418  1.00  0.00     0.049 A 
ATOM     54  N   UNL A   1      42.934  33.432  31.732  1.00  0.00    -0.248 NA
ATOM     55  C   UNL A   1      42.813  35.574  32.647  1.00  0.00     0.031 C 
ATOM     56  C   UNL A   1      41.904  31.702  35.707  1.00  0.00     0.029 A 
ATOM     57  N   UNL A   1      42.544  31.235  33.614  1.00  0.00    -0.354 N 
ATOM     58  C   UNL A   1      43.169  34.362  30.727  1.00  0.00     0.074 A 
ATOM     59  C   UNL A   1      43.125  35.664  31.357  1.00  0.00     0.031 C 
ATOM     60  C   UNL A   1      42.075  30.374  35.625  1.00  0.00     0.029 A 
ATOM     61  C   UNL A   1      42.499  30.030  34.270  1.00  0.00     0.049 A 
ATOM     62  H   UNL A   1      42.769  31.324  32.659  1.00  0.00     0.167 HD
ATOM     63  C   UNL A   1      43.358  34.136  29.402  1.00  0.00     0.034 A 
ATOM     64  C   UNL A   1      42.787  28.788  33.839  1.00  0.00     0.034 A 
ATOM     65  C   UNL A   1      43.568  32.829  28.831  1.00  0.00     0.049 A 
ATOM     66  C   UNL A   1      43.235  28.579  32.423  1.00  0.00     0.074 A 
ATOM     67  C   UNL A   1      43.852  32.504  27.515  1.00  0.00     0.029 A 
ATOM     68  N   UNL A   1      43.585  31.642  29.544  1.00  0.00    -0.354 N 
ATOM     69  N   UNL A   1      43.386  29.470  31.473  1.00  0.00    -0.248 NA
ATOM     70  C   UNL A   1      43.573  27.207  32.021  1.00  0.00     0.031 C 
ATOM     71  C   UNL A   1      44.064  31.126  27.435  1.00  0.00     0.029 A 
ATOM     72  C   UNL A   1      43.923  30.595  28.705  1.00  0.00     0.049 A 
ATOM     73  H   UNL A   1      43.385  31.556  30.504  1.00  0.00     0.167 HD
ATOM     74  C   UNL A   1      43.844  28.767  30.365  1.00  0.00     0.074 A 
ATOM     75  C   UNL A   1      43.973  27.383  30.767  1.00  0.00     0.031 C 
ATOM     76  C   UNL A   1      44.107  29.231  29.122  1.00  0.00     0.034 A 
BRANCH  63  77
ATOM     77  C   UNL A   1      43.361  35.295  28.434  1.00  0.00     0.023 A 
ATOM     78  C   UNL A   1      42.160  35.853  27.969  1.00  0.00     0.012 A 
ATOM     79  C   UNL A   1      44.584  35.933  28.114  1.00  0.00     0.148 A 
ATOM     80  C   UNL A   1      42.174  37.015  27.193  1.00  0.00     0.002 A 
ATOM     81  C   UNL A   1      44.587  37.115  27.385  1.00  0.00     0.091 A 
ATOM     82  F   UNL A   1      45.723  35.352  28.518  1.00  0.00    -0.205 F 
ATOM     83  C   UNL A   1      43.381  37.654  26.917  1.00  0.00     0.022 A 
BRANCH  81  84
ATOM     84  S   UNL A   1      46.085  38.052  27.053  1.00  0.00     0.127 S 
ATOM     85  O   UNL A   1      46.496  38.440  28.401  1.00  0.00    -0.237 OA
ATOM     86  O   UNL A   1      46.938  37.049  26.417  1.00  0.00    -0.237 OA
ATOM     87  O   UNL A   1      45.682  39.154  26.192  1.00  0.00    -0.744 OA
ENDBRANCH  81  84
ENDBRANCH  63  77
BRANCH  64  88
ATOM     88  C   UNL A   1      42.734  27.661  34.804  1.00  0.00     0.023 A 
ATOM     89  C   UNL A   1      41.584  26.851  34.855  1.00  0.00     0.012 A 
ATOM     90  C   UNL A   1      43.845  27.342  35.605  1.00  0.00     0.148 A 
ATOM     91  C   UNL A   1      41.538  25.743  35.698  1.00  0.00     0.002 A 
ATOM     92  C   UNL A   1      43.809  26.212  36.410  1.00  0.00     0.091 A 
ATOM     93  F   UNL A   1      44.925  28.132  35.531  1.00  0.00    -0.205 F 
ATOM     94  C   UNL A   1      42.653  25.416  36.466  1.00  0.00     0.022 A 
BRANCH  92  95
ATOM     95  S   UNL A   1      45.233  25.653  37.350  1.00  0.00     0.127 S 
ATOM     96  O   UNL A   1      46.221  25.443  36.294  1.00  0.00    -0.237 OA
ATOM     97  O   UNL A   1      45.487  26.804  38.216  1.00  0.00    -0.237 OA
ATOM     98  O   UNL A   1      44.798  24.452  38.050  1.00  0.00    -0.744 OA
ENDBRANCH  92  95
ENDBRANCH  64  88
BRANCH  76  99
ATOM     99  C   UNL A   1      44.584  28.258  28.081  1.00  0.00     0.023 A 
ATOM    100  C   UNL A   1      45.964  28.015  27.943  1.00  0.00     0.012 A 
ATOM    101  C   UNL A   1      43.663  27.492  27.340  1.00  0.00     0.148 A 
ATOM    102  C   UNL A   1      46.422  27.027  27.072  1.00  0.00     0.002 A 
ATOM    103  C   UNL A   1      44.126  26.491  26.495  1.00  0.00     0.091 A 
ATOM    104  F   UNL A   1      42.356  27.749  27.490  1.00  0.00    -0.205 F 
ATOM    105  C   UNL A   1      45.505  26.258  26.359  1.00  0.00     0.022 A 
BRANCH 103 106
ATOM    106  S   UNL A   1      43.024  25.409  25.578  1.00  0.00     0.127 S 
ATOM    107  O   UNL A   1      43.971  24.622  24.788  1.00  0.00    -0.237 OA
ATOM    108  O   UNL A   1      42.359  24.667  26.648  1.00  0.00    -0.237 OA
ATOM    109  O   UNL A   1      42.151  26.281  24.804  1.00  0.00    -0.744 OA
ENDBRANCH 103 106
ENDBRANCH  76  99
ENDBRANCH  50  51
ENDBRANCH  43  45
ENDBRANCH  42  43
ENDBRANCH  41  42
ENDBRANCH  40  41
ENDBRANCH  39  40
ENDBRANCH  38  39
ENDBRANCH   1  38
TORSDOF 26
ENDMDL
MODEL 3
REMARK VINA RESULT:      -7.6      5.488     11.721
REMARK SMILES C[C@H]1c2ccc(O)cc2OC(=O)[C@@H]1CC(=O)N[C@@H](CC1=c2ccccc2=NC1)C(=O)OCCOCCOCCOC(=O)c1ccc(-c2c3nc(c(-c4cccc(S(=O)(=O)[O-])c4F)c4ccc([nH]4)c(-c4cccc(S(=O)(=O)[O-])c4F)c4nc(c(-c5cccc(S(=O)(=O)[O-])c5F)c5ccc2[nH]5)C=C4)C=C3)cc1
REMARK SMILES IDX 35 1 34 2 33 3 32 4 31 5 29 6 30 7 18 8 17 9 15 10 16 11
REMARK SMILES IDX 14 13 13 14 1 15 2 16 3 17 4 18 9 19 11 20 5 21 8 22 10 23
REMARK SMILES IDX 12 24 6 25 7 26 19 28 20 29 21 30 28 31 22 32 26 33 27 34
REMARK SMILES IDX 23 35 25 36 24 37 36 38 37 39 38 40 39 41 40 42 41 43 42 44
REMARK SMILES IDX 43 45 44 46 105 47 45 48 104 49 46 50 47 51 48 52 98 53
REMARK SMILES IDX 49 54 103 55 97 56 99 57 50 58 102 59 96 60 95 61 51 63
REMARK SMILES IDX 83 64 63 65 82 66 64 67 67 68 81 69 100 70 65 71 66 72 80 74
REMARK SMILES IDX 101 75 68 76 52 77 53 78 61 79 54 80 56 81 62 82 55 83 57 84
REMARK SMILES IDX 58 85 59 86 60 87 84 88 85 89 93 90 86 91 88 92 94 93 87 94
REMARK SMILES IDX 89 95 90 96 91 97 92 98 69 99 70 100 78 101 71 102 73 103
REMARK SMILES IDX 79 104 72 105 74 106 75 107 76 108 77 109
REMARK H PARENT 17 12 7 27 99 62 67 73
REMARK Flexibility Score: inf
ROOT
ATOM      1  C   UNL A   1      39.247  29.587  33.036  1.00  0.00     0.188 C 
ENDROOT
BRANCH   1   2
ATOM      2  O   UNL A   1      38.993  29.156  31.716  1.00  0.00    -0.376 OA
BRANCH   2   3
ATOM      3  C   UNL A   1      39.859  28.205  31.112  1.00  0.00     0.202 C 
BRANCH   3   4
ATOM      4  C   UNL A   1      40.068  28.111  29.594  1.00  0.00     0.261 C 
BRANCH   4   5
ATOM      5  O   UNL A   1      40.920  27.036  29.158  1.00  0.00    -0.462 OA
BRANCH   5   6
ATOM      6  C   UNL A   1      42.238  27.341  29.148  1.00  0.00     0.329 C 
ATOM      7  O   UNL A   1      42.996  27.114  30.089  1.00  0.00    -0.250 OA
BRANCH   6   8
ATOM      8  C   UNL A   1      42.753  28.048  27.886  1.00  0.00     0.196 C 
BRANCH   8   9
ATOM      9  N   UNL A   1      42.339  27.809  26.488  1.00  0.00    -0.342 N 
ATOM     10  C   UNL A   1      43.093  27.495  25.385  1.00  0.00     0.221 C 
ATOM     11  O   UNL A   1      42.625  27.733  24.269  1.00  0.00    -0.275 OA
ATOM     12  H   UNL A   1      41.371  27.889  26.322  1.00  0.00     0.164 HD
BRANCH  10  13
ATOM     13  C   UNL A   1      44.414  26.733  25.515  1.00  0.00     0.116 C 
BRANCH  13  14
ATOM     14  C   UNL A   1      44.454  25.297  24.953  1.00  0.00     0.116 C 
ATOM     15  C   UNL A   1      43.297  23.017  24.754  1.00  0.00     0.014 C 
ATOM     16  C   UNL A   1      43.308  24.386  25.460  1.00  0.00     0.034 C 
ATOM     17  C   UNL A   1      43.471  24.163  26.941  1.00  0.00    -0.001 A 
ATOM     18  C   UNL A   1      42.393  23.819  27.763  1.00  0.00     0.011 A 
ATOM     19  C   UNL A   1      44.750  24.231  27.500  1.00  0.00     0.138 A 
ATOM     20  C   UNL A   1      45.733  24.606  25.333  1.00  0.00     0.315 C 
ATOM     21  C   UNL A   1      42.613  23.536  29.112  1.00  0.00     0.047 A 
ATOM     22  C   UNL A   1      44.970  24.049  28.854  1.00  0.00     0.093 A 
ATOM     23  O   UNL A   1      45.890  24.362  26.688  1.00  0.00    -0.426 OA
ATOM     24  O   UNL A   1      46.605  24.322  24.520  1.00  0.00    -0.251 OA
ATOM     25  C   UNL A   1      43.900  23.656  29.637  1.00  0.00     0.119 A 
BRANCH  25  26
ATOM     26  O   UNL A   1      44.174  23.314  30.924  1.00  0.00    -0.508 OA
ATOM     27  H   UNL A   1      45.032  23.451  31.273  1.00  0.00     0.293 HD
ENDBRANCH  25  26
ENDBRANCH  13  14
ENDBRANCH  10  13
ENDBRANCH   8   9
BRANCH   8  28
ATOM     28  C   UNL A   1      42.653  29.551  28.218  1.00  0.00     0.070 C 
BRANCH  28  29
ATOM     29  C   UNL A   1      43.939  30.392  28.356  1.00  0.00    -0.037 C 
ATOM     30  C   UNL A   1      43.900  31.706  28.101  1.00  0.00     0.001 A 
ATOM     31  C   UNL A   1      44.985  29.803  27.423  1.00  0.00     0.174 C 
ATOM     32  C   UNL A   1      44.229  32.872  28.877  1.00  0.00     0.010 A 
ATOM     33  C   UNL A   1      44.367  31.737  26.695  1.00  0.00     0.065 A 
ATOM     34  N   UNL A   1      44.976  30.690  26.235  1.00  0.00    -0.280 NA
ATOM     35  C   UNL A   1      44.327  34.041  28.213  1.00  0.00     0.001 A 
ATOM     36  C   UNL A   1      44.081  33.009  26.004  1.00  0.00     0.028 A 
ATOM     37  C   UNL A   1      44.044  34.106  26.781  1.00  0.00     0.002 A 
ENDBRANCH  28  29
ENDBRANCH   8  28
ENDBRANCH   6   8
ENDBRANCH   5   6
ENDBRANCH   4   5
ENDBRANCH   3   4
ENDBRANCH   2   3
ENDBRANCH   1   2
BRANCH   1  38
ATOM     38  C   UNL A   1      38.185  30.441  33.741  1.00  0.00     0.188 C 
BRANCH  38  39
ATOM     39  O   UNL A   1      37.905  31.749  33.301  1.00  0.00    -0.376 OA
BRANCH  39  40
ATOM     40  C   UNL A   1      38.955  32.567  32.813  1.00  0.00     0.202 C 
BRANCH  40  41
ATOM     41  C   UNL A   1      40.140  33.095  33.649  1.00  0.00     0.261 C 
BRANCH  41  42
ATOM     42  O   UNL A   1      41.140  33.877  32.988  1.00  0.00    -0.460 OA
BRANCH  42  43
ATOM     43  C   UNL A   1      41.563  33.399  31.782  1.00  0.00     0.338 C 
ATOM     44  O   UNL A   1      41.320  33.860  30.688  1.00  0.00    -0.246 OA
BRANCH  43  45
ATOM     45  C   UNL A   1      42.581  32.354  32.053  1.00  0.00     0.060 A 
ATOM     46  C   UNL A   1      43.825  32.711  32.569  1.00  0.00     0.016 A 
ATOM     47  C   UNL A   1      42.301  31.015  31.736  1.00  0.00     0.016 A 
ATOM     48  C   UNL A   1      44.785  31.722  32.783  1.00  0.00     0.010 A 
ATOM     49  C   UNL A   1      43.280  30.031  31.913  1.00  0.00     0.010 A 
ATOM     50  C   UNL A   1      44.523  30.376  32.460  1.00  0.00    -0.014 A 
BRANCH  50  51
ATOM     51  C   UNL A   1      45.487  29.330  32.881  1.00  0.00     0.031 A 
ATOM     52  C   UNL A   1      45.451  28.698  34.239  1.00  0.00     0.074 A 
ATOM     53  C   UNL A   1      46.377  28.901  31.967  1.00  0.00     0.049 A 
ATOM     54  N   UNL A   1      46.253  27.795  34.745  1.00  0.00    -0.248 NA
ATOM     55  C   UNL A   1      44.381  29.127  35.146  1.00  0.00     0.031 C 
ATOM     56  C   UNL A   1      46.487  29.416  30.601  1.00  0.00     0.029 A 
ATOM     57  N   UNL A   1      47.321  27.910  32.031  1.00  0.00    -0.354 N 
ATOM     58  C   UNL A   1      45.847  27.611  36.061  1.00  0.00     0.074 A 
ATOM     59  C   UNL A   1      44.663  28.423  36.239  1.00  0.00     0.031 C 
ATOM     60  C   UNL A   1      47.401  28.693  29.937  1.00  0.00     0.029 A 
ATOM     61  C   UNL A   1      47.965  27.692  30.838  1.00  0.00     0.049 A 
ATOM     62  H   UNL A   1      47.517  27.404  32.852  1.00  0.00     0.167 HD
ATOM     63  C   UNL A   1      46.442  26.865  37.027  1.00  0.00     0.034 A 
ATOM     64  C   UNL A   1      48.891  26.776  30.499  1.00  0.00     0.034 A 
ATOM     65  C   UNL A   1      47.515  25.935  36.777  1.00  0.00     0.049 A 
ATOM     66  C   UNL A   1      49.368  25.789  31.522  1.00  0.00     0.074 A 
ATOM     67  C   UNL A   1      48.127  25.072  37.672  1.00  0.00     0.029 A 
ATOM     68  N   UNL A   1      48.089  25.694  35.540  1.00  0.00    -0.354 N 
ATOM     69  N   UNL A   1      49.015  25.678  32.779  1.00  0.00    -0.248 NA
ATOM     70  C   UNL A   1      50.351  24.788  31.083  1.00  0.00     0.031 C 
ATOM     71  C   UNL A   1      49.053  24.295  36.973  1.00  0.00     0.029 A 
ATOM     72  C   UNL A   1      49.008  24.666  35.642  1.00  0.00     0.049 A 
ATOM     73  H   UNL A   1      47.875  26.183  34.713  1.00  0.00     0.167 HD
ATOM     74  C   UNL A   1      49.725  24.593  33.278  1.00  0.00     0.074 A 
ATOM     75  C   UNL A   1      50.507  24.061  32.183  1.00  0.00     0.031 C 
ATOM     76  C   UNL A   1      49.740  24.103  34.539  1.00  0.00     0.034 A 
BRANCH  63  77
ATOM     77  C   UNL A   1      45.980  26.982  38.459  1.00  0.00     0.023 A 
ATOM     78  C   UNL A   1      45.035  26.090  38.990  1.00  0.00     0.012 A 
ATOM     79  C   UNL A   1      46.623  27.897  39.327  1.00  0.00     0.148 A 
ATOM     80  C   UNL A   1      44.727  26.114  40.352  1.00  0.00     0.002 A 
ATOM     81  C   UNL A   1      46.350  27.882  40.689  1.00  0.00     0.091 A 
ATOM     82  F   UNL A   1      47.479  28.779  38.791  1.00  0.00    -0.205 F 
ATOM     83  C   UNL A   1      45.394  26.994  41.202  1.00  0.00     0.022 A 
BRANCH  81  84
ATOM     84  S   UNL A   1      47.220  28.921  41.870  1.00  0.00     0.127 S 
ATOM     85  O   UNL A   1      48.614  28.583  41.589  1.00  0.00    -0.237 OA
ATOM     86  O   UNL A   1      46.818  30.263  41.451  1.00  0.00    -0.237 OA
ATOM     87  O   UNL A   1      46.741  28.516  43.183  1.00  0.00    -0.744 OA
ENDBRANCH  81  84
ENDBRANCH  63  77
BRANCH  64  88
ATOM     88  C   UNL A   1      49.359  26.713  29.091  1.00  0.00     0.023 A 
ATOM     89  C   UNL A   1      48.762  25.796  28.207  1.00  0.00     0.012 A 
ATOM     90  C   UNL A   1      50.328  27.613  28.611  1.00  0.00     0.148 A 
ATOM     91  C   UNL A   1      49.131  25.769  26.863  1.00  0.00     0.002 A 
ATOM     92  C   UNL A   1      50.658  27.610  27.263  1.00  0.00     0.091 A 
ATOM     93  F   UNL A   1      50.876  28.475  29.479  1.00  0.00    -0.205 F 
ATOM     94  C   UNL A   1      50.069  26.683  26.388  1.00  0.00     0.022 A 
BRANCH  92  95
ATOM     95  S   UNL A   1      51.774  28.818  26.542  1.00  0.00     0.127 S 
ATOM     96  O   UNL A   1      52.783  27.959  25.927  1.00  0.00    -0.237 OA
ATOM     97  O   UNL A   1      50.894  29.511  25.601  1.00  0.00    -0.237 OA
ATOM     98  O   UNL A   1      52.239  29.638  27.652  1.00  0.00    -0.744 OA
ENDBRANCH  92  95
ENDBRANCH  64  88
BRANCH  76  99
ATOM     99  C   UNL A   1      50.611  22.914  34.833  1.00  0.00     0.023 A 
ATOM    100  C   UNL A   1      50.069  21.619  34.735  1.00  0.00     0.012 A 
ATOM    101  C   UNL A   1      51.989  23.077  35.075  1.00  0.00     0.148 A 
ATOM    102  C   UNL A   1      50.886  20.498  34.882  1.00  0.00     0.002 A 
ATOM    103  C   UNL A   1      52.802  21.957  35.192  1.00  0.00     0.091 A 
ATOM    104  F   UNL A   1      52.476  24.322  35.167  1.00  0.00    -0.205 F 
ATOM    105  C   UNL A   1      52.252  20.667  35.098  1.00  0.00     0.022 A 
BRANCH 103 106
ATOM    106  S   UNL A   1      54.581  22.067  35.413  1.00  0.00     0.127 S 
ATOM    107  O   UNL A   1      54.991  22.746  34.185  1.00  0.00    -0.237 OA
ATOM    108  O   UNL A   1      54.691  22.880  36.625  1.00  0.00    -0.237 OA
ATOM    109  O   UNL A   1      55.059  20.698  35.550  1.00  0.00    -0.744 OA
ENDBRANCH 103 106
ENDBRANCH  76  99
ENDBRANCH  50  51
ENDBRANCH  43  45
ENDBRANCH  42  43
ENDBRANCH  41  42
ENDBRANCH  40  41
ENDBRANCH  39  40
ENDBRANCH  38  39
ENDBRANCH   1  38
TORSDOF 26
ENDMDL
