MODEL 1
REMARK VINA RESULT:     -12.0      0.000      0.000
REMARK SMILES O=C(C[C@]12CSc3[nH]c(=O)sc3[C@H]1c1cc(Cl)ccc1OC2=O)OCCOCCOCCOC(=O)c1ccc(-c2c3nc(c(-c4cccc(S(=O)(=O)[O-])c4F)c4ccc([nH]4)c(-c4cccc(S(=O)(=O)[O-])c4F)c4nc(c(-c5cccc(S(=O)(=O)[O-])c5F)c5ccc2[nH]5)C=C4)C=C3)cc1
REMARK SMILES IDX 29 1 28 2 27 3 26 4 25 5 24 6 2 7 1 8 3 9 4 10 5 11 13 12
REMARK SMILES IDX 22 13 6 14 12 15 14 16 21 17 23 18 7 19 11 20 15 21 20 22
REMARK SMILES IDX 8 23 9 24 16 25 19 26 10 28 17 29 18 30 30 31 31 32 32 33
REMARK SMILES IDX 33 34 34 35 35 36 36 37 37 38 98 39 38 40 97 41 39 42 40 43
REMARK SMILES IDX 41 44 91 45 42 46 96 47 90 48 92 49 43 50 95 51 89 52 88 53
REMARK SMILES IDX 44 55 76 56 56 57 75 58 57 59 60 60 74 61 93 62 58 63 59 64
REMARK SMILES IDX 73 66 94 67 61 68 45 69 46 70 54 71 47 72 49 73 55 74 48 75
REMARK SMILES IDX 50 76 51 77 52 78 53 79 77 80 78 81 86 82 79 83 81 84 87 85
REMARK SMILES IDX 80 86 82 87 83 88 84 89 85 90 62 91 63 92 71 93 64 94 66 95
REMARK SMILES IDX 72 96 65 97 67 98 68 99 69 100 70 101
REMARK H PARENT 8 27 92 54 60 65
REMARK Flexibility Score: inf
ROOT
ATOM      1  C   UNL A   1      35.388  31.465  27.944  1.00  0.00     0.188 C 
ENDROOT
BRANCH   1   2
ATOM      2  C   UNL A   1      33.880  31.500  27.668  1.00  0.00     0.188 C 
BRANCH   2   3
ATOM      3  O   UNL A   1      33.439  30.402  26.866  1.00  0.00    -0.376 OA
BRANCH   3   4
ATOM      4  C   UNL A   1      32.096  30.535  26.380  1.00  0.00     0.202 C 
BRANCH   4   5
ATOM      5  C   UNL A   1      31.562  29.357  25.549  1.00  0.00     0.261 C 
BRANCH   5   6
ATOM      6  O   UNL A   1      32.446  28.249  25.715  1.00  0.00    -0.463 OA
BRANCH   6   7
ATOM      7  C   UNL A   1      32.030  27.333  26.613  1.00  0.00     0.307 C 
ATOM      8  O   UNL A   1      31.371  27.591  27.609  1.00  0.00    -0.252 OA
BRANCH   7   9
ATOM      9  C   UNL A   1      32.738  26.030  26.361  1.00  0.00     0.143 C 
BRANCH   9  10
ATOM     10  C   UNL A   1      31.899  24.808  25.881  1.00  0.00     0.100 C 
ATOM     11  C   UNL A   1      31.829  23.754  27.016  1.00  0.00     0.097 C 
ATOM     12  C   UNL A   1      32.618  24.279  24.580  1.00  0.00     0.085 C 
ATOM     13  C   UNL A   1      30.417  25.144  25.564  1.00  0.00     0.319 C 
ATOM     14  S   UNL A   1      33.118  22.489  26.886  1.00  0.00    -0.106 SA
ATOM     15  C   UNL A   1      32.461  22.819  24.336  1.00  0.00     0.049 A 
ATOM     16  C   UNL A   1      32.286  25.241  23.473  1.00  0.00     0.006 A 
ATOM     17  O   UNL A   1      30.025  25.188  24.237  1.00  0.00    -0.426 OA
ATOM     18  O   UNL A   1      29.555  25.280  26.429  1.00  0.00    -0.251 OA
ATOM     19  C   UNL A   1      32.707  21.956  25.327  1.00  0.00     0.090 A 
ATOM     20  S   UNL A   1      32.161  21.989  22.851  1.00  0.00    -0.077 S 
ATOM     21  C   UNL A   1      33.308  25.960  22.877  1.00  0.00     0.028 A 
ATOM     22  C   UNL A   1      30.987  25.735  23.406  1.00  0.00     0.134 A 
ATOM     23  N   UNL A   1      32.633  20.651  24.985  1.00  0.00    -0.307 N 
ATOM     24  C   UNL A   1      32.381  20.404  23.657  1.00  0.00     0.305 A 
ATOM     25  C   UNL A   1      33.000  27.249  22.473  1.00  0.00     0.041 A 
ATOM     26  C   UNL A   1      30.660  26.916  22.748  1.00  0.00     0.049 A 
ATOM     27  H   UNL A   1      32.752  19.926  25.641  1.00  0.00     0.171 HD
ATOM     28  O   UNL A   1      32.335  19.345  23.070  1.00  0.00    -0.257 OA
ATOM     29  Cl  UNL A   1      34.196  28.433  22.591  1.00  0.00    -0.084 Cl
ATOM     30  C   UNL A   1      31.699  27.717  22.329  1.00  0.00     0.024 A 
ENDBRANCH   9  10
ENDBRANCH   7   9
ENDBRANCH   6   7
ENDBRANCH   5   6
ENDBRANCH   4   5
ENDBRANCH   3   4
ENDBRANCH   2   3
ENDBRANCH   1   2
BRANCH   1  31
ATOM     31  O   UNL A   1      35.778  31.689  29.304  1.00  0.00    -0.376 OA
BRANCH  31  32
ATOM     32  C   UNL A   1      34.967  32.643  30.004  1.00  0.00     0.202 C 
BRANCH  32  33
ATOM     33  C   UNL A   1      35.727  33.888  30.545  1.00  0.00     0.261 C 
BRANCH  33  34
ATOM     34  O   UNL A   1      36.881  33.501  31.319  1.00  0.00    -0.460 OA
BRANCH  34  35
ATOM     35  C   UNL A   1      36.744  32.736  32.435  1.00  0.00     0.338 C 
ATOM     36  O   UNL A   1      36.064  32.984  33.414  1.00  0.00    -0.246 OA
BRANCH  35  37
ATOM     37  C   UNL A   1      37.818  31.698  32.344  1.00  0.00     0.060 A 
ATOM     38  C   UNL A   1      39.124  32.092  32.041  1.00  0.00     0.016 A 
ATOM     39  C   UNL A   1      37.489  30.339  32.316  1.00  0.00     0.016 A 
ATOM     40  C   UNL A   1      40.028  31.148  31.542  1.00  0.00     0.010 A 
ATOM     41  C   UNL A   1      38.419  29.390  31.876  1.00  0.00     0.010 A 
ATOM     42  C   UNL A   1      39.679  29.786  31.423  1.00  0.00    -0.014 A 
BRANCH  42  43
ATOM     43  C   UNL A   1      40.731  28.816  31.009  1.00  0.00     0.031 A 
ATOM     44  C   UNL A   1      41.830  28.657  31.996  1.00  0.00     0.074 A 
ATOM     45  C   UNL A   1      40.746  27.972  29.946  1.00  0.00     0.049 A 
ATOM     46  N   UNL A   1      43.098  28.831  31.798  1.00  0.00    -0.248 NA
ATOM     47  C   UNL A   1      41.454  28.363  33.389  1.00  0.00     0.031 C 
ATOM     48  C   UNL A   1      39.692  27.814  28.951  1.00  0.00     0.029 A 
ATOM     49  N   UNL A   1      41.658  26.987  29.587  1.00  0.00    -0.354 N 
ATOM     50  C   UNL A   1      43.690  28.419  32.982  1.00  0.00     0.074 A 
ATOM     51  C   UNL A   1      42.648  28.329  33.977  1.00  0.00     0.031 C 
ATOM     52  C   UNL A   1      39.904  26.683  28.246  1.00  0.00     0.029 A 
ATOM     53  C   UNL A   1      41.140  26.055  28.686  1.00  0.00     0.049 A 
ATOM     54  H   UNL A   1      42.579  26.951  29.934  1.00  0.00     0.167 HD
ATOM     55  C   UNL A   1      44.924  27.858  33.013  1.00  0.00     0.034 A 
ATOM     56  C   UNL A   1      41.612  24.828  28.340  1.00  0.00     0.034 A 
ATOM     57  C   UNL A   1      45.705  28.018  31.826  1.00  0.00     0.049 A 
ATOM     58  C   UNL A   1      43.068  24.738  28.593  1.00  0.00     0.074 A 
ATOM     59  C   UNL A   1      46.670  28.861  31.336  1.00  0.00     0.029 A 
ATOM     60  N   UNL A   1      45.355  27.184  30.805  1.00  0.00    -0.354 N 
ATOM     61  N   UNL A   1      43.976  25.220  27.792  1.00  0.00    -0.248 NA
ATOM     62  C   UNL A   1      43.575  24.194  29.848  1.00  0.00     0.031 C 
ATOM     63  C   UNL A   1      46.943  28.442  29.997  1.00  0.00     0.029 A 
ATOM     64  C   UNL A   1      46.136  27.350  29.687  1.00  0.00     0.049 A 
ATOM     65  H   UNL A   1      44.620  26.532  30.863  1.00  0.00     0.167 HD
ATOM     66  C   UNL A   1      45.065  25.446  28.607  1.00  0.00     0.074 A 
ATOM     67  C   UNL A   1      44.839  24.624  29.789  1.00  0.00     0.031 C 
ATOM     68  C   UNL A   1      45.810  26.586  28.484  1.00  0.00     0.034 A 
BRANCH  55  69
ATOM     69  C   UNL A   1      45.242  26.759  33.987  1.00  0.00     0.023 A 
ATOM     70  C   UNL A   1      46.314  26.916  34.879  1.00  0.00     0.012 A 
ATOM     71  C   UNL A   1      44.647  25.479  33.889  1.00  0.00     0.148 A 
ATOM     72  C   UNL A   1      46.742  25.850  35.680  1.00  0.00     0.002 A 
ATOM     73  C   UNL A   1      45.015  24.452  34.746  1.00  0.00     0.091 A 
ATOM     74  F   UNL A   1      43.794  25.227  32.884  1.00  0.00    -0.205 F 
ATOM     75  C   UNL A   1      46.075  24.628  35.636  1.00  0.00     0.022 A 
BRANCH  73  76
ATOM     76  S   UNL A   1      44.114  22.901  34.763  1.00  0.00     0.127 S 
ATOM     77  O   UNL A   1      44.362  22.398  33.416  1.00  0.00    -0.237 OA
ATOM     78  O   UNL A   1      44.786  22.167  35.835  1.00  0.00    -0.237 OA
ATOM     79  O   UNL A   1      42.738  23.274  35.075  1.00  0.00    -0.744 OA
ENDBRANCH  73  76
ENDBRANCH  55  69
BRANCH  56  80
ATOM     80  C   UNL A   1      40.900  23.638  27.782  1.00  0.00     0.023 A 
ATOM     81  C   UNL A   1      39.582  23.783  27.287  1.00  0.00     0.012 A 
ATOM     82  C   UNL A   1      41.569  22.431  27.492  1.00  0.00     0.148 A 
ATOM     83  C   UNL A   1      38.981  22.795  26.496  1.00  0.00     0.002 A 
ATOM     84  C   UNL A   1      40.958  21.440  26.724  1.00  0.00     0.091 A 
ATOM     85  F   UNL A   1      42.843  22.277  27.877  1.00  0.00    -0.205 F 
ATOM     86  C   UNL A   1      39.672  21.624  26.209  1.00  0.00     0.022 A 
BRANCH  84  87
ATOM     87  S   UNL A   1      41.822  19.912  26.336  1.00  0.00     0.127 S 
ATOM     88  O   UNL A   1      40.781  19.109  25.691  1.00  0.00    -0.237 OA
ATOM     89  O   UNL A   1      42.877  20.375  25.441  1.00  0.00    -0.237 OA
ATOM     90  O   UNL A   1      42.256  19.386  27.627  1.00  0.00    -0.744 OA
ENDBRANCH  84  87
ENDBRANCH  56  80
BRANCH  68  91
ATOM     91  C   UNL A   1      46.035  27.183  27.108  1.00  0.00     0.023 A 
ATOM     92  C   UNL A   1      45.589  28.472  26.740  1.00  0.00     0.012 A 
ATOM     93  C   UNL A   1      46.795  26.473  26.159  1.00  0.00     0.148 A 
ATOM     94  C   UNL A   1      45.943  29.062  25.522  1.00  0.00     0.002 A 
ATOM     95  C   UNL A   1      47.183  27.076  24.965  1.00  0.00     0.091 A 
ATOM     96  F   UNL A   1      47.153  25.211  26.441  1.00  0.00    -0.205 F 
ATOM     97  C   UNL A   1      46.768  28.375  24.646  1.00  0.00     0.022 A 
BRANCH  95  98
ATOM     98  S   UNL A   1      48.307  26.284  23.814  1.00  0.00     0.127 S 
ATOM     99  O   UNL A   1      48.284  27.201  22.675  1.00  0.00    -0.237 OA
ATOM    100  O   UNL A   1      49.549  26.290  24.586  1.00  0.00    -0.237 OA
ATOM    101  O   UNL A   1      47.746  24.967  23.546  1.00  0.00    -0.744 OA
ENDBRANCH  95  98
ENDBRANCH  68  91
ENDBRANCH  42  43
ENDBRANCH  35  37
ENDBRANCH  34  35
ENDBRANCH  33  34
ENDBRANCH  32  33
ENDBRANCH  31  32
ENDBRANCH   1  31
TORSDOF 21
ENDMDL
MODEL 2
REMARK VINA RESULT:     -12.0      4.480     10.156
REMARK SMILES O=C(C[C@]12CSc3[nH]c(=O)sc3[C@H]1c1cc(Cl)ccc1OC2=O)OCCOCCOCCOC(=O)c1ccc(-c2c3nc(c(-c4cccc(S(=O)(=O)[O-])c4F)c4ccc([nH]4)c(-c4cccc(S(=O)(=O)[O-])c4F)c4nc(c(-c5cccc(S(=O)(=O)[O-])c5F)c5ccc2[nH]5)C=C4)C=C3)cc1
REMARK SMILES IDX 29 1 28 2 27 3 26 4 25 5 24 6 2 7 1 8 3 9 4 10 5 11 13 12
REMARK SMILES IDX 22 13 6 14 12 15 14 16 21 17 23 18 7 19 11 20 15 21 20 22
REMARK SMILES IDX 8 23 9 24 16 25 19 26 10 28 17 29 18 30 30 31 31 32 32 33
REMARK SMILES IDX 33 34 34 35 35 36 36 37 37 38 98 39 38 40 97 41 39 42 40 43
REMARK SMILES IDX 41 44 91 45 42 46 96 47 90 48 92 49 43 50 95 51 89 52 88 53
REMARK SMILES IDX 44 55 76 56 56 57 75 58 57 59 60 60 74 61 93 62 58 63 59 64
REMARK SMILES IDX 73 66 94 67 61 68 45 69 46 70 54 71 47 72 49 73 55 74 48 75
REMARK SMILES IDX 50 76 51 77 52 78 53 79 77 80 78 81 86 82 79 83 81 84 87 85
REMARK SMILES IDX 80 86 82 87 83 88 84 89 85 90 62 91 63 92 71 93 64 94 66 95
REMARK SMILES IDX 72 96 65 97 67 98 68 99 69 100 70 101
REMARK H PARENT 8 27 92 54 60 65
REMARK Flexibility Score: inf
ROOT
ATOM      1  C   UNL A   1      37.488  21.156  24.970  1.00  0.00     0.188 C 
ENDROOT
BRANCH   1   2
ATOM      2  C   UNL A   1      36.036  21.047  25.455  1.00  0.00     0.188 C 
BRANCH   2   3
ATOM      3  O   UNL A   1      35.086  21.276  24.411  1.00  0.00    -0.376 OA
BRANCH   3   4
ATOM      4  C   UNL A   1      35.250  22.532  23.737  1.00  0.00     0.202 C 
BRANCH   4   5
ATOM      5  C   UNL A   1      34.042  23.018  22.920  1.00  0.00     0.261 C 
BRANCH   5   6
ATOM      6  O   UNL A   1      34.104  24.440  22.823  1.00  0.00    -0.463 OA
BRANCH   6   7
ATOM      7  C   UNL A   1      33.129  24.991  22.071  1.00  0.00     0.307 C 
ATOM      8  O   UNL A   1      33.317  25.569  21.011  1.00  0.00    -0.252 OA
BRANCH   7   9
ATOM      9  C   UNL A   1      31.853  25.043  22.867  1.00  0.00     0.143 C 
BRANCH   9  10
ATOM     10  C   UNL A   1      31.544  26.328  23.692  1.00  0.00     0.100 C 
ATOM     11  C   UNL A   1      31.820  27.579  22.818  1.00  0.00     0.097 C 
ATOM     12  C   UNL A   1      32.461  26.246  24.974  1.00  0.00     0.085 C 
ATOM     13  C   UNL A   1      30.057  26.465  24.116  1.00  0.00     0.319 C 
ATOM     14  S   UNL A   1      33.489  28.244  23.045  1.00  0.00    -0.106 SA
ATOM     15  C   UNL A   1      32.863  27.565  25.532  1.00  0.00     0.049 A 
ATOM     16  C   UNL A   1      31.844  25.225  25.889  1.00  0.00     0.006 A 
ATOM     17  O   UNL A   1      29.732  26.245  25.444  1.00  0.00    -0.426 OA
ATOM     18  O   UNL A   1      29.171  26.850  23.357  1.00  0.00    -0.251 OA
ATOM     19  C   UNL A   1      33.369  28.498  24.719  1.00  0.00     0.090 A 
ATOM     20  S   UNL A   1      32.952  28.068  27.183  1.00  0.00    -0.077 S 
ATOM     21  C   UNL A   1      32.553  24.075  26.190  1.00  0.00     0.028 A 
ATOM     22  C   UNL A   1      30.458  25.215  26.016  1.00  0.00     0.134 A 
ATOM     23  N   UNL A   1      33.796  29.625  25.331  1.00  0.00    -0.307 N 
ATOM     24  C   UNL A   1      33.708  29.619  26.703  1.00  0.00     0.305 A 
ATOM     25  C   UNL A   1      31.808  22.918  26.353  1.00  0.00     0.041 A 
ATOM     26  C   UNL A   1      29.746  24.102  26.450  1.00  0.00     0.049 A 
ATOM     27  H   UNL A   1      34.146  30.397  24.830  1.00  0.00     0.171 HD
ATOM     28  O   UNL A   1      34.079  30.455  27.498  1.00  0.00    -0.257 OA
ATOM     29  Cl  UNL A   1      32.477  21.456  25.843  1.00  0.00    -0.084 Cl
ATOM     30  C   UNL A   1      30.433  22.913  26.560  1.00  0.00     0.024 A 
ENDBRANCH   9  10
ENDBRANCH   7   9
ENDBRANCH   6   7
ENDBRANCH   5   6
ENDBRANCH   4   5
ENDBRANCH   3   4
ENDBRANCH   2   3
ENDBRANCH   1   2
BRANCH   1  31
ATOM     31  O   UNL A   1      38.248  22.238  25.521  1.00  0.00    -0.376 OA
BRANCH  31  32
ATOM     32  C   UNL A   1      39.509  21.850  26.084  1.00  0.00     0.202 C 
BRANCH  32  33
ATOM     33  C   UNL A   1      39.987  22.705  27.293  1.00  0.00     0.261 C 
BRANCH  33  34
ATOM     34  O   UNL A   1      41.400  22.984  27.209  1.00  0.00    -0.460 OA
BRANCH  34  35
ATOM     35  C   UNL A   1      41.862  24.000  26.433  1.00  0.00     0.338 C 
ATOM     36  O   UNL A   1      42.583  23.907  25.457  1.00  0.00    -0.246 OA
BRANCH  35  37
ATOM     37  C   UNL A   1      41.558  25.254  27.192  1.00  0.00     0.060 A 
ATOM     38  C   UNL A   1      40.883  26.294  26.548  1.00  0.00     0.016 A 
ATOM     39  C   UNL A   1      42.146  25.488  28.438  1.00  0.00     0.016 A 
ATOM     40  C   UNL A   1      40.960  27.590  27.069  1.00  0.00     0.010 A 
ATOM     41  C   UNL A   1      42.165  26.775  28.987  1.00  0.00     0.010 A 
ATOM     42  C   UNL A   1      41.630  27.856  28.283  1.00  0.00    -0.014 A 
BRANCH  42  43
ATOM     43  C   UNL A   1      41.562  29.233  28.846  1.00  0.00     0.031 A 
ATOM     44  C   UNL A   1      42.791  30.039  28.623  1.00  0.00     0.074 A 
ATOM     45  C   UNL A   1      40.504  29.884  29.393  1.00  0.00     0.049 A 
ATOM     46  N   UNL A   1      43.530  30.614  29.519  1.00  0.00    -0.248 NA
ATOM     47  C   UNL A   1      43.304  30.128  27.246  1.00  0.00     0.031 C 
ATOM     48  C   UNL A   1      39.150  29.363  29.540  1.00  0.00     0.029 A 
ATOM     49  N   UNL A   1      40.379  31.196  29.834  1.00  0.00    -0.354 N 
ATOM     50  C   UNL A   1      44.452  31.345  28.786  1.00  0.00     0.074 A 
ATOM     51  C   UNL A   1      44.396  30.867  27.425  1.00  0.00     0.031 C 
ATOM     52  C   UNL A   1      38.306  30.377  29.822  1.00  0.00     0.029 A 
ATOM     53  C   UNL A   1      39.053  31.620  29.939  1.00  0.00     0.049 A 
ATOM     54  H   UNL A   1      41.149  31.768  30.050  1.00  0.00     0.167 HD
ATOM     55  C   UNL A   1      44.970  32.513  29.240  1.00  0.00     0.034 A 
ATOM     56  C   UNL A   1      38.551  32.878  30.050  1.00  0.00     0.034 A 
ATOM     57  C   UNL A   1      44.774  32.775  30.633  1.00  0.00     0.049 A 
ATOM     58  C   UNL A   1      39.567  33.798  30.611  1.00  0.00     0.074 A 
ATOM     59  C   UNL A   1      45.454  32.615  31.814  1.00  0.00     0.029 A 
ATOM     60  N   UNL A   1      43.522  33.209  30.954  1.00  0.00    -0.354 N 
ATOM     61  N   UNL A   1      39.846  33.887  31.880  1.00  0.00    -0.248 NA
ATOM     62  C   UNL A   1      40.420  34.591  29.732  1.00  0.00     0.031 C 
ATOM     63  C   UNL A   1      44.578  33.053  32.855  1.00  0.00     0.029 A 
ATOM     64  C   UNL A   1      43.374  33.469  32.294  1.00  0.00     0.049 A 
ATOM     65  H   UNL A   1      42.800  33.324  30.294  1.00  0.00     0.167 HD
ATOM     66  C   UNL A   1      41.139  34.363  31.914  1.00  0.00     0.074 A 
ATOM     67  C   UNL A   1      41.363  34.961  30.604  1.00  0.00     0.031 C 
ATOM     68  C   UNL A   1      42.054  33.851  32.792  1.00  0.00     0.034 A 
BRANCH  55  69
ATOM     69  C   UNL A   1      45.269  33.639  28.292  1.00  0.00     0.023 A 
ATOM     70  C   UNL A   1      44.209  34.349  27.706  1.00  0.00     0.012 A 
ATOM     71  C   UNL A   1      46.573  33.866  27.790  1.00  0.00     0.148 A 
ATOM     72  C   UNL A   1      44.447  35.287  26.695  1.00  0.00     0.002 A 
ATOM     73  C   UNL A   1      46.814  34.859  26.852  1.00  0.00     0.091 A 
ATOM     74  F   UNL A   1      47.567  33.039  28.148  1.00  0.00    -0.205 F 
ATOM     75  C   UNL A   1      45.751  35.564  26.288  1.00  0.00     0.022 A 
BRANCH  73  76
ATOM     76  S   UNL A   1      48.491  35.288  26.378  1.00  0.00     0.127 S 
ATOM     77  O   UNL A   1      48.918  34.084  25.673  1.00  0.00    -0.237 OA
ATOM     78  O   UNL A   1      48.279  36.463  25.532  1.00  0.00    -0.237 OA
ATOM     79  O   UNL A   1      49.169  35.580  27.636  1.00  0.00    -0.744 OA
ENDBRANCH  73  76
ENDBRANCH  55  69
BRANCH  56  80
ATOM     80  C   UNL A   1      37.202  33.418  29.699  1.00  0.00     0.023 A 
ATOM     81  C   UNL A   1      36.704  33.249  28.385  1.00  0.00     0.012 A 
ATOM     82  C   UNL A   1      36.293  33.865  30.681  1.00  0.00     0.148 A 
ATOM     83  C   UNL A   1      35.354  33.463  28.078  1.00  0.00     0.002 A 
ATOM     84  C   UNL A   1      34.955  34.100  30.365  1.00  0.00     0.091 A 
ATOM     85  F   UNL A   1      36.699  33.970  31.953  1.00  0.00    -0.205 F 
ATOM     86  C   UNL A   1      34.477  33.883  29.070  1.00  0.00     0.022 A 
BRANCH  84  87
ATOM     87  S   UNL A   1      33.794  34.647  31.624  1.00  0.00     0.127 S 
ATOM     88  O   UNL A   1      34.502  35.767  32.248  1.00  0.00    -0.237 OA
ATOM     89  O   UNL A   1      32.634  35.028  30.825  1.00  0.00    -0.237 OA
ATOM     90  O   UNL A   1      33.621  33.496  32.503  1.00  0.00    -0.744 OA
ENDBRANCH  84  87
ENDBRANCH  56  80
BRANCH  68  91
ATOM     91  C   UNL A   1      41.601  33.429  34.177  1.00  0.00     0.023 A 
ATOM     92  C   UNL A   1      41.700  34.262  35.312  1.00  0.00     0.012 A 
ATOM     93  C   UNL A   1      40.971  32.182  34.351  1.00  0.00     0.148 A 
ATOM     94  C   UNL A   1      41.135  33.913  36.544  1.00  0.00     0.002 A 
ATOM     95  C   UNL A   1      40.370  31.853  35.564  1.00  0.00     0.091 A 
ATOM     96  F   UNL A   1      40.944  31.329  33.316  1.00  0.00    -0.205 F 
ATOM     97  C   UNL A   1      40.441  32.720  36.661  1.00  0.00     0.022 A 
BRANCH  95  98
ATOM     98  S   UNL A   1      39.394  30.364  35.775  1.00  0.00     0.127 S 
ATOM     99  O   UNL A   1      40.420  29.350  36.014  1.00  0.00    -0.237 OA
ATOM    100  O   UNL A   1      38.592  30.719  36.945  1.00  0.00    -0.237 OA
ATOM    101  O   UNL A   1      38.647  30.193  34.537  1.00  0.00    -0.744 OA
ENDBRANCH  95  98
ENDBRANCH  68  91
ENDBRANCH  42  43
ENDBRANCH  35  37
ENDBRANCH  34  35
ENDBRANCH  33  34
ENDBRANCH  32  33
ENDBRANCH  31  32
ENDBRANCH   1  31
TORSDOF 21
ENDMDL
MODEL 3
REMARK VINA RESULT:     -11.5      1.733      2.039
REMARK SMILES O=C(C[C@]12CSc3[nH]c(=O)sc3[C@H]1c1cc(Cl)ccc1OC2=O)OCCOCCOCCOC(=O)c1ccc(-c2c3nc(c(-c4cccc(S(=O)(=O)[O-])c4F)c4ccc([nH]4)c(-c4cccc(S(=O)(=O)[O-])c4F)c4nc(c(-c5cccc(S(=O)(=O)[O-])c5F)c5ccc2[nH]5)C=C4)C=C3)cc1
REMARK SMILES IDX 29 1 28 2 27 3 26 4 25 5 24 6 2 7 1 8 3 9 4 10 5 11 13 12
REMARK SMILES IDX 22 13 6 14 12 15 14 16 21 17 23 18 7 19 11 20 15 21 20 22
REMARK SMILES IDX 8 23 9 24 16 25 19 26 10 28 17 29 18 30 30 31 31 32 32 33
REMARK SMILES IDX 33 34 34 35 35 36 36 37 37 38 98 39 38 40 97 41 39 42 40 43
REMARK SMILES IDX 41 44 91 45 42 46 96 47 90 48 92 49 43 50 95 51 89 52 88 53
REMARK SMILES IDX 44 55 76 56 56 57 75 58 57 59 60 60 74 61 93 62 58 63 59 64
REMARK SMILES IDX 73 66 94 67 61 68 45 69 46 70 54 71 47 72 49 73 55 74 48 75
REMARK SMILES IDX 50 76 51 77 52 78 53 79 77 80 78 81 86 82 79 83 81 84 87 85
REMARK SMILES IDX 80 86 82 87 83 88 84 89 85 90 62 91 63 92 71 93 64 94 66 95
REMARK SMILES IDX 72 96 65 97 67 98 68 99 69 100 70 101
REMARK H PARENT 8 27 92 54 60 65
REMARK Flexibility Score: inf
ROOT
ATOM      1  C   UNL A   1      35.340  31.421  27.971  1.00  0.00     0.188 C 
ENDROOT
BRANCH   1   2
ATOM      2  C   UNL A   1      33.878  31.558  27.524  1.00  0.00     0.188 C 
BRANCH   2   3
ATOM      3  O   UNL A   1      33.386  30.383  26.877  1.00  0.00    -0.376 OA
BRANCH   3   4
ATOM      4  C   UNL A   1      32.159  30.582  26.159  1.00  0.00     0.202 C 
BRANCH   4   5
ATOM      5  C   UNL A   1      31.525  29.320  25.551  1.00  0.00     0.261 C 
BRANCH   5   6
ATOM      6  O   UNL A   1      32.432  28.231  25.719  1.00  0.00    -0.463 OA
BRANCH   6   7
ATOM      7  C   UNL A   1      32.036  27.310  26.620  1.00  0.00     0.307 C 
ATOM      8  O   UNL A   1      31.395  27.560  27.629  1.00  0.00    -0.252 OA
BRANCH   7   9
ATOM      9  C   UNL A   1      32.746  26.010  26.351  1.00  0.00     0.143 C 
BRANCH   9  10
ATOM     10  C   UNL A   1      31.906  24.791  25.866  1.00  0.00     0.100 C 
ATOM     11  C   UNL A   1      31.802  23.752  27.012  1.00  0.00     0.097 C 
ATOM     12  C   UNL A   1      32.647  24.240  24.588  1.00  0.00     0.085 C 
ATOM     13  C   UNL A   1      30.434  25.137  25.514  1.00  0.00     0.319 C 
ATOM     14  S   UNL A   1      33.081  22.473  26.924  1.00  0.00    -0.106 SA
ATOM     15  C   UNL A   1      32.481  22.779  24.358  1.00  0.00     0.049 A 
ATOM     16  C   UNL A   1      32.348  25.192  23.463  1.00  0.00     0.006 A 
ATOM     17  O   UNL A   1      30.071  25.169  24.179  1.00  0.00    -0.426 OA
ATOM     18  O   UNL A   1      29.556  25.291  26.360  1.00  0.00    -0.251 OA
ATOM     19  C   UNL A   1      32.698  21.926  25.363  1.00  0.00     0.090 A 
ATOM     20  S   UNL A   1      32.204  21.934  22.876  1.00  0.00    -0.077 S 
ATOM     21  C   UNL A   1      33.389  25.894  22.880  1.00  0.00     0.028 A 
ATOM     22  C   UNL A   1      31.055  25.697  23.362  1.00  0.00     0.134 A 
ATOM     23  N   UNL A   1      32.620  20.617  25.035  1.00  0.00    -0.307 N 
ATOM     24  C   UNL A   1      32.393  20.357  23.705  1.00  0.00     0.305 A 
ATOM     25  C   UNL A   1      33.101  27.182  22.455  1.00  0.00     0.041 A 
ATOM     26  C   UNL A   1      30.753  26.873  22.684  1.00  0.00     0.049 A 
ATOM     27  H   UNL A   1      32.717  19.899  25.702  1.00  0.00     0.171 HD
ATOM     28  O   UNL A   1      32.349  19.291  23.129  1.00  0.00    -0.257 OA
ATOM     29  Cl  UNL A   1      34.306  28.355  22.584  1.00  0.00    -0.084 Cl
ATOM     30  C   UNL A   1      31.808  27.660  22.278  1.00  0.00     0.024 A 
ENDBRANCH   9  10
ENDBRANCH   7   9
ENDBRANCH   6   7
ENDBRANCH   5   6
ENDBRANCH   4   5
ENDBRANCH   3   4
ENDBRANCH   2   3
ENDBRANCH   1   2
BRANCH   1  31
ATOM     31  O   UNL A   1      35.573  31.538  29.379  1.00  0.00    -0.376 OA
BRANCH  31  32
ATOM     32  C   UNL A   1      34.736  32.494  30.043  1.00  0.00     0.202 C 
BRANCH  32  33
ATOM     33  C   UNL A   1      35.489  33.636  30.783  1.00  0.00     0.261 C 
BRANCH  33  34
ATOM     34  O   UNL A   1      36.636  33.128  31.497  1.00  0.00    -0.460 OA
BRANCH  34  35
ATOM     35  C   UNL A   1      36.478  32.339  32.592  1.00  0.00     0.338 C 
ATOM     36  O   UNL A   1      35.828  32.591  33.590  1.00  0.00    -0.246 OA
BRANCH  35  37
ATOM     37  C   UNL A   1      37.495  31.250  32.452  1.00  0.00     0.060 A 
ATOM     38  C   UNL A   1      38.848  31.589  32.364  1.00  0.00     0.016 A 
ATOM     39  C   UNL A   1      37.097  29.941  32.166  1.00  0.00     0.016 A 
ATOM     40  C   UNL A   1      39.752  30.670  31.820  1.00  0.00     0.010 A 
ATOM     41  C   UNL A   1      38.020  29.006  31.682  1.00  0.00     0.010 A 
ATOM     42  C   UNL A   1      39.345  29.373  31.442  1.00  0.00    -0.014 A 
BRANCH  42  43
ATOM     43  C   UNL A   1      40.383  28.403  30.994  1.00  0.00     0.031 A 
ATOM     44  C   UNL A   1      41.370  28.043  32.046  1.00  0.00     0.074 A 
ATOM     45  C   UNL A   1      40.463  27.712  29.829  1.00  0.00     0.049 A 
ATOM     46  N   UNL A   1      42.659  28.163  31.991  1.00  0.00    -0.248 NA
ATOM     47  C   UNL A   1      40.843  27.588  33.342  1.00  0.00     0.031 C 
ATOM     48  C   UNL A   1      39.507  27.757  28.729  1.00  0.00     0.029 A 
ATOM     49  N   UNL A   1      41.357  26.730  29.420  1.00  0.00    -0.354 N 
ATOM     50  C   UNL A   1      43.108  27.558  33.155  1.00  0.00     0.074 A 
ATOM     51  C   UNL A   1      41.969  27.399  34.027  1.00  0.00     0.031 C 
ATOM     52  C   UNL A   1      39.732  26.721  27.893  1.00  0.00     0.029 A 
ATOM     53  C   UNL A   1      40.886  25.963  28.352  1.00  0.00     0.049 A 
ATOM     54  H   UNL A   1      42.235  26.589  29.841  1.00  0.00     0.167 HD
ATOM     55  C   UNL A   1      44.304  26.921  33.220  1.00  0.00     0.034 A 
ATOM     56  C   UNL A   1      41.328  24.767  27.882  1.00  0.00     0.034 A 
ATOM     57  C   UNL A   1      45.206  27.191  32.144  1.00  0.00     0.049 A 
ATOM     58  C   UNL A   1      42.746  24.552  28.252  1.00  0.00     0.074 A 
ATOM     59  C   UNL A   1      46.256  28.031  31.868  1.00  0.00     0.029 A 
ATOM     60  N   UNL A   1      44.919  26.527  30.987  1.00  0.00    -0.354 N 
ATOM     61  N   UNL A   1      43.752  25.080  27.614  1.00  0.00    -0.248 NA
ATOM     62  C   UNL A   1      43.097  23.812  29.459  1.00  0.00     0.031 C 
ATOM     63  C   UNL A   1      46.640  27.781  30.514  1.00  0.00     0.029 A 
ATOM     64  C   UNL A   1      45.814  26.794  29.981  1.00  0.00     0.049 A 
ATOM     65  H   UNL A   1      44.150  25.921  30.885  1.00  0.00     0.167 HD
ATOM     66  C   UNL A   1      44.764  25.125  28.549  1.00  0.00     0.074 A 
ATOM     67  C   UNL A   1      44.381  24.166  29.578  1.00  0.00     0.031 C 
ATOM     68  C   UNL A   1      45.572  26.222  28.657  1.00  0.00     0.034 A 
BRANCH  55  69
ATOM     69  C   UNL A   1      44.469  25.683  34.054  1.00  0.00     0.023 A 
ATOM     70  C   UNL A   1      43.921  24.471  33.607  1.00  0.00     0.012 A 
ATOM     71  C   UNL A   1      44.958  25.736  35.381  1.00  0.00     0.148 A 
ATOM     72  C   UNL A   1      43.909  23.341  34.434  1.00  0.00     0.002 A 
ATOM     73  C   UNL A   1      45.026  24.594  36.164  1.00  0.00     0.091 A 
ATOM     74  F   UNL A   1      45.260  26.927  35.922  1.00  0.00    -0.205 F 
ATOM     75  C   UNL A   1      44.488  23.393  35.700  1.00  0.00     0.022 A 
BRANCH  73  76
ATOM     76  S   UNL A   1      45.841  24.621  37.762  1.00  0.00     0.127 S 
ATOM     77  O   UNL A   1      47.243  24.743  37.379  1.00  0.00    -0.237 OA
ATOM     78  O   UNL A   1      45.259  25.811  38.384  1.00  0.00    -0.237 OA
ATOM     79  O   UNL A   1      45.449  23.369  38.400  1.00  0.00    -0.744 OA
ENDBRANCH  73  76
ENDBRANCH  55  69
BRANCH  56  80
ATOM     80  C   UNL A   1      40.617  23.711  27.099  1.00  0.00     0.023 A 
ATOM     81  C   UNL A   1      41.169  22.410  27.022  1.00  0.00     0.012 A 
ATOM     82  C   UNL A   1      39.292  23.878  26.643  1.00  0.00     0.148 A 
ATOM     83  C   UNL A   1      40.418  21.319  26.564  1.00  0.00     0.002 A 
ATOM     84  C   UNL A   1      38.557  22.794  26.165  1.00  0.00     0.091 A 
ATOM     85  F   UNL A   1      38.702  25.075  26.762  1.00  0.00    -0.205 F 
ATOM     86  C   UNL A   1      39.109  21.510  26.141  1.00  0.00     0.022 A 
BRANCH  84  87
ATOM     87  S   UNL A   1      36.862  23.005  25.606  1.00  0.00     0.127 S 
ATOM     88  O   UNL A   1      37.032  23.660  24.307  1.00  0.00    -0.237 OA
ATOM     89  O   UNL A   1      36.387  21.627  25.537  1.00  0.00    -0.237 OA
ATOM     90  O   UNL A   1      36.235  23.853  26.615  1.00  0.00    -0.744 OA
ENDBRANCH  84  87
ENDBRANCH  56  80
BRANCH  68  91
ATOM     91  C   UNL A   1      45.963  26.985  27.406  1.00  0.00     0.023 A 
ATOM     92  C   UNL A   1      45.426  28.247  27.068  1.00  0.00     0.012 A 
ATOM     93  C   UNL A   1      46.969  26.471  26.565  1.00  0.00     0.148 A 
ATOM     94  C   UNL A   1      45.914  29.000  25.995  1.00  0.00     0.002 A 
ATOM     95  C   UNL A   1      47.484  27.239  25.524  1.00  0.00     0.091 A 
ATOM     96  F   UNL A   1      47.432  25.235  26.804  1.00  0.00    -0.205 F 
ATOM     97  C   UNL A   1      46.967  28.509  25.240  1.00  0.00     0.022 A 
BRANCH  95  98
ATOM     98  S   UNL A   1      48.892  26.707  24.549  1.00  0.00     0.127 S 
ATOM     99  O   UNL A   1      49.578  25.796  25.464  1.00  0.00    -0.237 OA
ATOM    100  O   UNL A   1      48.223  26.060  23.420  1.00  0.00    -0.237 OA
ATOM    101  O   UNL A   1      49.635  27.915  24.222  1.00  0.00    -0.744 OA
ENDBRANCH  95  98
ENDBRANCH  68  91
ENDBRANCH  42  43
ENDBRANCH  35  37
ENDBRANCH  34  35
ENDBRANCH  33  34
ENDBRANCH  32  33
ENDBRANCH  31  32
ENDBRANCH   1  31
TORSDOF 21
ENDMDL
