MODEL 1
REMARK VINA RESULT:      -8.7      0.000      0.000
REMARK SMILES CC(C)CCn1nc(C(=O)OCCOCCOCCOC(=O)c2ccc(-c3c4nc(c(-c5cccc(S(=O)(=O)[O-])c5F)c5ccc([nH]5)c(-c5cccc(S(=O)(=O)[O-])c5F)c5nc(c(-c6cccc(S(=O)(=O)[O-])c6F)c6ccc3[nH]6)C=C5)C=C4)cc2)c2c1CCN(C(=O)[C@@H]1CCc3nn(C)c(=O)n3C1)C2
REMARK SMILES IDX 15 1 14 2 13 3 12 4 11 5 9 6 10 7 8 8 6 9 7 10 87 11 86 12
REMARK SMILES IDX 88 13 104 14 89 15 90 16 5 17 4 18 2 19 1 20 3 21 91 22
REMARK SMILES IDX 92 23 93 24 94 25 103 26 95 27 102 28 96 29 100 30 97 31
REMARK SMILES IDX 98 32 101 33 99 34 16 35 17 36 18 37 19 38 20 39 21 40 22 41
REMARK SMILES IDX 23 42 24 43 85 44 25 45 84 46 26 47 27 48 28 49 78 50 29 51
REMARK SMILES IDX 83 52 77 53 79 54 30 55 82 56 76 57 75 58 31 60 63 61 43 62
REMARK SMILES IDX 62 63 44 64 47 65 61 66 80 67 45 68 46 69 60 71 81 72 48 73
REMARK SMILES IDX 32 74 33 75 41 76 34 77 36 78 42 79 35 80 37 81 38 82 39 83
REMARK SMILES IDX 40 84 64 85 65 86 73 87 66 88 68 89 74 90 67 91 69 92 70 93
REMARK SMILES IDX 71 94 72 95 49 96 50 97 58 98 51 99 53 100 59 101 52 102
REMARK SMILES IDX 54 103 55 104 56 105 57 106
REMARK H PARENT 79 59 47 70
REMARK Flexibility Score: inf
ROOT
ATOM      1  C   UNL A   1      44.757  40.601  26.079  1.00  0.00     0.188 C 
ENDROOT
BRANCH   1   2
ATOM      2  O   UNL A   1      44.875  41.207  24.809  1.00  0.00    -0.376 OA
BRANCH   2   3
ATOM      3  C   UNL A   1      44.284  42.450  24.478  1.00  0.00     0.202 C 
BRANCH   3   4
ATOM      4  C   UNL A   1      44.807  43.397  23.390  1.00  0.00     0.261 C 
BRANCH   4   5
ATOM      5  O   UNL A   1      46.020  42.975  22.791  1.00  0.00    -0.458 OA
BRANCH   5   6
ATOM      6  C   UNL A   1      45.944  42.411  21.553  1.00  0.00     0.359 C 
ATOM      7  O   UNL A   1      45.993  41.201  21.331  1.00  0.00    -0.244 OA
BRANCH   6   8
ATOM      8  C   UNL A   1      45.753  43.451  20.537  1.00  0.00     0.175 A 
ATOM      9  N   UNL A   1      44.928  44.587  18.916  1.00  0.00    -0.268 N 
ATOM     10  N   UNL A   1      44.636  43.583  19.777  1.00  0.00    -0.165 NA
ATOM     11  C   UNL A   1      46.248  44.898  18.994  1.00  0.00     0.046 A 
ATOM     12  C   UNL A   1      46.715  44.443  20.205  1.00  0.00     0.028 A 
ATOM     13  C   UNL A   1      47.143  45.416  17.950  1.00  0.00     0.078 C 
ATOM     14  C   UNL A   1      48.093  44.733  20.757  1.00  0.00     0.159 C 
ATOM     15  C   UNL A   1      48.562  45.005  18.410  1.00  0.00     0.126 C 
ATOM     16  N   UNL A   1      48.867  45.473  19.749  1.00  0.00    -0.338 N 
BRANCH   9  17
ATOM     17  C   UNL A   1      43.986  44.995  17.887  1.00  0.00     0.145 C 
BRANCH  17  18
ATOM     18  C   UNL A   1      43.668  46.498  17.800  1.00  0.00     0.027 C 
BRANCH  18  19
ATOM     19  C   UNL A   1      42.326  46.908  17.150  1.00  0.00    -0.016 C 
ATOM     20  C   UNL A   1      42.414  48.204  16.339  1.00  0.00     0.007 C 
ATOM     21  C   UNL A   1      41.845  45.787  16.213  1.00  0.00     0.007 C 
ENDBRANCH  18  19
ENDBRANCH  17  18
ENDBRANCH   9  17
BRANCH  16  22
ATOM     22  C   UNL A   1      49.855  46.342  20.178  1.00  0.00     0.227 C 
ATOM     23  O   UNL A   1      51.030  45.943  20.218  1.00  0.00    -0.274 OA
BRANCH  22  24
ATOM     24  C   UNL A   1      49.625  47.804  20.661  1.00  0.00     0.099 C 
ATOM     25  C   UNL A   1      48.454  48.051  21.620  1.00  0.00     0.023 C 
ATOM     26  C   UNL A   1      49.723  48.932  19.640  1.00  0.00     0.142 C 
ATOM     27  C   UNL A   1      47.121  48.352  20.946  1.00  0.00     0.078 C 
ATOM     28  N   UNL A   1      48.444  49.246  19.043  1.00  0.00    -0.278 N 
ATOM     29  C   UNL A   1      47.245  48.867  19.536  1.00  0.00     0.133 A 
ATOM     30  C   UNL A   1      48.277  49.430  17.687  1.00  0.00     0.345 A 
ATOM     31  N   UNL A   1      46.292  48.797  18.647  1.00  0.00    -0.155 NA
ATOM     32  N   UNL A   1      46.925  49.108  17.445  1.00  0.00    -0.216 N 
ATOM     33  O   UNL A   1      49.156  49.582  16.853  1.00  0.00    -0.246 OA
ATOM     34  C   UNL A   1      46.528  48.462  16.210  1.00  0.00     0.179 C 
ENDBRANCH  22  24
ENDBRANCH  16  22
ENDBRANCH   6   8
ENDBRANCH   5   6
ENDBRANCH   4   5
ENDBRANCH   3   4
ENDBRANCH   2   3
ENDBRANCH   1   2
BRANCH   1  35
ATOM     35  C   UNL A   1      45.562  39.348  26.469  1.00  0.00     0.188 C 
BRANCH  35  36
ATOM     36  O   UNL A   1      45.196  38.569  27.581  1.00  0.00    -0.376 OA
BRANCH  36  37
ATOM     37  C   UNL A   1      43.898  38.074  27.842  1.00  0.00     0.202 C 
BRANCH  37  38
ATOM     38  C   UNL A   1      43.071  37.239  26.877  1.00  0.00     0.261 C 
BRANCH  38  39
ATOM     39  O   UNL A   1      43.557  35.936  26.668  1.00  0.00    -0.460 OA
BRANCH  39  40
ATOM     40  C   UNL A   1      43.274  35.094  27.682  1.00  0.00     0.338 C 
ATOM     41  O   UNL A   1      42.378  35.197  28.503  1.00  0.00    -0.246 OA
BRANCH  40  42
ATOM     42  C   UNL A   1      44.269  34.026  27.680  1.00  0.00     0.060 A 
ATOM     43  C   UNL A   1      44.108  33.042  26.707  1.00  0.00     0.016 A 
ATOM     44  C   UNL A   1      45.053  33.846  28.828  1.00  0.00     0.016 A 
ATOM     45  C   UNL A   1      44.479  31.767  27.043  1.00  0.00     0.010 A 
ATOM     46  C   UNL A   1      45.408  32.569  29.168  1.00  0.00     0.010 A 
ATOM     47  C   UNL A   1      45.010  31.544  28.321  1.00  0.00    -0.014 A 
BRANCH  47  48
ATOM     48  C   UNL A   1      45.224  30.178  28.724  1.00  0.00     0.031 A 
ATOM     49  C   UNL A   1      46.251  29.534  27.890  1.00  0.00     0.074 A 
ATOM     50  C   UNL A   1      44.570  29.611  29.753  1.00  0.00     0.049 A 
ATOM     51  N   UNL A   1      46.040  28.717  26.915  1.00  0.00    -0.248 NA
ATOM     52  C   UNL A   1      47.626  30.044  27.968  1.00  0.00     0.031 C 
ATOM     53  C   UNL A   1      43.733  30.259  30.769  1.00  0.00     0.029 A 
ATOM     54  N   UNL A   1      44.618  28.321  30.177  1.00  0.00    -0.354 N 
ATOM     55  C   UNL A   1      47.304  28.394  26.443  1.00  0.00     0.074 A 
ATOM     56  C   UNL A   1      48.195  29.405  26.944  1.00  0.00     0.031 C 
ATOM     57  C   UNL A   1      43.573  29.414  31.815  1.00  0.00     0.029 A 
ATOM     58  C   UNL A   1      44.166  28.132  31.478  1.00  0.00     0.049 A 
ATOM     59  H   UNL A   1      44.945  27.585  29.611  1.00  0.00     0.167 HD
ATOM     60  C   UNL A   1      47.551  27.153  25.952  1.00  0.00     0.034 A 
ATOM     61  C   UNL A   1      44.345  27.015  32.226  1.00  0.00     0.034 A 
ATOM     62  C   UNL A   1      46.324  26.441  25.697  1.00  0.00     0.049 A 
ATOM     63  C   UNL A   1      44.615  25.906  31.284  1.00  0.00     0.074 A 
ATOM     64  C   UNL A   1      45.244  26.596  24.854  1.00  0.00     0.029 A 
ATOM     65  N   UNL A   1      45.925  25.597  26.705  1.00  0.00    -0.354 N 
ATOM     66  N   UNL A   1      43.730  25.441  30.449  1.00  0.00    -0.248 NA
ATOM     67  C   UNL A   1      45.999  25.582  30.974  1.00  0.00     0.031 C 
ATOM     68  C   UNL A   1      44.120  26.122  25.592  1.00  0.00     0.029 A 
ATOM     69  C   UNL A   1      44.565  25.646  26.828  1.00  0.00     0.049 A 
ATOM     70  H   UNL A   1      46.526  25.042  27.253  1.00  0.00     0.167 HD
ATOM     71  C   UNL A   1      44.451  25.201  29.289  1.00  0.00     0.074 A 
ATOM     72  C   UNL A   1      45.847  25.160  29.715  1.00  0.00     0.031 C 
ATOM     73  C   UNL A   1      43.866  25.363  28.065  1.00  0.00     0.034 A 
BRANCH  60  74
ATOM     74  C   UNL A   1      48.854  26.411  26.134  1.00  0.00     0.023 A 
ATOM     75  C   UNL A   1      49.018  25.707  27.347  1.00  0.00     0.012 A 
ATOM     76  C   UNL A   1      50.010  26.606  25.342  1.00  0.00     0.148 A 
ATOM     77  C   UNL A   1      50.274  25.262  27.770  1.00  0.00     0.002 A 
ATOM     78  C   UNL A   1      51.241  26.093  25.728  1.00  0.00     0.091 A 
ATOM     79  F   UNL A   1      49.967  27.406  24.274  1.00  0.00    -0.205 F 
ATOM     80  C   UNL A   1      51.386  25.447  26.957  1.00  0.00     0.022 A 
BRANCH  78  81
ATOM     81  S   UNL A   1      52.706  26.273  24.701  1.00  0.00     0.127 S 
ATOM     82  O   UNL A   1      52.115  26.550  23.394  1.00  0.00    -0.237 OA
ATOM     83  O   UNL A   1      53.371  27.410  25.337  1.00  0.00    -0.237 OA
ATOM     84  O   UNL A   1      53.430  25.014  24.817  1.00  0.00    -0.744 OA
ENDBRANCH  78  81
ENDBRANCH  60  74
BRANCH  61  85
ATOM     85  C   UNL A   1      44.579  26.858  33.681  1.00  0.00     0.023 A 
ATOM     86  C   UNL A   1      45.774  27.348  34.248  1.00  0.00     0.012 A 
ATOM     87  C   UNL A   1      43.516  26.529  34.548  1.00  0.00     0.148 A 
ATOM     88  C   UNL A   1      45.891  27.546  35.629  1.00  0.00     0.002 A 
ATOM     89  C   UNL A   1      43.636  26.729  35.921  1.00  0.00     0.091 A 
ATOM     90  F   UNL A   1      42.358  26.114  34.017  1.00  0.00    -0.205 F 
ATOM     91  C   UNL A   1      44.817  27.250  36.464  1.00  0.00     0.022 A 
BRANCH  89  92
ATOM     92  S   UNL A   1      42.281  26.415  37.061  1.00  0.00     0.127 S 
ATOM     93  O   UNL A   1      41.853  25.075  36.659  1.00  0.00    -0.237 OA
ATOM     94  O   UNL A   1      42.955  26.480  38.356  1.00  0.00    -0.237 OA
ATOM     95  O   UNL A   1      41.297  27.461  36.812  1.00  0.00    -0.744 OA
ENDBRANCH  89  92
ENDBRANCH  61  85
BRANCH  73  96
ATOM     96  C   UNL A   1      42.362  25.447  28.019  1.00  0.00     0.023 A 
ATOM     97  C   UNL A   1      41.522  24.314  28.067  1.00  0.00     0.012 A 
ATOM     98  C   UNL A   1      41.784  26.726  28.071  1.00  0.00     0.148 A 
ATOM     99  C   UNL A   1      40.133  24.461  28.140  1.00  0.00     0.002 A 
ATOM    100  C   UNL A   1      40.410  26.867  28.194  1.00  0.00     0.091 A 
ATOM    101  F   UNL A   1      42.600  27.790  28.022  1.00  0.00    -0.205 F 
ATOM    102  C   UNL A   1      39.578  25.736  28.219  1.00  0.00     0.022 A 
BRANCH 100 103
ATOM    103  S   UNL A   1      39.655  28.477  28.424  1.00  0.00     0.127 S 
ATOM    104  O   UNL A   1      40.295  28.941  29.653  1.00  0.00    -0.237 OA
ATOM    105  O   UNL A   1      40.064  29.191  27.213  1.00  0.00    -0.237 OA
ATOM    106  O   UNL A   1      38.220  28.239  28.515  1.00  0.00    -0.744 OA
ENDBRANCH 100 103
ENDBRANCH  73  96
ENDBRANCH  47  48
ENDBRANCH  40  42
ENDBRANCH  39  40
ENDBRANCH  38  39
ENDBRANCH  37  38
ENDBRANCH  36  37
ENDBRANCH  35  36
ENDBRANCH   1  35
TORSDOF 25
ENDMDL
MODEL 2
REMARK VINA RESULT:      -8.6      5.813     10.077
REMARK SMILES CC(C)CCn1nc(C(=O)OCCOCCOCCOC(=O)c2ccc(-c3c4nc(c(-c5cccc(S(=O)(=O)[O-])c5F)c5ccc([nH]5)c(-c5cccc(S(=O)(=O)[O-])c5F)c5nc(c(-c6cccc(S(=O)(=O)[O-])c6F)c6ccc3[nH]6)C=C5)C=C4)cc2)c2c1CCN(C(=O)[C@@H]1CCc3nn(C)c(=O)n3C1)C2
REMARK SMILES IDX 15 1 14 2 13 3 12 4 11 5 9 6 10 7 8 8 6 9 7 10 87 11 86 12
REMARK SMILES IDX 88 13 104 14 89 15 90 16 5 17 4 18 2 19 1 20 3 21 91 22
REMARK SMILES IDX 92 23 93 24 94 25 103 26 95 27 102 28 96 29 100 30 97 31
REMARK SMILES IDX 98 32 101 33 99 34 16 35 17 36 18 37 19 38 20 39 21 40 22 41
REMARK SMILES IDX 23 42 24 43 85 44 25 45 84 46 26 47 27 48 28 49 78 50 29 51
REMARK SMILES IDX 83 52 77 53 79 54 30 55 82 56 76 57 75 58 31 60 63 61 43 62
REMARK SMILES IDX 62 63 44 64 47 65 61 66 80 67 45 68 46 69 60 71 81 72 48 73
REMARK SMILES IDX 32 74 33 75 41 76 34 77 36 78 42 79 35 80 37 81 38 82 39 83
REMARK SMILES IDX 40 84 64 85 65 86 73 87 66 88 68 89 74 90 67 91 69 92 70 93
REMARK SMILES IDX 71 94 72 95 49 96 50 97 58 98 51 99 53 100 59 101 52 102
REMARK SMILES IDX 54 103 55 104 56 105 57 106
REMARK H PARENT 79 59 47 70
REMARK Flexibility Score: inf
ROOT
ATOM      1  C   UNL A   1      45.336  43.535  31.975  1.00  0.00     0.188 C 
ENDROOT
BRANCH   1   2
ATOM      2  O   UNL A   1      44.869  43.293  30.664  1.00  0.00    -0.376 OA
BRANCH   2   3
ATOM      3  C   UNL A   1      44.004  42.224  30.328  1.00  0.00     0.202 C 
BRANCH   3   4
ATOM      4  C   UNL A   1      44.333  41.133  29.300  1.00  0.00     0.261 C 
BRANCH   4   5
ATOM      5  O   UNL A   1      43.334  40.950  28.311  1.00  0.00    -0.458 OA
BRANCH   5   6
ATOM      6  C   UNL A   1      42.911  39.676  28.076  1.00  0.00     0.359 C 
ATOM      7  O   UNL A   1      41.752  39.287  28.217  1.00  0.00    -0.244 OA
BRANCH   6   8
ATOM      8  C   UNL A   1      44.027  38.857  27.594  1.00  0.00     0.175 A 
ATOM      9  N   UNL A   1      45.466  37.276  27.419  1.00  0.00    -0.268 N 
ATOM     10  N   UNL A   1      44.315  37.611  28.049  1.00  0.00    -0.165 NA
ATOM     11  C   UNL A   1      45.981  38.361  26.782  1.00  0.00     0.046 A 
ATOM     12  C   UNL A   1      44.960  39.264  26.602  1.00  0.00     0.028 A 
ATOM     13  C   UNL A   1      47.385  38.693  26.504  1.00  0.00     0.078 C 
ATOM     14  C   UNL A   1      45.072  40.533  25.787  1.00  0.00     0.159 C 
ATOM     15  C   UNL A   1      47.398  40.232  26.337  1.00  0.00     0.126 C 
ATOM     16  N   UNL A   1      46.460  40.687  25.327  1.00  0.00    -0.338 N 
BRANCH   9  17
ATOM     17  C   UNL A   1      46.134  36.014  27.689  1.00  0.00     0.145 C 
BRANCH  17  18
ATOM     18  C   UNL A   1      45.564  35.162  28.835  1.00  0.00     0.027 C 
BRANCH  18  19
ATOM     19  C   UNL A   1      45.598  33.625  28.669  1.00  0.00    -0.016 C 
ATOM     20  C   UNL A   1      44.670  32.888  29.640  1.00  0.00     0.007 C 
ATOM     21  C   UNL A   1      45.185  33.254  27.235  1.00  0.00     0.007 C 
ENDBRANCH  18  19
ENDBRANCH  17  18
ENDBRANCH   9  17
BRANCH  16  22
ATOM     22  C   UNL A   1      46.697  41.364  24.143  1.00  0.00     0.227 C 
ATOM     23  O   UNL A   1      46.792  40.715  23.089  1.00  0.00    -0.274 OA
BRANCH  22  24
ATOM     24  C   UNL A   1      46.895  42.901  24.005  1.00  0.00     0.099 C 
ATOM     25  C   UNL A   1      46.188  43.796  25.030  1.00  0.00     0.023 C 
ATOM     26  C   UNL A   1      46.818  43.523  22.614  1.00  0.00     0.142 C 
ATOM     27  C   UNL A   1      44.773  44.218  24.651  1.00  0.00     0.078 C 
ATOM     28  N   UNL A   1      45.482  43.967  22.284  1.00  0.00    -0.278 N 
ATOM     29  C   UNL A   1      44.484  44.150  23.175  1.00  0.00     0.133 A 
ATOM     30  C   UNL A   1      44.888  43.708  21.067  1.00  0.00     0.345 A 
ATOM     31  N   UNL A   1      43.284  44.056  22.670  1.00  0.00    -0.155 NA
ATOM     32  N   UNL A   1      43.503  43.731  21.333  1.00  0.00    -0.216 N 
ATOM     33  O   UNL A   1      45.436  43.298  20.056  1.00  0.00    -0.246 OA
ATOM     34  C   UNL A   1      42.600  42.841  20.630  1.00  0.00     0.179 C 
ENDBRANCH  22  24
ENDBRANCH  16  22
ENDBRANCH   6   8
ENDBRANCH   5   6
ENDBRANCH   4   5
ENDBRANCH   3   4
ENDBRANCH   2   3
ENDBRANCH   1   2
BRANCH   1  35
ATOM     35  C   UNL A   1      46.679  42.981  32.483  1.00  0.00     0.188 C 
BRANCH  35  36
ATOM     36  O   UNL A   1      46.731  42.091  33.571  1.00  0.00    -0.376 OA
BRANCH  36  37
ATOM     37  C   UNL A   1      45.611  41.501  34.200  1.00  0.00     0.202 C 
BRANCH  37  38
ATOM     38  C   UNL A   1      44.908  40.238  33.729  1.00  0.00     0.261 C 
BRANCH  38  39
ATOM     39  O   UNL A   1      45.755  39.283  33.141  1.00  0.00    -0.460 OA
BRANCH  39  40
ATOM     40  C   UNL A   1      45.619  38.052  33.673  1.00  0.00     0.338 C 
ATOM     41  O   UNL A   1      46.402  37.470  34.405  1.00  0.00    -0.246 OA
BRANCH  40  42
ATOM     42  C   UNL A   1      44.369  37.479  33.183  1.00  0.00     0.060 A 
ATOM     43  C   UNL A   1      43.310  37.459  34.088  1.00  0.00     0.016 A 
ATOM     44  C   UNL A   1      44.411  36.673  32.037  1.00  0.00     0.016 A 
ATOM     45  C   UNL A   1      42.442  36.402  34.008  1.00  0.00     0.010 A 
ATOM     46  C   UNL A   1      43.553  35.611  31.968  1.00  0.00     0.010 A 
ATOM     47  C   UNL A   1      42.662  35.434  33.018  1.00  0.00    -0.014 A 
BRANCH  47  48
ATOM     48  C   UNL A   1      41.855  34.242  33.061  1.00  0.00     0.031 A 
ATOM     49  C   UNL A   1      40.766  34.302  32.073  1.00  0.00     0.074 A 
ATOM     50  C   UNL A   1      42.114  33.217  33.893  1.00  0.00     0.049 A 
ATOM     51  N   UNL A   1      39.530  34.579  32.315  1.00  0.00    -0.248 NA
ATOM     52  C   UNL A   1      41.125  34.320  30.648  1.00  0.00     0.031 C 
ATOM     53  C   UNL A   1      43.309  32.987  34.711  1.00  0.00     0.029 A 
ATOM     54  N   UNL A   1      41.388  32.085  34.089  1.00  0.00    -0.354 N 
ATOM     55  C   UNL A   1      38.905  34.521  31.078  1.00  0.00     0.074 A 
ATOM     56  C   UNL A   1      39.948  34.608  30.091  1.00  0.00     0.031 C 
ATOM     57  C   UNL A   1      43.335  31.690  35.102  1.00  0.00     0.029 A 
ATOM     58  C   UNL A   1      42.098  31.051  34.688  1.00  0.00     0.049 A 
ATOM     59  H   UNL A   1      40.442  32.005  33.829  1.00  0.00     0.167 HD
ATOM     60  C   UNL A   1      37.623  34.084  30.983  1.00  0.00     0.034 A 
ATOM     61  C   UNL A   1      41.704  29.755  34.760  1.00  0.00     0.034 A 
ATOM     62  C   UNL A   1      36.988  34.051  32.277  1.00  0.00     0.049 A 
ATOM     63  C   UNL A   1      40.236  29.742  34.578  1.00  0.00     0.074 A 
ATOM     64  C   UNL A   1      36.636  34.980  33.232  1.00  0.00     0.029 A 
ATOM     65  N   UNL A   1      37.005  32.827  32.899  1.00  0.00    -0.354 N 
ATOM     66  N   UNL A   1      39.401  30.247  35.441  1.00  0.00    -0.248 NA
ATOM     67  C   UNL A   1      39.705  29.538  33.240  1.00  0.00     0.031 C 
ATOM     68  C   UNL A   1      36.810  34.318  34.483  1.00  0.00     0.029 A 
ATOM     69  C   UNL A   1      37.204  33.000  34.239  1.00  0.00     0.049 A 
ATOM     70  H   UNL A   1      36.890  31.959  32.447  1.00  0.00     0.167 HD
ATOM     71  C   UNL A   1      38.434  30.860  34.658  1.00  0.00     0.074 A 
ATOM     72  C   UNL A   1      38.589  30.266  33.334  1.00  0.00     0.031 C 
ATOM     73  C   UNL A   1      37.816  31.999  35.090  1.00  0.00     0.034 A 
BRANCH  60  74
ATOM     74  C   UNL A   1      37.090  33.258  29.836  1.00  0.00     0.023 A 
ATOM     75  C   UNL A   1      35.918  33.730  29.206  1.00  0.00     0.012 A 
ATOM     76  C   UNL A   1      37.487  31.932  29.546  1.00  0.00     0.148 A 
ATOM     77  C   UNL A   1      35.157  32.910  28.369  1.00  0.00     0.002 A 
ATOM     78  C   UNL A   1      36.771  31.147  28.652  1.00  0.00     0.091 A 
ATOM     79  F   UNL A   1      38.480  31.361  30.231  1.00  0.00    -0.205 F 
ATOM     80  C   UNL A   1      35.587  31.619  28.085  1.00  0.00     0.022 A 
BRANCH  78  81
ATOM     81  S   UNL A   1      37.299  29.483  28.220  1.00  0.00     0.127 S 
ATOM     82  O   UNL A   1      36.124  28.977  27.515  1.00  0.00    -0.237 OA
ATOM     83  O   UNL A   1      38.463  29.754  27.377  1.00  0.00    -0.237 OA
ATOM     84  O   UNL A   1      37.614  28.826  29.483  1.00  0.00    -0.744 OA
ENDBRANCH  78  81
ENDBRANCH  60  74
BRANCH  61  85
ATOM     85  C   UNL A   1      42.495  28.504  34.695  1.00  0.00     0.023 A 
ATOM     86  C   UNL A   1      43.527  28.383  33.739  1.00  0.00     0.012 A 
ATOM     87  C   UNL A   1      42.461  27.575  35.757  1.00  0.00     0.148 A 
ATOM     88  C   UNL A   1      44.514  27.399  33.861  1.00  0.00     0.002 A 
ATOM     89  C   UNL A   1      43.446  26.599  35.875  1.00  0.00     0.091 A 
ATOM     90  F   UNL A   1      41.518  27.712  36.700  1.00  0.00    -0.205 F 
ATOM     91  C   UNL A   1      44.483  26.516  34.936  1.00  0.00     0.022 A 
BRANCH  89  92
ATOM     92  S   UNL A   1      43.502  25.450  37.258  1.00  0.00     0.127 S 
ATOM     93  O   UNL A   1      43.616  26.359  38.399  1.00  0.00    -0.237 OA
ATOM     94  O   UNL A   1      42.213  24.774  37.141  1.00  0.00    -0.237 OA
ATOM     95  O   UNL A   1      44.674  24.613  37.036  1.00  0.00    -0.744 OA
ENDBRANCH  89  92
ENDBRANCH  61  85
BRANCH  73  96
ATOM     96  C   UNL A   1      37.942  32.349  36.551  1.00  0.00     0.023 A 
ATOM     97  C   UNL A   1      37.140  31.770  37.557  1.00  0.00     0.012 A 
ATOM     98  C   UNL A   1      39.004  33.187  36.925  1.00  0.00     0.148 A 
ATOM     99  C   UNL A   1      37.383  32.045  38.907  1.00  0.00     0.002 A 
ATOM    100  C   UNL A   1      39.274  33.417  38.266  1.00  0.00     0.091 A 
ATOM    101  F   UNL A   1      39.754  33.729  35.952  1.00  0.00    -0.205 F 
ATOM    102  C   UNL A   1      38.459  32.856  39.262  1.00  0.00     0.022 A 
BRANCH 100 103
ATOM    103  S   UNL A   1      40.717  34.349  38.780  1.00  0.00     0.127 S 
ATOM    104  O   UNL A   1      40.354  34.747  40.138  1.00  0.00    -0.237 OA
ATOM    105  O   UNL A   1      41.782  33.348  38.698  1.00  0.00    -0.237 OA
ATOM    106  O   UNL A   1      40.853  35.440  37.822  1.00  0.00    -0.744 OA
ENDBRANCH 100 103
ENDBRANCH  73  96
ENDBRANCH  47  48
ENDBRANCH  40  42
ENDBRANCH  39  40
ENDBRANCH  38  39
ENDBRANCH  37  38
ENDBRANCH  36  37
ENDBRANCH  35  36
ENDBRANCH   1  35
TORSDOF 25
ENDMDL
MODEL 3
REMARK VINA RESULT:      -8.6      8.707     18.355
REMARK SMILES CC(C)CCn1nc(C(=O)OCCOCCOCCOC(=O)c2ccc(-c3c4nc(c(-c5cccc(S(=O)(=O)[O-])c5F)c5ccc([nH]5)c(-c5cccc(S(=O)(=O)[O-])c5F)c5nc(c(-c6cccc(S(=O)(=O)[O-])c6F)c6ccc3[nH]6)C=C5)C=C4)cc2)c2c1CCN(C(=O)[C@@H]1CCc3nn(C)c(=O)n3C1)C2
REMARK SMILES IDX 15 1 14 2 13 3 12 4 11 5 9 6 10 7 8 8 6 9 7 10 87 11 86 12
REMARK SMILES IDX 88 13 104 14 89 15 90 16 5 17 4 18 2 19 1 20 3 21 91 22
REMARK SMILES IDX 92 23 93 24 94 25 103 26 95 27 102 28 96 29 100 30 97 31
REMARK SMILES IDX 98 32 101 33 99 34 16 35 17 36 18 37 19 38 20 39 21 40 22 41
REMARK SMILES IDX 23 42 24 43 85 44 25 45 84 46 26 47 27 48 28 49 78 50 29 51
REMARK SMILES IDX 83 52 77 53 79 54 30 55 82 56 76 57 75 58 31 60 63 61 43 62
REMARK SMILES IDX 62 63 44 64 47 65 61 66 80 67 45 68 46 69 60 71 81 72 48 73
REMARK SMILES IDX 32 74 33 75 41 76 34 77 36 78 42 79 35 80 37 81 38 82 39 83
REMARK SMILES IDX 40 84 64 85 65 86 73 87 66 88 68 89 74 90 67 91 69 92 70 93
REMARK SMILES IDX 71 94 72 95 49 96 50 97 58 98 51 99 53 100 59 101 52 102
REMARK SMILES IDX 54 103 55 104 56 105 57 106
REMARK H PARENT 79 59 47 70
REMARK Flexibility Score: inf
ROOT
ATOM      1  C   UNL A   1      51.933  20.798  32.938  1.00  0.00     0.188 C 
ENDROOT
BRANCH   1   2
ATOM      2  O   UNL A   1      50.527  20.936  32.944  1.00  0.00    -0.376 OA
BRANCH   2   3
ATOM      3  C   UNL A   1      49.664  20.117  33.712  1.00  0.00     0.202 C 
BRANCH   3   4
ATOM      4  C   UNL A   1      48.132  20.193  33.670  1.00  0.00     0.261 C 
BRANCH   4   5
ATOM      5  O   UNL A   1      47.486  19.319  34.580  1.00  0.00    -0.458 OA
BRANCH   5   6
ATOM      6  C   UNL A   1      46.410  19.807  35.259  1.00  0.00     0.359 C 
ATOM      7  O   UNL A   1      45.236  19.579  34.967  1.00  0.00    -0.244 OA
BRANCH   6   8
ATOM      8  C   UNL A   1      46.858  20.603  36.406  1.00  0.00     0.175 A 
ATOM      9  N   UNL A   1      47.607  21.144  38.341  1.00  0.00    -0.268 N 
ATOM     10  N   UNL A   1      47.468  20.089  37.504  1.00  0.00    -0.165 NA
ATOM     11  C   UNL A   1      46.906  22.208  37.870  1.00  0.00     0.046 A 
ATOM     12  C   UNL A   1      46.698  22.011  36.525  1.00  0.00     0.028 A 
ATOM     13  C   UNL A   1      46.256  23.295  38.616  1.00  0.00     0.078 C 
ATOM     14  C   UNL A   1      46.102  23.038  35.589  1.00  0.00     0.159 C 
ATOM     15  C   UNL A   1      45.157  23.822  37.662  1.00  0.00     0.126 C 
ATOM     16  N   UNL A   1      45.688  24.214  36.369  1.00  0.00    -0.338 N 
BRANCH   9  17
ATOM     17  C   UNL A   1      48.179  20.984  39.668  1.00  0.00     0.145 C 
BRANCH  17  18
ATOM     18  C   UNL A   1      49.714  20.945  39.758  1.00  0.00     0.027 C 
BRANCH  18  19
ATOM     19  C   UNL A   1      50.396  19.557  39.745  1.00  0.00    -0.016 C 
ATOM     20  C   UNL A   1      49.506  18.437  40.292  1.00  0.00     0.007 C 
ATOM     21  C   UNL A   1      50.795  19.193  38.305  1.00  0.00     0.007 C 
ENDBRANCH  18  19
ENDBRANCH  17  18
ENDBRANCH   9  17
BRANCH  16  22
ATOM     22  C   UNL A   1      45.688  25.453  35.753  1.00  0.00     0.227 C 
ATOM     23  O   UNL A   1      46.753  25.895  35.292  1.00  0.00    -0.274 OA
BRANCH  22  24
ATOM     24  C   UNL A   1      44.454  26.391  35.608  1.00  0.00     0.099 C 
ATOM     25  C   UNL A   1      44.366  27.245  34.338  1.00  0.00     0.023 C 
ATOM     26  C   UNL A   1      44.007  27.197  36.822  1.00  0.00     0.142 C 
ATOM     27  C   UNL A   1      45.048  28.605  34.425  1.00  0.00     0.078 C 
ATOM     28  N   UNL A   1      44.619  28.506  36.870  1.00  0.00    -0.278 N 
ATOM     29  C   UNL A   1      45.234  29.112  35.831  1.00  0.00     0.133 A 
ATOM     30  C   UNL A   1      45.167  29.033  38.020  1.00  0.00     0.345 A 
ATOM     31  N   UNL A   1      46.124  30.003  36.175  1.00  0.00    -0.155 NA
ATOM     32  N   UNL A   1      46.140  29.948  37.566  1.00  0.00    -0.216 N 
ATOM     33  O   UNL A   1      45.026  28.615  39.158  1.00  0.00    -0.246 OA
ATOM     34  C   UNL A   1      47.375  30.141  38.301  1.00  0.00     0.179 C 
ENDBRANCH  22  24
ENDBRANCH  16  22
ENDBRANCH   6   8
ENDBRANCH   5   6
ENDBRANCH   4   5
ENDBRANCH   3   4
ENDBRANCH   2   3
ENDBRANCH   1   2
BRANCH   1  35
ATOM     35  C   UNL A   1      52.714  20.307  34.171  1.00  0.00     0.188 C 
BRANCH  35  36
ATOM     36  O   UNL A   1      53.114  21.204  35.178  1.00  0.00    -0.376 OA
BRANCH  36  37
ATOM     37  C   UNL A   1      52.245  21.904  36.045  1.00  0.00     0.202 C 
BRANCH  37  38
ATOM     38  C   UNL A   1      51.839  23.360  35.885  1.00  0.00     0.261 C 
BRANCH  38  39
ATOM     39  O   UNL A   1      51.646  23.771  34.554  1.00  0.00    -0.460 OA
BRANCH  39  40
ATOM     40  C   UNL A   1      50.359  24.045  34.264  1.00  0.00     0.338 C 
ATOM     41  O   UNL A   1      49.364  23.544  34.760  1.00  0.00    -0.246 OA
BRANCH  40  42
ATOM     42  C   UNL A   1      50.334  25.034  33.190  1.00  0.00     0.060 A 
ATOM     43  C   UNL A   1      49.725  26.250  33.494  1.00  0.00     0.016 A 
ATOM     44  C   UNL A   1      50.555  24.596  31.877  1.00  0.00     0.016 A 
ATOM     45  C   UNL A   1      49.055  26.881  32.479  1.00  0.00     0.010 A 
ATOM     46  C   UNL A   1      49.873  25.220  30.870  1.00  0.00     0.010 A 
ATOM     47  C   UNL A   1      49.045  26.280  31.213  1.00  0.00    -0.014 A 
BRANCH  47  48
ATOM     48  C   UNL A   1      48.190  26.858  30.208  1.00  0.00     0.031 A 
ATOM     49  C   UNL A   1      46.926  26.115  30.096  1.00  0.00     0.074 A 
ATOM     50  C   UNL A   1      48.531  27.953  29.505  1.00  0.00     0.049 A 
ATOM     51  N   UNL A   1      46.624  25.255  29.184  1.00  0.00    -0.248 NA
ATOM     52  C   UNL A   1      46.013  26.124  31.248  1.00  0.00     0.031 C 
ATOM     53  C   UNL A   1      49.647  28.875  29.738  1.00  0.00     0.029 A 
ATOM     54  N   UNL A   1      47.858  28.542  28.482  1.00  0.00    -0.354 N 
ATOM     55  C   UNL A   1      45.344  24.829  29.509  1.00  0.00     0.074 A 
ATOM     56  C   UNL A   1      45.131  25.193  30.883  1.00  0.00     0.031 C 
ATOM     57  C   UNL A   1      49.422  30.024  29.056  1.00  0.00     0.029 A 
ATOM     58  C   UNL A   1      48.236  29.856  28.234  1.00  0.00     0.049 A 
ATOM     59  H   UNL A   1      47.164  28.077  27.961  1.00  0.00     0.167 HD
ATOM     60  C   UNL A   1      44.464  24.504  28.526  1.00  0.00     0.034 A 
ATOM     61  C   UNL A   1      47.562  30.744  27.462  1.00  0.00     0.034 A 
ATOM     62  C   UNL A   1      45.135  24.346  27.260  1.00  0.00     0.049 A 
ATOM     63  C   UNL A   1      46.700  29.956  26.553  1.00  0.00     0.074 A 
ATOM     64  C   UNL A   1      46.083  23.491  26.740  1.00  0.00     0.029 A 
ATOM     65  N   UNL A   1      45.114  25.456  26.451  1.00  0.00    -0.354 N 
ATOM     66  N   UNL A   1      47.165  29.190  25.608  1.00  0.00    -0.248 NA
ATOM     67  C   UNL A   1      45.328  29.690  26.956  1.00  0.00     0.031 C 
ATOM     68  C   UNL A   1      46.854  24.285  25.841  1.00  0.00     0.029 A 
ATOM     69  C   UNL A   1      46.312  25.572  25.806  1.00  0.00     0.049 A 
ATOM     70  H   UNL A   1      44.351  26.071  26.352  1.00  0.00     0.167 HD
ATOM     71  C   UNL A   1      46.347  28.070  25.645  1.00  0.00     0.074 A 
ATOM     72  C   UNL A   1      45.158  28.497  26.378  1.00  0.00     0.031 C 
ATOM     73  C   UNL A   1      46.849  26.836  25.344  1.00  0.00     0.034 A 
BRANCH  60  74
ATOM     74  C   UNL A   1      42.981  24.781  28.589  1.00  0.00     0.023 A 
ATOM     75  C   UNL A   1      42.122  23.723  28.219  1.00  0.00     0.012 A 
ATOM     76  C   UNL A   1      42.406  26.069  28.696  1.00  0.00     0.148 A 
ATOM     77  C   UNL A   1      40.774  23.945  27.926  1.00  0.00     0.002 A 
ATOM     78  C   UNL A   1      41.049  26.271  28.481  1.00  0.00     0.091 A 
ATOM     79  F   UNL A   1      43.182  27.141  28.872  1.00  0.00    -0.205 F 
ATOM     80  C   UNL A   1      40.234  25.218  28.064  1.00  0.00     0.022 A 
BRANCH  78  81
ATOM     81  S   UNL A   1      40.290  27.888  28.679  1.00  0.00     0.127 S 
ATOM     82  O   UNL A   1      40.544  28.161  30.091  1.00  0.00    -0.237 OA
ATOM     83  O   UNL A   1      41.068  28.695  27.739  1.00  0.00    -0.237 OA
ATOM     84  O   UNL A   1      38.891  27.719  28.306  1.00  0.00    -0.744 OA
ENDBRANCH  78  81
ENDBRANCH  60  74
BRANCH  61  85
ATOM     85  C   UNL A   1      47.379  32.207  27.613  1.00  0.00     0.023 A 
ATOM     86  C   UNL A   1      47.917  33.079  26.643  1.00  0.00     0.012 A 
ATOM     87  C   UNL A   1      46.419  32.722  28.511  1.00  0.00     0.148 A 
ATOM     88  C   UNL A   1      47.483  34.406  26.542  1.00  0.00     0.002 A 
ATOM     89  C   UNL A   1      45.989  34.041  28.407  1.00  0.00     0.091 A 
ATOM     90  F   UNL A   1      45.862  31.890  29.402  1.00  0.00    -0.205 F 
ATOM     91  C   UNL A   1      46.509  34.884  27.414  1.00  0.00     0.022 A 
BRANCH  89  92
ATOM     92  S   UNL A   1      44.703  34.722  29.464  1.00  0.00     0.127 S 
ATOM     93  O   UNL A   1      45.343  34.682  30.779  1.00  0.00    -0.237 OA
ATOM     94  O   UNL A   1      44.531  36.061  28.906  1.00  0.00    -0.237 OA
ATOM     95  O   UNL A   1      43.558  33.831  29.325  1.00  0.00    -0.744 OA
ENDBRANCH  89  92
ENDBRANCH  61  85
BRANCH  73  96
ATOM     96  C   UNL A   1      48.178  26.780  24.635  1.00  0.00     0.023 A 
ATOM     97  C   UNL A   1      48.330  27.040  23.256  1.00  0.00     0.012 A 
ATOM     98  C   UNL A   1      49.324  26.596  25.423  1.00  0.00     0.148 A 
ATOM     99  C   UNL A   1      49.603  27.090  22.677  1.00  0.00     0.002 A 
ATOM    100  C   UNL A   1      50.586  26.696  24.856  1.00  0.00     0.091 A 
ATOM    101  F   UNL A   1      49.157  26.348  26.732  1.00  0.00    -0.205 F 
ATOM    102  C   UNL A   1      50.731  26.933  23.480  1.00  0.00     0.022 A 
BRANCH 100 103
ATOM    103  S   UNL A   1      52.068  26.626  25.863  1.00  0.00     0.127 S 
ATOM    104  O   UNL A   1      52.117  25.215  26.236  1.00  0.00    -0.237 OA
ATOM    105  O   UNL A   1      53.107  27.048  24.920  1.00  0.00    -0.237 OA
ATOM    106  O   UNL A   1      51.852  27.559  26.962  1.00  0.00    -0.744 OA
ENDBRANCH 100 103
ENDBRANCH  73  96
ENDBRANCH  47  48
ENDBRANCH  40  42
ENDBRANCH  39  40
ENDBRANCH  38  39
ENDBRANCH  37  38
ENDBRANCH  36  37
ENDBRANCH  35  36
ENDBRANCH   1  35
TORSDOF 25
ENDMDL
