MODEL 1
REMARK VINA RESULT:      -9.4      0.000      0.000
REMARK SMILES C[C@@H]1SC[C@H](C(=O)OCCOCCOCCOC(=O)c2ccc(-c3c4nc(c(-c5cccc(S(=O)(=O)[O-])c5F)c5ccc([nH]5)c(-c5cccc(S(=O)(=O)[O-])c5F)c5nc(c(-c6cccc(S(=O)(=O)[O-])c6F)c6ccc3[nH]6)C=C5)C=C4)cc2)N1C(=O)C[NH2+]CC(F)(F)F
REMARK SMILES IDX 12 1 11 2 10 3 9 4 8 5 6 6 7 7 5 8 1 9 2 10 3 11 83 12 4 13
REMARK SMILES IDX 84 14 85 15 86 16 87 17 88 20 89 21 90 22 91 23 92 24 13 25
REMARK SMILES IDX 14 26 15 27 16 28 17 29 18 30 19 31 20 32 21 33 82 34 22 35
REMARK SMILES IDX 81 36 23 37 24 38 25 39 75 40 26 41 80 42 74 43 76 44 27 45
REMARK SMILES IDX 79 46 73 47 72 48 28 50 60 51 40 52 59 53 41 54 44 55 58 56
REMARK SMILES IDX 77 57 42 58 43 59 57 61 78 62 45 63 29 64 30 65 38 66 31 67
REMARK SMILES IDX 33 68 39 69 32 70 34 71 35 72 36 73 37 74 61 75 62 76 70 77
REMARK SMILES IDX 63 78 65 79 71 80 64 81 66 82 67 83 68 84 69 85 46 86 47 87
REMARK SMILES IDX 55 88 48 89 50 90 56 91 49 92 51 93 52 94 53 95 54 96
REMARK H PARENT 87 18 87 19 76 49 44 60
REMARK Flexibility Score: inf
ROOT
ATOM      1  C   UNL A   1      32.459  21.842  23.814  1.00  0.00     0.188 C 
ENDROOT
BRANCH   1   2
ATOM      2  O   UNL A   1      33.030  22.580  22.748  1.00  0.00    -0.376 OA
BRANCH   2   3
ATOM      3  C   UNL A   1      32.292  23.618  22.118  1.00  0.00     0.202 C 
BRANCH   3   4
ATOM      4  C   UNL A   1      32.989  24.903  21.642  1.00  0.00     0.261 C 
BRANCH   4   5
ATOM      5  O   UNL A   1      33.487  25.791  22.665  1.00  0.00    -0.462 OA
BRANCH   5   6
ATOM      6  C   UNL A   1      32.657  26.822  22.990  1.00  0.00     0.329 C 
ATOM      7  O   UNL A   1      31.781  27.265  22.251  1.00  0.00    -0.250 OA
BRANCH   6   8
ATOM      8  C   UNL A   1      32.942  27.461  24.365  1.00  0.00     0.206 C 
ATOM      9  C   UNL A   1      31.442  28.298  27.712  1.00  0.00     0.043 C 
ATOM     10  C   UNL A   1      32.506  27.849  26.721  1.00  0.00     0.141 C 
ATOM     11  S   UNL A   1      33.319  29.386  26.127  1.00  0.00    -0.135 SA
ATOM     12  N   UNL A   1      32.068  27.150  25.510  1.00  0.00    -0.311 N 
ATOM     13  C   UNL A   1      33.149  28.968  24.374  1.00  0.00     0.109 C 
BRANCH  12  14
ATOM     14  C   UNL A   1      31.188  26.091  25.411  1.00  0.00     0.279 C 
ATOM     15  O   UNL A   1      30.125  26.175  24.791  1.00  0.00    -0.268 OA
BRANCH  14  16
ATOM     16  C   UNL A   1      31.463  24.793  26.145  1.00  0.00     0.362 C 
BRANCH  16  17
ATOM     17  N   UNL A   1      32.740  24.855  26.877  1.00  0.00    -0.331 N 
ATOM     18  H   UNL A   1      32.567  24.685  27.868  1.00  0.00     0.346 HD
ATOM     19  H   UNL A   1      33.153  25.778  26.750  1.00  0.00     0.346 HD
BRANCH  17  20
ATOM     20  C   UNL A   1      33.676  23.826  26.358  1.00  0.00     0.378 C 
BRANCH  20  21
ATOM     21  C   UNL A   1      35.014  24.274  25.734  1.00  0.00     0.438 C 
ATOM     22  F   UNL A   1      35.098  25.620  25.676  1.00  0.00    -0.165 F 
ATOM     23  F   UNL A   1      36.057  23.823  26.465  1.00  0.00    -0.165 F 
ATOM     24  F   UNL A   1      35.163  23.789  24.481  1.00  0.00    -0.165 F 
ENDBRANCH  20  21
ENDBRANCH  17  20
ENDBRANCH  16  17
ENDBRANCH  14  16
ENDBRANCH  12  14
ENDBRANCH   6   8
ENDBRANCH   5   6
ENDBRANCH   4   5
ENDBRANCH   3   4
ENDBRANCH   2   3
ENDBRANCH   1   2
BRANCH   1  25
ATOM     25  C   UNL A   1      33.345  20.864  24.595  1.00  0.00     0.188 C 
BRANCH  25  26
ATOM     26  O   UNL A   1      34.681  20.754  24.185  1.00  0.00    -0.376 OA
BRANCH  26  27
ATOM     27  C   UNL A   1      35.677  20.388  25.118  1.00  0.00     0.202 C 
BRANCH  27  28
ATOM     28  C   UNL A   1      37.186  20.637  24.931  1.00  0.00     0.261 C 
BRANCH  28  29
ATOM     29  O   UNL A   1      37.829  21.625  25.746  1.00  0.00    -0.460 OA
BRANCH  29  30
ATOM     30  C   UNL A   1      39.099  21.379  26.146  1.00  0.00     0.338 C 
ATOM     31  O   UNL A   1      39.766  20.389  25.888  1.00  0.00    -0.246 OA
BRANCH  30  32
ATOM     32  C   UNL A   1      39.634  22.628  26.742  1.00  0.00     0.060 A 
ATOM     33  C   UNL A   1      39.131  23.864  26.307  1.00  0.00     0.016 A 
ATOM     34  C   UNL A   1      40.603  22.580  27.745  1.00  0.00     0.016 A 
ATOM     35  C   UNL A   1      39.612  25.055  26.858  1.00  0.00     0.010 A 
ATOM     36  C   UNL A   1      41.103  23.775  28.275  1.00  0.00     0.010 A 
ATOM     37  C   UNL A   1      40.632  25.019  27.815  1.00  0.00    -0.014 A 
BRANCH  37  38
ATOM     38  C   UNL A   1      41.346  26.262  28.201  1.00  0.00     0.031 A 
ATOM     39  C   UNL A   1      40.562  27.351  28.885  1.00  0.00     0.074 A 
ATOM     40  C   UNL A   1      42.650  26.450  27.922  1.00  0.00     0.049 A 
ATOM     41  N   UNL A   1      40.931  28.560  29.216  1.00  0.00    -0.248 NA
ATOM     42  C   UNL A   1      39.167  27.031  29.233  1.00  0.00     0.031 C 
ATOM     43  C   UNL A   1      43.528  25.475  27.281  1.00  0.00     0.029 A 
ATOM     44  N   UNL A   1      43.450  27.551  28.114  1.00  0.00    -0.354 N 
ATOM     45  C   UNL A   1      39.808  29.160  29.770  1.00  0.00     0.074 A 
ATOM     46  C   UNL A   1      38.742  28.182  29.731  1.00  0.00     0.031 C 
ATOM     47  C   UNL A   1      44.735  26.037  27.091  1.00  0.00     0.029 A 
ATOM     48  C   UNL A   1      44.705  27.419  27.566  1.00  0.00     0.049 A 
ATOM     49  H   UNL A   1      43.154  28.356  28.598  1.00  0.00     0.167 HD
ATOM     50  C   UNL A   1      39.672  30.410  30.270  1.00  0.00     0.034 A 
ATOM     51  C   UNL A   1      45.698  28.323  27.425  1.00  0.00     0.034 A 
ATOM     52  C   UNL A   1      40.732  31.379  30.321  1.00  0.00     0.049 A 
ATOM     53  C   UNL A   1      45.511  29.722  27.959  1.00  0.00     0.074 A 
ATOM     54  C   UNL A   1      40.704  32.653  30.860  1.00  0.00     0.029 A 
ATOM     55  N   UNL A   1      42.001  31.193  29.797  1.00  0.00    -0.354 N 
ATOM     56  N   UNL A   1      44.480  30.240  28.584  1.00  0.00    -0.248 NA
ATOM     57  C   UNL A   1      46.637  30.655  27.794  1.00  0.00     0.031 C 
ATOM     58  C   UNL A   1      41.944  33.254  30.622  1.00  0.00     0.029 A 
ATOM     59  C   UNL A   1      42.760  32.337  29.981  1.00  0.00     0.049 A 
ATOM     60  H   UNL A   1      42.317  30.371  29.359  1.00  0.00     0.167 HD
ATOM     61  C   UNL A   1      44.848  31.541  28.918  1.00  0.00     0.074 A 
ATOM     62  C   UNL A   1      46.203  31.727  28.444  1.00  0.00     0.031 C 
ATOM     63  C   UNL A   1      44.126  32.497  29.552  1.00  0.00     0.034 A 
BRANCH  50  64
ATOM     64  C   UNL A   1      38.321  30.808  30.804  1.00  0.00     0.023 A 
ATOM     65  C   UNL A   1      37.999  30.568  32.154  1.00  0.00     0.012 A 
ATOM     66  C   UNL A   1      37.394  31.476  29.979  1.00  0.00     0.148 A 
ATOM     67  C   UNL A   1      36.761  30.956  32.667  1.00  0.00     0.002 A 
ATOM     68  C   UNL A   1      36.184  31.904  30.510  1.00  0.00     0.091 A 
ATOM     69  F   UNL A   1      37.712  31.676  28.693  1.00  0.00    -0.205 F 
ATOM     70  C   UNL A   1      35.861  31.633  31.850  1.00  0.00     0.022 A 
BRANCH  68  71
ATOM     71  S   UNL A   1      34.992  32.856  29.563  1.00  0.00     0.127 S 
ATOM     72  O   UNL A   1      34.112  33.359  30.617  1.00  0.00    -0.237 OA
ATOM     73  O   UNL A   1      35.840  33.873  28.941  1.00  0.00    -0.237 OA
ATOM     74  O   UNL A   1      34.378  31.922  28.631  1.00  0.00    -0.744 OA
ENDBRANCH  68  71
ENDBRANCH  50  64
BRANCH  51  75
ATOM     75  C   UNL A   1      46.972  27.938  26.752  1.00  0.00     0.023 A 
ATOM     76  C   UNL A   1      48.085  27.560  27.526  1.00  0.00     0.012 A 
ATOM     77  C   UNL A   1      47.087  27.955  25.348  1.00  0.00     0.148 A 
ATOM     78  C   UNL A   1      49.300  27.239  26.918  1.00  0.00     0.002 A 
ATOM     79  C   UNL A   1      48.282  27.579  24.746  1.00  0.00     0.091 A 
ATOM     80  F   UNL A   1      46.022  28.337  24.629  1.00  0.00    -0.205 F 
ATOM     81  C   UNL A   1      49.395  27.239  25.529  1.00  0.00     0.022 A 
BRANCH  79  82
ATOM     82  S   UNL A   1      48.465  27.438  22.965  1.00  0.00     0.127 S 
ATOM     83  O   UNL A   1      49.789  28.019  22.753  1.00  0.00    -0.237 OA
ATOM     84  O   UNL A   1      48.389  25.990  22.770  1.00  0.00    -0.237 OA
ATOM     85  O   UNL A   1      47.352  28.184  22.393  1.00  0.00    -0.744 OA
ENDBRANCH  79  82
ENDBRANCH  51  75
BRANCH  63  86
ATOM     86  C   UNL A   1      44.790  33.823  29.829  1.00  0.00     0.023 A 
ATOM     87  C   UNL A   1      45.563  33.999  30.994  1.00  0.00     0.012 A 
ATOM     88  C   UNL A   1      44.717  34.868  28.887  1.00  0.00     0.148 A 
ATOM     89  C   UNL A   1      46.224  35.204  31.232  1.00  0.00     0.002 A 
ATOM     90  C   UNL A   1      45.421  36.047  29.104  1.00  0.00     0.091 A 
ATOM     91  F   UNL A   1      43.966  34.687  27.790  1.00  0.00    -0.205 F 
ATOM     92  C   UNL A   1      46.164  36.222  30.282  1.00  0.00     0.022 A 
BRANCH  90  93
ATOM     93  S   UNL A   1      45.484  37.373  27.893  1.00  0.00     0.127 S 
ATOM     94  O   UNL A   1      44.068  37.553  27.575  1.00  0.00    -0.237 OA
ATOM     95  O   UNL A   1      46.080  38.465  28.661  1.00  0.00    -0.237 OA
ATOM     96  O   UNL A   1      46.310  36.881  26.798  1.00  0.00    -0.744 OA
ENDBRANCH  90  93
ENDBRANCH  63  86
ENDBRANCH  37  38
ENDBRANCH  30  32
ENDBRANCH  29  30
ENDBRANCH  28  29
ENDBRANCH  27  28
ENDBRANCH  26  27
ENDBRANCH  25  26
ENDBRANCH   1  25
TORSDOF 25
ENDMDL
MODEL 2
REMARK VINA RESULT:      -9.3      1.686      7.757
REMARK SMILES C[C@@H]1SC[C@H](C(=O)OCCOCCOCCOC(=O)c2ccc(-c3c4nc(c(-c5cccc(S(=O)(=O)[O-])c5F)c5ccc([nH]5)c(-c5cccc(S(=O)(=O)[O-])c5F)c5nc(c(-c6cccc(S(=O)(=O)[O-])c6F)c6ccc3[nH]6)C=C5)C=C4)cc2)N1C(=O)C[NH2+]CC(F)(F)F
REMARK SMILES IDX 12 1 11 2 10 3 9 4 8 5 6 6 7 7 5 8 1 9 2 10 3 11 83 12 4 13
REMARK SMILES IDX 84 14 85 15 86 16 87 17 88 20 89 21 90 22 91 23 92 24 13 25
REMARK SMILES IDX 14 26 15 27 16 28 17 29 18 30 19 31 20 32 21 33 82 34 22 35
REMARK SMILES IDX 81 36 23 37 24 38 25 39 75 40 26 41 80 42 74 43 76 44 27 45
REMARK SMILES IDX 79 46 73 47 72 48 28 50 60 51 40 52 59 53 41 54 44 55 58 56
REMARK SMILES IDX 77 57 42 58 43 59 57 61 78 62 45 63 29 64 30 65 38 66 31 67
REMARK SMILES IDX 33 68 39 69 32 70 34 71 35 72 36 73 37 74 61 75 62 76 70 77
REMARK SMILES IDX 63 78 65 79 71 80 64 81 66 82 67 83 68 84 69 85 46 86 47 87
REMARK SMILES IDX 55 88 48 89 50 90 56 91 49 92 51 93 52 94 53 95 54 96
REMARK H PARENT 87 18 87 19 76 49 44 60
REMARK Flexibility Score: inf
ROOT
ATOM      1  C   UNL A   1      34.000  22.892  25.764  1.00  0.00     0.188 C 
ENDROOT
BRANCH   1   2
ATOM      2  O   UNL A   1      33.416  22.554  27.010  1.00  0.00    -0.376 OA
BRANCH   2   3
ATOM      3  C   UNL A   1      32.091  22.966  27.316  1.00  0.00     0.202 C 
BRANCH   3   4
ATOM      4  C   UNL A   1      31.174  23.544  26.226  1.00  0.00     0.261 C 
BRANCH   4   5
ATOM      5  O   UNL A   1      30.785  24.927  26.368  1.00  0.00    -0.462 OA
BRANCH   5   6
ATOM      6  C   UNL A   1      30.505  25.572  25.201  1.00  0.00     0.329 C 
ATOM      7  O   UNL A   1      29.384  25.956  24.873  1.00  0.00    -0.250 OA
BRANCH   6   8
ATOM      8  C   UNL A   1      31.714  25.736  24.256  1.00  0.00     0.206 C 
ATOM      9  C   UNL A   1      33.709  28.218  22.253  1.00  0.00     0.043 C 
ATOM     10  C   UNL A   1      33.454  27.011  23.143  1.00  0.00     0.141 C 
ATOM     11  S   UNL A   1      33.081  25.617  22.004  1.00  0.00    -0.135 SA
ATOM     12  N   UNL A   1      32.321  27.065  24.071  1.00  0.00    -0.311 N 
ATOM     13  C   UNL A   1      31.568  25.130  22.868  1.00  0.00     0.109 C 
BRANCH  12  14
ATOM     14  C   UNL A   1      31.987  28.080  24.945  1.00  0.00     0.279 C 
ATOM     15  O   UNL A   1      31.187  28.970  24.645  1.00  0.00    -0.268 OA
BRANCH  14  16
ATOM     16  C   UNL A   1      32.667  28.185  26.297  1.00  0.00     0.362 C 
BRANCH  16  17
ATOM     17  N   UNL A   1      33.645  29.287  26.316  1.00  0.00    -0.331 N 
ATOM     18  H   UNL A   1      33.172  30.160  26.081  1.00  0.00     0.346 HD
ATOM     19  H   UNL A   1      34.378  29.095  25.635  1.00  0.00     0.346 HD
BRANCH  17  20
ATOM     20  C   UNL A   1      34.253  29.406  27.666  1.00  0.00     0.378 C 
BRANCH  20  21
ATOM     21  C   UNL A   1      35.669  30.003  27.802  1.00  0.00     0.438 C 
ATOM     22  F   UNL A   1      36.205  29.717  29.007  1.00  0.00    -0.165 F 
ATOM     23  F   UNL A   1      36.490  29.507  26.852  1.00  0.00    -0.165 F 
ATOM     24  F   UNL A   1      35.654  31.348  27.658  1.00  0.00    -0.165 F 
ENDBRANCH  20  21
ENDBRANCH  17  20
ENDBRANCH  16  17
ENDBRANCH  14  16
ENDBRANCH  12  14
ENDBRANCH   6   8
ENDBRANCH   5   6
ENDBRANCH   4   5
ENDBRANCH   3   4
ENDBRANCH   2   3
ENDBRANCH   1   2
BRANCH   1  25
ATOM     25  C   UNL A   1      35.525  22.821  25.618  1.00  0.00     0.188 C 
BRANCH  25  26
ATOM     26  O   UNL A   1      36.085  21.550  25.430  1.00  0.00    -0.376 OA
BRANCH  26  27
ATOM     27  C   UNL A   1      37.430  21.427  25.018  1.00  0.00     0.202 C 
BRANCH  27  28
ATOM     28  C   UNL A   1      38.454  20.460  25.645  1.00  0.00     0.261 C 
BRANCH  28  29
ATOM     29  O   UNL A   1      39.822  20.873  25.746  1.00  0.00    -0.460 OA
BRANCH  29  30
ATOM     30  C   UNL A   1      40.378  20.907  26.980  1.00  0.00     0.338 C 
ATOM     31  O   UNL A   1      40.781  19.951  27.625  1.00  0.00    -0.246 OA
BRANCH  30  32
ATOM     32  C   UNL A   1      40.648  22.327  27.315  1.00  0.00     0.060 A 
ATOM     33  C   UNL A   1      39.961  23.336  26.621  1.00  0.00     0.016 A 
ATOM     34  C   UNL A   1      41.547  22.661  28.328  1.00  0.00     0.016 A 
ATOM     35  C   UNL A   1      40.189  24.680  26.923  1.00  0.00     0.010 A 
ATOM     36  C   UNL A   1      41.795  24.010  28.609  1.00  0.00     0.010 A 
ATOM     37  C   UNL A   1      41.140  25.026  27.890  1.00  0.00    -0.014 A 
BRANCH  37  38
ATOM     38  C   UNL A   1      41.598  26.433  28.025  1.00  0.00     0.031 A 
ATOM     39  C   UNL A   1      42.984  26.779  27.548  1.00  0.00     0.074 A 
ATOM     40  C   UNL A   1      40.828  27.381  28.590  1.00  0.00     0.049 A 
ATOM     41  N   UNL A   1      43.646  27.900  27.657  1.00  0.00    -0.248 NA
ATOM     42  C   UNL A   1      43.725  25.707  26.861  1.00  0.00     0.031 C 
ATOM     43  C   UNL A   1      39.466  27.187  29.079  1.00  0.00     0.029 A 
ATOM     44  N   UNL A   1      41.108  28.695  28.882  1.00  0.00    -0.354 N 
ATOM     45  C   UNL A   1      44.893  27.658  27.096  1.00  0.00     0.074 A 
ATOM     46  C   UNL A   1      44.897  26.284  26.645  1.00  0.00     0.031 C 
ATOM     47  C   UNL A   1      39.043  28.328  29.651  1.00  0.00     0.029 A 
ATOM     48  C   UNL A   1      40.114  29.321  29.599  1.00  0.00     0.049 A 
ATOM     49  H   UNL A   1      41.939  29.145  28.605  1.00  0.00     0.167 HD
ATOM     50  C   UNL A   1      45.943  28.503  26.963  1.00  0.00     0.034 A 
ATOM     51  C   UNL A   1      40.090  30.538  30.183  1.00  0.00     0.034 A 
ATOM     52  C   UNL A   1      45.937  29.873  27.398  1.00  0.00     0.049 A 
ATOM     53  C   UNL A   1      41.286  31.450  30.051  1.00  0.00     0.074 A 
ATOM     54  C   UNL A   1      46.934  30.822  27.255  1.00  0.00     0.029 A 
ATOM     55  N   UNL A   1      44.897  30.484  28.079  1.00  0.00    -0.354 N 
ATOM     56  N   UNL A   1      42.416  31.248  29.417  1.00  0.00    -0.248 NA
ATOM     57  C   UNL A   1      41.190  32.772  30.691  1.00  0.00     0.031 C 
ATOM     58  C   UNL A   1      46.513  31.995  27.891  1.00  0.00     0.029 A 
ATOM     59  C   UNL A   1      45.234  31.792  28.382  1.00  0.00     0.049 A 
ATOM     60  H   UNL A   1      44.043  30.052  28.313  1.00  0.00     0.167 HD
ATOM     61  C   UNL A   1      43.147  32.426  29.550  1.00  0.00     0.074 A 
ATOM     62  C   UNL A   1      42.324  33.344  30.309  1.00  0.00     0.031 C 
ATOM     63  C   UNL A   1      44.390  32.717  29.093  1.00  0.00     0.034 A 
BRANCH  50  64
ATOM     64  C   UNL A   1      47.194  27.969  26.317  1.00  0.00     0.023 A 
ATOM     65  C   UNL A   1      48.189  27.359  27.106  1.00  0.00     0.012 A 
ATOM     66  C   UNL A   1      47.355  28.019  24.918  1.00  0.00     0.148 A 
ATOM     67  C   UNL A   1      49.340  26.836  26.517  1.00  0.00     0.002 A 
ATOM     68  C   UNL A   1      48.479  27.452  24.334  1.00  0.00     0.091 A 
ATOM     69  F   UNL A   1      46.406  28.623  24.188  1.00  0.00    -0.205 F 
ATOM     70  C   UNL A   1      49.479  26.872  25.132  1.00  0.00     0.022 A 
BRANCH  68  71
ATOM     71  S   UNL A   1      48.712  27.373  22.555  1.00  0.00     0.127 S 
ATOM     72  O   UNL A   1      50.147  27.633  22.434  1.00  0.00    -0.237 OA
ATOM     73  O   UNL A   1      48.314  25.998  22.255  1.00  0.00    -0.237 OA
ATOM     74  O   UNL A   1      47.845  28.396  21.988  1.00  0.00    -0.744 OA
ENDBRANCH  68  71
ENDBRANCH  50  64
BRANCH  51  75
ATOM     75  C   UNL A   1      38.888  30.978  30.948  1.00  0.00     0.023 A 
ATOM     76  C   UNL A   1      38.710  30.551  32.278  1.00  0.00     0.012 A 
ATOM     77  C   UNL A   1      37.916  31.810  30.359  1.00  0.00     0.148 A 
ATOM     78  C   UNL A   1      37.570  30.915  32.996  1.00  0.00     0.002 A 
ATOM     79  C   UNL A   1      36.811  32.216  31.099  1.00  0.00     0.091 A 
ATOM     80  F   UNL A   1      38.092  32.191  29.086  1.00  0.00    -0.205 F 
ATOM     81  C   UNL A   1      36.627  31.755  32.412  1.00  0.00     0.022 A 
BRANCH  79  82
ATOM     82  S   UNL A   1      35.603  33.387  30.470  1.00  0.00     0.127 S 
ATOM     83  O   UNL A   1      35.496  34.332  31.580  1.00  0.00    -0.237 OA
ATOM     84  O   UNL A   1      36.281  33.908  29.283  1.00  0.00    -0.237 OA
ATOM     85  O   UNL A   1      34.406  32.608  30.189  1.00  0.00    -0.744 OA
ENDBRANCH  79  82
ENDBRANCH  51  75
BRANCH  63  86
ATOM     86  C   UNL A   1      44.932  34.102  29.344  1.00  0.00     0.023 A 
ATOM     87  C   UNL A   1      45.596  34.395  30.552  1.00  0.00     0.012 A 
ATOM     88  C   UNL A   1      44.858  35.090  28.341  1.00  0.00     0.148 A 
ATOM     89  C   UNL A   1      46.147  35.658  30.770  1.00  0.00     0.002 A 
ATOM     90  C   UNL A   1      45.455  36.328  28.544  1.00  0.00     0.091 A 
ATOM     91  F   UNL A   1      44.210  34.797  27.203  1.00  0.00    -0.205 F 
ATOM     92  C   UNL A   1      46.088  36.619  29.762  1.00  0.00     0.022 A 
BRANCH  90  93
ATOM     93  S   UNL A   1      45.517  37.593  27.268  1.00  0.00     0.127 S 
ATOM     94  O   UNL A   1      46.300  38.638  27.923  1.00  0.00    -0.237 OA
ATOM     95  O   UNL A   1      46.210  36.901  26.181  1.00  0.00    -0.237 OA
ATOM     96  O   UNL A   1      44.132  37.941  26.979  1.00  0.00    -0.744 OA
ENDBRANCH  90  93
ENDBRANCH  63  86
ENDBRANCH  37  38
ENDBRANCH  30  32
ENDBRANCH  29  30
ENDBRANCH  28  29
ENDBRANCH  27  28
ENDBRANCH  26  27
ENDBRANCH  25  26
ENDBRANCH   1  25
TORSDOF 25
ENDMDL
MODEL 3
REMARK VINA RESULT:      -9.2      1.730      2.409
REMARK SMILES C[C@@H]1SC[C@H](C(=O)OCCOCCOCCOC(=O)c2ccc(-c3c4nc(c(-c5cccc(S(=O)(=O)[O-])c5F)c5ccc([nH]5)c(-c5cccc(S(=O)(=O)[O-])c5F)c5nc(c(-c6cccc(S(=O)(=O)[O-])c6F)c6ccc3[nH]6)C=C5)C=C4)cc2)N1C(=O)C[NH2+]CC(F)(F)F
REMARK SMILES IDX 12 1 11 2 10 3 9 4 8 5 6 6 7 7 5 8 1 9 2 10 3 11 83 12 4 13
REMARK SMILES IDX 84 14 85 15 86 16 87 17 88 20 89 21 90 22 91 23 92 24 13 25
REMARK SMILES IDX 14 26 15 27 16 28 17 29 18 30 19 31 20 32 21 33 82 34 22 35
REMARK SMILES IDX 81 36 23 37 24 38 25 39 75 40 26 41 80 42 74 43 76 44 27 45
REMARK SMILES IDX 79 46 73 47 72 48 28 50 60 51 40 52 59 53 41 54 44 55 58 56
REMARK SMILES IDX 77 57 42 58 43 59 57 61 78 62 45 63 29 64 30 65 38 66 31 67
REMARK SMILES IDX 33 68 39 69 32 70 34 71 35 72 36 73 37 74 61 75 62 76 70 77
REMARK SMILES IDX 63 78 65 79 71 80 64 81 66 82 67 83 68 84 69 85 46 86 47 87
REMARK SMILES IDX 55 88 48 89 50 90 56 91 49 92 51 93 52 94 53 95 54 96
REMARK H PARENT 87 18 87 19 76 49 44 60
REMARK Flexibility Score: inf
ROOT
ATOM      1  C   UNL A   1      32.168  21.123  24.333  1.00  0.00     0.188 C 
ENDROOT
BRANCH   1   2
ATOM      2  O   UNL A   1      32.401  21.912  23.180  1.00  0.00    -0.376 OA
BRANCH   2   3
ATOM      3  C   UNL A   1      31.740  23.159  23.020  1.00  0.00     0.202 C 
BRANCH   3   4
ATOM      4  C   UNL A   1      32.541  24.467  22.914  1.00  0.00     0.261 C 
BRANCH   4   5
ATOM      5  O   UNL A   1      33.077  25.004  24.141  1.00  0.00    -0.462 OA
BRANCH   5   6
ATOM      6  C   UNL A   1      32.183  25.677  24.918  1.00  0.00     0.329 C 
ATOM      7  O   UNL A   1      32.260  25.770  26.141  1.00  0.00    -0.250 OA
BRANCH   6   8
ATOM      8  C   UNL A   1      30.991  26.279  24.145  1.00  0.00     0.206 C 
ATOM      9  C   UNL A   1      29.280  29.490  23.187  1.00  0.00     0.043 C 
ATOM     10  C   UNL A   1      29.806  28.072  23.017  1.00  0.00     0.141 C 
ATOM     11  S   UNL A   1      28.490  26.967  23.671  1.00  0.00    -0.135 SA
ATOM     12  N   UNL A   1      31.022  27.696  23.743  1.00  0.00    -0.311 N 
ATOM     13  C   UNL A   1      29.612  26.025  24.734  1.00  0.00     0.109 C 
BRANCH  12  14
ATOM     14  C   UNL A   1      32.216  28.385  23.814  1.00  0.00     0.279 C 
ATOM     15  O   UNL A   1      33.141  28.182  23.024  1.00  0.00    -0.268 OA
BRANCH  14  16
ATOM     16  C   UNL A   1      32.468  29.371  24.938  1.00  0.00     0.362 C 
BRANCH  16  17
ATOM     17  N   UNL A   1      31.836  28.924  26.191  1.00  0.00    -0.331 N 
ATOM     18  H   UNL A   1      31.635  27.925  26.128  1.00  0.00     0.346 HD
ATOM     19  H   UNL A   1      30.970  29.444  26.333  1.00  0.00     0.346 HD
BRANCH  17  20
ATOM     20  C   UNL A   1      32.746  29.171  27.339  1.00  0.00     0.378 C 
BRANCH  20  21
ATOM     21  C   UNL A   1      34.270  29.062  27.125  1.00  0.00     0.438 C 
ATOM     22  F   UNL A   1      34.930  29.072  28.303  1.00  0.00    -0.165 F 
ATOM     23  F   UNL A   1      34.582  27.915  26.483  1.00  0.00    -0.165 F 
ATOM     24  F   UNL A   1      34.739  30.083  26.373  1.00  0.00    -0.165 F 
ENDBRANCH  20  21
ENDBRANCH  17  20
ENDBRANCH  16  17
ENDBRANCH  14  16
ENDBRANCH  12  14
ENDBRANCH   6   8
ENDBRANCH   5   6
ENDBRANCH   4   5
ENDBRANCH   3   4
ENDBRANCH   2   3
ENDBRANCH   1   2
BRANCH   1  25
ATOM     25  C   UNL A   1      33.361  20.450  25.022  1.00  0.00     0.188 C 
BRANCH  25  26
ATOM     26  O   UNL A   1      34.612  20.591  24.406  1.00  0.00    -0.376 OA
BRANCH  26  27
ATOM     27  C   UNL A   1      35.775  20.119  25.053  1.00  0.00     0.202 C 
BRANCH  27  28
ATOM     28  C   UNL A   1      37.201  20.632  24.778  1.00  0.00     0.261 C 
BRANCH  28  29
ATOM     29  O   UNL A   1      37.809  21.525  25.720  1.00  0.00    -0.460 OA
BRANCH  29  30
ATOM     30  C   UNL A   1      39.071  21.247  26.124  1.00  0.00     0.338 C 
ATOM     31  O   UNL A   1      39.704  20.230  25.890  1.00  0.00    -0.246 OA
BRANCH  30  32
ATOM     32  C   UNL A   1      39.650  22.493  26.684  1.00  0.00     0.060 A 
ATOM     33  C   UNL A   1      39.106  23.731  26.306  1.00  0.00     0.016 A 
ATOM     34  C   UNL A   1      40.700  22.441  27.601  1.00  0.00     0.016 A 
ATOM     35  C   UNL A   1      39.626  24.919  26.826  1.00  0.00     0.010 A 
ATOM     36  C   UNL A   1      41.238  23.633  28.099  1.00  0.00     0.010 A 
ATOM     37  C   UNL A   1      40.724  24.878  27.693  1.00  0.00    -0.014 A 
BRANCH  37  38
ATOM     38  C   UNL A   1      41.463  26.122  28.030  1.00  0.00     0.031 A 
ATOM     39  C   UNL A   1      40.728  27.209  28.768  1.00  0.00     0.074 A 
ATOM     40  C   UNL A   1      42.745  26.310  27.662  1.00  0.00     0.049 A 
ATOM     41  N   UNL A   1      41.119  28.418  29.074  1.00  0.00    -0.248 NA
ATOM     42  C   UNL A   1      39.362  26.888  29.212  1.00  0.00     0.031 C 
ATOM     43  C   UNL A   1      43.576  25.336  26.960  1.00  0.00     0.029 A 
ATOM     44  N   UNL A   1      43.555  27.411  27.799  1.00  0.00    -0.354 N 
ATOM     45  C   UNL A   1      40.037  29.017  29.705  1.00  0.00     0.074 A 
ATOM     46  C   UNL A   1      38.972  28.039  29.740  1.00  0.00     0.031 C 
ATOM     47  C   UNL A   1      44.767  25.899  26.687  1.00  0.00     0.029 A 
ATOM     48  C   UNL A   1      44.769  27.280  27.164  1.00  0.00     0.049 A 
ATOM     49  H   UNL A   1      43.294  28.216  28.302  1.00  0.00     0.167 HD
ATOM     50  C   UNL A   1      39.936  30.267  30.215  1.00  0.00     0.034 A 
ATOM     51  C   UNL A   1      45.750  28.184  26.956  1.00  0.00     0.034 A 
ATOM     52  C   UNL A   1      40.997  31.236  30.193  1.00  0.00     0.049 A 
ATOM     53  C   UNL A   1      45.600  29.583  27.503  1.00  0.00     0.074 A 
ATOM     54  C   UNL A   1      41.006  32.510  30.735  1.00  0.00     0.029 A 
ATOM     55  N   UNL A   1      42.226  31.051  29.582  1.00  0.00    -0.354 N 
ATOM     56  N   UNL A   1      44.616  30.100  28.198  1.00  0.00    -0.248 NA
ATOM     57  C   UNL A   1      46.712  30.517  27.261  1.00  0.00     0.031 C 
ATOM     58  C   UNL A   1      42.226  33.111  30.411  1.00  0.00     0.029 A 
ATOM     59  C   UNL A   1      42.996  32.195  29.715  1.00  0.00     0.049 A 
ATOM     60  H   UNL A   1      42.511  30.229  29.122  1.00  0.00     0.167 HD
ATOM     61  C   UNL A   1      45.005  31.401  28.508  1.00  0.00     0.074 A 
ATOM     62  C   UNL A   1      46.324  31.587  27.940  1.00  0.00     0.031 C 
ATOM     63  C   UNL A   1      44.328  32.356  29.192  1.00  0.00     0.034 A 
BRANCH  50  64
ATOM     64  C   UNL A   1      38.625  30.663  30.842  1.00  0.00     0.023 A 
ATOM     65  C   UNL A   1      38.361  30.339  32.187  1.00  0.00     0.012 A 
ATOM     66  C   UNL A   1      37.680  31.412  30.112  1.00  0.00     0.148 A 
ATOM     67  C   UNL A   1      37.163  30.724  32.787  1.00  0.00     0.002 A 
ATOM     68  C   UNL A   1      36.512  31.836  30.732  1.00  0.00     0.091 A 
ATOM     69  F   UNL A   1      37.942  31.692  28.828  1.00  0.00    -0.205 F 
ATOM     70  C   UNL A   1      36.245  31.481  32.064  1.00  0.00     0.022 A 
BRANCH  68  71
ATOM     71  S   UNL A   1      35.305  32.884  29.912  1.00  0.00     0.127 S 
ATOM     72  O   UNL A   1      34.928  32.058  28.765  1.00  0.00    -0.237 OA
ATOM     73  O   UNL A   1      34.269  33.014  30.936  1.00  0.00    -0.237 OA
ATOM     74  O   UNL A   1      36.000  34.121  29.587  1.00  0.00    -0.744 OA
ENDBRANCH  68  71
ENDBRANCH  50  64
BRANCH  51  75
ATOM     75  C   UNL A   1      46.974  27.801  26.195  1.00  0.00     0.023 A 
ATOM     76  C   UNL A   1      47.005  27.958  24.796  1.00  0.00     0.012 A 
ATOM     77  C   UNL A   1      48.102  27.271  26.850  1.00  0.00     0.148 A 
ATOM     78  C   UNL A   1      48.123  27.563  24.060  1.00  0.00     0.002 A 
ATOM     79  C   UNL A   1      49.235  26.934  26.119  1.00  0.00     0.091 A 
ATOM     80  F   UNL A   1      48.046  27.110  28.180  1.00  0.00    -0.205 F 
ATOM     81  C   UNL A   1      49.241  27.062  24.721  1.00  0.00     0.022 A 
BRANCH  79  82
ATOM     82  S   UNL A   1      50.760  26.388  26.893  1.00  0.00     0.127 S 
ATOM     83  O   UNL A   1      50.788  27.203  28.106  1.00  0.00    -0.237 OA
ATOM     84  O   UNL A   1      50.492  24.966  27.113  1.00  0.00    -0.237 OA
ATOM     85  O   UNL A   1      51.814  26.661  25.926  1.00  0.00    -0.744 OA
ENDBRANCH  79  82
ENDBRANCH  51  75
BRANCH  63  86
ATOM     86  C   UNL A   1      45.010  33.681  29.423  1.00  0.00     0.023 A 
ATOM     87  C   UNL A   1      45.840  33.865  30.547  1.00  0.00     0.012 A 
ATOM     88  C   UNL A   1      44.894  34.718  28.476  1.00  0.00     0.148 A 
ATOM     89  C   UNL A   1      46.516  35.071  30.740  1.00  0.00     0.002 A 
ATOM     90  C   UNL A   1      45.612  35.896  28.647  1.00  0.00     0.091 A 
ATOM     91  F   UNL A   1      44.089  34.531  27.419  1.00  0.00    -0.205 F 
ATOM     92  C   UNL A   1      46.413  36.080  29.785  1.00  0.00     0.022 A 
BRANCH  90  93
ATOM     93  S   UNL A   1      45.619  37.211  27.422  1.00  0.00     0.127 S 
ATOM     94  O   UNL A   1      44.190  37.410  27.190  1.00  0.00    -0.237 OA
ATOM     95  O   UNL A   1      46.278  38.301  28.142  1.00  0.00    -0.237 OA
ATOM     96  O   UNL A   1      46.369  36.698  26.283  1.00  0.00    -0.744 OA
ENDBRANCH  90  93
ENDBRANCH  63  86
ENDBRANCH  37  38
ENDBRANCH  30  32
ENDBRANCH  29  30
ENDBRANCH  28  29
ENDBRANCH  27  28
ENDBRANCH  26  27
ENDBRANCH  25  26
ENDBRANCH   1  25
TORSDOF 25
ENDMDL
