MODEL 1
REMARK VINA RESULT:      -9.9      0.000      0.000
REMARK SMILES O=C(OCCOCCOCCOC(=O)[C@H](F)[C@H](O)C1CCOCC1)c1ccc(-c2c3nc(c(-c4cccc(S(=O)(=O)[O-])c4F)c4ccc([nH]4)c(-c4cccc(S(=O)(=O)[O-])c4F)c4nc(c(-c5cccc(S(=O)(=O)[O-])c5F)c5ccc2[nH]5)C=C4)C=C3)cc1
REMARK SMILES IDX 7 1 6 2 5 3 4 4 3 5 2 6 1 7 25 8 26 9 87 10 27 11 86 12
REMARK SMILES IDX 28 13 29 14 30 15 80 16 31 17 85 18 79 19 81 20 32 21 84 22
REMARK SMILES IDX 78 23 77 24 33 26 65 27 45 28 64 29 46 30 49 31 63 32 82 33
REMARK SMILES IDX 47 34 48 35 62 37 83 38 50 39 34 40 35 41 43 42 36 43 38 44
REMARK SMILES IDX 44 45 37 46 39 47 40 48 41 49 42 50 66 51 67 52 75 53 68 54
REMARK SMILES IDX 70 55 76 56 69 57 71 58 72 59 73 60 74 61 51 62 52 63 60 64
REMARK SMILES IDX 53 65 55 66 61 67 54 68 56 69 57 70 58 71 59 72 8 73 9 74
REMARK SMILES IDX 10 75 11 76 12 77 13 78 14 79 15 80 16 81 17 82 19 83 20 84
REMARK SMILES IDX 24 85 21 86 23 87 22 88 18 89
REMARK H PARENT 81 25 49 36 18 90
REMARK Flexibility Score: inf
ROOT
ATOM      1  C   UNL A   1      31.943  29.267  26.273  1.00  0.00     0.188 C 
ENDROOT
BRANCH   1   2
ATOM      2  O   UNL A   1      32.295  30.509  26.884  1.00  0.00    -0.376 OA
BRANCH   2   3
ATOM      3  C   UNL A   1      31.485  31.623  26.505  1.00  0.00     0.202 C 
BRANCH   3   4
ATOM      4  C   UNL A   1      31.770  32.973  27.190  1.00  0.00     0.261 C 
BRANCH   4   5
ATOM      5  O   UNL A   1      33.101  33.476  26.995  1.00  0.00    -0.460 OA
BRANCH   5   6
ATOM      6  C   UNL A   1      34.018  33.809  27.942  1.00  0.00     0.338 C 
ATOM      7  O   UNL A   1      33.943  34.924  28.456  1.00  0.00    -0.246 OA
BRANCH   6   8
ATOM      8  C   UNL A   1      35.127  32.902  28.372  1.00  0.00     0.060 A 
ATOM      9  C   UNL A   1      34.986  31.539  28.638  1.00  0.00     0.016 A 
ATOM     10  C   UNL A   1      36.416  33.452  28.446  1.00  0.00     0.016 A 
ATOM     11  C   UNL A   1      36.047  30.763  29.079  1.00  0.00     0.010 A 
ATOM     12  C   UNL A   1      37.503  32.671  28.847  1.00  0.00     0.010 A 
ATOM     13  C   UNL A   1      37.304  31.334  29.213  1.00  0.00    -0.014 A 
BRANCH  13  14
ATOM     14  C   UNL A   1      38.347  30.577  29.922  1.00  0.00     0.031 A 
ATOM     15  C   UNL A   1      38.556  30.889  31.371  1.00  0.00     0.074 A 
ATOM     16  C   UNL A   1      39.030  29.604  29.297  1.00  0.00     0.049 A 
ATOM     17  N   UNL A   1      39.491  30.483  32.180  1.00  0.00    -0.248 NA
ATOM     18  C   UNL A   1      37.570  31.793  31.992  1.00  0.00     0.031 C 
ATOM     19  C   UNL A   1      38.810  29.177  27.915  1.00  0.00     0.029 A 
ATOM     20  N   UNL A   1      40.057  28.815  29.738  1.00  0.00    -0.354 N 
ATOM     21  C   UNL A   1      39.257  31.146  33.379  1.00  0.00     0.074 A 
ATOM     22  C   UNL A   1      38.076  31.957  33.201  1.00  0.00     0.031 C 
ATOM     23  C   UNL A   1      39.699  28.218  27.610  1.00  0.00     0.029 A 
ATOM     24  C   UNL A   1      40.592  28.025  28.748  1.00  0.00     0.049 A 
ATOM     25  H   UNL A   1      40.380  28.813  30.668  1.00  0.00     0.167 HD
ATOM     26  C   UNL A   1      39.984  31.089  34.516  1.00  0.00     0.034 A 
ATOM     27  C   UNL A   1      41.718  27.286  28.754  1.00  0.00     0.034 A 
ATOM     28  C   UNL A   1      41.149  30.262  34.650  1.00  0.00     0.049 A 
ATOM     29  C   UNL A   1      42.536  27.261  30.017  1.00  0.00     0.074 A 
ATOM     30  C   UNL A   1      41.988  30.117  35.735  1.00  0.00     0.029 A 
ATOM     31  N   UNL A   1      41.644  29.446  33.639  1.00  0.00    -0.354 N 
ATOM     32  N   UNL A   1      42.311  27.879  31.154  1.00  0.00    -0.248 NA
ATOM     33  C   UNL A   1      43.749  26.435  30.012  1.00  0.00     0.031 C 
ATOM     34  C   UNL A   1      43.013  29.239  35.368  1.00  0.00     0.029 A 
ATOM     35  C   UNL A   1      42.784  28.800  34.070  1.00  0.00     0.049 A 
ATOM     36  H   UNL A   1      41.241  29.345  32.747  1.00  0.00     0.167 HD
ATOM     37  C   UNL A   1      43.331  27.492  32.012  1.00  0.00     0.074 A 
ATOM     38  C   UNL A   1      44.175  26.580  31.261  1.00  0.00     0.031 C 
ATOM     39  C   UNL A   1      43.558  27.856  33.299  1.00  0.00     0.034 A 
BRANCH  26  40
ATOM     40  C   UNL A   1      39.561  31.990  35.646  1.00  0.00     0.023 A 
ATOM     41  C   UNL A   1      40.137  33.269  35.797  1.00  0.00     0.012 A 
ATOM     42  C   UNL A   1      38.626  31.540  36.598  1.00  0.00     0.148 A 
ATOM     43  C   UNL A   1      39.835  34.057  36.908  1.00  0.00     0.002 A 
ATOM     44  C   UNL A   1      38.293  32.351  37.676  1.00  0.00     0.091 A 
ATOM     45  F   UNL A   1      38.112  30.310  36.458  1.00  0.00    -0.205 F 
ATOM     46  C   UNL A   1      38.910  33.601  37.843  1.00  0.00     0.022 A 
BRANCH  44  47
ATOM     47  S   UNL A   1      37.062  31.877  38.895  1.00  0.00     0.127 S 
ATOM     48  O   UNL A   1      37.716  32.268  40.142  1.00  0.00    -0.237 OA
ATOM     49  O   UNL A   1      35.921  32.712  38.517  1.00  0.00    -0.237 OA
ATOM     50  O   UNL A   1      36.851  30.447  38.717  1.00  0.00    -0.744 OA
ENDBRANCH  44  47
ENDBRANCH  26  40
BRANCH  27  51
ATOM     51  C   UNL A   1      42.120  26.546  27.524  1.00  0.00     0.023 A 
ATOM     52  C   UNL A   1      42.844  27.205  26.513  1.00  0.00     0.012 A 
ATOM     53  C   UNL A   1      41.858  25.166  27.389  1.00  0.00     0.148 A 
ATOM     54  C   UNL A   1      43.290  26.508  25.387  1.00  0.00     0.002 A 
ATOM     55  C   UNL A   1      42.356  24.465  26.297  1.00  0.00     0.091 A 
ATOM     56  F   UNL A   1      41.154  24.558  28.355  1.00  0.00    -0.205 F 
ATOM     57  C   UNL A   1      43.058  25.138  25.286  1.00  0.00     0.022 A 
BRANCH  55  58
ATOM     58  S   UNL A   1      42.238  22.678  26.158  1.00  0.00     0.127 S 
ATOM     59  O   UNL A   1      42.834  22.439  24.845  1.00  0.00    -0.237 OA
ATOM     60  O   UNL A   1      43.048  22.236  27.295  1.00  0.00    -0.237 OA
ATOM     61  O   UNL A   1      40.823  22.359  26.274  1.00  0.00    -0.744 OA
ENDBRANCH  55  58
ENDBRANCH  27  51
BRANCH  39  62
ATOM     62  C   UNL A   1      44.719  27.221  34.008  1.00  0.00     0.023 A 
ATOM     63  C   UNL A   1      45.986  27.831  33.981  1.00  0.00     0.012 A 
ATOM     64  C   UNL A   1      44.501  26.095  34.826  1.00  0.00     0.148 A 
ATOM     65  C   UNL A   1      47.027  27.320  34.753  1.00  0.00     0.002 A 
ATOM     66  C   UNL A   1      45.526  25.626  35.635  1.00  0.00     0.091 A 
ATOM     67  F   UNL A   1      43.288  25.525  34.816  1.00  0.00    -0.205 F 
ATOM     68  C   UNL A   1      46.793  26.232  35.593  1.00  0.00     0.022 A 
BRANCH  66  69
ATOM     69  S   UNL A   1      45.279  24.311  36.830  1.00  0.00     0.127 S 
ATOM     70  O   UNL A   1      44.906  23.191  35.966  1.00  0.00    -0.237 OA
ATOM     71  O   UNL A   1      46.602  24.198  37.442  1.00  0.00    -0.237 OA
ATOM     72  O   UNL A   1      44.232  24.774  37.732  1.00  0.00    -0.744 OA
ENDBRANCH  66  69
ENDBRANCH  39  62
ENDBRANCH  13  14
ENDBRANCH   6   8
ENDBRANCH   5   6
ENDBRANCH   4   5
ENDBRANCH   3   4
ENDBRANCH   2   3
ENDBRANCH   1   2
BRANCH   1  73
ATOM     73  C   UNL A   1      31.866  29.373  24.752  1.00  0.00     0.188 C 
BRANCH  73  74
ATOM     74  O   UNL A   1      33.103  29.311  24.039  1.00  0.00    -0.376 OA
BRANCH  74  75
ATOM     75  C   UNL A   1      33.222  28.286  23.057  1.00  0.00     0.202 C 
BRANCH  75  76
ATOM     76  C   UNL A   1      31.973  27.434  22.778  1.00  0.00     0.261 C 
BRANCH  76  77
ATOM     77  O   UNL A   1      32.225  26.023  22.797  1.00  0.00    -0.461 OA
BRANCH  77  78
ATOM     78  C   UNL A   1      32.970  25.511  21.770  1.00  0.00     0.343 C 
ATOM     79  O   UNL A   1      33.161  26.081  20.699  1.00  0.00    -0.249 OA
BRANCH  78  80
ATOM     80  C   UNL A   1      33.510  24.139  22.132  1.00  0.00     0.304 C 
ATOM     81  F   UNL A   1      33.147  23.182  21.218  1.00  0.00    -0.232 F 
BRANCH  80  82
ATOM     82  C   UNL A   1      33.101  23.661  23.542  1.00  0.00     0.163 C 
BRANCH  82  83
ATOM     83  C   UNL A   1      33.300  22.144  23.813  1.00  0.00     0.026 C 
ATOM     84  C   UNL A   1      32.122  21.490  24.553  1.00  0.00     0.035 C 
ATOM     85  C   UNL A   1      34.584  21.877  24.629  1.00  0.00     0.035 C 
ATOM     86  C   UNL A   1      32.411  20.024  24.848  1.00  0.00     0.160 C 
ATOM     87  C   UNL A   1      34.738  20.398  24.969  1.00  0.00     0.160 C 
ATOM     88  O   UNL A   1      33.585  19.897  25.644  1.00  0.00    -0.381 OA
ENDBRANCH  82  83
BRANCH  82  89
ATOM     89  O   UNL A   1      33.923  24.396  24.464  1.00  0.00    -0.389 OA
ATOM     90  H   UNL A   1      33.357  24.871  25.093  1.00  0.00     0.211 HD
ENDBRANCH  82  89
ENDBRANCH  80  82
ENDBRANCH  78  80
ENDBRANCH  77  78
ENDBRANCH  76  77
ENDBRANCH  75  76
ENDBRANCH  74  75
ENDBRANCH  73  74
ENDBRANCH   1  73
TORSDOF 23
ENDMDL
MODEL 2
REMARK VINA RESULT:      -9.8      1.798      2.325
REMARK SMILES O=C(OCCOCCOCCOC(=O)[C@H](F)[C@H](O)C1CCOCC1)c1ccc(-c2c3nc(c(-c4cccc(S(=O)(=O)[O-])c4F)c4ccc([nH]4)c(-c4cccc(S(=O)(=O)[O-])c4F)c4nc(c(-c5cccc(S(=O)(=O)[O-])c5F)c5ccc2[nH]5)C=C4)C=C3)cc1
REMARK SMILES IDX 7 1 6 2 5 3 4 4 3 5 2 6 1 7 25 8 26 9 87 10 27 11 86 12
REMARK SMILES IDX 28 13 29 14 30 15 80 16 31 17 85 18 79 19 81 20 32 21 84 22
REMARK SMILES IDX 78 23 77 24 33 26 65 27 45 28 64 29 46 30 49 31 63 32 82 33
REMARK SMILES IDX 47 34 48 35 62 37 83 38 50 39 34 40 35 41 43 42 36 43 38 44
REMARK SMILES IDX 44 45 37 46 39 47 40 48 41 49 42 50 66 51 67 52 75 53 68 54
REMARK SMILES IDX 70 55 76 56 69 57 71 58 72 59 73 60 74 61 51 62 52 63 60 64
REMARK SMILES IDX 53 65 55 66 61 67 54 68 56 69 57 70 58 71 59 72 8 73 9 74
REMARK SMILES IDX 10 75 11 76 12 77 13 78 14 79 15 80 16 81 17 82 19 83 20 84
REMARK SMILES IDX 24 85 21 86 23 87 22 88 18 89
REMARK H PARENT 81 25 49 36 18 90
REMARK Flexibility Score: inf
ROOT
ATOM      1  C   UNL A   1      31.814  29.298  26.464  1.00  0.00     0.188 C 
ENDROOT
BRANCH   1   2
ATOM      2  O   UNL A   1      32.342  30.595  26.746  1.00  0.00    -0.376 OA
BRANCH   2   3
ATOM      3  C   UNL A   1      31.460  31.684  26.467  1.00  0.00     0.202 C 
BRANCH   3   4
ATOM      4  C   UNL A   1      31.745  33.025  27.168  1.00  0.00     0.261 C 
BRANCH   4   5
ATOM      5  O   UNL A   1      33.065  33.546  26.954  1.00  0.00    -0.460 OA
BRANCH   5   6
ATOM      6  C   UNL A   1      33.994  33.887  27.887  1.00  0.00     0.338 C 
ATOM      7  O   UNL A   1      33.937  35.013  28.377  1.00  0.00    -0.246 OA
BRANCH   6   8
ATOM      8  C   UNL A   1      35.093  32.974  28.328  1.00  0.00     0.060 A 
ATOM      9  C   UNL A   1      34.940  31.615  28.607  1.00  0.00     0.016 A 
ATOM     10  C   UNL A   1      36.387  33.513  28.400  1.00  0.00     0.016 A 
ATOM     11  C   UNL A   1      35.993  30.834  29.058  1.00  0.00     0.010 A 
ATOM     12  C   UNL A   1      37.467  32.727  28.811  1.00  0.00     0.010 A 
ATOM     13  C   UNL A   1      37.255  31.395  29.189  1.00  0.00    -0.014 A 
BRANCH  13  14
ATOM     14  C   UNL A   1      38.289  30.636  29.908  1.00  0.00     0.031 A 
ATOM     15  C   UNL A   1      38.479  30.940  31.361  1.00  0.00     0.074 A 
ATOM     16  C   UNL A   1      38.982  29.668  29.287  1.00  0.00     0.049 A 
ATOM     17  N   UNL A   1      39.404  30.531  32.180  1.00  0.00    -0.248 NA
ATOM     18  C   UNL A   1      37.482  31.839  31.974  1.00  0.00     0.031 C 
ATOM     19  C   UNL A   1      38.782  29.248  27.899  1.00  0.00     0.029 A 
ATOM     20  N   UNL A   1      40.005  28.878  29.737  1.00  0.00    -0.354 N 
ATOM     21  C   UNL A   1      39.152  31.187  33.379  1.00  0.00     0.074 A 
ATOM     22  C   UNL A   1      37.972  31.997  33.191  1.00  0.00     0.031 C 
ATOM     23  C   UNL A   1      39.677  28.292  27.600  1.00  0.00     0.029 A 
ATOM     24  C   UNL A   1      40.555  28.094  28.750  1.00  0.00     0.049 A 
ATOM     25  H   UNL A   1      40.316  28.872  30.671  1.00  0.00     0.167 HD
ATOM     26  C   UNL A   1      39.864  31.125  34.527  1.00  0.00     0.034 A 
ATOM     27  C   UNL A   1      41.682  27.358  28.766  1.00  0.00     0.034 A 
ATOM     28  C   UNL A   1      41.029  30.299  34.671  1.00  0.00     0.049 A 
ATOM     29  C   UNL A   1      42.483  27.327  30.040  1.00  0.00     0.074 A 
ATOM     30  C   UNL A   1      41.853  30.150  35.767  1.00  0.00     0.029 A 
ATOM     31  N   UNL A   1      41.539  29.490  33.663  1.00  0.00    -0.354 N 
ATOM     32  N   UNL A   1      42.242  27.938  31.177  1.00  0.00    -0.248 NA
ATOM     33  C   UNL A   1      43.698  26.503  30.047  1.00  0.00     0.031 C 
ATOM     34  C   UNL A   1      42.885  29.276  35.408  1.00  0.00     0.029 A 
ATOM     35  C   UNL A   1      42.674  28.843  34.105  1.00  0.00     0.049 A 
ATOM     36  H   UNL A   1      41.148  29.394  32.764  1.00  0.00     0.167 HD
ATOM     37  C   UNL A   1      43.251  27.548  32.047  1.00  0.00     0.074 A 
ATOM     38  C   UNL A   1      44.107  26.642  31.303  1.00  0.00     0.031 C 
ATOM     39  C   UNL A   1      43.460  27.905  33.339  1.00  0.00     0.034 A 
BRANCH  26  40
ATOM     40  C   UNL A   1      39.424  32.019  35.656  1.00  0.00     0.023 A 
ATOM     41  C   UNL A   1      38.470  31.573  36.593  1.00  0.00     0.012 A 
ATOM     42  C   UNL A   1      39.921  33.333  35.751  1.00  0.00     0.148 A 
ATOM     43  C   UNL A   1      37.974  32.438  37.568  1.00  0.00     0.002 A 
ATOM     44  C   UNL A   1      39.458  34.174  36.756  1.00  0.00     0.091 A 
ATOM     45  F   UNL A   1      40.804  33.752  34.834  1.00  0.00    -0.205 F 
ATOM     46  C   UNL A   1      38.471  33.736  37.653  1.00  0.00     0.022 A 
BRANCH  44  47
ATOM     47  S   UNL A   1      40.090  35.840  36.985  1.00  0.00     0.127 S 
ATOM     48  O   UNL A   1      39.671  36.488  35.743  1.00  0.00    -0.237 OA
ATOM     49  O   UNL A   1      39.363  36.280  38.177  1.00  0.00    -0.237 OA
ATOM     50  O   UNL A   1      41.528  35.703  37.169  1.00  0.00    -0.744 OA
ENDBRANCH  44  47
ENDBRANCH  26  40
BRANCH  27  51
ATOM     51  C   UNL A   1      42.102  26.625  27.538  1.00  0.00     0.023 A 
ATOM     52  C   UNL A   1      42.820  27.297  26.531  1.00  0.00     0.012 A 
ATOM     53  C   UNL A   1      41.863  25.241  27.401  1.00  0.00     0.148 A 
ATOM     54  C   UNL A   1      43.282  26.608  25.407  1.00  0.00     0.002 A 
ATOM     55  C   UNL A   1      42.378  24.550  26.311  1.00  0.00     0.091 A 
ATOM     56  F   UNL A   1      41.165  24.621  28.363  1.00  0.00    -0.205 F 
ATOM     57  C   UNL A   1      43.073  25.235  25.303  1.00  0.00     0.022 A 
BRANCH  55  58
ATOM     58  S   UNL A   1      42.290  22.761  26.170  1.00  0.00     0.127 S 
ATOM     59  O   UNL A   1      40.847  22.531  26.166  1.00  0.00    -0.237 OA
ATOM     60  O   UNL A   1      42.956  22.529  24.886  1.00  0.00    -0.237 OA
ATOM     61  O   UNL A   1      43.009  22.231  27.319  1.00  0.00    -0.744 OA
ENDBRANCH  55  58
ENDBRANCH  27  51
BRANCH  39  62
ATOM     62  C   UNL A   1      44.613  27.268  34.060  1.00  0.00     0.023 A 
ATOM     63  C   UNL A   1      45.887  27.862  34.023  1.00  0.00     0.012 A 
ATOM     64  C   UNL A   1      44.380  26.159  34.897  1.00  0.00     0.148 A 
ATOM     65  C   UNL A   1      46.921  27.352  34.806  1.00  0.00     0.002 A 
ATOM     66  C   UNL A   1      45.399  25.692  35.715  1.00  0.00     0.091 A 
ATOM     67  F   UNL A   1      43.160  25.604  34.896  1.00  0.00    -0.205 F 
ATOM     68  C   UNL A   1      46.673  26.281  35.663  1.00  0.00     0.022 A 
BRANCH  66  69
ATOM     69  S   UNL A   1      45.134  24.401  36.933  1.00  0.00     0.127 S 
ATOM     70  O   UNL A   1      43.936  24.882  37.620  1.00  0.00    -0.237 OA
ATOM     71  O   UNL A   1      44.926  23.222  36.092  1.00  0.00    -0.237 OA
ATOM     72  O   UNL A   1      46.341  24.358  37.748  1.00  0.00    -0.744 OA
ENDBRANCH  66  69
ENDBRANCH  39  62
ENDBRANCH  13  14
ENDBRANCH   6   8
ENDBRANCH   5   6
ENDBRANCH   4   5
ENDBRANCH   3   4
ENDBRANCH   2   3
ENDBRANCH   1   2
BRANCH   1  73
ATOM     73  C   UNL A   1      31.260  29.196  25.045  1.00  0.00     0.188 C 
BRANCH  73  74
ATOM     74  O   UNL A   1      31.665  28.064  24.275  1.00  0.00    -0.376 OA
BRANCH  74  75
ATOM     75  C   UNL A   1      30.647  27.127  23.935  1.00  0.00     0.202 C 
BRANCH  75  76
ATOM     76  C   UNL A   1      30.404  25.969  24.916  1.00  0.00     0.261 C 
BRANCH  76  77
ATOM     77  O   UNL A   1      31.416  25.848  25.924  1.00  0.00    -0.461 OA
BRANCH  77  78
ATOM     78  C   UNL A   1      31.533  24.635  26.546  1.00  0.00     0.343 C 
ATOM     79  O   UNL A   1      30.593  24.007  27.025  1.00  0.00    -0.249 OA
BRANCH  78  80
ATOM     80  C   UNL A   1      32.983  24.185  26.574  1.00  0.00     0.304 C 
ATOM     81  F   UNL A   1      33.844  25.191  26.217  1.00  0.00    -0.232 F 
BRANCH  80  82
ATOM     82  C   UNL A   1      33.269  22.950  25.695  1.00  0.00     0.163 C 
BRANCH  82  83
ATOM     83  C   UNL A   1      34.770  22.589  25.522  1.00  0.00     0.026 C 
ATOM     84  C   UNL A   1      35.417  23.218  24.279  1.00  0.00     0.035 C 
ATOM     85  C   UNL A   1      34.982  21.061  25.450  1.00  0.00     0.035 C 
ATOM     86  C   UNL A   1      36.865  22.769  24.132  1.00  0.00     0.160 C 
ATOM     87  C   UNL A   1      36.444  20.706  25.198  1.00  0.00     0.160 C 
ATOM     88  O   UNL A   1      36.940  21.351  24.025  1.00  0.00    -0.381 OA
ENDBRANCH  82  83
BRANCH  82  89
ATOM     89  O   UNL A   1      32.610  21.845  26.336  1.00  0.00    -0.389 OA
ATOM     90  H   UNL A   1      31.655  22.012  26.369  1.00  0.00     0.211 HD
ENDBRANCH  82  89
ENDBRANCH  80  82
ENDBRANCH  78  80
ENDBRANCH  77  78
ENDBRANCH  76  77
ENDBRANCH  75  76
ENDBRANCH  74  75
ENDBRANCH  73  74
ENDBRANCH   1  73
TORSDOF 23
ENDMDL
MODEL 3
REMARK VINA RESULT:      -9.6      5.345      8.509
REMARK SMILES O=C(OCCOCCOCCOC(=O)[C@H](F)[C@H](O)C1CCOCC1)c1ccc(-c2c3nc(c(-c4cccc(S(=O)(=O)[O-])c4F)c4ccc([nH]4)c(-c4cccc(S(=O)(=O)[O-])c4F)c4nc(c(-c5cccc(S(=O)(=O)[O-])c5F)c5ccc2[nH]5)C=C4)C=C3)cc1
REMARK SMILES IDX 7 1 6 2 5 3 4 4 3 5 2 6 1 7 25 8 26 9 87 10 27 11 86 12
REMARK SMILES IDX 28 13 29 14 30 15 80 16 31 17 85 18 79 19 81 20 32 21 84 22
REMARK SMILES IDX 78 23 77 24 33 26 65 27 45 28 64 29 46 30 49 31 63 32 82 33
REMARK SMILES IDX 47 34 48 35 62 37 83 38 50 39 34 40 35 41 43 42 36 43 38 44
REMARK SMILES IDX 44 45 37 46 39 47 40 48 41 49 42 50 66 51 67 52 75 53 68 54
REMARK SMILES IDX 70 55 76 56 69 57 71 58 72 59 73 60 74 61 51 62 52 63 60 64
REMARK SMILES IDX 53 65 55 66 61 67 54 68 56 69 57 70 58 71 59 72 8 73 9 74
REMARK SMILES IDX 10 75 11 76 12 77 13 78 14 79 15 80 16 81 17 82 19 83 20 84
REMARK SMILES IDX 24 85 21 86 23 87 22 88 18 89
REMARK H PARENT 81 25 49 36 18 90
REMARK Flexibility Score: inf
ROOT
ATOM      1  C   UNL A   1      34.593  24.618  24.619  1.00  0.00     0.188 C 
ENDROOT
BRANCH   1   2
ATOM      2  O   UNL A   1      35.695  24.090  25.359  1.00  0.00    -0.376 OA
BRANCH   2   3
ATOM      3  C   UNL A   1      35.794  22.665  25.365  1.00  0.00     0.202 C 
BRANCH   3   4
ATOM      4  C   UNL A   1      37.065  22.039  24.760  1.00  0.00     0.261 C 
BRANCH   4   5
ATOM      5  O   UNL A   1      37.857  21.277  25.683  1.00  0.00    -0.460 OA
BRANCH   5   6
ATOM      6  C   UNL A   1      39.156  21.472  26.034  1.00  0.00     0.338 C 
ATOM      7  O   UNL A   1      39.944  20.540  25.882  1.00  0.00    -0.246 OA
BRANCH   6   8
ATOM      8  C   UNL A   1      39.670  22.750  26.616  1.00  0.00     0.060 A 
ATOM      9  C   UNL A   1      39.257  24.027  26.232  1.00  0.00     0.016 A 
ATOM     10  C   UNL A   1      40.587  22.651  27.675  1.00  0.00     0.016 A 
ATOM     11  C   UNL A   1      39.809  25.174  26.781  1.00  0.00     0.010 A 
ATOM     12  C   UNL A   1      41.119  23.799  28.268  1.00  0.00     0.010 A 
ATOM     13  C   UNL A   1      40.764  25.063  27.781  1.00  0.00    -0.014 A 
BRANCH  13  14
ATOM     14  C   UNL A   1      41.521  26.265  28.164  1.00  0.00     0.031 A 
ATOM     15  C   UNL A   1      40.784  27.329  28.915  1.00  0.00     0.074 A 
ATOM     16  C   UNL A   1      42.834  26.359  27.900  1.00  0.00     0.049 A 
ATOM     17  N   UNL A   1      41.166  28.531  29.239  1.00  0.00    -0.248 NA
ATOM     18  C   UNL A   1      39.421  26.988  29.361  1.00  0.00     0.031 C 
ATOM     19  C   UNL A   1      43.640  25.318  27.260  1.00  0.00     0.029 A 
ATOM     20  N   UNL A   1      43.714  27.383  28.119  1.00  0.00    -0.354 N 
ATOM     21  C   UNL A   1      40.064  29.118  29.848  1.00  0.00     0.074 A 
ATOM     22  C   UNL A   1      39.009  28.133  29.877  1.00  0.00     0.031 C 
ATOM     23  C   UNL A   1      44.896  25.769  27.112  1.00  0.00     0.029 A 
ATOM     24  C   UNL A   1      44.956  27.152  27.576  1.00  0.00     0.049 A 
ATOM     25  H   UNL A   1      43.482  28.202  28.614  1.00  0.00     0.167 HD
ATOM     26  C   UNL A   1      39.948  30.379  30.321  1.00  0.00     0.034 A 
ATOM     27  C   UNL A   1      45.993  27.995  27.415  1.00  0.00     0.034 A 
ATOM     28  C   UNL A   1      41.027  31.324  30.277  1.00  0.00     0.049 A 
ATOM     29  C   UNL A   1      45.837  29.406  27.915  1.00  0.00     0.074 A 
ATOM     30  C   UNL A   1      41.046  32.635  30.705  1.00  0.00     0.029 A 
ATOM     31  N   UNL A   1      42.283  31.047  29.752  1.00  0.00    -0.354 N 
ATOM     32  N   UNL A   1      44.799  29.960  28.500  1.00  0.00    -0.248 NA
ATOM     33  C   UNL A   1      46.984  30.306  27.750  1.00  0.00     0.031 C 
ATOM     34  C   UNL A   1      42.306  33.163  30.404  1.00  0.00     0.029 A 
ATOM     35  C   UNL A   1      43.087  32.165  29.835  1.00  0.00     0.049 A 
ATOM     36  H   UNL A   1      42.559  30.180  29.375  1.00  0.00     0.167 HD
ATOM     37  C   UNL A   1      45.177  31.260  28.806  1.00  0.00     0.074 A 
ATOM     38  C   UNL A   1      46.544  31.410  28.343  1.00  0.00     0.031 C 
ATOM     39  C   UNL A   1      44.464  32.244  29.408  1.00  0.00     0.034 A 
BRANCH  26  40
ATOM     40  C   UNL A   1      38.600  30.792  30.850  1.00  0.00     0.023 A 
ATOM     41  C   UNL A   1      38.206  30.443  32.159  1.00  0.00     0.012 A 
ATOM     42  C   UNL A   1      37.695  31.482  30.020  1.00  0.00     0.148 A 
ATOM     43  C   UNL A   1      36.915  30.720  32.610  1.00  0.00     0.002 A 
ATOM     44  C   UNL A   1      36.428  31.798  30.494  1.00  0.00     0.091 A 
ATOM     45  F   UNL A   1      38.073  31.779  28.769  1.00  0.00    -0.205 F 
ATOM     46  C   UNL A   1      36.029  31.402  31.780  1.00  0.00     0.022 A 
BRANCH  44  47
ATOM     47  S   UNL A   1      35.242  32.733  29.522  1.00  0.00     0.127 S 
ATOM     48  O   UNL A   1      36.037  33.893  29.121  1.00  0.00    -0.237 OA
ATOM     49  O   UNL A   1      34.934  31.800  28.436  1.00  0.00    -0.237 OA
ATOM     50  O   UNL A   1      34.125  33.014  30.413  1.00  0.00    -0.744 OA
ENDBRANCH  44  47
ENDBRANCH  26  40
BRANCH  27  51
ATOM     51  C   UNL A   1      47.235  27.517  26.742  1.00  0.00     0.023 A 
ATOM     52  C   UNL A   1      48.177  26.762  27.464  1.00  0.00     0.012 A 
ATOM     53  C   UNL A   1      47.446  27.740  25.365  1.00  0.00     0.148 A 
ATOM     54  C   UNL A   1      49.311  26.246  26.830  1.00  0.00     0.002 A 
ATOM     55  C   UNL A   1      48.543  27.174  24.727  1.00  0.00     0.091 A 
ATOM     56  F   UNL A   1      46.544  28.474  24.697  1.00  0.00    -0.205 F 
ATOM     57  C   UNL A   1      49.487  26.441  25.462  1.00  0.00     0.022 A 
BRANCH  55  58
ATOM     58  S   UNL A   1      48.770  27.243  22.946  1.00  0.00     0.127 S 
ATOM     59  O   UNL A   1      47.916  28.370  22.579  1.00  0.00    -0.237 OA
ATOM     60  O   UNL A   1      50.209  27.496  22.839  1.00  0.00    -0.237 OA
ATOM     61  O   UNL A   1      48.353  25.945  22.437  1.00  0.00    -0.744 OA
ENDBRANCH  55  58
ENDBRANCH  27  51
BRANCH  39  62
ATOM     62  C   UNL A   1      45.160  33.549  29.671  1.00  0.00     0.023 A 
ATOM     63  C   UNL A   1      45.883  33.739  30.863  1.00  0.00     0.012 A 
ATOM     64  C   UNL A   1      45.215  34.523  28.655  1.00  0.00     0.148 A 
ATOM     65  C   UNL A   1      46.645  34.891  31.044  1.00  0.00     0.002 A 
ATOM     66  C   UNL A   1      46.021  35.640  28.820  1.00  0.00     0.091 A 
ATOM     67  F   UNL A   1      44.501  34.321  27.538  1.00  0.00    -0.205 F 
ATOM     68  C   UNL A   1      46.729  35.831  30.017  1.00  0.00     0.022 A 
BRANCH  66  69
ATOM     69  S   UNL A   1      46.281  36.836  27.506  1.00  0.00     0.127 S 
ATOM     70  O   UNL A   1      45.966  36.045  26.318  1.00  0.00    -0.237 OA
ATOM     71  O   UNL A   1      45.299  37.870  27.832  1.00  0.00    -0.237 OA
ATOM     72  O   UNL A   1      47.670  37.263  27.616  1.00  0.00    -0.744 OA
ENDBRANCH  66  69
ENDBRANCH  39  62
ENDBRANCH  13  14
ENDBRANCH   6   8
ENDBRANCH   5   6
ENDBRANCH   4   5
ENDBRANCH   3   4
ENDBRANCH   2   3
ENDBRANCH   1   2
BRANCH   1  73
ATOM     73  C   UNL A   1      33.544  25.258  25.526  1.00  0.00     0.188 C 
BRANCH  73  74
ATOM     74  O   UNL A   1      32.704  24.369  26.265  1.00  0.00    -0.376 OA
BRANCH  74  75
ATOM     75  C   UNL A   1      31.304  24.462  26.018  1.00  0.00     0.202 C 
BRANCH  75  76
ATOM     76  C   UNL A   1      30.700  25.872  25.922  1.00  0.00     0.261 C 
BRANCH  76  77
ATOM     77  O   UNL A   1      29.697  26.000  24.907  1.00  0.00    -0.461 OA
BRANCH  77  78
ATOM     78  C   UNL A   1      30.087  26.538  23.711  1.00  0.00     0.343 C 
ATOM     79  O   UNL A   1      30.862  25.997  22.927  1.00  0.00    -0.249 OA
BRANCH  78  80
ATOM     80  C   UNL A   1      29.444  27.897  23.499  1.00  0.00     0.304 C 
ATOM     81  F   UNL A   1      28.077  27.815  23.412  1.00  0.00    -0.232 F 
BRANCH  80  82
ATOM     82  C   UNL A   1      29.977  28.651  22.262  1.00  0.00     0.163 C 
BRANCH  82  83
ATOM     83  C   UNL A   1      29.590  30.154  22.182  1.00  0.00     0.026 C 
ATOM     84  C   UNL A   1      29.240  30.775  23.543  1.00  0.00     0.035 C 
ATOM     85  C   UNL A   1      28.395  30.383  21.231  1.00  0.00     0.035 C 
ATOM     86  C   UNL A   1      28.804  32.225  23.385  1.00  0.00     0.160 C 
ATOM     87  C   UNL A   1      27.960  31.844  21.214  1.00  0.00     0.160 C 
ATOM     88  O   UNL A   1      27.669  32.315  22.529  1.00  0.00    -0.381 OA
ENDBRANCH  82  83
BRANCH  82  89
ATOM     89  O   UNL A   1      31.409  28.557  22.327  1.00  0.00    -0.389 OA
ATOM     90  H   UNL A   1      31.660  27.892  22.987  1.00  0.00     0.211 HD
ENDBRANCH  82  89
ENDBRANCH  80  82
ENDBRANCH  78  80
ENDBRANCH  77  78
ENDBRANCH  76  77
ENDBRANCH  75  76
ENDBRANCH  74  75
ENDBRANCH  73  74
ENDBRANCH   1  73
TORSDOF 23
ENDMDL
