MODEL 1
REMARK VINA RESULT:      -9.9      0.000      0.000
REMARK SMILES Cc1nsc(N[C@@H](C)C2CCCC2)c1C(=O)OCCOCCOCCOC(=O)c1ccc(-c2c3nc(c(-c4cccc(S(=O)(=O)[O-])c4F)c4ccc([nH]4)c(-c4cccc(S(=O)(=O)[O-])c4F)c4nc(c(-c5cccc(S(=O)(=O)[O-])c5F)c5ccc2[nH]5)C=C4)C=C3)cc1
REMARK SMILES IDX 21 1 20 2 19 3 18 4 17 5 15 6 16 7 14 8 1 9 2 10 3 11 4 12
REMARK SMILES IDX 5 13 6 14 7 16 8 17 9 18 10 19 13 20 11 21 12 22 22 23 23 24
REMARK SMILES IDX 24 25 25 26 26 27 27 28 28 29 29 30 30 31 91 32 31 33 90 34
REMARK SMILES IDX 32 35 33 36 34 37 84 38 35 39 89 40 83 41 85 42 36 43 88 44
REMARK SMILES IDX 82 45 81 46 37 48 69 49 49 50 68 51 50 52 53 53 67 54 86 55
REMARK SMILES IDX 51 56 52 57 66 59 87 60 54 61 38 62 39 63 47 64 40 65 42 66
REMARK SMILES IDX 48 67 41 68 43 69 44 70 45 71 46 72 70 73 71 74 79 75 72 76
REMARK SMILES IDX 74 77 80 78 73 79 75 80 76 81 77 82 78 83 55 84 56 85 64 86
REMARK SMILES IDX 57 87 59 88 65 89 58 90 60 91 61 92 62 93 63 94
REMARK H PARENT 6 15 85 47 53 58
REMARK Flexibility Score: inf
ROOT
ATOM      1  C   UNL A   1      40.284  21.021  26.131  1.00  0.00     0.188 C 
ENDROOT
BRANCH   1   2
ATOM      2  O   UNL A   1      39.341  22.063  26.031  1.00  0.00    -0.376 OA
BRANCH   2   3
ATOM      3  C   UNL A   1      37.988  21.812  25.700  1.00  0.00     0.202 C 
BRANCH   3   4
ATOM      4  C   UNL A   1      37.162  22.596  24.656  1.00  0.00     0.261 C 
BRANCH   4   5
ATOM      5  O   UNL A   1      35.935  22.020  24.199  1.00  0.00    -0.460 OA
BRANCH   5   6
ATOM      6  C   UNL A   1      34.980  22.883  23.749  1.00  0.00     0.343 C 
ATOM      7  O   UNL A   1      34.968  23.362  22.621  1.00  0.00    -0.246 OA
BRANCH   6   8
ATOM      8  C   UNL A   1      33.894  23.058  24.705  1.00  0.00     0.117 A 
ATOM      9  C   UNL A   1      34.166  25.621  25.226  1.00  0.00     0.069 C 
ATOM     10  C   UNL A   1      33.500  24.291  25.354  1.00  0.00     0.068 A 
ATOM     11  N   UNL A   1      32.456  24.209  26.177  1.00  0.00    -0.195 NA
ATOM     12  S   UNL A   1      31.991  22.635  26.298  1.00  0.00    -0.018 S 
ATOM     13  C   UNL A   1      33.176  21.979  25.231  1.00  0.00     0.124 A 
BRANCH  13  14
ATOM     14  N   UNL A   1      33.405  20.647  25.010  1.00  0.00    -0.372 N 
ATOM     15  H   UNL A   1      34.249  20.268  25.348  1.00  0.00     0.161 HD
BRANCH  14  16
ATOM     16  C   UNL A   1      32.493  19.745  24.310  1.00  0.00     0.080 C 
ATOM     17  C   UNL A   1      32.199  20.383  22.947  1.00  0.00     0.031 C 
BRANCH  16  18
ATOM     18  C   UNL A   1      32.998  18.277  24.209  1.00  0.00     0.011 C 
ATOM     19  C   UNL A   1      34.504  18.036  24.379  1.00  0.00     0.006 C 
ATOM     20  C   UNL A   1      32.337  17.207  25.100  1.00  0.00     0.006 C 
ATOM     21  C   UNL A   1      34.601  16.529  24.559  1.00  0.00     0.000 C 
ATOM     22  C   UNL A   1      33.449  16.231  25.503  1.00  0.00     0.000 C 
ENDBRANCH  16  18
ENDBRANCH  14  16
ENDBRANCH  13  14
ENDBRANCH   6   8
ENDBRANCH   5   6
ENDBRANCH   4   5
ENDBRANCH   3   4
ENDBRANCH   2   3
ENDBRANCH   1   2
BRANCH   1  23
ATOM     23  C   UNL A   1      41.759  21.344  26.436  1.00  0.00     0.188 C 
BRANCH  23  24
ATOM     24  O   UNL A   1      42.557  21.758  25.348  1.00  0.00    -0.376 OA
BRANCH  24  25
ATOM     25  C   UNL A   1      42.970  23.102  25.154  1.00  0.00     0.202 C 
BRANCH  25  26
ATOM     26  C   UNL A   1      42.922  24.221  26.193  1.00  0.00     0.261 C 
BRANCH  26  27
ATOM     27  O   UNL A   1      41.683  24.864  26.324  1.00  0.00    -0.460 OA
BRANCH  27  28
ATOM     28  C   UNL A   1      41.649  26.132  25.866  1.00  0.00     0.338 C 
ATOM     29  O   UNL A   1      42.288  26.601  24.950  1.00  0.00    -0.246 OA
BRANCH  28  30
ATOM     30  C   UNL A   1      40.679  26.858  26.700  1.00  0.00     0.060 A 
ATOM     31  C   UNL A   1      40.459  28.185  26.338  1.00  0.00     0.016 A 
ATOM     32  C   UNL A   1      40.420  26.359  27.986  1.00  0.00     0.016 A 
ATOM     33  C   UNL A   1      40.379  29.091  27.361  1.00  0.00     0.010 A 
ATOM     34  C   UNL A   1      40.372  27.262  29.005  1.00  0.00     0.010 A 
ATOM     35  C   UNL A   1      40.497  28.602  28.664  1.00  0.00    -0.014 A 
BRANCH  35  36
ATOM     36  C   UNL A   1      40.860  29.532  29.694  1.00  0.00     0.031 A 
ATOM     37  C   UNL A   1      39.702  30.264  30.216  1.00  0.00     0.074 A 
ATOM     38  C   UNL A   1      42.130  29.619  30.128  1.00  0.00     0.049 A 
ATOM     39  N   UNL A   1      39.373  31.478  29.933  1.00  0.00    -0.248 NA
ATOM     40  C   UNL A   1      38.666  29.497  30.919  1.00  0.00     0.031 C 
ATOM     41  C   UNL A   1      43.264  28.730  29.855  1.00  0.00     0.029 A 
ATOM     42  N   UNL A   1      42.630  30.480  31.041  1.00  0.00    -0.354 N 
ATOM     43  C   UNL A   1      38.197  31.696  30.635  1.00  0.00     0.074 A 
ATOM     44  C   UNL A   1      37.684  30.396  30.971  1.00  0.00     0.031 C 
ATOM     45  C   UNL A   1      44.221  28.946  30.790  1.00  0.00     0.029 A 
ATOM     46  C   UNL A   1      43.809  30.055  31.636  1.00  0.00     0.049 A 
ATOM     47  H   UNL A   1      42.197  31.336  31.264  1.00  0.00     0.167 HD
ATOM     48  C   UNL A   1      37.901  32.925  31.134  1.00  0.00     0.034 A 
ATOM     49  C   UNL A   1      44.302  30.520  32.811  1.00  0.00     0.034 A 
ATOM     50  C   UNL A   1      38.764  33.935  30.570  1.00  0.00     0.049 A 
ATOM     51  C   UNL A   1      43.667  31.844  33.057  1.00  0.00     0.074 A 
ATOM     52  C   UNL A   1      39.009  34.394  29.291  1.00  0.00     0.029 A 
ATOM     53  N   UNL A   1      39.841  34.328  31.332  1.00  0.00    -0.354 N 
ATOM     54  N   UNL A   1      43.881  32.885  32.297  1.00  0.00    -0.248 NA
ATOM     55  C   UNL A   1      42.423  31.879  33.816  1.00  0.00     0.031 C 
ATOM     56  C   UNL A   1      40.415  34.626  29.247  1.00  0.00     0.029 A 
ATOM     57  C   UNL A   1      40.942  34.365  30.515  1.00  0.00     0.049 A 
ATOM     58  H   UNL A   1      39.824  34.545  32.292  1.00  0.00     0.167 HD
ATOM     59  C   UNL A   1      42.625  33.457  32.123  1.00  0.00     0.074 A 
ATOM     60  C   UNL A   1      41.788  32.860  33.166  1.00  0.00     0.031 C 
ATOM     61  C   UNL A   1      42.295  34.108  30.966  1.00  0.00     0.034 A 
BRANCH  48  62
ATOM     62  C   UNL A   1      37.108  33.173  32.394  1.00  0.00     0.023 A 
ATOM     63  C   UNL A   1      35.950  33.968  32.264  1.00  0.00     0.012 A 
ATOM     64  C   UNL A   1      37.555  32.900  33.708  1.00  0.00     0.148 A 
ATOM     65  C   UNL A   1      35.310  34.515  33.379  1.00  0.00     0.002 A 
ATOM     66  C   UNL A   1      36.868  33.380  34.816  1.00  0.00     0.091 A 
ATOM     67  F   UNL A   1      38.722  32.288  33.916  1.00  0.00    -0.205 F 
ATOM     68  C   UNL A   1      35.765  34.217  34.657  1.00  0.00     0.022 A 
BRANCH  66  69
ATOM     69  S   UNL A   1      37.397  32.986  36.489  1.00  0.00     0.127 S 
ATOM     70  O   UNL A   1      36.250  33.433  37.272  1.00  0.00    -0.237 OA
ATOM     71  O   UNL A   1      37.572  31.536  36.413  1.00  0.00    -0.237 OA
ATOM     72  O   UNL A   1      38.639  33.723  36.694  1.00  0.00    -0.744 OA
ENDBRANCH  66  69
ENDBRANCH  48  62
BRANCH  49  73
ATOM     73  C   UNL A   1      44.991  29.748  33.875  1.00  0.00     0.023 A 
ATOM     74  C   UNL A   1      46.323  30.049  34.220  1.00  0.00     0.012 A 
ATOM     75  C   UNL A   1      44.267  28.883  34.730  1.00  0.00     0.148 A 
ATOM     76  C   UNL A   1      46.906  29.519  35.381  1.00  0.00     0.002 A 
ATOM     77  C   UNL A   1      44.853  28.348  35.872  1.00  0.00     0.091 A 
ATOM     78  F   UNL A   1      42.970  28.663  34.484  1.00  0.00    -0.205 F 
ATOM     79  C   UNL A   1      46.172  28.671  36.207  1.00  0.00     0.022 A 
BRANCH  77  80
ATOM     80  S   UNL A   1      43.945  27.264  36.983  1.00  0.00     0.127 S 
ATOM     81  O   UNL A   1      42.598  27.835  36.934  1.00  0.00    -0.237 OA
ATOM     82  O   UNL A   1      44.087  25.970  36.325  1.00  0.00    -0.237 OA
ATOM     83  O   UNL A   1      44.597  27.392  38.281  1.00  0.00    -0.744 OA
ENDBRANCH  77  80
ENDBRANCH  49  73
BRANCH  61  84
ATOM     84  C   UNL A   1      43.386  34.341  29.945  1.00  0.00     0.023 A 
ATOM     85  C   UNL A   1      44.311  35.401  30.063  1.00  0.00     0.012 A 
ATOM     86  C   UNL A   1      43.612  33.357  28.969  1.00  0.00     0.148 A 
ATOM     87  C   UNL A   1      45.421  35.491  29.217  1.00  0.00     0.002 A 
ATOM     88  C   UNL A   1      44.743  33.422  28.162  1.00  0.00     0.091 A 
ATOM     89  F   UNL A   1      42.734  32.349  28.870  1.00  0.00    -0.205 F 
ATOM     90  C   UNL A   1      45.645  34.492  28.275  1.00  0.00     0.022 A 
BRANCH  88  91
ATOM     91  S   UNL A   1      45.162  32.094  27.032  1.00  0.00     0.127 S 
ATOM     92  O   UNL A   1      46.367  32.610  26.387  1.00  0.00    -0.237 OA
ATOM     93  O   UNL A   1      45.388  30.966  27.938  1.00  0.00    -0.237 OA
ATOM     94  O   UNL A   1      44.002  31.930  26.163  1.00  0.00    -0.744 OA
ENDBRANCH  88  91
ENDBRANCH  61  84
ENDBRANCH  35  36
ENDBRANCH  28  30
ENDBRANCH  27  28
ENDBRANCH  26  27
ENDBRANCH  25  26
ENDBRANCH  24  25
ENDBRANCH  23  24
ENDBRANCH   1  23
TORSDOF 23
ENDMDL
MODEL 2
REMARK VINA RESULT:      -9.8      3.468      7.455
REMARK SMILES Cc1nsc(N[C@@H](C)C2CCCC2)c1C(=O)OCCOCCOCCOC(=O)c1ccc(-c2c3nc(c(-c4cccc(S(=O)(=O)[O-])c4F)c4ccc([nH]4)c(-c4cccc(S(=O)(=O)[O-])c4F)c4nc(c(-c5cccc(S(=O)(=O)[O-])c5F)c5ccc2[nH]5)C=C4)C=C3)cc1
REMARK SMILES IDX 21 1 20 2 19 3 18 4 17 5 15 6 16 7 14 8 1 9 2 10 3 11 4 12
REMARK SMILES IDX 5 13 6 14 7 16 8 17 9 18 10 19 13 20 11 21 12 22 22 23 23 24
REMARK SMILES IDX 24 25 25 26 26 27 27 28 28 29 29 30 30 31 91 32 31 33 90 34
REMARK SMILES IDX 32 35 33 36 34 37 84 38 35 39 89 40 83 41 85 42 36 43 88 44
REMARK SMILES IDX 82 45 81 46 37 48 69 49 49 50 68 51 50 52 53 53 67 54 86 55
REMARK SMILES IDX 51 56 52 57 66 59 87 60 54 61 38 62 39 63 47 64 40 65 42 66
REMARK SMILES IDX 48 67 41 68 43 69 44 70 45 71 46 72 70 73 71 74 79 75 72 76
REMARK SMILES IDX 74 77 80 78 73 79 75 80 76 81 77 82 78 83 55 84 56 85 64 86
REMARK SMILES IDX 57 87 59 88 65 89 58 90 60 91 61 92 62 93 63 94
REMARK H PARENT 6 15 85 47 53 58
REMARK Flexibility Score: inf
ROOT
ATOM      1  C   UNL A   1      32.289  28.473  25.161  1.00  0.00     0.188 C 
ENDROOT
BRANCH   1   2
ATOM      2  O   UNL A   1      31.860  27.391  24.367  1.00  0.00    -0.376 OA
BRANCH   2   3
ATOM      3  C   UNL A   1      31.394  26.185  24.943  1.00  0.00     0.202 C 
BRANCH   3   4
ATOM      4  C   UNL A   1      31.372  24.808  24.243  1.00  0.00     0.261 C 
BRANCH   4   5
ATOM      5  O   UNL A   1      31.193  23.644  25.054  1.00  0.00    -0.460 OA
BRANCH   5   6
ATOM      6  C   UNL A   1      31.889  23.598  26.226  1.00  0.00     0.343 C 
ATOM      7  O   UNL A   1      31.399  23.843  27.323  1.00  0.00    -0.246 OA
BRANCH   6   8
ATOM      8  C   UNL A   1      33.239  23.078  26.050  1.00  0.00     0.117 A 
ATOM      9  C   UNL A   1      34.552  25.337  25.752  1.00  0.00     0.069 C 
ATOM     10  C   UNL A   1      34.449  23.852  25.865  1.00  0.00     0.068 A 
ATOM     11  N   UNL A   1      35.576  23.153  25.747  1.00  0.00    -0.195 NA
ATOM     12  S   UNL A   1      35.213  21.548  25.727  1.00  0.00    -0.018 S 
ATOM     13  C   UNL A   1      33.504  21.715  25.888  1.00  0.00     0.124 A 
BRANCH  13  14
ATOM     14  N   UNL A   1      32.589  20.699  25.799  1.00  0.00    -0.372 N 
ATOM     15  H   UNL A   1      32.197  20.364  26.638  1.00  0.00     0.161 HD
BRANCH  14  16
ATOM     16  C   UNL A   1      32.148  20.076  24.553  1.00  0.00     0.080 C 
ATOM     17  C   UNL A   1      32.544  21.027  23.418  1.00  0.00     0.031 C 
BRANCH  16  18
ATOM     18  C   UNL A   1      32.663  18.622  24.348  1.00  0.00     0.011 C 
ATOM     19  C   UNL A   1      32.801  18.118  22.906  1.00  0.00     0.006 C 
ATOM     20  C   UNL A   1      33.985  18.207  25.026  1.00  0.00     0.006 C 
ATOM     21  C   UNL A   1      33.618  16.844  23.054  1.00  0.00     0.000 C 
ATOM     22  C   UNL A   1      34.685  17.248  24.056  1.00  0.00     0.000 C 
ENDBRANCH  16  18
ENDBRANCH  14  16
ENDBRANCH  13  14
ENDBRANCH   6   8
ENDBRANCH   5   6
ENDBRANCH   4   5
ENDBRANCH   3   4
ENDBRANCH   2   3
ENDBRANCH   1   2
BRANCH   1  23
ATOM     23  C   UNL A   1      31.716  28.662  26.579  1.00  0.00     0.188 C 
BRANCH  23  24
ATOM     24  O   UNL A   1      32.516  29.373  27.497  1.00  0.00    -0.376 OA
BRANCH  24  25
ATOM     25  C   UNL A   1      33.646  30.143  27.112  1.00  0.00     0.202 C 
BRANCH  25  26
ATOM     26  C   UNL A   1      33.950  31.577  27.541  1.00  0.00     0.261 C 
BRANCH  26  27
ATOM     27  O   UNL A   1      34.669  31.705  28.738  1.00  0.00    -0.460 OA
BRANCH  27  28
ATOM     28  C   UNL A   1      36.001  31.854  28.589  1.00  0.00     0.338 C 
ATOM     29  O   UNL A   1      36.580  32.489  27.735  1.00  0.00    -0.246 OA
BRANCH  28  30
ATOM     30  C   UNL A   1      36.636  31.085  29.670  1.00  0.00     0.060 A 
ATOM     31  C   UNL A   1      37.638  31.756  30.368  1.00  0.00     0.016 A 
ATOM     32  C   UNL A   1      36.538  29.686  29.624  1.00  0.00     0.016 A 
ATOM     33  C   UNL A   1      38.763  31.036  30.663  1.00  0.00     0.010 A 
ATOM     34  C   UNL A   1      37.668  28.975  29.889  1.00  0.00     0.010 A 
ATOM     35  C   UNL A   1      38.792  29.697  30.266  1.00  0.00    -0.014 A 
BRANCH  35  36
ATOM     36  C   UNL A   1      40.074  29.062  30.156  1.00  0.00     0.031 A 
ATOM     37  C   UNL A   1      40.701  28.842  31.463  1.00  0.00     0.074 A 
ATOM     38  C   UNL A   1      40.553  28.680  28.959  1.00  0.00     0.049 A 
ATOM     39  N   UNL A   1      41.651  29.541  31.983  1.00  0.00    -0.248 NA
ATOM     40  C   UNL A   1      40.039  27.919  32.394  1.00  0.00     0.031 C 
ATOM     41  C   UNL A   1      39.864  28.611  27.666  1.00  0.00     0.029 A 
ATOM     42  N   UNL A   1      41.758  28.129  28.692  1.00  0.00    -0.354 N 
ATOM     43  C   UNL A   1      41.865  28.970  33.229  1.00  0.00     0.074 A 
ATOM     44  C   UNL A   1      40.690  28.197  33.523  1.00  0.00     0.031 C 
ATOM     45  C   UNL A   1      40.574  27.807  26.837  1.00  0.00     0.029 A 
ATOM     46  C   UNL A   1      41.805  27.414  27.505  1.00  0.00     0.049 A 
ATOM     47  H   UNL A   1      42.535  28.227  29.288  1.00  0.00     0.167 HD
ATOM     48  C   UNL A   1      43.108  28.942  33.778  1.00  0.00     0.034 A 
ATOM     49  C   UNL A   1      42.735  26.477  27.194  1.00  0.00     0.034 A 
ATOM     50  C   UNL A   1      44.007  29.823  33.071  1.00  0.00     0.049 A 
ATOM     51  C   UNL A   1      43.912  26.723  28.074  1.00  0.00     0.074 A 
ATOM     52  C   UNL A   1      44.032  31.180  32.817  1.00  0.00     0.029 A 
ATOM     53  N   UNL A   1      44.843  29.243  32.144  1.00  0.00    -0.354 N 
ATOM     54  N   UNL A   1      44.644  27.802  27.994  1.00  0.00    -0.248 NA
ATOM     55  C   UNL A   1      43.964  26.034  29.357  1.00  0.00     0.031 C 
ATOM     56  C   UNL A   1      44.504  31.294  31.478  1.00  0.00     0.029 A 
ATOM     57  C   UNL A   1      44.808  30.013  31.009  1.00  0.00     0.049 A 
ATOM     58  H   UNL A   1      45.372  28.423  32.272  1.00  0.00     0.167 HD
ATOM     59  C   UNL A   1      44.862  28.176  29.316  1.00  0.00     0.074 A 
ATOM     60  C   UNL A   1      44.514  26.995  30.108  1.00  0.00     0.031 C 
ATOM     61  C   UNL A   1      44.993  29.491  29.670  1.00  0.00     0.034 A 
BRANCH  48  62
ATOM     62  C   UNL A   1      43.619  27.859  34.696  1.00  0.00     0.023 A 
ATOM     63  C   UNL A   1      44.240  28.283  35.889  1.00  0.00     0.012 A 
ATOM     64  C   UNL A   1      43.756  26.493  34.351  1.00  0.00     0.148 A 
ATOM     65  C   UNL A   1      45.011  27.410  36.662  1.00  0.00     0.002 A 
ATOM     66  C   UNL A   1      44.456  25.612  35.165  1.00  0.00     0.091 A 
ATOM     67  F   UNL A   1      43.333  26.045  33.169  1.00  0.00    -0.205 F 
ATOM     68  C   UNL A   1      45.115  26.073  36.304  1.00  0.00     0.022 A 
BRANCH  66  69
ATOM     69  S   UNL A   1      44.584  23.865  34.762  1.00  0.00     0.127 S 
ATOM     70  O   UNL A   1      45.522  23.397  35.779  1.00  0.00    -0.237 OA
ATOM     71  O   UNL A   1      43.203  23.416  34.938  1.00  0.00    -0.237 OA
ATOM     72  O   UNL A   1      45.055  23.811  33.384  1.00  0.00    -0.744 OA
ENDBRANCH  66  69
ENDBRANCH  48  62
BRANCH  49  73
ATOM     73  C   UNL A   1      42.532  25.204  26.460  1.00  0.00     0.023 A 
ATOM     74  C   UNL A   1      43.428  24.822  25.441  1.00  0.00     0.012 A 
ATOM     75  C   UNL A   1      41.607  24.238  26.922  1.00  0.00     0.148 A 
ATOM     76  C   UNL A   1      43.411  23.521  24.916  1.00  0.00     0.002 A 
ATOM     77  C   UNL A   1      41.583  22.955  26.388  1.00  0.00     0.091 A 
ATOM     78  F   UNL A   1      40.816  24.541  27.959  1.00  0.00    -0.205 F 
ATOM     79  C   UNL A   1      42.491  22.588  25.389  1.00  0.00     0.022 A 
BRANCH  77  80
ATOM     80  S   UNL A   1      40.431  21.705  26.976  1.00  0.00     0.127 S 
ATOM     81  O   UNL A   1      39.139  22.366  26.785  1.00  0.00    -0.237 OA
ATOM     82  O   UNL A   1      40.695  20.598  26.064  1.00  0.00    -0.237 OA
ATOM     83  O   UNL A   1      40.778  21.474  28.373  1.00  0.00    -0.744 OA
ENDBRANCH  77  80
ENDBRANCH  49  73
BRANCH  61  84
ATOM     84  C   UNL A   1      45.065  30.521  28.564  1.00  0.00     0.023 A 
ATOM     85  C   UNL A   1      43.914  31.166  28.062  1.00  0.00     0.012 A 
ATOM     86  C   UNL A   1      46.326  30.997  28.173  1.00  0.00     0.148 A 
ATOM     87  C   UNL A   1      44.016  32.244  27.178  1.00  0.00     0.002 A 
ATOM     88  C   UNL A   1      46.426  32.100  27.332  1.00  0.00     0.091 A 
ATOM     89  F   UNL A   1      47.414  30.385  28.662  1.00  0.00    -0.205 F 
ATOM     90  C   UNL A   1      45.273  32.721  26.823  1.00  0.00     0.022 A 
BRANCH  88  91
ATOM     91  S   UNL A   1      48.012  32.848  26.956  1.00  0.00     0.127 S 
ATOM     92  O   UNL A   1      48.406  33.396  28.252  1.00  0.00    -0.237 OA
ATOM     93  O   UNL A   1      48.805  31.702  26.510  1.00  0.00    -0.237 OA
ATOM     94  O   UNL A   1      47.751  33.830  25.910  1.00  0.00    -0.744 OA
ENDBRANCH  88  91
ENDBRANCH  61  84
ENDBRANCH  35  36
ENDBRANCH  28  30
ENDBRANCH  27  28
ENDBRANCH  26  27
ENDBRANCH  25  26
ENDBRANCH  24  25
ENDBRANCH  23  24
ENDBRANCH   1  23
TORSDOF 23
ENDMDL
MODEL 3
REMARK VINA RESULT:      -9.7      3.500      8.207
REMARK SMILES Cc1nsc(N[C@@H](C)C2CCCC2)c1C(=O)OCCOCCOCCOC(=O)c1ccc(-c2c3nc(c(-c4cccc(S(=O)(=O)[O-])c4F)c4ccc([nH]4)c(-c4cccc(S(=O)(=O)[O-])c4F)c4nc(c(-c5cccc(S(=O)(=O)[O-])c5F)c5ccc2[nH]5)C=C4)C=C3)cc1
REMARK SMILES IDX 21 1 20 2 19 3 18 4 17 5 15 6 16 7 14 8 1 9 2 10 3 11 4 12
REMARK SMILES IDX 5 13 6 14 7 16 8 17 9 18 10 19 13 20 11 21 12 22 22 23 23 24
REMARK SMILES IDX 24 25 25 26 26 27 27 28 28 29 29 30 30 31 91 32 31 33 90 34
REMARK SMILES IDX 32 35 33 36 34 37 84 38 35 39 89 40 83 41 85 42 36 43 88 44
REMARK SMILES IDX 82 45 81 46 37 48 69 49 49 50 68 51 50 52 53 53 67 54 86 55
REMARK SMILES IDX 51 56 52 57 66 59 87 60 54 61 38 62 39 63 47 64 40 65 42 66
REMARK SMILES IDX 48 67 41 68 43 69 44 70 45 71 46 72 70 73 71 74 79 75 72 76
REMARK SMILES IDX 74 77 80 78 73 79 75 80 76 81 77 82 78 83 55 84 56 85 64 86
REMARK SMILES IDX 57 87 59 88 65 89 58 90 60 91 61 92 62 93 63 94
REMARK H PARENT 6 15 85 47 53 58
REMARK Flexibility Score: inf
ROOT
ATOM      1  C   UNL A   1      33.444  31.339  27.398  1.00  0.00     0.188 C 
ENDROOT
BRANCH   1   2
ATOM      2  O   UNL A   1      33.191  30.275  26.509  1.00  0.00    -0.376 OA
BRANCH   2   3
ATOM      3  C   UNL A   1      32.177  29.321  26.762  1.00  0.00     0.202 C 
BRANCH   3   4
ATOM      4  C   UNL A   1      32.401  27.912  27.355  1.00  0.00     0.261 C 
BRANCH   4   5
ATOM      5  O   UNL A   1      33.003  26.919  26.520  1.00  0.00    -0.460 OA
BRANCH   5   6
ATOM      6  C   UNL A   1      32.304  25.763  26.337  1.00  0.00     0.343 C 
ATOM      7  O   UNL A   1      31.140  25.605  26.688  1.00  0.00    -0.246 OA
BRANCH   6   8
ATOM      8  C   UNL A   1      33.041  24.786  25.546  1.00  0.00     0.117 A 
ATOM      9  C   UNL A   1      33.302  22.871  27.329  1.00  0.00     0.069 C 
ATOM     10  C   UNL A   1      33.470  23.471  25.972  1.00  0.00     0.068 A 
ATOM     11  N   UNL A   1      34.114  22.744  25.060  1.00  0.00    -0.195 NA
ATOM     12  S   UNL A   1      34.337  23.654  23.708  1.00  0.00    -0.018 S 
ATOM     13  C   UNL A   1      33.562  25.083  24.282  1.00  0.00     0.124 A 
BRANCH  13  14
ATOM     14  N   UNL A   1      33.536  26.293  23.641  1.00  0.00    -0.372 N 
ATOM     15  H   UNL A   1      34.281  26.914  23.810  1.00  0.00     0.161 HD
BRANCH  14  16
ATOM     16  C   UNL A   1      32.487  26.733  22.723  1.00  0.00     0.080 C 
ATOM     17  C   UNL A   1      31.935  25.472  22.046  1.00  0.00     0.031 C 
BRANCH  16  18
ATOM     18  C   UNL A   1      31.386  27.611  23.384  1.00  0.00     0.011 C 
ATOM     19  C   UNL A   1      31.521  29.133  23.248  1.00  0.00     0.006 C 
ATOM     20  C   UNL A   1      29.911  27.326  23.040  1.00  0.00     0.006 C 
ATOM     21  C   UNL A   1      30.160  29.649  23.690  1.00  0.00     0.000 C 
ATOM     22  C   UNL A   1      29.203  28.686  23.010  1.00  0.00     0.000 C 
ENDBRANCH  16  18
ENDBRANCH  14  16
ENDBRANCH  13  14
ENDBRANCH   6   8
ENDBRANCH   5   6
ENDBRANCH   4   5
ENDBRANCH   3   4
ENDBRANCH   2   3
ENDBRANCH   1   2
BRANCH   1  23
ATOM     23  C   UNL A   1      32.489  32.548  27.443  1.00  0.00     0.188 C 
BRANCH  23  24
ATOM     24  O   UNL A   1      33.014  33.752  27.958  1.00  0.00    -0.376 OA
BRANCH  24  25
ATOM     25  C   UNL A   1      34.306  33.852  28.538  1.00  0.00     0.202 C 
BRANCH  25  26
ATOM     26  C   UNL A   1      34.652  33.655  30.013  1.00  0.00     0.261 C 
BRANCH  26  27
ATOM     27  O   UNL A   1      34.588  32.332  30.472  1.00  0.00    -0.460 OA
BRANCH  27  28
ATOM     28  C   UNL A   1      35.721  31.873  31.042  1.00  0.00     0.338 C 
ATOM     29  O   UNL A   1      36.098  32.053  32.179  1.00  0.00    -0.246 OA
BRANCH  28  30
ATOM     30  C   UNL A   1      36.432  31.103  30.010  1.00  0.00     0.060 A 
ATOM     31  C   UNL A   1      36.318  29.719  30.116  1.00  0.00     0.016 A 
ATOM     32  C   UNL A   1      37.482  31.737  29.327  1.00  0.00     0.016 A 
ATOM     33  C   UNL A   1      37.459  28.995  29.904  1.00  0.00     0.010 A 
ATOM     34  C   UNL A   1      38.627  31.022  29.146  1.00  0.00     0.010 A 
ATOM     35  C   UNL A   1      38.619  29.702  29.576  1.00  0.00    -0.014 A 
BRANCH  35  36
ATOM     36  C   UNL A   1      39.879  29.050  29.785  1.00  0.00     0.031 A 
ATOM     37  C   UNL A   1      40.324  29.132  31.180  1.00  0.00     0.074 A 
ATOM     38  C   UNL A   1      40.494  28.401  28.781  1.00  0.00     0.049 A 
ATOM     39  N   UNL A   1      41.225  29.924  31.651  1.00  0.00    -0.248 NA
ATOM     40  C   UNL A   1      39.514  28.451  32.198  1.00  0.00     0.031 C 
ATOM     41  C   UNL A   1      39.975  28.042  27.456  1.00  0.00     0.029 A 
ATOM     42  N   UNL A   1      41.702  27.796  28.809  1.00  0.00    -0.354 N 
ATOM     43  C   UNL A   1      41.256  29.653  33.011  1.00  0.00     0.074 A 
ATOM     44  C   UNL A   1      40.024  28.975  33.312  1.00  0.00     0.031 C 
ATOM     45  C   UNL A   1      40.756  27.066  26.933  1.00  0.00     0.029 A 
ATOM     46  C   UNL A   1      41.875  26.827  27.832  1.00  0.00     0.049 A 
ATOM     47  H   UNL A   1      42.399  28.023  29.466  1.00  0.00     0.167 HD
ATOM     48  C   UNL A   1      42.415  29.743  33.713  1.00  0.00     0.034 A 
ATOM     49  C   UNL A   1      42.802  25.838  27.868  1.00  0.00     0.034 A 
ATOM     50  C   UNL A   1      43.430  30.432  32.952  1.00  0.00     0.049 A 
ATOM     51  C   UNL A   1      43.864  26.271  28.818  1.00  0.00     0.074 A 
ATOM     52  C   UNL A   1      43.537  31.695  32.403  1.00  0.00     0.029 A 
ATOM     53  N   UNL A   1      44.356  29.650  32.300  1.00  0.00    -0.354 N 
ATOM     54  N   UNL A   1      44.640  27.298  28.596  1.00  0.00    -0.248 NA
ATOM     55  C   UNL A   1      43.725  25.894  30.220  1.00  0.00     0.031 C 
ATOM     56  C   UNL A   1      44.182  31.496  31.148  1.00  0.00     0.029 A 
ATOM     57  C   UNL A   1      44.496  30.140  31.027  1.00  0.00     0.049 A 
ATOM     58  H   UNL A   1      44.833  28.877  32.680  1.00  0.00     0.167 HD
ATOM     59  C   UNL A   1      44.700  27.964  29.815  1.00  0.00     0.074 A 
ATOM     60  C   UNL A   1      44.209  26.997  30.800  1.00  0.00     0.031 C 
ATOM     61  C   UNL A   1      44.832  29.324  29.877  1.00  0.00     0.034 A 
BRANCH  48  62
ATOM     62  C   UNL A   1      42.763  28.895  34.912  1.00  0.00     0.023 A 
ATOM     63  C   UNL A   1      43.314  29.567  36.023  1.00  0.00     0.012 A 
ATOM     64  C   UNL A   1      42.824  27.481  34.923  1.00  0.00     0.148 A 
ATOM     65  C   UNL A   1      43.948  28.874  37.057  1.00  0.00     0.002 A 
ATOM     66  C   UNL A   1      43.384  26.794  35.992  1.00  0.00     0.091 A 
ATOM     67  F   UNL A   1      42.467  26.777  33.848  1.00  0.00    -0.205 F 
ATOM     68  C   UNL A   1      43.979  27.486  37.046  1.00  0.00     0.022 A 
BRANCH  66  69
ATOM     69  S   UNL A   1      43.411  24.996  36.039  1.00  0.00     0.127 S 
ATOM     70  O   UNL A   1      44.414  24.692  35.023  1.00  0.00    -0.237 OA
ATOM     71  O   UNL A   1      43.826  24.739  37.418  1.00  0.00    -0.237 OA
ATOM     72  O   UNL A   1      42.048  24.573  35.740  1.00  0.00    -0.744 OA
ENDBRANCH  66  69
ENDBRANCH  48  62
BRANCH  49  73
ATOM     73  C   UNL A   1      42.648  24.432  27.420  1.00  0.00     0.023 A 
ATOM     74  C   UNL A   1      41.428  23.755  27.616  1.00  0.00     0.012 A 
ATOM     75  C   UNL A   1      43.609  23.830  26.573  1.00  0.00     0.148 A 
ATOM     76  C   UNL A   1      41.171  22.531  26.980  1.00  0.00     0.002 A 
ATOM     77  C   UNL A   1      43.356  22.609  25.957  1.00  0.00     0.091 A 
ATOM     78  F   UNL A   1      44.732  24.499  26.287  1.00  0.00    -0.205 F 
ATOM     79  C   UNL A   1      42.133  21.959  26.150  1.00  0.00     0.022 A 
BRANCH  77  80
ATOM     80  S   UNL A   1      44.555  21.836  24.860  1.00  0.00     0.127 S 
ATOM     81  O   UNL A   1      44.075  20.454  24.808  1.00  0.00    -0.237 OA
ATOM     82  O   UNL A   1      44.370  22.597  23.629  1.00  0.00    -0.237 OA
ATOM     83  O   UNL A   1      45.848  21.992  25.515  1.00  0.00    -0.744 OA
ENDBRANCH  77  80
ENDBRANCH  49  73
BRANCH  61  84
ATOM     84  C   UNL A   1      45.084  30.073  28.587  1.00  0.00     0.023 A 
ATOM     85  C   UNL A   1      44.033  30.481  27.738  1.00  0.00     0.012 A 
ATOM     86  C   UNL A   1      46.378  30.554  28.333  1.00  0.00     0.148 A 
ATOM     87  C   UNL A   1      44.268  31.330  26.652  1.00  0.00     0.002 A 
ATOM     88  C   UNL A   1      46.601  31.437  27.282  1.00  0.00     0.091 A 
ATOM     89  F   UNL A   1      47.369  30.168  29.150  1.00  0.00    -0.205 F 
ATOM     90  C   UNL A   1      45.551  31.820  26.432  1.00  0.00     0.022 A 
BRANCH  88  91
ATOM     91  S   UNL A   1      48.199  32.213  27.037  1.00  0.00     0.127 S 
ATOM     92  O   UNL A   1      49.043  31.072  26.689  1.00  0.00    -0.237 OA
ATOM     93  O   UNL A   1      47.936  33.138  25.933  1.00  0.00    -0.237 OA
ATOM     94  O   UNL A   1      48.519  32.873  28.297  1.00  0.00    -0.744 OA
ENDBRANCH  88  91
ENDBRANCH  61  84
ENDBRANCH  35  36
ENDBRANCH  28  30
ENDBRANCH  27  28
ENDBRANCH  26  27
ENDBRANCH  25  26
ENDBRANCH  24  25
ENDBRANCH  23  24
ENDBRANCH   1  23
TORSDOF 23
ENDMDL
