MODEL 1
REMARK VINA RESULT:     -11.1      0.000      0.000
REMARK SMILES O=C(OCCOCCOCCOC(=O)c1ccccc1Nc1nc(Cl)nc(Nc2ccc(N3CCOCC3=O)cc2)n1)c1ccc(-c2c3nc(c(-c4cccc(S(=O)(=O)[O-])c4F)c4ccc([nH]4)c(-c4cccc(S(=O)(=O)[O-])c4F)c4nc(c(-c5cccc(S(=O)(=O)[O-])c5F)c5ccc2[nH]5)C=C4)C=C3)cc1
REMARK SMILES IDX 8 1 7 2 6 3 5 4 4 5 3 6 2 7 1 8 43 9 44 10 105 11 45 12
REMARK SMILES IDX 104 13 46 14 47 15 48 16 98 17 49 18 103 19 97 20 99 21
REMARK SMILES IDX 50 22 102 23 96 24 95 25 51 27 83 28 63 29 82 30 64 31 67 32
REMARK SMILES IDX 81 33 100 34 65 35 66 36 80 38 101 39 68 40 52 41 53 42
REMARK SMILES IDX 61 43 54 44 56 45 62 46 55 47 57 48 58 49 59 50 60 51 84 52
REMARK SMILES IDX 85 53 93 54 86 55 88 56 94 57 87 58 89 59 90 60 91 61 92 62
REMARK SMILES IDX 69 63 70 64 78 65 71 66 73 67 79 68 72 69 74 70 75 71 76 72
REMARK SMILES IDX 77 73 9 74 10 75 11 76 12 77 13 78 14 79 15 80 16 81 20 82
REMARK SMILES IDX 17 83 19 84 18 85 21 86 22 88 23 89 42 90 24 91 27 92 25 93
REMARK SMILES IDX 26 94 28 95 29 97 30 98 41 99 31 100 40 101 32 102 33 103
REMARK SMILES IDX 34 104 38 105 35 106 37 107 39 108 36 109
REMARK H PARENT 99 26 67 37 21 87 28 96
REMARK Flexibility Score: inf
ROOT
ATOM      1  C   UNL A   1      30.843  25.915  25.472  1.00  0.00     0.188 C 
ENDROOT
BRANCH   1   2
ATOM      2  C   UNL A   1      31.245  27.002  24.475  1.00  0.00     0.188 C 
BRANCH   2   3
ATOM      3  O   UNL A   1      30.936  28.301  24.993  1.00  0.00    -0.376 OA
BRANCH   3   4
ATOM      4  C   UNL A   1      32.027  29.222  24.923  1.00  0.00     0.202 C 
BRANCH   4   5
ATOM      5  C   UNL A   1      32.232  30.064  26.190  1.00  0.00     0.261 C 
BRANCH   5   6
ATOM      6  O   UNL A   1      33.621  30.246  26.508  1.00  0.00    -0.460 OA
BRANCH   6   7
ATOM      7  C   UNL A   1      34.164  31.202  27.307  1.00  0.00     0.338 C 
ATOM      8  O   UNL A   1      33.637  32.313  27.338  1.00  0.00    -0.246 OA
BRANCH   7   9
ATOM      9  C   UNL A   1      35.339  30.950  28.194  1.00  0.00     0.060 A 
ATOM     10  C   UNL A   1      36.371  31.863  28.418  1.00  0.00     0.016 A 
ATOM     11  C   UNL A   1      35.362  29.740  28.905  1.00  0.00     0.016 A 
ATOM     12  C   UNL A   1      37.461  31.540  29.220  1.00  0.00     0.010 A 
ATOM     13  C   UNL A   1      36.417  29.441  29.775  1.00  0.00     0.010 A 
ATOM     14  C   UNL A   1      37.492  30.328  29.910  1.00  0.00    -0.014 A 
BRANCH  14  15
ATOM     15  C   UNL A   1      38.666  30.001  30.750  1.00  0.00     0.031 A 
ATOM     16  C   UNL A   1      38.765  30.563  32.134  1.00  0.00     0.074 A 
ATOM     17  C   UNL A   1      39.614  29.165  30.285  1.00  0.00     0.049 A 
ATOM     18  N   UNL A   1      39.726  30.423  33.006  1.00  0.00    -0.248 NA
ATOM     19  C   UNL A   1      37.630  31.372  32.608  1.00  0.00     0.031 C 
ATOM     20  C   UNL A   1      39.576  28.501  28.983  1.00  0.00     0.029 A 
ATOM     21  N   UNL A   1      40.789  28.730  30.846  1.00  0.00    -0.354 N 
ATOM     22  C   UNL A   1      39.335  31.159  34.114  1.00  0.00     0.074 A 
ATOM     23  C   UNL A   1      38.044  31.736  33.813  1.00  0.00     0.031 C 
ATOM     24  C   UNL A   1      40.679  27.752  28.850  1.00  0.00     0.029 A 
ATOM     25  C   UNL A   1      41.536  27.940  30.004  1.00  0.00     0.049 A 
ATOM     26  H   UNL A   1      41.070  28.962  31.761  1.00  0.00     0.167 HD
ATOM     27  C   UNL A   1      39.999  31.333  35.279  1.00  0.00     0.034 A 
ATOM     28  C   UNL A   1      42.786  27.452  30.115  1.00  0.00     0.034 A 
ATOM     29  C   UNL A   1      41.269  30.731  35.576  1.00  0.00     0.049 A 
ATOM     30  C   UNL A   1      43.527  27.720  31.391  1.00  0.00     0.074 A 
ATOM     31  C   UNL A   1      42.008  30.813  36.741  1.00  0.00     0.029 A 
ATOM     32  N   UNL A   1      41.999  29.951  34.690  1.00  0.00    -0.354 N 
ATOM     33  N   UNL A   1      43.103  28.340  32.465  1.00  0.00    -0.248 NA
ATOM     34  C   UNL A   1      44.898  27.207  31.486  1.00  0.00     0.031 C 
ATOM     35  C   UNL A   1      43.201  30.109  36.548  1.00  0.00     0.029 A 
ATOM     36  C   UNL A   1      43.196  29.573  35.269  1.00  0.00     0.049 A 
ATOM     37  H   UNL A   1      41.707  29.703  33.783  1.00  0.00     0.167 HD
ATOM     38  C   UNL A   1      44.147  28.274  33.375  1.00  0.00     0.074 A 
ATOM     39  C   UNL A   1      45.212  27.527  32.736  1.00  0.00     0.031 C 
ATOM     40  C   UNL A   1      44.225  28.800  34.621  1.00  0.00     0.034 A 
BRANCH  27  41
ATOM     41  C   UNL A   1      39.366  32.223  36.308  1.00  0.00     0.023 A 
ATOM     42  C   UNL A   1      39.727  33.583  36.383  1.00  0.00     0.012 A 
ATOM     43  C   UNL A   1      38.391  31.710  37.185  1.00  0.00     0.148 A 
ATOM     44  C   UNL A   1      39.139  34.417  37.333  1.00  0.00     0.002 A 
ATOM     45  C   UNL A   1      37.787  32.553  38.107  1.00  0.00     0.091 A 
ATOM     46  F   UNL A   1      38.086  30.407  37.106  1.00  0.00    -0.205 F 
ATOM     47  C   UNL A   1      38.165  33.905  38.188  1.00  0.00     0.022 A 
BRANCH  45  48
ATOM     48  S   UNL A   1      36.495  32.004  39.225  1.00  0.00     0.127 S 
ATOM     49  O   UNL A   1      37.099  32.274  40.529  1.00  0.00    -0.237 OA
ATOM     50  O   UNL A   1      35.388  32.891  38.870  1.00  0.00    -0.237 OA
ATOM     51  O   UNL A   1      36.273  30.596  38.927  1.00  0.00    -0.744 OA
ENDBRANCH  45  48
ENDBRANCH  27  41
BRANCH  28  52
ATOM     52  C   UNL A   1      43.403  26.681  28.995  1.00  0.00     0.023 A 
ATOM     53  C   UNL A   1      43.089  25.319  28.824  1.00  0.00     0.012 A 
ATOM     54  C   UNL A   1      44.282  27.295  28.077  1.00  0.00     0.148 A 
ATOM     55  C   UNL A   1      43.645  24.582  27.775  1.00  0.00     0.002 A 
ATOM     56  C   UNL A   1      44.797  26.568  27.009  1.00  0.00     0.091 A 
ATOM     57  F   UNL A   1      44.590  28.588  28.256  1.00  0.00    -0.205 F 
ATOM     58  C   UNL A   1      44.490  25.208  26.862  1.00  0.00     0.022 A 
BRANCH  56  59
ATOM     59  S   UNL A   1      45.791  27.329  25.719  1.00  0.00     0.127 S 
ATOM     60  O   UNL A   1      47.051  27.573  26.411  1.00  0.00    -0.237 OA
ATOM     61  O   UNL A   1      45.835  26.270  24.709  1.00  0.00    -0.237 OA
ATOM     62  O   UNL A   1      45.048  28.513  25.307  1.00  0.00    -0.744 OA
ENDBRANCH  56  59
ENDBRANCH  28  52
BRANCH  40  63
ATOM     63  C   UNL A   1      45.508  28.587  35.369  1.00  0.00     0.023 A 
ATOM     64  C   UNL A   1      46.564  29.504  35.202  1.00  0.00     0.012 A 
ATOM     65  C   UNL A   1      45.643  27.524  36.280  1.00  0.00     0.148 A 
ATOM     66  C   UNL A   1      47.750  29.351  35.915  1.00  0.00     0.002 A 
ATOM     67  C   UNL A   1      46.810  27.405  37.023  1.00  0.00     0.091 A 
ATOM     68  F   UNL A   1      44.630  26.653  36.403  1.00  0.00    -0.205 F 
ATOM     69  C   UNL A   1      47.867  28.310  36.834  1.00  0.00     0.022 A 
BRANCH  67  70
ATOM     70  S   UNL A   1      47.012  26.155  38.295  1.00  0.00     0.127 S 
ATOM     71  O   UNL A   1      47.637  25.067  37.546  1.00  0.00    -0.237 OA
ATOM     72  O   UNL A   1      47.896  26.825  39.249  1.00  0.00    -0.237 OA
ATOM     73  O   UNL A   1      45.675  25.878  38.803  1.00  0.00    -0.744 OA
ENDBRANCH  67  70
ENDBRANCH  40  63
ENDBRANCH  14  15
ENDBRANCH   7   9
ENDBRANCH   6   7
ENDBRANCH   5   6
ENDBRANCH   4   5
ENDBRANCH   3   4
ENDBRANCH   2   3
ENDBRANCH   1   2
BRANCH   1  74
ATOM     74  O   UNL A   1      30.997  24.573  25.008  1.00  0.00    -0.376 OA
BRANCH  74  75
ATOM     75  C   UNL A   1      30.894  23.528  25.971  1.00  0.00     0.202 C 
BRANCH  75  76
ATOM     76  C   UNL A   1      32.010  22.477  26.009  1.00  0.00     0.261 C 
BRANCH  76  77
ATOM     77  O   UNL A   1      31.742  21.239  25.334  1.00  0.00    -0.460 OA
BRANCH  77  78
ATOM     78  C   UNL A   1      32.234  21.189  24.073  1.00  0.00     0.340 C 
ATOM     79  O   UNL A   1      32.200  22.089  23.232  1.00  0.00    -0.246 OA
BRANCH  78  80
ATOM     80  C   UNL A   1      32.789  19.866  23.780  1.00  0.00     0.083 A 
ATOM     81  C   UNL A   1      32.174  19.066  22.811  1.00  0.00     0.018 A 
ATOM     82  C   UNL A   1      33.790  19.368  24.632  1.00  0.00     0.055 A 
ATOM     83  C   UNL A   1      32.517  17.721  22.728  1.00  0.00     0.001 A 
ATOM     84  C   UNL A   1      33.991  17.988  24.641  1.00  0.00     0.027 A 
ATOM     85  C   UNL A   1      33.385  17.176  23.672  1.00  0.00     0.002 A 
BRANCH  82  86
ATOM     86  N   UNL A   1      34.532  20.268  25.428  1.00  0.00    -0.323 N 
ATOM     87  H   UNL A   1      34.210  20.389  26.350  1.00  0.00     0.170 HD
BRANCH  86  88
ATOM     88  C   UNL A   1      35.658  21.007  25.080  1.00  0.00     0.233 A 
ATOM     89  N   UNL A   1      35.544  21.814  24.040  1.00  0.00    -0.182 NA
ATOM     90  N   UNL A   1      36.685  21.010  25.918  1.00  0.00    -0.176 NA
ATOM     91  C   UNL A   1      36.608  22.572  23.846  1.00  0.00     0.228 A 
ATOM     92  C   UNL A   1      37.653  21.883  25.670  1.00  0.00     0.233 A 
ATOM     93  Cl  UNL A   1      36.561  23.598  22.480  1.00  0.00    -0.041 Cl
ATOM     94  N   UNL A   1      37.667  22.694  24.625  1.00  0.00    -0.182 NA
BRANCH  92  95
ATOM     95  N   UNL A   1      38.689  21.887  26.600  1.00  0.00    -0.324 N 
ATOM     96  H   UNL A   1      38.421  22.164  27.506  1.00  0.00     0.170 HD
BRANCH  95  97
ATOM     97  C   UNL A   1      40.039  21.568  26.469  1.00  0.00     0.041 A 
ATOM     98  C   UNL A   1      40.416  20.225  26.556  1.00  0.00     0.028 A 
ATOM     99  C   UNL A   1      41.017  22.508  26.132  1.00  0.00     0.028 A 
ATOM    100  C   UNL A   1      41.717  19.824  26.244  1.00  0.00     0.028 A 
ATOM    101  C   UNL A   1      42.334  22.117  25.865  1.00  0.00     0.028 A 
ATOM    102  C   UNL A   1      42.684  20.764  25.874  1.00  0.00     0.044 A 
BRANCH 102 103
ATOM    103  N   UNL A   1      43.961  20.333  25.414  1.00  0.00    -0.308 N 
ATOM    104  C   UNL A   1      45.031  21.339  25.443  1.00  0.00     0.154 C 
ATOM    105  C   UNL A   1      44.277  18.975  25.298  1.00  0.00     0.253 C 
ATOM    106  C   UNL A   1      46.254  20.928  24.636  1.00  0.00     0.183 C 
ATOM    107  C   UNL A   1      45.735  18.671  24.903  1.00  0.00     0.260 C 
ATOM    108  O   UNL A   1      43.464  18.052  25.375  1.00  0.00    -0.272 OA
ATOM    109  O   UNL A   1      46.726  19.667  25.104  1.00  0.00    -0.370 OA
ENDBRANCH 102 103
ENDBRANCH  95  97
ENDBRANCH  92  95
ENDBRANCH  86  88
ENDBRANCH  82  86
ENDBRANCH  78  80
ENDBRANCH  77  78
ENDBRANCH  76  77
ENDBRANCH  75  76
ENDBRANCH  74  75
ENDBRANCH   1  74
TORSDOF 25
ENDMDL
MODEL 2
REMARK VINA RESULT:     -10.5      6.601     12.722
REMARK SMILES O=C(OCCOCCOCCOC(=O)c1ccccc1Nc1nc(Cl)nc(Nc2ccc(N3CCOCC3=O)cc2)n1)c1ccc(-c2c3nc(c(-c4cccc(S(=O)(=O)[O-])c4F)c4ccc([nH]4)c(-c4cccc(S(=O)(=O)[O-])c4F)c4nc(c(-c5cccc(S(=O)(=O)[O-])c5F)c5ccc2[nH]5)C=C4)C=C3)cc1
REMARK SMILES IDX 8 1 7 2 6 3 5 4 4 5 3 6 2 7 1 8 43 9 44 10 105 11 45 12
REMARK SMILES IDX 104 13 46 14 47 15 48 16 98 17 49 18 103 19 97 20 99 21
REMARK SMILES IDX 50 22 102 23 96 24 95 25 51 27 83 28 63 29 82 30 64 31 67 32
REMARK SMILES IDX 81 33 100 34 65 35 66 36 80 38 101 39 68 40 52 41 53 42
REMARK SMILES IDX 61 43 54 44 56 45 62 46 55 47 57 48 58 49 59 50 60 51 84 52
REMARK SMILES IDX 85 53 93 54 86 55 88 56 94 57 87 58 89 59 90 60 91 61 92 62
REMARK SMILES IDX 69 63 70 64 78 65 71 66 73 67 79 68 72 69 74 70 75 71 76 72
REMARK SMILES IDX 77 73 9 74 10 75 11 76 12 77 13 78 14 79 15 80 16 81 20 82
REMARK SMILES IDX 17 83 19 84 18 85 21 86 22 88 23 89 42 90 24 91 27 92 25 93
REMARK SMILES IDX 26 94 28 95 29 97 30 98 41 99 31 100 40 101 32 102 33 103
REMARK SMILES IDX 34 104 38 105 35 106 37 107 39 108 36 109
REMARK H PARENT 99 26 67 37 21 87 28 96
REMARK Flexibility Score: inf
ROOT
ATOM      1  C   UNL A   1      37.437  33.448  37.799  1.00  0.00     0.188 C 
ENDROOT
BRANCH   1   2
ATOM      2  C   UNL A   1      37.301  32.535  39.018  1.00  0.00     0.188 C 
BRANCH   2   3
ATOM      3  O   UNL A   1      37.197  33.308  40.218  1.00  0.00    -0.376 OA
BRANCH   3   4
ATOM      4  C   UNL A   1      38.259  33.075  41.146  1.00  0.00     0.202 C 
BRANCH   4   5
ATOM      5  C   UNL A   1      38.467  34.197  42.172  1.00  0.00     0.261 C 
BRANCH   5   6
ATOM      6  O   UNL A   1      38.364  35.504  41.584  1.00  0.00    -0.460 OA
BRANCH   6   7
ATOM      7  C   UNL A   1      39.382  36.296  41.154  1.00  0.00     0.338 C 
ATOM      8  O   UNL A   1      39.883  37.094  41.945  1.00  0.00    -0.246 OA
BRANCH   7   9
ATOM      9  C   UNL A   1      39.959  36.201  39.780  1.00  0.00     0.060 A 
ATOM     10  C   UNL A   1      39.281  36.553  38.611  1.00  0.00     0.016 A 
ATOM     11  C   UNL A   1      41.301  35.803  39.669  1.00  0.00     0.016 A 
ATOM     12  C   UNL A   1      39.866  36.392  37.359  1.00  0.00     0.010 A 
ATOM     13  C   UNL A   1      41.921  35.715  38.417  1.00  0.00     0.010 A 
ATOM     14  C   UNL A   1      41.193  35.976  37.250  1.00  0.00    -0.014 A 
BRANCH  14  15
ATOM     15  C   UNL A   1      41.791  35.803  35.908  1.00  0.00     0.031 A 
ATOM     16  C   UNL A   1      42.520  36.944  35.270  1.00  0.00     0.074 A 
ATOM     17  C   UNL A   1      41.718  34.610  35.288  1.00  0.00     0.049 A 
ATOM     18  N   UNL A   1      43.080  37.000  34.092  1.00  0.00    -0.248 NA
ATOM     19  C   UNL A   1      42.656  38.176  36.065  1.00  0.00     0.031 C 
ATOM     20  C   UNL A   1      41.099  33.412  35.852  1.00  0.00     0.029 A 
ATOM     21  N   UNL A   1      42.162  34.204  34.054  1.00  0.00    -0.354 N 
ATOM     22  C   UNL A   1      43.595  38.283  33.984  1.00  0.00     0.074 A 
ATOM     23  C   UNL A   1      43.296  38.972  35.220  1.00  0.00     0.031 C 
ATOM     24  C   UNL A   1      41.202  32.414  34.963  1.00  0.00     0.029 A 
ATOM     25  C   UNL A   1      41.811  32.911  33.745  1.00  0.00     0.049 A 
ATOM     26  H   UNL A   1      42.681  34.782  33.449  1.00  0.00     0.167 HD
ATOM     27  C   UNL A   1      44.262  38.831  32.944  1.00  0.00     0.034 A 
ATOM     28  C   UNL A   1      41.918  32.207  32.602  1.00  0.00     0.034 A 
ATOM     29  C   UNL A   1      44.578  38.127  31.732  1.00  0.00     0.049 A 
ATOM     30  C   UNL A   1      42.600  32.865  31.441  1.00  0.00     0.074 A 
ATOM     31  C   UNL A   1      45.283  38.579  30.633  1.00  0.00     0.029 A 
ATOM     32  N   UNL A   1      44.189  36.824  31.454  1.00  0.00    -0.354 N 
ATOM     33  N   UNL A   1      43.164  34.047  31.389  1.00  0.00    -0.248 NA
ATOM     34  C   UNL A   1      42.684  32.096  30.194  1.00  0.00     0.031 C 
ATOM     35  C   UNL A   1      45.293  37.560  29.675  1.00  0.00     0.029 A 
ATOM     36  C   UNL A   1      44.610  36.467  30.186  1.00  0.00     0.049 A 
ATOM     37  H   UNL A   1      43.688  36.239  32.068  1.00  0.00     0.167 HD
ATOM     38  C   UNL A   1      43.692  34.158  30.112  1.00  0.00     0.074 A 
ATOM     39  C   UNL A   1      43.405  32.910  29.432  1.00  0.00     0.031 C 
ATOM     40  C   UNL A   1      44.339  35.205  29.546  1.00  0.00     0.034 A 
BRANCH  27  41
ATOM     41  C   UNL A   1      44.677  40.268  33.070  1.00  0.00     0.023 A 
ATOM     42  C   UNL A   1      45.983  40.591  33.487  1.00  0.00     0.012 A 
ATOM     43  C   UNL A   1      43.771  41.297  32.750  1.00  0.00     0.148 A 
ATOM     44  C   UNL A   1      46.376  41.924  33.601  1.00  0.00     0.002 A 
ATOM     45  C   UNL A   1      44.179  42.621  32.836  1.00  0.00     0.091 A 
ATOM     46  F   UNL A   1      42.527  40.959  32.381  1.00  0.00    -0.205 F 
ATOM     47  C   UNL A   1      45.479  42.937  33.269  1.00  0.00     0.022 A 
BRANCH  45  48
ATOM     48  S   UNL A   1      43.115  43.996  32.393  1.00  0.00     0.127 S 
ATOM     49  O   UNL A   1      42.286  44.126  33.591  1.00  0.00    -0.237 OA
ATOM     50  O   UNL A   1      44.080  45.078  32.199  1.00  0.00    -0.237 OA
ATOM     51  O   UNL A   1      42.402  43.586  31.191  1.00  0.00    -0.744 OA
ENDBRANCH  45  48
ENDBRANCH  27  41
BRANCH  28  52
ATOM     52  C   UNL A   1      41.366  30.822  32.508  1.00  0.00     0.023 A 
ATOM     53  C   UNL A   1      42.198  29.716  32.764  1.00  0.00     0.012 A 
ATOM     54  C   UNL A   1      40.009  30.593  32.192  1.00  0.00     0.148 A 
ATOM     55  C   UNL A   1      41.698  28.413  32.694  1.00  0.00     0.002 A 
ATOM     56  C   UNL A   1      39.507  29.296  32.168  1.00  0.00     0.091 A 
ATOM     57  F   UNL A   1      39.227  31.651  31.933  1.00  0.00    -0.205 F 
ATOM     58  C   UNL A   1      40.352  28.203  32.407  1.00  0.00     0.022 A 
BRANCH  56  59
ATOM     59  S   UNL A   1      37.759  28.947  31.931  1.00  0.00     0.127 S 
ATOM     60  O   UNL A   1      37.784  28.044  30.785  1.00  0.00    -0.237 OA
ATOM     61  O   UNL A   1      37.403  28.320  33.205  1.00  0.00    -0.237 OA
ATOM     62  O   UNL A   1      37.133  30.243  31.710  1.00  0.00    -0.744 OA
ENDBRANCH  56  59
ENDBRANCH  28  52
BRANCH  40  63
ATOM     63  C   UNL A   1      44.776  35.042  28.120  1.00  0.00     0.023 A 
ATOM     64  C   UNL A   1      43.845  35.259  27.085  1.00  0.00     0.012 A 
ATOM     65  C   UNL A   1      46.114  34.741  27.805  1.00  0.00     0.148 A 
ATOM     66  C   UNL A   1      44.236  35.153  25.753  1.00  0.00     0.002 A 
ATOM     67  C   UNL A   1      46.507  34.685  26.475  1.00  0.00     0.091 A 
ATOM     68  F   UNL A   1      46.973  34.518  28.811  1.00  0.00    -0.205 F 
ATOM     69  C   UNL A   1      45.568  34.880  25.448  1.00  0.00     0.022 A 
BRANCH  67  70
ATOM     70  S   UNL A   1      48.217  34.433  25.992  1.00  0.00     0.127 S 
ATOM     71  O   UNL A   1      48.930  35.205  27.007  1.00  0.00    -0.237 OA
ATOM     72  O   UNL A   1      48.362  32.982  26.115  1.00  0.00    -0.237 OA
ATOM     73  O   UNL A   1      48.327  34.937  24.629  1.00  0.00    -0.744 OA
ENDBRANCH  67  70
ENDBRANCH  40  63
ENDBRANCH  14  15
ENDBRANCH   7   9
ENDBRANCH   6   7
ENDBRANCH   5   6
ENDBRANCH   4   5
ENDBRANCH   3   4
ENDBRANCH   2   3
ENDBRANCH   1   2
BRANCH   1  74
ATOM     74  O   UNL A   1      36.674  33.059  36.656  1.00  0.00    -0.376 OA
BRANCH  74  75
ATOM     75  C   UNL A   1      37.280  33.213  35.376  1.00  0.00     0.202 C 
BRANCH  75  76
ATOM     76  C   UNL A   1      36.365  33.488  34.177  1.00  0.00     0.261 C 
BRANCH  76  77
ATOM     77  O   UNL A   1      35.187  34.265  34.442  1.00  0.00    -0.460 OA
BRANCH  77  78
ATOM     78  C   UNL A   1      34.220  34.124  33.503  1.00  0.00     0.340 C 
ATOM     79  O   UNL A   1      33.524  33.127  33.305  1.00  0.00    -0.246 OA
BRANCH  78  80
ATOM     80  C   UNL A   1      34.123  35.322  32.668  1.00  0.00     0.083 A 
ATOM     81  C   UNL A   1      34.326  36.579  33.248  1.00  0.00     0.018 A 
ATOM     82  C   UNL A   1      33.622  35.176  31.362  1.00  0.00     0.055 A 
ATOM     83  C   UNL A   1      33.964  37.718  32.537  1.00  0.00     0.001 A 
ATOM     84  C   UNL A   1      33.113  36.317  30.743  1.00  0.00     0.027 A 
ATOM     85  C   UNL A   1      33.314  37.583  31.310  1.00  0.00     0.002 A 
BRANCH  82  86
ATOM     86  N   UNL A   1      33.652  33.905  30.747  1.00  0.00    -0.323 N 
ATOM     87  H   UNL A   1      32.864  33.336  30.901  1.00  0.00     0.170 HD
BRANCH  86  88
ATOM     88  C   UNL A   1      34.651  33.350  29.955  1.00  0.00     0.233 A 
ATOM     89  N   UNL A   1      35.822  33.963  29.953  1.00  0.00    -0.182 NA
ATOM     90  N   UNL A   1      34.435  32.153  29.426  1.00  0.00    -0.176 NA
ATOM     91  C   UNL A   1      36.754  33.312  29.280  1.00  0.00     0.228 A 
ATOM     92  C   UNL A   1      35.474  31.557  28.855  1.00  0.00     0.233 A 
ATOM     93  Cl  UNL A   1      38.279  34.075  29.180  1.00  0.00    -0.041 Cl
ATOM     94  N   UNL A   1      36.673  32.106  28.747  1.00  0.00    -0.182 NA
BRANCH  92  95
ATOM     95  N   UNL A   1      35.216  30.285  28.356  1.00  0.00    -0.324 N 
ATOM     96  H   UNL A   1      35.688  29.560  28.826  1.00  0.00     0.170 HD
BRANCH  95  97
ATOM     97  C   UNL A   1      34.405  29.860  27.305  1.00  0.00     0.041 A 
ATOM     98  C   UNL A   1      34.852  28.802  26.508  1.00  0.00     0.028 A 
ATOM     99  C   UNL A   1      33.117  30.354  27.084  1.00  0.00     0.028 A 
ATOM    100  C   UNL A   1      34.008  28.208  25.567  1.00  0.00     0.028 A 
ATOM    101  C   UNL A   1      32.284  29.793  26.110  1.00  0.00     0.028 A 
ATOM    102  C   UNL A   1      32.707  28.683  25.374  1.00  0.00     0.044 A 
BRANCH 102 103
ATOM    103  N   UNL A   1      31.807  27.979  24.524  1.00  0.00    -0.308 N 
ATOM    104  C   UNL A   1      30.731  27.237  25.196  1.00  0.00     0.154 C 
ATOM    105  C   UNL A   1      31.716  28.264  23.158  1.00  0.00     0.253 C 
ATOM    106  C   UNL A   1      30.028  26.250  24.277  1.00  0.00     0.183 C 
ATOM    107  C   UNL A   1      30.612  27.501  22.400  1.00  0.00     0.260 C 
ATOM    108  O   UNL A   1      32.507  28.970  22.529  1.00  0.00    -0.272 OA
ATOM    109  O   UNL A   1      29.535  26.940  23.132  1.00  0.00    -0.370 OA
ENDBRANCH 102 103
ENDBRANCH  95  97
ENDBRANCH  92  95
ENDBRANCH  86  88
ENDBRANCH  82  86
ENDBRANCH  78  80
ENDBRANCH  77  78
ENDBRANCH  76  77
ENDBRANCH  75  76
ENDBRANCH  74  75
ENDBRANCH   1  74
TORSDOF 25
ENDMDL
MODEL 3
REMARK VINA RESULT:     -10.3      1.968      2.254
REMARK SMILES O=C(OCCOCCOCCOC(=O)c1ccccc1Nc1nc(Cl)nc(Nc2ccc(N3CCOCC3=O)cc2)n1)c1ccc(-c2c3nc(c(-c4cccc(S(=O)(=O)[O-])c4F)c4ccc([nH]4)c(-c4cccc(S(=O)(=O)[O-])c4F)c4nc(c(-c5cccc(S(=O)(=O)[O-])c5F)c5ccc2[nH]5)C=C4)C=C3)cc1
REMARK SMILES IDX 8 1 7 2 6 3 5 4 4 5 3 6 2 7 1 8 43 9 44 10 105 11 45 12
REMARK SMILES IDX 104 13 46 14 47 15 48 16 98 17 49 18 103 19 97 20 99 21
REMARK SMILES IDX 50 22 102 23 96 24 95 25 51 27 83 28 63 29 82 30 64 31 67 32
REMARK SMILES IDX 81 33 100 34 65 35 66 36 80 38 101 39 68 40 52 41 53 42
REMARK SMILES IDX 61 43 54 44 56 45 62 46 55 47 57 48 58 49 59 50 60 51 84 52
REMARK SMILES IDX 85 53 93 54 86 55 88 56 94 57 87 58 89 59 90 60 91 61 92 62
REMARK SMILES IDX 69 63 70 64 78 65 71 66 73 67 79 68 72 69 74 70 75 71 76 72
REMARK SMILES IDX 77 73 9 74 10 75 11 76 12 77 13 78 14 79 15 80 16 81 20 82
REMARK SMILES IDX 17 83 19 84 18 85 21 86 22 88 23 89 42 90 24 91 27 92 25 93
REMARK SMILES IDX 26 94 28 95 29 97 30 98 41 99 31 100 40 101 32 102 33 103
REMARK SMILES IDX 34 104 38 105 35 106 37 107 39 108 36 109
REMARK H PARENT 99 26 67 37 21 87 28 96
REMARK Flexibility Score: inf
ROOT
ATOM      1  C   UNL A   1      30.550  26.397  24.605  1.00  0.00     0.188 C 
ENDROOT
BRANCH   1   2
ATOM      2  C   UNL A   1      31.414  27.472  23.946  1.00  0.00     0.188 C 
BRANCH   2   3
ATOM      3  O   UNL A   1      31.382  28.683  24.710  1.00  0.00    -0.376 OA
BRANCH   3   4
ATOM      4  C   UNL A   1      32.668  29.110  25.164  1.00  0.00     0.202 C 
BRANCH   4   5
ATOM      5  C   UNL A   1      32.657  29.839  26.514  1.00  0.00     0.261 C 
BRANCH   5   6
ATOM      6  O   UNL A   1      33.909  29.724  27.209  1.00  0.00    -0.460 OA
BRANCH   6   7
ATOM      7  C   UNL A   1      34.755  30.731  27.552  1.00  0.00     0.338 C 
ATOM      8  O   UNL A   1      34.505  31.871  27.161  1.00  0.00    -0.246 OA
BRANCH   7   9
ATOM      9  C   UNL A   1      35.946  30.529  28.430  1.00  0.00     0.060 A 
ATOM     10  C   UNL A   1      37.096  31.319  28.397  1.00  0.00     0.016 A 
ATOM     11  C   UNL A   1      35.866  29.521  29.404  1.00  0.00     0.016 A 
ATOM     12  C   UNL A   1      38.189  31.041  29.213  1.00  0.00     0.010 A 
ATOM     13  C   UNL A   1      36.931  29.286  30.281  1.00  0.00     0.010 A 
ATOM     14  C   UNL A   1      38.115  30.026  30.166  1.00  0.00    -0.014 A 
BRANCH  14  15
ATOM     15  C   UNL A   1      39.292  29.741  31.016  1.00  0.00     0.031 A 
ATOM     16  C   UNL A   1      39.424  30.415  32.346  1.00  0.00     0.074 A 
ATOM     17  C   UNL A   1      40.212  28.844  30.613  1.00  0.00     0.049 A 
ATOM     18  N   UNL A   1      40.394  30.324  33.216  1.00  0.00    -0.248 NA
ATOM     19  C   UNL A   1      38.317  31.290  32.763  1.00  0.00     0.031 C 
ATOM     20  C   UNL A   1      40.140  28.074  29.372  1.00  0.00     0.029 A 
ATOM     21  N   UNL A   1      41.384  28.429  31.194  1.00  0.00    -0.354 N 
ATOM     22  C   UNL A   1      40.037  31.162  34.262  1.00  0.00     0.074 A 
ATOM     23  C   UNL A   1      38.756  31.744  33.928  1.00  0.00     0.031 C 
ATOM     24  C   UNL A   1      41.222  27.288  29.291  1.00  0.00     0.029 A 
ATOM     25  C   UNL A   1      42.099  27.551  30.414  1.00  0.00     0.049 A 
ATOM     26  H   UNL A   1      41.684  28.729  32.083  1.00  0.00     0.167 HD
ATOM     27  C   UNL A   1      40.722  31.416  35.400  1.00  0.00     0.034 A 
ATOM     28  C   UNL A   1      43.339  27.042  30.551  1.00  0.00     0.034 A 
ATOM     29  C   UNL A   1      41.981  30.810  35.731  1.00  0.00     0.049 A 
ATOM     30  C   UNL A   1      44.104  27.398  31.790  1.00  0.00     0.074 A 
ATOM     31  C   UNL A   1      42.738  30.970  36.876  1.00  0.00     0.029 A 
ATOM     32  N   UNL A   1      42.678  29.939  34.906  1.00  0.00    -0.354 N 
ATOM     33  N   UNL A   1      43.711  28.117  32.812  1.00  0.00    -0.248 NA
ATOM     34  C   UNL A   1      45.464  26.860  31.912  1.00  0.00     0.031 C 
ATOM     35  C   UNL A   1      43.910  30.222  36.730  1.00  0.00     0.029 A 
ATOM     36  C   UNL A   1      43.874  29.581  35.501  1.00  0.00     0.049 A 
ATOM     37  H   UNL A   1      42.368  29.622  34.027  1.00  0.00     0.167 HD
ATOM     38  C   UNL A   1      44.765  28.102  33.713  1.00  0.00     0.074 A 
ATOM     39  C   UNL A   1      45.803  27.276  33.126  1.00  0.00     0.031 C 
ATOM     40  C   UNL A   1      44.874  28.730  34.908  1.00  0.00     0.034 A 
BRANCH  27  41
ATOM     41  C   UNL A   1      40.125  32.406  36.356  1.00  0.00     0.023 A 
ATOM     42  C   UNL A   1      39.255  31.968  37.374  1.00  0.00     0.012 A 
ATOM     43  C   UNL A   1      40.451  33.772  36.257  1.00  0.00     0.148 A 
ATOM     44  C   UNL A   1      38.701  32.882  38.270  1.00  0.00     0.002 A 
ATOM     45  C   UNL A   1      39.921  34.672  37.171  1.00  0.00     0.091 A 
ATOM     46  F   UNL A   1      41.262  34.163  35.263  1.00  0.00    -0.205 F 
ATOM     47  C   UNL A   1      39.040  34.230  38.173  1.00  0.00     0.022 A 
BRANCH  45  48
ATOM     48  S   UNL A   1      40.325  36.421  37.159  1.00  0.00     0.127 S 
ATOM     49  O   UNL A   1      39.512  36.918  38.269  1.00  0.00    -0.237 OA
ATOM     50  O   UNL A   1      41.764  36.402  37.418  1.00  0.00    -0.237 OA
ATOM     51  O   UNL A   1      39.943  36.916  35.844  1.00  0.00    -0.744 OA
ENDBRANCH  45  48
ENDBRANCH  27  41
BRANCH  28  52
ATOM     52  C   UNL A   1      43.921  26.163  29.493  1.00  0.00     0.023 A 
ATOM     53  C   UNL A   1      43.804  24.765  29.600  1.00  0.00     0.012 A 
ATOM     54  C   UNL A   1      44.569  26.706  28.362  1.00  0.00     0.148 A 
ATOM     55  C   UNL A   1      44.329  23.925  28.615  1.00  0.00     0.002 A 
ATOM     56  C   UNL A   1      45.051  25.867  27.363  1.00  0.00     0.091 A 
ATOM     57  F   UNL A   1      44.692  28.038  28.276  1.00  0.00    -0.205 F 
ATOM     58  C   UNL A   1      44.943  24.474  27.493  1.00  0.00     0.022 A 
BRANCH  56  59
ATOM     59  S   UNL A   1      45.741  26.497  25.828  1.00  0.00     0.127 S 
ATOM     60  O   UNL A   1      47.175  26.369  26.065  1.00  0.00    -0.237 OA
ATOM     61  O   UNL A   1      45.191  25.563  24.844  1.00  0.00    -0.237 OA
ATOM     62  O   UNL A   1      45.233  27.857  25.706  1.00  0.00    -0.744 OA
ENDBRANCH  56  59
ENDBRANCH  28  52
BRANCH  40  63
ATOM     63  C   UNL A   1      46.162  28.548  35.656  1.00  0.00     0.023 A 
ATOM     64  C   UNL A   1      46.285  27.482  36.569  1.00  0.00     0.012 A 
ATOM     65  C   UNL A   1      47.265  29.385  35.406  1.00  0.00     0.148 A 
ATOM     66  C   UNL A   1      47.483  27.268  37.244  1.00  0.00     0.002 A 
ATOM     67  C   UNL A   1      48.470  29.135  36.048  1.00  0.00     0.091 A 
ATOM     68  F   UNL A   1      47.114  30.405  34.549  1.00  0.00    -0.205 F 
ATOM     69  C   UNL A   1      48.578  28.085  36.975  1.00  0.00     0.022 A 
BRANCH  67  70
ATOM     70  S   UNL A   1      49.958  30.077  35.692  1.00  0.00     0.127 S 
ATOM     71  O   UNL A   1      50.296  30.608  37.011  1.00  0.00    -0.237 OA
ATOM     72  O   UNL A   1      50.867  29.042  35.199  1.00  0.00    -0.237 OA
ATOM     73  O   UNL A   1      49.575  31.069  34.696  1.00  0.00    -0.744 OA
ENDBRANCH  67  70
ENDBRANCH  40  63
ENDBRANCH  14  15
ENDBRANCH   7   9
ENDBRANCH   6   7
ENDBRANCH   5   6
ENDBRANCH   4   5
ENDBRANCH   3   4
ENDBRANCH   2   3
ENDBRANCH   1   2
BRANCH   1  74
ATOM     74  O   UNL A   1      30.835  25.055  24.207  1.00  0.00    -0.376 OA
BRANCH  74  75
ATOM     75  C   UNL A   1      30.865  24.059  25.225  1.00  0.00     0.202 C 
BRANCH  75  76
ATOM     76  C   UNL A   1      32.128  23.197  25.348  1.00  0.00     0.261 C 
BRANCH  76  77
ATOM     77  O   UNL A   1      31.979  21.804  25.037  1.00  0.00    -0.460 OA
BRANCH  77  78
ATOM     78  C   UNL A   1      32.396  21.477  23.791  1.00  0.00     0.340 C 
ATOM     79  O   UNL A   1      32.391  22.205  22.796  1.00  0.00    -0.246 OA
BRANCH  78  80
ATOM     80  C   UNL A   1      32.823  20.078  23.731  1.00  0.00     0.083 A 
ATOM     81  C   UNL A   1      32.211  19.214  22.817  1.00  0.00     0.018 A 
ATOM     82  C   UNL A   1      33.684  19.609  24.740  1.00  0.00     0.055 A 
ATOM     83  C   UNL A   1      32.407  17.843  22.947  1.00  0.00     0.001 A 
ATOM     84  C   UNL A   1      33.727  18.231  24.950  1.00  0.00     0.027 A 
ATOM     85  C   UNL A   1      33.123  17.354  24.039  1.00  0.00     0.002 A 
BRANCH  82  86
ATOM     86  N   UNL A   1      34.449  20.534  25.483  1.00  0.00    -0.323 N 
ATOM     87  H   UNL A   1      34.101  20.756  26.377  1.00  0.00     0.170 HD
BRANCH  86  88
ATOM     88  C   UNL A   1      35.628  21.174  25.118  1.00  0.00     0.233 A 
ATOM     89  N   UNL A   1      35.579  21.951  24.050  1.00  0.00    -0.182 NA
ATOM     90  N   UNL A   1      36.649  21.129  25.963  1.00  0.00    -0.176 NA
ATOM     91  C   UNL A   1      36.699  22.621  23.838  1.00  0.00     0.228 A 
ATOM     92  C   UNL A   1      37.681  21.917  25.692  1.00  0.00     0.233 A 
ATOM     93  Cl  UNL A   1      36.734  23.600  22.439  1.00  0.00    -0.041 Cl
ATOM     94  N   UNL A   1      37.761  22.689  24.621  1.00  0.00    -0.182 NA
BRANCH  92  95
ATOM     95  N   UNL A   1      38.710  21.875  26.628  1.00  0.00    -0.324 N 
ATOM     96  H   UNL A   1      38.460  22.202  27.523  1.00  0.00     0.170 HD
BRANCH  95  97
ATOM     97  C   UNL A   1      40.033  21.452  26.517  1.00  0.00     0.041 A 
ATOM     98  C   UNL A   1      40.280  20.095  26.293  1.00  0.00     0.028 A 
ATOM     99  C   UNL A   1      41.118  22.333  26.495  1.00  0.00     0.028 A 
ATOM    100  C   UNL A   1      41.564  19.642  25.982  1.00  0.00     0.028 A 
ATOM    101  C   UNL A   1      42.415  21.877  26.232  1.00  0.00     0.028 A 
ATOM    102  C   UNL A   1      42.641  20.532  25.927  1.00  0.00     0.044 A 
BRANCH 102 103
ATOM    103  N   UNL A   1      43.913  20.088  25.465  1.00  0.00    -0.308 N 
ATOM    104  C   UNL A   1      44.232  18.675  25.713  1.00  0.00     0.154 C 
ATOM    105  C   UNL A   1      44.646  20.818  24.524  1.00  0.00     0.253 C 
ATOM    106  C   UNL A   1      45.705  18.355  25.509  1.00  0.00     0.183 C 
ATOM    107  C   UNL A   1      45.943  20.145  24.036  1.00  0.00     0.260 C 
ATOM    108  O   UNL A   1      44.388  21.969  24.166  1.00  0.00    -0.272 OA
ATOM    109  O   UNL A   1      46.096  18.744  24.195  1.00  0.00    -0.370 OA
ENDBRANCH 102 103
ENDBRANCH  95  97
ENDBRANCH  92  95
ENDBRANCH  86  88
ENDBRANCH  82  86
ENDBRANCH  78  80
ENDBRANCH  77  78
ENDBRANCH  76  77
ENDBRANCH  75  76
ENDBRANCH  74  75
ENDBRANCH   1  74
TORSDOF 25
ENDMDL
