MODEL 1
REMARK VINA RESULT:     -11.0      0.000      0.000
REMARK SMILES O=C(OCCOCCOCCOC(=O)[C@@H]1[NH2+]CC[C@H]1c1cccc2cccnc12)c1ccc(-c2c3nc(c(-c4cccc(S(=O)(=O)[O-])c4F)c4ccc([nH]4)c(-c4cccc(S(=O)(=O)[O-])c4F)c4nc(c(-c5cccc(S(=O)(=O)[O-])c5F)c5ccc2[nH]5)C=C4)C=C3)cc1
REMARK SMILES IDX 7 1 6 2 5 3 4 4 3 5 2 6 1 7 30 8 31 9 92 10 32 11 91 12
REMARK SMILES IDX 33 13 34 14 35 15 85 16 36 17 90 18 84 19 86 20 37 21 89 22
REMARK SMILES IDX 83 23 82 24 38 26 70 27 50 28 69 29 51 30 54 31 68 32 87 33
REMARK SMILES IDX 52 34 53 35 67 37 88 38 55 39 39 40 40 41 48 42 41 43 43 44
REMARK SMILES IDX 49 45 42 46 44 47 45 48 46 49 47 50 71 51 72 52 80 53 73 54
REMARK SMILES IDX 75 55 81 56 74 57 76 58 77 59 78 60 79 61 56 62 57 63 65 64
REMARK SMILES IDX 58 65 60 66 66 67 59 68 61 69 62 70 63 71 64 72 8 73 9 74
REMARK SMILES IDX 10 75 11 76 12 77 13 78 14 79 15 80 16 81 19 82 17 83 18 86
REMARK SMILES IDX 20 87 21 88 29 89 22 90 24 91 28 92 23 93 25 94 27 95 26 96
REMARK H PARENT 86 25 54 36 16 84 16 85
REMARK Flexibility Score: inf
ROOT
ATOM      1  C   UNL A   1      46.675  20.830  39.098  1.00  0.00     0.188 C 
ENDROOT
BRANCH   1   2
ATOM      2  O   UNL A   1      46.652  22.113  38.473  1.00  0.00    -0.376 OA
BRANCH   2   3
ATOM      3  C   UNL A   1      47.386  22.213  37.251  1.00  0.00     0.202 C 
BRANCH   3   4
ATOM      4  C   UNL A   1      47.942  23.602  36.864  1.00  0.00     0.261 C 
BRANCH   4   5
ATOM      5  O   UNL A   1      46.981  24.678  36.895  1.00  0.00    -0.460 OA
BRANCH   5   6
ATOM      6  C   UNL A   1      47.033  25.883  36.265  1.00  0.00     0.338 C 
ATOM      7  O   UNL A   1      48.113  26.463  36.176  1.00  0.00    -0.246 OA
BRANCH   6   8
ATOM      8  C   UNL A   1      45.824  26.531  35.677  1.00  0.00     0.060 A 
ATOM      9  C   UNL A   1      44.556  25.979  35.764  1.00  0.00     0.016 A 
ATOM     10  C   UNL A   1      45.946  27.776  35.041  1.00  0.00     0.016 A 
ATOM     11  C   UNL A   1      43.477  26.502  35.090  1.00  0.00     0.010 A 
ATOM     12  C   UNL A   1      44.825  28.389  34.458  1.00  0.00     0.010 A 
ATOM     13  C   UNL A   1      43.592  27.722  34.441  1.00  0.00    -0.014 A 
BRANCH  13  14
ATOM     14  C   UNL A   1      42.415  28.164  33.668  1.00  0.00     0.031 A 
ATOM     15  C   UNL A   1      41.441  29.087  34.329  1.00  0.00     0.074 A 
ATOM     16  C   UNL A   1      42.352  27.919  32.343  1.00  0.00     0.049 A 
ATOM     17  N   UNL A   1      40.371  29.639  33.831  1.00  0.00    -0.248 NA
ATOM     18  C   UNL A   1      41.733  29.483  35.720  1.00  0.00     0.031 C 
ATOM     19  C   UNL A   1      43.366  27.194  31.569  1.00  0.00     0.029 A 
ATOM     20  N   UNL A   1      41.426  28.274  31.400  1.00  0.00    -0.354 N 
ATOM     21  C   UNL A   1      39.854  30.432  34.845  1.00  0.00     0.074 A 
ATOM     22  C   UNL A   1      40.712  30.278  35.997  1.00  0.00     0.031 C 
ATOM     23  C   UNL A   1      43.000  27.153  30.279  1.00  0.00     0.029 A 
ATOM     24  C   UNL A   1      41.692  27.759  30.152  1.00  0.00     0.049 A 
ATOM     25  H   UNL A   1      40.647  28.843  31.595  1.00  0.00     0.167 HD
ATOM     26  C   UNL A   1      38.769  31.234  34.804  1.00  0.00     0.034 A 
ATOM     27  C   UNL A   1      40.937  27.732  29.040  1.00  0.00     0.034 A 
ATOM     28  C   UNL A   1      37.934  31.364  33.643  1.00  0.00     0.049 A 
ATOM     29  C   UNL A   1      39.646  28.482  29.077  1.00  0.00     0.074 A 
ATOM     30  C   UNL A   1      36.770  32.091  33.495  1.00  0.00     0.029 A 
ATOM     31  N   UNL A   1      38.177  30.737  32.428  1.00  0.00    -0.354 N 
ATOM     32  N   UNL A   1      39.150  29.202  30.054  1.00  0.00    -0.248 NA
ATOM     33  C   UNL A   1      38.841  28.467  27.853  1.00  0.00     0.031 C 
ATOM     34  C   UNL A   1      36.288  31.874  32.199  1.00  0.00     0.029 A 
ATOM     35  C   UNL A   1      37.176  31.048  31.526  1.00  0.00     0.049 A 
ATOM     36  H   UNL A   1      38.949  30.157  32.237  1.00  0.00     0.167 HD
ATOM     37  C   UNL A   1      37.991  29.766  29.550  1.00  0.00     0.074 A 
ATOM     38  C   UNL A   1      37.871  29.310  28.177  1.00  0.00     0.031 C 
ATOM     39  C   UNL A   1      37.105  30.585  30.164  1.00  0.00     0.034 A 
BRANCH  26  40
ATOM     40  C   UNL A   1      38.424  31.988  36.057  1.00  0.00     0.023 A 
ATOM     41  C   UNL A   1      38.738  33.358  36.169  1.00  0.00     0.012 A 
ATOM     42  C   UNL A   1      37.795  31.330  37.130  1.00  0.00     0.148 A 
ATOM     43  C   UNL A   1      38.459  34.054  37.345  1.00  0.00     0.002 A 
ATOM     44  C   UNL A   1      37.481  32.041  38.281  1.00  0.00     0.091 A 
ATOM     45  F   UNL A   1      37.537  30.020  37.011  1.00  0.00    -0.205 F 
ATOM     46  C   UNL A   1      37.822  33.398  38.396  1.00  0.00     0.022 A 
BRANCH  44  47
ATOM     47  S   UNL A   1      36.611  31.302  39.667  1.00  0.00     0.127 S 
ATOM     48  O   UNL A   1      37.304  30.019  39.799  1.00  0.00    -0.237 OA
ATOM     49  O   UNL A   1      36.884  32.257  40.740  1.00  0.00    -0.237 OA
ATOM     50  O   UNL A   1      35.214  31.210  39.267  1.00  0.00    -0.744 OA
ENDBRANCH  44  47
ENDBRANCH  26  40
BRANCH  27  51
ATOM     51  C   UNL A   1      41.355  26.961  27.837  1.00  0.00     0.023 A 
ATOM     52  C   UNL A   1      41.849  27.630  26.703  1.00  0.00     0.012 A 
ATOM     53  C   UNL A   1      41.229  25.558  27.807  1.00  0.00     0.148 A 
ATOM     54  C   UNL A   1      42.185  26.914  25.551  1.00  0.00     0.002 A 
ATOM     55  C   UNL A   1      41.610  24.846  26.676  1.00  0.00     0.091 A 
ATOM     56  F   UNL A   1      40.733  24.947  28.892  1.00  0.00    -0.205 F 
ATOM     57  C   UNL A   1      42.071  25.525  25.539  1.00  0.00     0.022 A 
BRANCH  55  58
ATOM     58  S   UNL A   1      41.539  23.052  26.589  1.00  0.00     0.127 S 
ATOM     59  O   UNL A   1      42.271  22.777  25.352  1.00  0.00    -0.237 OA
ATOM     60  O   UNL A   1      42.241  22.675  27.813  1.00  0.00    -0.237 OA
ATOM     61  O   UNL A   1      40.122  22.714  26.539  1.00  0.00    -0.744 OA
ENDBRANCH  55  58
ENDBRANCH  27  51
BRANCH  39  62
ATOM     62  C   UNL A   1      35.955  31.063  29.330  1.00  0.00     0.023 A 
ATOM     63  C   UNL A   1      35.265  30.158  28.499  1.00  0.00     0.012 A 
ATOM     64  C   UNL A   1      35.545  32.406  29.397  1.00  0.00     0.148 A 
ATOM     65  C   UNL A   1      34.206  30.598  27.711  1.00  0.00     0.002 A 
ATOM     66  C   UNL A   1      34.450  32.822  28.655  1.00  0.00     0.091 A 
ATOM     67  F   UNL A   1      36.238  33.250  30.174  1.00  0.00    -0.205 F 
ATOM     68  C   UNL A   1      33.791  31.926  27.798  1.00  0.00     0.022 A 
BRANCH  66  69
ATOM     69  S   UNL A   1      33.783  34.482  28.793  1.00  0.00     0.127 S 
ATOM     70  O   UNL A   1      32.580  34.387  27.970  1.00  0.00    -0.237 OA
ATOM     71  O   UNL A   1      33.534  34.594  30.231  1.00  0.00    -0.237 OA
ATOM     72  O   UNL A   1      34.819  35.374  28.289  1.00  0.00    -0.744 OA
ENDBRANCH  66  69
ENDBRANCH  39  62
ENDBRANCH  13  14
ENDBRANCH   6   8
ENDBRANCH   5   6
ENDBRANCH   4   5
ENDBRANCH   3   4
ENDBRANCH   2   3
ENDBRANCH   1   2
BRANCH   1  73
ATOM     73  C   UNL A   1      46.426  19.664  38.139  1.00  0.00     0.188 C 
BRANCH  73  74
ATOM     74  O   UNL A   1      45.710  18.544  38.659  1.00  0.00    -0.376 OA
BRANCH  74  75
ATOM     75  C   UNL A   1      46.164  18.023  39.904  1.00  0.00     0.202 C 
BRANCH  75  76
ATOM     76  C   UNL A   1      45.191  17.980  41.099  1.00  0.00     0.261 C 
BRANCH  76  77
ATOM     77  O   UNL A   1      45.376  16.890  42.017  1.00  0.00    -0.459 OA
BRANCH  77  78
ATOM     78  C   UNL A   1      44.993  17.137  43.313  1.00  0.00     0.365 C 
ATOM     79  O   UNL A   1      45.070  18.233  43.843  1.00  0.00    -0.245 OA
BRANCH  78  80
ATOM     80  C   UNL A   1      44.476  15.842  44.005  1.00  0.00     0.301 C 
ATOM     81  N   UNL A   1      44.295  16.037  45.480  1.00  0.00    -0.334 N 
ATOM     82  C   UNL A   1      45.500  14.678  43.896  1.00  0.00     0.097 C 
ATOM     83  C   UNL A   1      45.557  15.597  46.109  1.00  0.00     0.262 C 
ATOM     84  H   UNL A   1      43.515  15.473  45.819  1.00  0.00     0.347 HD
ATOM     85  H   UNL A   1      44.087  17.010  45.705  1.00  0.00     0.347 HD
ATOM     86  C   UNL A   1      46.472  15.141  44.990  1.00  0.00     0.076 C 
BRANCH  82  87
ATOM     87  C   UNL A   1      44.873  13.275  44.061  1.00  0.00    -0.012 A 
ATOM     88  C   UNL A   1      45.618  12.312  44.769  1.00  0.00     0.006 A 
ATOM     89  C   UNL A   1      43.568  12.929  43.649  1.00  0.00     0.074 A 
ATOM     90  C   UNL A   1      45.152  11.021  44.985  1.00  0.00     0.001 A 
ATOM     91  C   UNL A   1      43.082  11.628  43.942  1.00  0.00     0.000 A 
ATOM     92  N   UNL A   1      42.767  13.796  42.997  1.00  0.00    -0.256 NA
ATOM     93  C   UNL A   1      43.879  10.682  44.584  1.00  0.00     0.010 A 
ATOM     94  C   UNL A   1      41.771  11.284  43.604  1.00  0.00     0.012 A 
ATOM     95  C   UNL A   1      41.505  13.434  42.680  1.00  0.00     0.112 A 
ATOM     96  C   UNL A   1      40.960  12.203  42.963  1.00  0.00     0.021 A 
ENDBRANCH  82  87
ENDBRANCH  78  80
ENDBRANCH  77  78
ENDBRANCH  76  77
ENDBRANCH  75  76
ENDBRANCH  74  75
ENDBRANCH  73  74
ENDBRANCH   1  73
TORSDOF 21
ENDMDL
MODEL 2
REMARK VINA RESULT:     -10.8      1.975      7.702
REMARK SMILES O=C(OCCOCCOCCOC(=O)[C@@H]1[NH2+]CC[C@H]1c1cccc2cccnc12)c1ccc(-c2c3nc(c(-c4cccc(S(=O)(=O)[O-])c4F)c4ccc([nH]4)c(-c4cccc(S(=O)(=O)[O-])c4F)c4nc(c(-c5cccc(S(=O)(=O)[O-])c5F)c5ccc2[nH]5)C=C4)C=C3)cc1
REMARK SMILES IDX 7 1 6 2 5 3 4 4 3 5 2 6 1 7 30 8 31 9 92 10 32 11 91 12
REMARK SMILES IDX 33 13 34 14 35 15 85 16 36 17 90 18 84 19 86 20 37 21 89 22
REMARK SMILES IDX 83 23 82 24 38 26 70 27 50 28 69 29 51 30 54 31 68 32 87 33
REMARK SMILES IDX 52 34 53 35 67 37 88 38 55 39 39 40 40 41 48 42 41 43 43 44
REMARK SMILES IDX 49 45 42 46 44 47 45 48 46 49 47 50 71 51 72 52 80 53 73 54
REMARK SMILES IDX 75 55 81 56 74 57 76 58 77 59 78 60 79 61 56 62 57 63 65 64
REMARK SMILES IDX 58 65 60 66 66 67 59 68 61 69 62 70 63 71 64 72 8 73 9 74
REMARK SMILES IDX 10 75 11 76 12 77 13 78 14 79 15 80 16 81 19 82 17 83 18 86
REMARK SMILES IDX 20 87 21 88 29 89 22 90 24 91 28 92 23 93 25 94 27 95 26 96
REMARK H PARENT 86 25 54 36 16 84 16 85
REMARK Flexibility Score: inf
ROOT
ATOM      1  C   UNL A   1      47.046  19.919  39.387  1.00  0.00     0.188 C 
ENDROOT
BRANCH   1   2
ATOM      2  O   UNL A   1      46.618  20.871  38.414  1.00  0.00    -0.376 OA
BRANCH   2   3
ATOM      3  C   UNL A   1      47.118  20.662  37.091  1.00  0.00     0.202 C 
BRANCH   3   4
ATOM      4  C   UNL A   1      47.718  21.881  36.354  1.00  0.00     0.261 C 
BRANCH   4   5
ATOM      5  O   UNL A   1      46.958  23.102  36.470  1.00  0.00    -0.460 OA
BRANCH   5   6
ATOM      6  C   UNL A   1      47.289  24.353  36.047  1.00  0.00     0.338 C 
ATOM      7  O   UNL A   1      48.449  24.740  36.181  1.00  0.00    -0.246 OA
BRANCH   6   8
ATOM      8  C   UNL A   1      46.295  25.278  35.428  1.00  0.00     0.060 A 
ATOM      9  C   UNL A   1      44.941  25.235  35.723  1.00  0.00     0.016 A 
ATOM     10  C   UNL A   1      46.733  26.271  34.539  1.00  0.00     0.016 A 
ATOM     11  C   UNL A   1      44.014  25.984  35.035  1.00  0.00     0.010 A 
ATOM     12  C   UNL A   1      45.809  27.133  33.926  1.00  0.00     0.010 A 
ATOM     13  C   UNL A   1      44.436  26.953  34.139  1.00  0.00    -0.014 A 
BRANCH  13  14
ATOM     14  C   UNL A   1      43.377  27.646  33.380  1.00  0.00     0.031 A 
ATOM     15  C   UNL A   1      43.202  27.302  31.934  1.00  0.00     0.074 A 
ATOM     16  C   UNL A   1      42.461  28.391  34.033  1.00  0.00     0.049 A 
ATOM     17  N   UNL A   1      42.313  27.744  31.091  1.00  0.00    -0.248 NA
ATOM     18  C   UNL A   1      44.117  26.290  31.372  1.00  0.00     0.031 C 
ATOM     19  C   UNL A   1      42.436  28.618  35.482  1.00  0.00     0.029 A 
ATOM     20  N   UNL A   1      41.359  29.066  33.586  1.00  0.00    -0.354 N 
ATOM     21  C   UNL A   1      42.568  27.081  29.900  1.00  0.00     0.074 A 
ATOM     22  C   UNL A   1      43.706  26.219  30.116  1.00  0.00     0.031 C 
ATOM     23  C   UNL A   1      41.380  29.383  35.797  1.00  0.00     0.029 A 
ATOM     24  C   UNL A   1      40.715  29.777  34.573  1.00  0.00     0.049 A 
ATOM     25  H   UNL A   1      41.054  29.046  32.650  1.00  0.00     0.167 HD
ATOM     26  C   UNL A   1      41.890  27.171  28.735  1.00  0.00     0.034 A 
ATOM     27  C   UNL A   1      39.730  30.688  34.493  1.00  0.00     0.034 A 
ATOM     28  C   UNL A   1      40.762  28.039  28.549  1.00  0.00     0.049 A 
ATOM     29  C   UNL A   1      39.114  30.905  33.150  1.00  0.00     0.074 A 
ATOM     30  C   UNL A   1      40.031  28.272  27.401  1.00  0.00     0.029 A 
ATOM     31  N   UNL A   1      40.207  28.828  29.549  1.00  0.00    -0.354 N 
ATOM     32  N   UNL A   1      39.384  30.295  32.021  1.00  0.00    -0.248 NA
ATOM     33  C   UNL A   1      38.025  31.883  33.075  1.00  0.00     0.031 C 
ATOM     34  C   UNL A   1      39.056  29.231  27.698  1.00  0.00     0.029 A 
ATOM     35  C   UNL A   1      39.151  29.562  29.042  1.00  0.00     0.049 A 
ATOM     36  H   UNL A   1      40.520  28.860  30.482  1.00  0.00     0.167 HD
ATOM     37  C   UNL A   1      38.470  30.783  31.105  1.00  0.00     0.074 A 
ATOM     38  C   UNL A   1      37.631  31.729  31.820  1.00  0.00     0.031 C 
ATOM     39  C   UNL A   1      38.333  30.480  29.792  1.00  0.00     0.034 A 
BRANCH  26  40
ATOM     40  C   UNL A   1      42.384  26.338  27.586  1.00  0.00     0.023 A 
ATOM     41  C   UNL A   1      43.240  26.901  26.618  1.00  0.00     0.012 A 
ATOM     42  C   UNL A   1      41.986  24.993  27.463  1.00  0.00     0.148 A 
ATOM     43  C   UNL A   1      43.669  26.145  25.527  1.00  0.00     0.002 A 
ATOM     44  C   UNL A   1      42.452  24.235  26.397  1.00  0.00     0.091 A 
ATOM     45  F   UNL A   1      41.145  24.492  28.377  1.00  0.00    -0.205 F 
ATOM     46  C   UNL A   1      43.282  24.811  25.421  1.00  0.00     0.022 A 
BRANCH  44  47
ATOM     47  S   UNL A   1      42.057  22.494  26.202  1.00  0.00     0.127 S 
ATOM     48  O   UNL A   1      42.896  22.128  25.061  1.00  0.00    -0.237 OA
ATOM     49  O   UNL A   1      42.493  21.941  27.484  1.00  0.00    -0.237 OA
ATOM     50  O   UNL A   1      40.623  22.428  25.961  1.00  0.00    -0.744 OA
ENDBRANCH  44  47
ENDBRANCH  26  40
BRANCH  27  51
ATOM     51  C   UNL A   1      39.298  31.471  35.683  1.00  0.00     0.023 A 
ATOM     52  C   UNL A   1      38.146  31.097  36.397  1.00  0.00     0.012 A 
ATOM     53  C   UNL A   1      40.017  32.614  36.087  1.00  0.00     0.148 A 
ATOM     54  C   UNL A   1      37.704  31.864  37.478  1.00  0.00     0.002 A 
ATOM     55  C   UNL A   1      39.599  33.346  37.192  1.00  0.00     0.091 A 
ATOM     56  F   UNL A   1      41.096  32.963  35.375  1.00  0.00    -0.205 F 
ATOM     57  C   UNL A   1      38.432  32.983  37.878  1.00  0.00     0.022 A 
BRANCH  55  58
ATOM     58  S   UNL A   1      40.501  34.775  37.806  1.00  0.00     0.127 S 
ATOM     59  O   UNL A   1      40.047  34.850  39.194  1.00  0.00    -0.237 OA
ATOM     60  O   UNL A   1      41.885  34.340  37.636  1.00  0.00    -0.237 OA
ATOM     61  O   UNL A   1      40.081  35.895  36.972  1.00  0.00    -0.744 OA
ENDBRANCH  55  58
ENDBRANCH  27  51
BRANCH  39  62
ATOM     62  C   UNL A   1      37.208  31.157  29.069  1.00  0.00     0.023 A 
ATOM     63  C   UNL A   1      37.280  32.536  28.792  1.00  0.00     0.012 A 
ATOM     64  C   UNL A   1      36.096  30.412  28.640  1.00  0.00     0.148 A 
ATOM     65  C   UNL A   1      36.233  33.174  28.134  1.00  0.00     0.002 A 
ATOM     66  C   UNL A   1      35.085  31.043  27.931  1.00  0.00     0.091 A 
ATOM     67  F   UNL A   1      36.043  29.107  28.942  1.00  0.00    -0.205 F 
ATOM     68  C   UNL A   1      35.142  32.426  27.693  1.00  0.00     0.022 A 
BRANCH  66  69
ATOM     69  S   UNL A   1      33.705  30.136  27.232  1.00  0.00     0.127 S 
ATOM     70  O   UNL A   1      32.643  31.140  27.266  1.00  0.00    -0.237 OA
ATOM     71  O   UNL A   1      34.197  29.812  25.892  1.00  0.00    -0.237 OA
ATOM     72  O   UNL A   1      33.504  28.981  28.097  1.00  0.00    -0.744 OA
ENDBRANCH  66  69
ENDBRANCH  39  62
ENDBRANCH  13  14
ENDBRANCH   6   8
ENDBRANCH   5   6
ENDBRANCH   4   5
ENDBRANCH   3   4
ENDBRANCH   2   3
ENDBRANCH   1   2
BRANCH   1  73
ATOM     73  C   UNL A   1      46.725  18.467  39.024  1.00  0.00     0.188 C 
BRANCH  73  74
ATOM     74  O   UNL A   1      46.117  17.669  40.038  1.00  0.00    -0.376 OA
BRANCH  74  75
ATOM     75  C   UNL A   1      46.355  18.064  41.385  1.00  0.00     0.202 C 
BRANCH  75  76
ATOM     76  C   UNL A   1      45.273  17.794  42.448  1.00  0.00     0.261 C 
BRANCH  76  77
ATOM     77  O   UNL A   1      45.664  16.939  43.536  1.00  0.00    -0.459 OA
BRANCH  77  78
ATOM     78  C   UNL A   1      44.814  16.928  44.615  1.00  0.00     0.365 C 
ATOM     79  O   UNL A   1      44.561  17.915  45.285  1.00  0.00    -0.245 OA
BRANCH  78  80
ATOM     80  C   UNL A   1      44.245  15.502  44.872  1.00  0.00     0.301 C 
ATOM     81  N   UNL A   1      43.774  15.340  46.285  1.00  0.00    -0.334 N 
ATOM     82  C   UNL A   1      45.334  14.405  44.702  1.00  0.00     0.097 C 
ATOM     83  C   UNL A   1      44.915  14.773  47.034  1.00  0.00     0.262 C 
ATOM     84  H   UNL A   1      42.976  14.706  46.322  1.00  0.00     0.347 HD
ATOM     85  H   UNL A   1      43.474  16.230  46.683  1.00  0.00     0.347 HD
ATOM     86  C   UNL A   1      46.050  14.602  46.045  1.00  0.00     0.076 C 
BRANCH  82  87
ATOM     87  C   UNL A   1      44.764  12.998  44.411  1.00  0.00    -0.012 A 
ATOM     88  C   UNL A   1      45.570  11.892  44.741  1.00  0.00     0.006 A 
ATOM     89  C   UNL A   1      43.457  12.746  43.941  1.00  0.00     0.074 A 
ATOM     90  C   UNL A   1      45.160  10.581  44.529  1.00  0.00     0.001 A 
ATOM     91  C   UNL A   1      43.030  11.400  43.800  1.00  0.00     0.000 A 
ATOM     92  N   UNL A   1      42.600  13.742  43.633  1.00  0.00    -0.256 NA
ATOM     93  C   UNL A   1      43.884  10.334  44.072  1.00  0.00     0.010 A 
ATOM     94  C   UNL A   1      41.719  11.126  43.400  1.00  0.00     0.012 A 
ATOM     95  C   UNL A   1      41.340  13.445  43.246  1.00  0.00     0.112 A 
ATOM     96  C   UNL A   1      40.851  12.165  43.121  1.00  0.00     0.021 A 
ENDBRANCH  82  87
ENDBRANCH  78  80
ENDBRANCH  77  78
ENDBRANCH  76  77
ENDBRANCH  75  76
ENDBRANCH  74  75
ENDBRANCH  73  74
ENDBRANCH   1  73
TORSDOF 21
ENDMDL
MODEL 3
REMARK VINA RESULT:     -10.8      9.386     15.119
REMARK SMILES O=C(OCCOCCOCCOC(=O)[C@@H]1[NH2+]CC[C@H]1c1cccc2cccnc12)c1ccc(-c2c3nc(c(-c4cccc(S(=O)(=O)[O-])c4F)c4ccc([nH]4)c(-c4cccc(S(=O)(=O)[O-])c4F)c4nc(c(-c5cccc(S(=O)(=O)[O-])c5F)c5ccc2[nH]5)C=C4)C=C3)cc1
REMARK SMILES IDX 7 1 6 2 5 3 4 4 3 5 2 6 1 7 30 8 31 9 92 10 32 11 91 12
REMARK SMILES IDX 33 13 34 14 35 15 85 16 36 17 90 18 84 19 86 20 37 21 89 22
REMARK SMILES IDX 83 23 82 24 38 26 70 27 50 28 69 29 51 30 54 31 68 32 87 33
REMARK SMILES IDX 52 34 53 35 67 37 88 38 55 39 39 40 40 41 48 42 41 43 43 44
REMARK SMILES IDX 49 45 42 46 44 47 45 48 46 49 47 50 71 51 72 52 80 53 73 54
REMARK SMILES IDX 75 55 81 56 74 57 76 58 77 59 78 60 79 61 56 62 57 63 65 64
REMARK SMILES IDX 58 65 60 66 66 67 59 68 61 69 62 70 63 71 64 72 8 73 9 74
REMARK SMILES IDX 10 75 11 76 12 77 13 78 14 79 15 80 16 81 19 82 17 83 18 86
REMARK SMILES IDX 20 87 21 88 29 89 22 90 24 91 28 92 23 93 25 94 27 95 26 96
REMARK H PARENT 86 25 54 36 16 84 16 85
REMARK Flexibility Score: inf
ROOT
ATOM      1  C   UNL A   1      34.315  20.940  24.763  1.00  0.00     0.188 C 
ENDROOT
BRANCH   1   2
ATOM      2  O   UNL A   1      35.547  21.168  25.448  1.00  0.00    -0.376 OA
BRANCH   2   3
ATOM      3  C   UNL A   1      36.729  20.951  24.672  1.00  0.00     0.202 C 
BRANCH   3   4
ATOM      4  C   UNL A   1      38.089  21.211  25.358  1.00  0.00     0.261 C 
BRANCH   4   5
ATOM      5  O   UNL A   1      38.095  22.286  26.321  1.00  0.00    -0.460 OA
BRANCH   5   6
ATOM      6  C   UNL A   1      38.049  23.628  26.098  1.00  0.00     0.338 C 
ATOM      7  O   UNL A   1      37.227  24.071  25.299  1.00  0.00    -0.246 OA
BRANCH   6   8
ATOM      8  C   UNL A   1      38.962  24.585  26.787  1.00  0.00     0.060 A 
ATOM      9  C   UNL A   1      38.924  24.813  28.154  1.00  0.00     0.016 A 
ATOM     10  C   UNL A   1      39.941  25.264  26.046  1.00  0.00     0.016 A 
ATOM     11  C   UNL A   1      39.661  25.806  28.757  1.00  0.00     0.010 A 
ATOM     12  C   UNL A   1      40.792  26.189  26.672  1.00  0.00     0.010 A 
ATOM     13  C   UNL A   1      40.616  26.497  28.028  1.00  0.00    -0.014 A 
BRANCH  13  14
ATOM     14  C   UNL A   1      41.295  27.605  28.727  1.00  0.00     0.031 A 
ATOM     15  C   UNL A   1      40.497  28.825  29.063  1.00  0.00     0.074 A 
ATOM     16  C   UNL A   1      42.530  27.419  29.238  1.00  0.00     0.049 A 
ATOM     17  N   UNL A   1      40.868  29.891  29.713  1.00  0.00    -0.248 NA
ATOM     18  C   UNL A   1      39.078  28.828  28.660  1.00  0.00     0.031 C 
ATOM     19  C   UNL A   1      43.309  26.181  29.132  1.00  0.00     0.029 A 
ATOM     20  N   UNL A   1      43.337  28.241  29.976  1.00  0.00    -0.354 N 
ATOM     21  C   UNL A   1      39.741  30.696  29.783  1.00  0.00     0.074 A 
ATOM     22  C   UNL A   1      38.673  30.010  29.095  1.00  0.00     0.031 C 
ATOM     23  C   UNL A   1      44.479  26.332  29.771  1.00  0.00     0.029 A 
ATOM     24  C   UNL A   1      44.572  27.697  30.245  1.00  0.00     0.049 A 
ATOM     25  H   UNL A   1      43.061  29.134  30.285  1.00  0.00     0.167 HD
ATOM     26  C   UNL A   1      39.611  31.894  30.392  1.00  0.00     0.034 A 
ATOM     27  C   UNL A   1      45.676  28.255  30.770  1.00  0.00     0.034 A 
ATOM     28  C   UNL A   1      40.692  32.553  31.068  1.00  0.00     0.049 A 
ATOM     29  C   UNL A   1      45.555  29.655  31.276  1.00  0.00     0.074 A 
ATOM     30  C   UNL A   1      40.707  33.797  31.666  1.00  0.00     0.029 A 
ATOM     31  N   UNL A   1      41.963  32.014  31.223  1.00  0.00    -0.354 N 
ATOM     32  N   UNL A   1      44.491  30.420  31.308  1.00  0.00    -0.248 NA
ATOM     33  C   UNL A   1      46.758  30.247  31.867  1.00  0.00     0.031 C 
ATOM     34  C   UNL A   1      41.999  34.026  32.152  1.00  0.00     0.029 A 
ATOM     35  C   UNL A   1      42.777  32.907  31.896  1.00  0.00     0.049 A 
ATOM     36  H   UNL A   1      42.244  31.127  30.902  1.00  0.00     0.167 HD
ATOM     37  C   UNL A   1      44.882  31.574  31.963  1.00  0.00     0.074 A 
ATOM     38  C   UNL A   1      46.278  31.396  32.320  1.00  0.00     0.031 C 
ATOM     39  C   UNL A   1      44.156  32.682  32.246  1.00  0.00     0.034 A 
BRANCH  26  40
ATOM     40  C   UNL A   1      38.266  32.562  30.314  1.00  0.00     0.023 A 
ATOM     41  C   UNL A   1      37.821  33.117  29.097  1.00  0.00     0.012 A 
ATOM     42  C   UNL A   1      37.449  32.647  31.456  1.00  0.00     0.148 A 
ATOM     43  C   UNL A   1      36.592  33.775  29.027  1.00  0.00     0.002 A 
ATOM     44  C   UNL A   1      36.209  33.266  31.368  1.00  0.00     0.091 A 
ATOM     45  F   UNL A   1      37.910  32.141  32.608  1.00  0.00    -0.205 F 
ATOM     46  C   UNL A   1      35.784  33.841  30.159  1.00  0.00     0.022 A 
BRANCH  44  47
ATOM     47  S   UNL A   1      35.070  33.352  32.754  1.00  0.00     0.127 S 
ATOM     48  O   UNL A   1      34.957  34.798  32.951  1.00  0.00    -0.237 OA
ATOM     49  O   UNL A   1      33.875  32.715  32.203  1.00  0.00    -0.237 OA
ATOM     50  O   UNL A   1      35.705  32.629  33.846  1.00  0.00    -0.744 OA
ENDBRANCH  44  47
ENDBRANCH  26  40
BRANCH  27  51
ATOM     51  C   UNL A   1      46.971  27.522  30.812  1.00  0.00     0.023 A 
ATOM     52  C   UNL A   1      47.325  26.773  31.949  1.00  0.00     0.012 A 
ATOM     53  C   UNL A   1      47.871  27.595  29.730  1.00  0.00     0.148 A 
ATOM     54  C   UNL A   1      48.565  26.133  32.015  1.00  0.00     0.002 A 
ATOM     55  C   UNL A   1      49.083  26.917  29.782  1.00  0.00     0.091 A 
ATOM     56  F   UNL A   1      47.521  28.335  28.669  1.00  0.00    -0.205 F 
ATOM     57  C   UNL A   1      49.440  26.200  30.933  1.00  0.00     0.022 A 
BRANCH  55  58
ATOM     58  S   UNL A   1      50.252  26.912  28.416  1.00  0.00     0.127 S 
ATOM     59  O   UNL A   1      49.451  26.345  27.331  1.00  0.00    -0.237 OA
ATOM     60  O   UNL A   1      50.546  28.336  28.281  1.00  0.00    -0.237 OA
ATOM     61  O   UNL A   1      51.362  26.072  28.848  1.00  0.00    -0.744 OA
ENDBRANCH  55  58
ENDBRANCH  27  51
BRANCH  39  62
ATOM     62  C   UNL A   1      44.862  33.761  33.009  1.00  0.00     0.023 A 
ATOM     63  C   UNL A   1      45.554  34.775  32.318  1.00  0.00     0.012 A 
ATOM     64  C   UNL A   1      44.810  33.780  34.414  1.00  0.00     0.148 A 
ATOM     65  C   UNL A   1      46.225  35.771  33.021  1.00  0.00     0.002 A 
ATOM     66  C   UNL A   1      45.429  34.810  35.106  1.00  0.00     0.091 A 
ATOM     67  F   UNL A   1      44.168  32.787  35.046  1.00  0.00    -0.205 F 
ATOM     68  C   UNL A   1      46.151  35.796  34.413  1.00  0.00     0.022 A 
BRANCH  66  69
ATOM     69  S   UNL A   1      45.290  34.979  36.886  1.00  0.00     0.127 S 
ATOM     70  O   UNL A   1      43.844  34.916  37.078  1.00  0.00    -0.237 OA
ATOM     71  O   UNL A   1      46.024  33.805  37.363  1.00  0.00    -0.237 OA
ATOM     72  O   UNL A   1      45.912  36.254  37.217  1.00  0.00    -0.744 OA
ENDBRANCH  66  69
ENDBRANCH  39  62
ENDBRANCH  13  14
ENDBRANCH   6   8
ENDBRANCH   5   6
ENDBRANCH   4   5
ENDBRANCH   3   4
ENDBRANCH   2   3
ENDBRANCH   1   2
BRANCH   1  73
ATOM     73  C   UNL A   1      33.175  20.471  25.670  1.00  0.00     0.188 C 
BRANCH  73  74
ATOM     74  O   UNL A   1      31.877  20.994  25.394  1.00  0.00    -0.376 OA
BRANCH  74  75
ATOM     75  C   UNL A   1      31.712  22.400  25.551  1.00  0.00     0.202 C 
BRANCH  75  76
ATOM     76  C   UNL A   1      31.115  23.220  24.391  1.00  0.00     0.261 C 
BRANCH  76  77
ATOM     77  O   UNL A   1      31.234  24.648  24.508  1.00  0.00    -0.459 OA
BRANCH  77  78
ATOM     78  C   UNL A   1      31.724  25.294  23.399  1.00  0.00     0.365 C 
ATOM     79  O   UNL A   1      32.125  24.715  22.403  1.00  0.00    -0.245 OA
BRANCH  78  80
ATOM     80  C   UNL A   1      31.715  26.838  23.595  1.00  0.00     0.301 C 
ATOM     81  N   UNL A   1      31.992  27.560  22.311  1.00  0.00    -0.334 N 
ATOM     82  C   UNL A   1      32.848  27.307  24.550  1.00  0.00     0.097 C 
ATOM     83  C   UNL A   1      33.449  27.800  22.282  1.00  0.00     0.262 C 
ATOM     84  H   UNL A   1      31.486  28.446  22.287  1.00  0.00     0.347 HD
ATOM     85  H   UNL A   1      31.688  27.015  21.504  1.00  0.00     0.347 HD
ATOM     86  C   UNL A   1      34.017  27.216  23.560  1.00  0.00     0.076 C 
BRANCH  82  87
ATOM     87  C   UNL A   1      32.586  28.684  25.203  1.00  0.00    -0.012 A 
ATOM     88  C   UNL A   1      31.359  29.313  24.917  1.00  0.00     0.006 A 
ATOM     89  C   UNL A   1      33.440  29.297  26.145  1.00  0.00     0.074 A 
ATOM     90  C   UNL A   1      31.013  30.547  25.452  1.00  0.00     0.001 A 
ATOM     91  C   UNL A   1      33.036  30.523  26.735  1.00  0.00     0.000 A 
ATOM     92  N   UNL A   1      34.619  28.751  26.509  1.00  0.00    -0.256 NA
ATOM     93  C   UNL A   1      31.844  31.147  26.372  1.00  0.00     0.010 A 
ATOM     94  C   UNL A   1      33.832  31.115  27.719  1.00  0.00     0.012 A 
ATOM     95  C   UNL A   1      35.368  29.349  27.460  1.00  0.00     0.112 A 
ATOM     96  C   UNL A   1      35.021  30.519  28.095  1.00  0.00     0.021 A 
ENDBRANCH  82  87
ENDBRANCH  78  80
ENDBRANCH  77  78
ENDBRANCH  76  77
ENDBRANCH  75  76
ENDBRANCH  74  75
ENDBRANCH  73  74
ENDBRANCH   1  73
TORSDOF 21
ENDMDL
