MODEL 1
REMARK VINA RESULT:      -8.3      0.000      0.000
REMARK SMILES CCCCCCNC(=O)Oc1cccc(-c2ccc([C@@H](C)C(=O)OCCOCCOCCOC(=O)c3ccc(-c4c5nc(c(-c6cccc(S(=O)(=O)[O-])c6F)c6ccc([nH]6)c(-c6cccc(S(=O)(=O)[O-])c6F)c6nc(c(-c7cccc(S(=O)(=O)[O-])c7F)c7ccc4[nH]7)C=C6)C=C5)cc3)cc2F)c1
REMARK SMILES IDX 25 1 24 2 22 3 23 4 20 5 21 6 19 7 16 8 17 9 100 10 18 11
REMARK SMILES IDX 99 12 101 13 15 14 11 15 12 16 102 17 13 18 14 19 10 20 8 21
REMARK SMILES IDX 7 22 9 24 6 25 5 26 4 27 3 28 2 29 1 30 26 31 27 32 28 33
REMARK SMILES IDX 29 34 30 35 31 36 32 37 33 38 34 39 35 40 36 41 37 42 98 43
REMARK SMILES IDX 38 44 97 45 39 46 40 47 41 48 91 49 42 50 96 51 90 52 92 53
REMARK SMILES IDX 43 54 95 55 89 56 88 57 44 59 76 60 56 61 75 62 57 63 60 64
REMARK SMILES IDX 74 65 93 66 58 67 59 68 73 70 94 71 61 72 45 73 46 74 54 75
REMARK SMILES IDX 47 76 49 77 55 78 48 79 50 80 51 81 52 82 53 83 77 84 78 85
REMARK SMILES IDX 86 86 79 87 81 88 87 89 80 90 82 91 83 92 84 93 85 94 62 95
REMARK SMILES IDX 63 96 71 97 64 98 66 99 72 100 65 101 67 102 68 103 69 104
REMARK SMILES IDX 70 105
REMARK H PARENT 7 23 92 58 60 69
REMARK Flexibility Score: inf
ROOT
ATOM      1  C   UNL A   1      34.105  23.944  22.757  1.00  0.00     0.261 C 
ENDROOT
BRANCH   1   2
ATOM      2  O   UNL A   1      32.912  24.520  23.337  1.00  0.00    -0.463 OA
BRANCH   2   3
ATOM      3  C   UNL A   1      32.310  23.794  24.313  1.00  0.00     0.313 C 
ATOM      4  O   UNL A   1      31.694  22.753  24.090  1.00  0.00    -0.252 OA
BRANCH   3   5
ATOM      5  C   UNL A   1      32.453  24.323  25.744  1.00  0.00     0.126 C 
ATOM      6  C   UNL A   1      31.311  23.749  26.583  1.00  0.00     0.025 C 
BRANCH   5   7
ATOM      7  C   UNL A   1      32.610  25.815  26.038  1.00  0.00    -0.031 A 
ATOM      8  C   UNL A   1      32.787  28.612  26.664  1.00  0.00     0.018 A 
ATOM      9  C   UNL A   1      33.716  27.984  25.813  1.00  0.00     0.012 A 
ATOM     10  C   UNL A   1      31.765  27.810  27.182  1.00  0.00     0.131 A 
ATOM     11  C   UNL A   1      33.627  26.612  25.497  1.00  0.00     0.005 A 
ATOM     12  C   UNL A   1      31.668  26.447  26.874  1.00  0.00     0.044 A 
ATOM     13  F   UNL A   1      30.830  28.341  27.986  1.00  0.00    -0.206 F 
BRANCH   8  14
ATOM     14  C   UNL A   1      32.866  30.058  26.961  1.00  0.00    -0.012 A 
ATOM     15  C   UNL A   1      33.977  31.987  27.946  1.00  0.00     0.133 A 
ATOM     16  C   UNL A   1      32.929  32.824  27.568  1.00  0.00     0.047 A 
ATOM     17  C   UNL A   1      33.951  30.617  27.661  1.00  0.00     0.056 A 
ATOM     18  C   UNL A   1      31.850  32.288  26.873  1.00  0.00     0.004 A 
ATOM     19  C   UNL A   1      31.821  30.921  26.571  1.00  0.00     0.009 A 
BRANCH  15  20
ATOM     20  O   UNL A   1      34.993  32.553  28.735  1.00  0.00    -0.410 OA
BRANCH  20  21
ATOM     21  C   UNL A   1      34.970  32.269  30.090  1.00  0.00     0.412 C 
ATOM     22  N   UNL A   1      35.827  31.268  30.456  1.00  0.00    -0.321 N 
ATOM     23  H   UNL A   1      35.921  31.103  31.422  1.00  0.00     0.167 HD
ATOM     24  O   UNL A   1      34.239  32.806  30.925  1.00  0.00    -0.224 OA
BRANCH  22  25
ATOM     25  C   UNL A   1      36.616  30.423  29.578  1.00  0.00     0.119 C 
BRANCH  25  26
ATOM     26  C   UNL A   1      37.809  29.778  30.282  1.00  0.00     0.021 C 
BRANCH  26  27
ATOM     27  C   UNL A   1      39.020  29.490  29.386  1.00  0.00     0.002 C 
BRANCH  27  28
ATOM     28  C   UNL A   1      39.927  28.338  29.833  1.00  0.00    -0.000 C 
BRANCH  28  29
ATOM     29  C   UNL A   1      39.590  26.963  29.249  1.00  0.00    -0.003 C 
ATOM     30  C   UNL A   1      39.939  26.828  27.775  1.00  0.00     0.004 C 
ENDBRANCH  28  29
ENDBRANCH  27  28
ENDBRANCH  26  27
ENDBRANCH  25  26
ENDBRANCH  22  25
ENDBRANCH  20  21
ENDBRANCH  15  20
ENDBRANCH   8  14
ENDBRANCH   5   7
ENDBRANCH   3   5
ENDBRANCH   2   3
ENDBRANCH   1   2
BRANCH   1  31
ATOM     31  C   UNL A   1      35.244  23.665  23.749  1.00  0.00     0.202 C 
BRANCH  31  32
ATOM     32  O   UNL A   1      36.266  22.757  23.357  1.00  0.00    -0.376 OA
BRANCH  32  33
ATOM     33  C   UNL A   1      36.761  21.815  24.302  1.00  0.00     0.188 C 
BRANCH  33  34
ATOM     34  C   UNL A   1      37.611  22.315  25.478  1.00  0.00     0.188 C 
BRANCH  34  35
ATOM     35  O   UNL A   1      38.587  21.400  25.933  1.00  0.00    -0.376 OA
BRANCH  35  36
ATOM     36  C   UNL A   1      39.680  21.953  26.644  1.00  0.00     0.202 C 
BRANCH  36  37
ATOM     37  C   UNL A   1      41.025  21.268  26.368  1.00  0.00     0.261 C 
BRANCH  37  38
ATOM     38  O   UNL A   1      41.911  21.977  25.481  1.00  0.00    -0.460 OA
BRANCH  38  39
ATOM     39  C   UNL A   1      43.202  21.583  25.463  1.00  0.00     0.338 C 
ATOM     40  O   UNL A   1      43.629  20.478  25.145  1.00  0.00    -0.246 OA
BRANCH  39  41
ATOM     41  C   UNL A   1      44.058  22.770  25.667  1.00  0.00     0.060 A 
ATOM     42  C   UNL A   1      44.869  22.832  26.809  1.00  0.00     0.016 A 
ATOM     43  C   UNL A   1      44.057  23.817  24.743  1.00  0.00     0.016 A 
ATOM     44  C   UNL A   1      45.649  23.963  27.053  1.00  0.00     0.010 A 
ATOM     45  C   UNL A   1      44.825  24.957  24.997  1.00  0.00     0.010 A 
ATOM     46  C   UNL A   1      45.593  25.052  26.172  1.00  0.00    -0.014 A 
BRANCH  46  47
ATOM     47  C   UNL A   1      46.172  26.359  26.575  1.00  0.00     0.031 A 
ATOM     48  C   UNL A   1      47.601  26.653  26.206  1.00  0.00     0.074 A 
ATOM     49  C   UNL A   1      45.456  27.264  27.267  1.00  0.00     0.049 A 
ATOM     50  N   UNL A   1      48.332  27.700  26.482  1.00  0.00    -0.248 NA
ATOM     51  C   UNL A   1      48.300  25.620  25.423  1.00  0.00     0.031 C 
ATOM     52  C   UNL A   1      44.069  27.099  27.694  1.00  0.00     0.029 A 
ATOM     53  N   UNL A   1      45.819  28.493  27.760  1.00  0.00    -0.354 N 
ATOM     54  C   UNL A   1      49.585  27.440  25.941  1.00  0.00     0.074 A 
ATOM     55  C   UNL A   1      49.519  26.129  25.331  1.00  0.00     0.031 C 
ATOM     56  C   UNL A   1      43.708  28.172  28.420  1.00  0.00     0.029 A 
ATOM     57  C   UNL A   1      44.845  29.085  28.527  1.00  0.00     0.049 A 
ATOM     58  H   UNL A   1      46.693  28.910  27.581  1.00  0.00     0.167 HD
ATOM     59  C   UNL A   1      50.689  28.223  25.936  1.00  0.00     0.034 A 
ATOM     60  C   UNL A   1      44.877  30.219  29.257  1.00  0.00     0.034 A 
ATOM     61  C   UNL A   1      50.753  29.530  26.530  1.00  0.00     0.049 A 
ATOM     62  C   UNL A   1      46.121  31.072  29.250  1.00  0.00     0.074 A 
ATOM     63  C   UNL A   1      51.808  30.425  26.527  1.00  0.00     0.029 A 
ATOM     64  N   UNL A   1      49.728  30.123  27.251  1.00  0.00    -0.354 N 
ATOM     65  N   UNL A   1      47.256  30.873  28.625  1.00  0.00    -0.248 NA
ATOM     66  C   UNL A   1      46.075  32.324  30.021  1.00  0.00     0.031 C 
ATOM     67  C   UNL A   1      51.433  31.544  27.279  1.00  0.00     0.029 A 
ATOM     68  C   UNL A   1      50.129  31.365  27.713  1.00  0.00     0.049 A 
ATOM     69  H   UNL A   1      48.844  29.719  27.410  1.00  0.00     0.167 HD
ATOM     70  C   UNL A   1      48.044  31.989  28.897  1.00  0.00     0.074 A 
ATOM     71  C   UNL A   1      47.250  32.867  29.729  1.00  0.00     0.031 C 
ATOM     72  C   UNL A   1      49.314  32.256  28.500  1.00  0.00     0.034 A 
BRANCH  59  73
ATOM     73  C   UNL A   1      51.919  27.686  25.251  1.00  0.00     0.023 A 
ATOM     74  C   UNL A   1      52.948  27.097  26.014  1.00  0.00     0.012 A 
ATOM     75  C   UNL A   1      52.043  27.736  23.849  1.00  0.00     0.148 A 
ATOM     76  C   UNL A   1      54.099  26.607  25.398  1.00  0.00     0.002 A 
ATOM     77  C   UNL A   1      53.169  27.201  23.237  1.00  0.00     0.091 A 
ATOM     78  F   UNL A   1      51.065  28.320  23.140  1.00  0.00    -0.205 F 
ATOM     79  C   UNL A   1      54.205  26.650  24.010  1.00  0.00     0.022 A 
BRANCH  77  80
ATOM     80  S   UNL A   1      53.363  27.134  21.453  1.00  0.00     0.127 S 
ATOM     81  O   UNL A   1      54.708  26.576  21.323  1.00  0.00    -0.237 OA
ATOM     82  O   UNL A   1      52.285  26.227  21.061  1.00  0.00    -0.237 OA
ATOM     83  O   UNL A   1      53.204  28.503  20.981  1.00  0.00    -0.744 OA
ENDBRANCH  77  80
ENDBRANCH  59  73
BRANCH  60  84
ATOM     84  C   UNL A   1      43.679  30.625  30.046  1.00  0.00     0.023 A 
ATOM     85  C   UNL A   1      42.751  31.531  29.497  1.00  0.00     0.012 A 
ATOM     86  C   UNL A   1      43.448  30.101  31.333  1.00  0.00     0.148 A 
ATOM     87  C   UNL A   1      41.627  31.927  30.225  1.00  0.00     0.002 A 
ATOM     88  C   UNL A   1      42.299  30.454  32.029  1.00  0.00     0.091 A 
ATOM     89  F   UNL A   1      44.352  29.253  31.843  1.00  0.00    -0.205 F 
ATOM     90  C   UNL A   1      41.396  31.381  31.484  1.00  0.00     0.022 A 
BRANCH  88  91
ATOM     91  S   UNL A   1      41.855  29.709  33.602  1.00  0.00     0.127 S 
ATOM     92  O   UNL A   1      42.367  28.350  33.443  1.00  0.00    -0.237 OA
ATOM     93  O   UNL A   1      42.598  30.542  34.547  1.00  0.00    -0.237 OA
ATOM     94  O   UNL A   1      40.407  29.829  33.701  1.00  0.00    -0.744 OA
ENDBRANCH  88  91
ENDBRANCH  60  84
BRANCH  72  95
ATOM     95  C   UNL A   1      49.922  33.572  28.915  1.00  0.00     0.023 A 
ATOM     96  C   UNL A   1      49.723  34.723  28.126  1.00  0.00     0.012 A 
ATOM     97  C   UNL A   1      50.624  33.684  30.132  1.00  0.00     0.148 A 
ATOM     98  C   UNL A   1      50.245  35.955  28.525  1.00  0.00     0.002 A 
ATOM     99  C   UNL A   1      51.095  34.923  30.548  1.00  0.00     0.091 A 
ATOM    100  F   UNL A   1      50.817  32.576  30.862  1.00  0.00    -0.205 F 
ATOM    101  C   UNL A   1      50.918  36.057  29.739  1.00  0.00     0.022 A 
BRANCH  99 102
ATOM    102  S   UNL A   1      51.885  35.170  32.143  1.00  0.00     0.127 S 
ATOM    103  O   UNL A   1      52.167  36.604  32.117  1.00  0.00    -0.237 OA
ATOM    104  O   UNL A   1      50.832  34.771  33.076  1.00  0.00    -0.237 OA
ATOM    105  O   UNL A   1      53.058  34.305  32.149  1.00  0.00    -0.744 OA
ENDBRANCH  99 102
ENDBRANCH  72  95
ENDBRANCH  46  47
ENDBRANCH  39  41
ENDBRANCH  38  39
ENDBRANCH  37  38
ENDBRANCH  36  37
ENDBRANCH  35  36
ENDBRANCH  34  35
ENDBRANCH  33  34
ENDBRANCH  32  33
ENDBRANCH  31  32
ENDBRANCH   1  31
TORSDOF 29
ENDMDL
MODEL 2
REMARK VINA RESULT:      -8.3      4.822     10.869
REMARK SMILES CCCCCCNC(=O)Oc1cccc(-c2ccc([C@@H](C)C(=O)OCCOCCOCCOC(=O)c3ccc(-c4c5nc(c(-c6cccc(S(=O)(=O)[O-])c6F)c6ccc([nH]6)c(-c6cccc(S(=O)(=O)[O-])c6F)c6nc(c(-c7cccc(S(=O)(=O)[O-])c7F)c7ccc4[nH]7)C=C6)C=C5)cc3)cc2F)c1
REMARK SMILES IDX 25 1 24 2 22 3 23 4 20 5 21 6 19 7 16 8 17 9 100 10 18 11
REMARK SMILES IDX 99 12 101 13 15 14 11 15 12 16 102 17 13 18 14 19 10 20 8 21
REMARK SMILES IDX 7 22 9 24 6 25 5 26 4 27 3 28 2 29 1 30 26 31 27 32 28 33
REMARK SMILES IDX 29 34 30 35 31 36 32 37 33 38 34 39 35 40 36 41 37 42 98 43
REMARK SMILES IDX 38 44 97 45 39 46 40 47 41 48 91 49 42 50 96 51 90 52 92 53
REMARK SMILES IDX 43 54 95 55 89 56 88 57 44 59 76 60 56 61 75 62 57 63 60 64
REMARK SMILES IDX 74 65 93 66 58 67 59 68 73 70 94 71 61 72 45 73 46 74 54 75
REMARK SMILES IDX 47 76 49 77 55 78 48 79 50 80 51 81 52 82 53 83 77 84 78 85
REMARK SMILES IDX 86 86 79 87 81 88 87 89 80 90 82 91 83 92 84 93 85 94 62 95
REMARK SMILES IDX 63 96 71 97 64 98 66 99 72 100 65 101 67 102 68 103 69 104
REMARK SMILES IDX 70 105
REMARK H PARENT 7 23 92 58 60 69
REMARK Flexibility Score: inf
ROOT
ATOM      1  C   UNL A   1      37.032  31.280  31.147  1.00  0.00     0.261 C 
ENDROOT
BRANCH   1   2
ATOM      2  O   UNL A   1      35.752  31.950  31.073  1.00  0.00    -0.463 OA
BRANCH   2   3
ATOM      3  C   UNL A   1      35.685  33.023  30.247  1.00  0.00     0.313 C 
ATOM      4  O   UNL A   1      35.664  34.183  30.655  1.00  0.00    -0.252 OA
BRANCH   3   5
ATOM      5  C   UNL A   1      35.658  32.726  28.743  1.00  0.00     0.126 C 
ATOM      6  C   UNL A   1      35.082  33.946  28.024  1.00  0.00     0.025 C 
BRANCH   5   7
ATOM      7  C   UNL A   1      35.024  31.452  28.186  1.00  0.00    -0.031 A 
ATOM      8  C   UNL A   1      33.714  29.127  27.123  1.00  0.00     0.018 A 
ATOM      9  C   UNL A   1      35.039  29.079  27.597  1.00  0.00     0.012 A 
ATOM     10  C   UNL A   1      33.062  30.362  27.205  1.00  0.00     0.131 A 
ATOM     11  C   UNL A   1      35.682  30.216  28.127  1.00  0.00     0.005 A 
ATOM     12  C   UNL A   1      33.691  31.497  27.731  1.00  0.00     0.044 A 
ATOM     13  F   UNL A   1      31.790  30.483  26.791  1.00  0.00    -0.206 F 
BRANCH   8  14
ATOM     14  C   UNL A   1      33.035  27.922  26.603  1.00  0.00    -0.012 A 
ATOM     15  C   UNL A   1      33.008  25.879  25.279  1.00  0.00     0.133 A 
ATOM     16  C   UNL A   1      31.663  25.668  25.572  1.00  0.00     0.047 A 
ATOM     17  C   UNL A   1      33.693  26.995  25.773  1.00  0.00     0.056 A 
ATOM     18  C   UNL A   1      30.998  26.574  26.394  1.00  0.00     0.004 A 
ATOM     19  C   UNL A   1      31.678  27.686  26.904  1.00  0.00     0.009 A 
BRANCH  15  20
ATOM     20  O   UNL A   1      33.607  24.998  24.363  1.00  0.00    -0.410 OA
BRANCH  20  21
ATOM     21  C   UNL A   1      32.850  24.612  23.270  1.00  0.00     0.412 C 
ATOM     22  N   UNL A   1      32.342  23.346  23.373  1.00  0.00    -0.321 N 
ATOM     23  H   UNL A   1      31.713  23.068  22.668  1.00  0.00     0.167 HD
ATOM     24  O   UNL A   1      32.652  25.288  22.258  1.00  0.00    -0.224 OA
BRANCH  22  25
ATOM     25  C   UNL A   1      32.628  22.367  24.406  1.00  0.00     0.119 C 
BRANCH  25  26
ATOM     26  C   UNL A   1      33.037  21.007  23.844  1.00  0.00     0.021 C 
BRANCH  26  27
ATOM     27  C   UNL A   1      32.399  19.794  24.533  1.00  0.00     0.002 C 
BRANCH  27  28
ATOM     28  C   UNL A   1      33.197  18.487  24.465  1.00  0.00    -0.000 C 
BRANCH  28  29
ATOM     29  C   UNL A   1      32.922  17.604  23.245  1.00  0.00    -0.003 C 
ATOM     30  C   UNL A   1      34.118  16.765  22.822  1.00  0.00     0.004 C 
ENDBRANCH  28  29
ENDBRANCH  27  28
ENDBRANCH  26  27
ENDBRANCH  25  26
ENDBRANCH  22  25
ENDBRANCH  20  21
ENDBRANCH  15  20
ENDBRANCH   8  14
ENDBRANCH   5   7
ENDBRANCH   3   5
ENDBRANCH   2   3
ENDBRANCH   1   2
BRANCH   1  31
ATOM     31  C   UNL A   1      37.135  30.186  32.221  1.00  0.00     0.202 C 
BRANCH  31  32
ATOM     32  O   UNL A   1      38.111  29.167  32.048  1.00  0.00    -0.376 OA
BRANCH  32  33
ATOM     33  C   UNL A   1      38.203  28.496  30.796  1.00  0.00     0.188 C 
BRANCH  33  34
ATOM     34  C   UNL A   1      39.590  28.201  30.208  1.00  0.00     0.188 C 
BRANCH  34  35
ATOM     35  O   UNL A   1      39.819  26.844  29.887  1.00  0.00    -0.376 OA
BRANCH  35  36
ATOM     36  C   UNL A   1      39.415  26.431  28.594  1.00  0.00     0.202 C 
BRANCH  36  37
ATOM     37  C   UNL A   1      39.773  27.419  27.475  1.00  0.00     0.261 C 
BRANCH  37  38
ATOM     38  O   UNL A   1      40.919  27.064  26.678  1.00  0.00    -0.460 OA
BRANCH  38  39
ATOM     39  C   UNL A   1      42.044  26.722  27.341  1.00  0.00     0.338 C 
ATOM     40  O   UNL A   1      42.601  25.630  27.327  1.00  0.00    -0.246 OA
BRANCH  39  41
ATOM     41  C   UNL A   1      42.640  27.945  27.916  1.00  0.00     0.060 A 
ATOM     42  C   UNL A   1      43.211  27.884  29.195  1.00  0.00     0.016 A 
ATOM     43  C   UNL A   1      42.632  29.145  27.202  1.00  0.00     0.016 A 
ATOM     44  C   UNL A   1      43.736  29.036  29.783  1.00  0.00     0.010 A 
ATOM     45  C   UNL A   1      43.142  30.302  27.799  1.00  0.00     0.010 A 
ATOM     46  C   UNL A   1      43.659  30.261  29.107  1.00  0.00    -0.014 A 
BRANCH  46  47
ATOM     47  C   UNL A   1      43.932  31.525  29.836  1.00  0.00     0.031 A 
ATOM     48  C   UNL A   1      42.904  32.023  30.816  1.00  0.00     0.074 A 
ATOM     49  C   UNL A   1      45.059  32.230  29.628  1.00  0.00     0.049 A 
ATOM     50  N   UNL A   1      42.900  33.115  31.534  1.00  0.00    -0.248 NA
ATOM     51  C   UNL A   1      41.715  31.174  31.004  1.00  0.00     0.031 C 
ATOM     52  C   UNL A   1      46.128  31.863  28.702  1.00  0.00     0.029 A 
ATOM     53  N   UNL A   1      45.470  33.425  30.165  1.00  0.00    -0.354 N 
ATOM     54  C   UNL A   1      41.698  33.104  32.232  1.00  0.00     0.074 A 
ATOM     55  C   UNL A   1      40.992  31.903  31.840  1.00  0.00     0.031 C 
ATOM     56  C   UNL A   1      47.057  32.835  28.707  1.00  0.00     0.029 A 
ATOM     57  C   UNL A   1      46.637  33.900  29.616  1.00  0.00     0.049 A 
ATOM     58  H   UNL A   1      44.977  33.896  30.875  1.00  0.00     0.167 HD
ATOM     59  C   UNL A   1      41.228  34.001  33.129  1.00  0.00     0.034 A 
ATOM     60  C   UNL A   1      47.277  35.073  29.804  1.00  0.00     0.034 A 
ATOM     61  C   UNL A   1      41.934  35.188  33.529  1.00  0.00     0.049 A 
ATOM     62  C   UNL A   1      46.730  36.067  30.798  1.00  0.00     0.074 A 
ATOM     63  C   UNL A   1      41.566  36.130  34.473  1.00  0.00     0.029 A 
ATOM     64  N   UNL A   1      43.141  35.609  32.994  1.00  0.00    -0.354 N 
ATOM     65  N   UNL A   1      45.657  35.982  31.546  1.00  0.00    -0.248 NA
ATOM     66  C   UNL A   1      47.502  37.303  30.999  1.00  0.00     0.031 C 
ATOM     67  C   UNL A   1      42.534  37.140  34.482  1.00  0.00     0.029 A 
ATOM     68  C   UNL A   1      43.527  36.804  33.574  1.00  0.00     0.049 A 
ATOM     69  H   UNL A   1      43.650  35.127  32.301  1.00  0.00     0.167 HD
ATOM     70  C   UNL A   1      45.644  37.132  32.331  1.00  0.00     0.074 A 
ATOM     71  C   UNL A   1      46.827  37.889  31.979  1.00  0.00     0.031 C 
ATOM     72  C   UNL A   1      44.731  37.529  33.253  1.00  0.00     0.034 A 
BRANCH  59  73
ATOM     73  C   UNL A   1      39.883  33.723  33.751  1.00  0.00     0.023 A 
ATOM     74  C   UNL A   1      38.709  34.183  33.120  1.00  0.00     0.012 A 
ATOM     75  C   UNL A   1      39.781  32.979  34.942  1.00  0.00     0.148 A 
ATOM     76  C   UNL A   1      37.458  33.946  33.689  1.00  0.00     0.002 A 
ATOM     77  C   UNL A   1      38.529  32.703  35.476  1.00  0.00     0.091 A 
ATOM     78  F   UNL A   1      40.909  32.569  35.540  1.00  0.00    -0.205 F 
ATOM     79  C   UNL A   1      37.368  33.198  34.860  1.00  0.00     0.022 A 
BRANCH  77  80
ATOM     80  S   UNL A   1      38.303  31.681  36.936  1.00  0.00     0.127 S 
ATOM     81  O   UNL A   1      39.423  32.108  37.772  1.00  0.00    -0.237 OA
ATOM     82  O   UNL A   1      36.988  32.112  37.411  1.00  0.00    -0.237 OA
ATOM     83  O   UNL A   1      38.357  30.302  36.471  1.00  0.00    -0.744 OA
ENDBRANCH  77  80
ENDBRANCH  59  73
BRANCH  60  84
ATOM     84  C   UNL A   1      48.525  35.365  29.042  1.00  0.00     0.023 A 
ATOM     85  C   UNL A   1      49.780  35.148  29.643  1.00  0.00     0.012 A 
ATOM     86  C   UNL A   1      48.470  35.840  27.718  1.00  0.00     0.148 A 
ATOM     87  C   UNL A   1      50.958  35.422  28.946  1.00  0.00     0.002 A 
ATOM     88  C   UNL A   1      49.645  36.058  27.010  1.00  0.00     0.091 A 
ATOM     89  F   UNL A   1      47.265  36.056  27.171  1.00  0.00    -0.205 F 
ATOM     90  C   UNL A   1      50.891  35.866  27.628  1.00  0.00     0.022 A 
BRANCH  88  91
ATOM     91  S   UNL A   1      49.657  36.509  25.272  1.00  0.00     0.127 S 
ATOM     92  O   UNL A   1      48.538  37.446  25.199  1.00  0.00    -0.237 OA
ATOM     93  O   UNL A   1      50.980  37.117  25.130  1.00  0.00    -0.237 OA
ATOM     94  O   UNL A   1      49.483  35.264  24.538  1.00  0.00    -0.744 OA
ENDBRANCH  88  91
ENDBRANCH  60  84
BRANCH  72  95
ATOM     95  C   UNL A   1      44.986  38.819  33.991  1.00  0.00     0.023 A 
ATOM     96  C   UNL A   1      45.929  38.861  35.037  1.00  0.00     0.012 A 
ATOM     97  C   UNL A   1      44.347  40.010  33.590  1.00  0.00     0.148 A 
ATOM     98  C   UNL A   1      46.204  40.061  35.696  1.00  0.00     0.002 A 
ATOM     99  C   UNL A   1      44.664  41.210  34.216  1.00  0.00     0.091 A 
ATOM    100  F   UNL A   1      43.441  39.948  32.603  1.00  0.00    -0.205 F 
ATOM    101  C   UNL A   1      45.582  41.234  35.278  1.00  0.00     0.022 A 
BRANCH  99 102
ATOM    102  S   UNL A   1      43.989  42.786  33.680  1.00  0.00     0.127 S 
ATOM    103  O   UNL A   1      44.687  42.994  32.413  1.00  0.00    -0.237 OA
ATOM    104  O   UNL A   1      42.564  42.485  33.550  1.00  0.00    -0.237 OA
ATOM    105  O   UNL A   1      44.311  43.741  34.732  1.00  0.00    -0.744 OA
ENDBRANCH  99 102
ENDBRANCH  72  95
ENDBRANCH  46  47
ENDBRANCH  39  41
ENDBRANCH  38  39
ENDBRANCH  37  38
ENDBRANCH  36  37
ENDBRANCH  35  36
ENDBRANCH  34  35
ENDBRANCH  33  34
ENDBRANCH  32  33
ENDBRANCH  31  32
ENDBRANCH   1  31
TORSDOF 29
ENDMDL
MODEL 3
REMARK VINA RESULT:      -8.0      1.565      1.907
REMARK SMILES CCCCCCNC(=O)Oc1cccc(-c2ccc([C@@H](C)C(=O)OCCOCCOCCOC(=O)c3ccc(-c4c5nc(c(-c6cccc(S(=O)(=O)[O-])c6F)c6ccc([nH]6)c(-c6cccc(S(=O)(=O)[O-])c6F)c6nc(c(-c7cccc(S(=O)(=O)[O-])c7F)c7ccc4[nH]7)C=C6)C=C5)cc3)cc2F)c1
REMARK SMILES IDX 25 1 24 2 22 3 23 4 20 5 21 6 19 7 16 8 17 9 100 10 18 11
REMARK SMILES IDX 99 12 101 13 15 14 11 15 12 16 102 17 13 18 14 19 10 20 8 21
REMARK SMILES IDX 7 22 9 24 6 25 5 26 4 27 3 28 2 29 1 30 26 31 27 32 28 33
REMARK SMILES IDX 29 34 30 35 31 36 32 37 33 38 34 39 35 40 36 41 37 42 98 43
REMARK SMILES IDX 38 44 97 45 39 46 40 47 41 48 91 49 42 50 96 51 90 52 92 53
REMARK SMILES IDX 43 54 95 55 89 56 88 57 44 59 76 60 56 61 75 62 57 63 60 64
REMARK SMILES IDX 74 65 93 66 58 67 59 68 73 70 94 71 61 72 45 73 46 74 54 75
REMARK SMILES IDX 47 76 49 77 55 78 48 79 50 80 51 81 52 82 53 83 77 84 78 85
REMARK SMILES IDX 86 86 79 87 81 88 87 89 80 90 82 91 83 92 84 93 85 94 62 95
REMARK SMILES IDX 63 96 71 97 64 98 66 99 72 100 65 101 67 102 68 103 69 104
REMARK SMILES IDX 70 105
REMARK H PARENT 7 23 92 58 60 69
REMARK Flexibility Score: inf
ROOT
ATOM      1  C   UNL A   1      34.432  23.458  23.091  1.00  0.00     0.261 C 
ENDROOT
BRANCH   1   2
ATOM      2  O   UNL A   1      33.489  24.495  23.449  1.00  0.00    -0.463 OA
BRANCH   2   3
ATOM      3  C   UNL A   1      32.505  24.138  24.311  1.00  0.00     0.313 C 
ATOM      4  O   UNL A   1      31.564  23.413  23.991  1.00  0.00    -0.252 OA
BRANCH   3   5
ATOM      5  C   UNL A   1      32.627  24.669  25.744  1.00  0.00     0.126 C 
ATOM      6  C   UNL A   1      31.498  24.062  26.577  1.00  0.00     0.025 C 
BRANCH   5   7
ATOM      7  C   UNL A   1      32.740  26.164  26.040  1.00  0.00    -0.031 A 
ATOM      8  C   UNL A   1      32.838  28.964  26.674  1.00  0.00     0.018 A 
ATOM      9  C   UNL A   1      33.770  28.369  25.803  1.00  0.00     0.012 A 
ATOM     10  C   UNL A   1      31.853  28.126  27.208  1.00  0.00     0.131 A 
ATOM     11  C   UNL A   1      33.720  26.996  25.484  1.00  0.00     0.005 A 
ATOM     12  C   UNL A   1      31.794  26.762  26.897  1.00  0.00     0.044 A 
ATOM     13  F   UNL A   1      30.917  28.624  28.032  1.00  0.00    -0.206 F 
BRANCH   8  14
ATOM     14  C   UNL A   1      32.875  30.411  26.975  1.00  0.00    -0.012 A 
ATOM     15  C   UNL A   1      33.917  32.364  27.987  1.00  0.00     0.133 A 
ATOM     16  C   UNL A   1      32.857  33.176  27.588  1.00  0.00     0.047 A 
ATOM     17  C   UNL A   1      33.930  30.994  27.700  1.00  0.00     0.056 A 
ATOM     18  C   UNL A   1      31.807  32.615  26.868  1.00  0.00     0.004 A 
ATOM     19  C   UNL A   1      31.817  31.248  26.564  1.00  0.00     0.009 A 
BRANCH  15  20
ATOM     20  O   UNL A   1      34.901  32.952  28.799  1.00  0.00    -0.410 OA
BRANCH  20  21
ATOM     21  C   UNL A   1      34.932  32.569  30.130  1.00  0.00     0.412 C 
ATOM     22  N   UNL A   1      36.052  31.860  30.470  1.00  0.00    -0.321 N 
ATOM     23  H   UNL A   1      36.167  31.656  31.426  1.00  0.00     0.167 HD
ATOM     24  O   UNL A   1      34.047  32.782  30.961  1.00  0.00    -0.224 OA
BRANCH  22  25
ATOM     25  C   UNL A   1      37.090  31.376  29.578  1.00  0.00     0.119 C 
BRANCH  25  26
ATOM     26  C   UNL A   1      38.113  30.485  30.279  1.00  0.00     0.021 C 
BRANCH  26  27
ATOM     27  C   UNL A   1      37.818  28.980  30.225  1.00  0.00     0.002 C 
BRANCH  27  28
ATOM     28  C   UNL A   1      38.334  28.240  28.986  1.00  0.00    -0.000 C 
BRANCH  28  29
ATOM     29  C   UNL A   1      39.493  27.269  29.228  1.00  0.00    -0.003 C 
ATOM     30  C   UNL A   1      40.671  27.899  29.955  1.00  0.00     0.004 C 
ENDBRANCH  28  29
ENDBRANCH  27  28
ENDBRANCH  26  27
ENDBRANCH  25  26
ENDBRANCH  22  25
ENDBRANCH  20  21
ENDBRANCH  15  20
ENDBRANCH   8  14
ENDBRANCH   5   7
ENDBRANCH   3   5
ENDBRANCH   2   3
ENDBRANCH   1   2
BRANCH   1  31
ATOM     31  C   UNL A   1      35.453  23.098  24.180  1.00  0.00     0.202 C 
BRANCH  31  32
ATOM     32  O   UNL A   1      36.498  22.193  23.848  1.00  0.00    -0.376 OA
BRANCH  32  33
ATOM     33  C   UNL A   1      37.024  21.337  24.856  1.00  0.00     0.188 C 
BRANCH  33  34
ATOM     34  C   UNL A   1      37.903  21.939  25.960  1.00  0.00     0.188 C 
BRANCH  34  35
ATOM     35  O   UNL A   1      39.119  21.254  26.187  1.00  0.00    -0.376 OA
BRANCH  35  36
ATOM     36  C   UNL A   1      40.165  22.013  26.765  1.00  0.00     0.202 C 
BRANCH  36  37
ATOM     37  C   UNL A   1      41.558  21.387  26.612  1.00  0.00     0.261 C 
BRANCH  37  38
ATOM     38  O   UNL A   1      42.278  21.760  25.421  1.00  0.00    -0.460 OA
BRANCH  38  39
ATOM     39  C   UNL A   1      43.574  21.390  25.349  1.00  0.00     0.338 C 
ATOM     40  O   UNL A   1      44.010  20.310  24.966  1.00  0.00    -0.246 OA
BRANCH  39  41
ATOM     41  C   UNL A   1      44.415  22.580  25.589  1.00  0.00     0.060 A 
ATOM     42  C   UNL A   1      45.236  22.613  26.726  1.00  0.00     0.016 A 
ATOM     43  C   UNL A   1      44.392  23.660  24.704  1.00  0.00     0.016 A 
ATOM     44  C   UNL A   1      46.003  23.745  27.004  1.00  0.00     0.010 A 
ATOM     45  C   UNL A   1      45.147  24.801  24.993  1.00  0.00     0.010 A 
ATOM     46  C   UNL A   1      45.924  24.864  26.165  1.00  0.00    -0.014 A 
BRANCH  46  47
ATOM     47  C   UNL A   1      46.489  26.163  26.610  1.00  0.00     0.031 A 
ATOM     48  C   UNL A   1      47.886  26.521  26.180  1.00  0.00     0.074 A 
ATOM     49  C   UNL A   1      45.789  27.005  27.391  1.00  0.00     0.049 A 
ATOM     50  N   UNL A   1      48.603  27.572  26.477  1.00  0.00    -0.248 NA
ATOM     51  C   UNL A   1      48.568  25.555  25.302  1.00  0.00     0.031 C 
ATOM     52  C   UNL A   1      44.433  26.775  27.882  1.00  0.00     0.029 A 
ATOM     53  N   UNL A   1      46.146  28.216  27.933  1.00  0.00    -0.354 N 
ATOM     54  C   UNL A   1      49.830  27.381  25.853  1.00  0.00     0.074 A 
ATOM     55  C   UNL A   1      49.765  26.105  25.173  1.00  0.00     0.031 C 
ATOM     56  C   UNL A   1      44.085  27.794  28.688  1.00  0.00     0.029 A 
ATOM     57  C   UNL A   1      45.200  28.734  28.786  1.00  0.00     0.049 A 
ATOM     58  H   UNL A   1      46.996  28.668  27.731  1.00  0.00     0.167 HD
ATOM     59  C   UNL A   1      50.910  28.197  25.833  1.00  0.00     0.034 A 
ATOM     60  C   UNL A   1      45.242  29.825  29.577  1.00  0.00     0.034 A 
ATOM     61  C   UNL A   1      50.972  29.470  26.497  1.00  0.00     0.049 A 
ATOM     62  C   UNL A   1      46.460  30.715  29.552  1.00  0.00     0.074 A 
ATOM     63  C   UNL A   1      52.000  30.396  26.489  1.00  0.00     0.029 A 
ATOM     64  N   UNL A   1      49.973  29.990  27.306  1.00  0.00    -0.354 N 
ATOM     65  N   UNL A   1      47.563  30.586  28.855  1.00  0.00    -0.248 NA
ATOM     66  C   UNL A   1      46.424  31.920  30.395  1.00  0.00     0.031 C 
ATOM     67  C   UNL A   1      51.638  31.459  27.324  1.00  0.00     0.029 A 
ATOM     68  C   UNL A   1      50.365  31.215  27.816  1.00  0.00     0.049 A 
ATOM     69  H   UNL A   1      49.111  29.551  27.490  1.00  0.00     0.167 HD
ATOM     70  C   UNL A   1      48.335  31.708  29.147  1.00  0.00     0.074 A 
ATOM     71  C   UNL A   1      47.564  32.514  30.070  1.00  0.00     0.031 C 
ATOM     72  C   UNL A   1      49.572  32.035  28.698  1.00  0.00     0.034 A 
BRANCH  59  73
ATOM     73  C   UNL A   1      52.114  27.736  25.052  1.00  0.00     0.023 A 
ATOM     74  C   UNL A   1      53.232  27.208  25.730  1.00  0.00     0.012 A 
ATOM     75  C   UNL A   1      52.126  27.799  23.645  1.00  0.00     0.148 A 
ATOM     76  C   UNL A   1      54.359  26.790  25.023  1.00  0.00     0.002 A 
ATOM     77  C   UNL A   1      53.233  27.335  22.945  1.00  0.00     0.091 A 
ATOM     78  F   UNL A   1      51.065  28.326  23.017  1.00  0.00    -0.205 F 
ATOM     79  C   UNL A   1      54.355  26.844  23.632  1.00  0.00     0.022 A 
BRANCH  77  80
ATOM     80  S   UNL A   1      53.293  27.286  21.150  1.00  0.00     0.127 S 
ATOM     81  O   UNL A   1      52.125  26.464  20.838  1.00  0.00    -0.237 OA
ATOM     82  O   UNL A   1      53.154  28.700  20.801  1.00  0.00    -0.237 OA
ATOM     83  O   UNL A   1      54.581  26.701  20.808  1.00  0.00    -0.744 OA
ENDBRANCH  77  80
ENDBRANCH  59  73
BRANCH  60  84
ATOM     84  C   UNL A   1      44.080  30.150  30.453  1.00  0.00     0.023 A 
ATOM     85  C   UNL A   1      43.847  29.394  31.617  1.00  0.00     0.012 A 
ATOM     86  C   UNL A   1      43.216  31.218  30.142  1.00  0.00     0.148 A 
ATOM     87  C   UNL A   1      42.759  29.680  32.445  1.00  0.00     0.002 A 
ATOM     88  C   UNL A   1      42.169  31.534  30.999  1.00  0.00     0.091 A 
ATOM     89  F   UNL A   1      43.445  31.913  29.019  1.00  0.00    -0.205 F 
ATOM     90  C   UNL A   1      41.928  30.755  32.142  1.00  0.00     0.022 A 
BRANCH  88  91
ATOM     91  S   UNL A   1      41.123  32.974  30.756  1.00  0.00     0.127 S 
ATOM     92  O   UNL A   1      42.108  34.051  30.694  1.00  0.00    -0.237 OA
ATOM     93  O   UNL A   1      40.472  32.659  29.485  1.00  0.00    -0.237 OA
ATOM     94  O   UNL A   1      40.225  33.007  31.902  1.00  0.00    -0.744 OA
ENDBRANCH  88  91
ENDBRANCH  60  84
BRANCH  72  95
ATOM     95  C   UNL A   1      50.166  33.344  29.154  1.00  0.00     0.023 A 
ATOM     96  C   UNL A   1      50.888  33.411  30.362  1.00  0.00     0.012 A 
ATOM     97  C   UNL A   1      50.077  34.492  28.340  1.00  0.00     0.148 A 
ATOM     98  C   UNL A   1      51.479  34.608  30.770  1.00  0.00     0.002 A 
ATOM     99  C   UNL A   1      50.712  35.666  28.727  1.00  0.00     0.091 A 
ATOM    100  F   UNL A   1      49.373  34.414  27.201  1.00  0.00    -0.205 F 
ATOM    101  C   UNL A   1      51.402  35.729  29.948  1.00  0.00     0.022 A 
BRANCH  99 102
ATOM    102  S   UNL A   1      50.751  37.131  27.687  1.00  0.00     0.127 S 
ATOM    103  O   UNL A   1      51.412  36.625  26.485  1.00  0.00    -0.237 OA
ATOM    104  O   UNL A   1      49.329  37.431  27.521  1.00  0.00    -0.237 OA
ATOM    105  O   UNL A   1      51.498  38.135  28.433  1.00  0.00    -0.744 OA
ENDBRANCH  99 102
ENDBRANCH  72  95
ENDBRANCH  46  47
ENDBRANCH  39  41
ENDBRANCH  38  39
ENDBRANCH  37  38
ENDBRANCH  36  37
ENDBRANCH  35  36
ENDBRANCH  34  35
ENDBRANCH  33  34
ENDBRANCH  32  33
ENDBRANCH  31  32
ENDBRANCH   1  31
TORSDOF 29
ENDMDL
