MODEL 1
REMARK VINA RESULT:      -9.4      0.000      0.000
REMARK SMILES CC1(C)[C@@H](C(=O)NCCc2ccc(S(N)(=O)=O)cc2)[C@@H]1C(=O)OCCOCCOCCOC(=O)c1ccc(-c2c3nc(c(-c4cccc(S(=O)(=O)[O-])c4F)c4ccc([nH]4)c(-c4cccc(S(=O)(=O)[O-])c4F)c4nc(c(-c5cccc(S(=O)(=O)[O-])c5F)c5ccc2[nH]5)C=C4)C=C3)cc1
REMARK SMILES IDX 26 1 25 2 24 3 23 4 21 5 22 6 20 7 1 8 2 9 3 10 4 11 5 12
REMARK SMILES IDX 6 13 7 14 8 16 9 17 10 18 11 19 19 20 12 21 18 22 13 23
REMARK SMILES IDX 14 24 16 25 17 26 15 27 27 30 28 31 29 32 30 33 31 34 32 35
REMARK SMILES IDX 33 36 34 37 35 38 36 39 97 40 37 41 96 42 38 43 39 44 40 45
REMARK SMILES IDX 90 46 41 47 95 48 89 49 91 50 42 51 94 52 88 53 87 54 43 56
REMARK SMILES IDX 75 57 55 58 74 59 56 60 59 61 73 62 92 63 57 64 58 65 72 67
REMARK SMILES IDX 93 68 60 69 44 70 45 71 53 72 46 73 48 74 54 75 47 76 49 77
REMARK SMILES IDX 50 78 51 79 52 80 76 81 77 82 85 83 78 84 80 85 86 86 79 87
REMARK SMILES IDX 81 88 82 89 83 90 84 91 61 92 62 93 70 94 63 95 65 96 71 97
REMARK SMILES IDX 64 98 66 99 67 100 68 101 69 102
REMARK H PARENT 7 15 15 28 15 29 91 55 59 66
REMARK Flexibility Score: inf
ROOT
ATOM      1  O   UNL A   1      34.833  29.740  28.061  1.00  0.00    -0.376 OA
ENDROOT
BRANCH   1   2
ATOM      2  C   UNL A   1      33.628  29.227  27.515  1.00  0.00     0.202 C 
BRANCH   2   3
ATOM      3  C   UNL A   1      33.231  29.378  26.034  1.00  0.00     0.261 C 
BRANCH   3   4
ATOM      4  O   UNL A   1      31.960  28.835  25.648  1.00  0.00    -0.463 OA
BRANCH   4   5
ATOM      5  C   UNL A   1      31.942  27.489  25.451  1.00  0.00     0.310 C 
ATOM      6  O   UNL A   1      31.198  26.702  26.011  1.00  0.00    -0.252 OA
BRANCH   5   7
ATOM      7  C   UNL A   1      32.854  27.080  24.347  1.00  0.00     0.118 C 
ATOM      8  C   UNL A   1      33.724  27.883  22.082  1.00  0.00     0.013 C 
ATOM      9  C   UNL A   1      32.546  27.404  22.904  1.00  0.00    -0.009 C 
ATOM     10  C   UNL A   1      31.254  28.088  22.538  1.00  0.00     0.013 C 
ATOM     11  C   UNL A   1      32.494  25.949  23.411  1.00  0.00     0.100 C 
BRANCH  11  12
ATOM     12  C   UNL A   1      33.446  25.000  22.772  1.00  0.00     0.224 C 
ATOM     13  O   UNL A   1      33.273  24.682  21.600  1.00  0.00    -0.275 OA
ATOM     14  N   UNL A   1      34.514  24.477  23.443  1.00  0.00    -0.355 N 
ATOM     15  H   UNL A   1      35.159  24.005  22.870  1.00  0.00     0.163 HD
BRANCH  14  16
ATOM     16  C   UNL A   1      34.866  24.496  24.848  1.00  0.00     0.120 C 
BRANCH  16  17
ATOM     17  C   UNL A   1      33.970  23.644  25.762  1.00  0.00     0.056 C 
BRANCH  17  18
ATOM     18  C   UNL A   1      33.790  22.174  25.432  1.00  0.00    -0.046 A 
ATOM     19  C   UNL A   1      32.496  21.642  25.276  1.00  0.00     0.005 A 
ATOM     20  C   UNL A   1      34.885  21.345  25.152  1.00  0.00     0.005 A 
ATOM     21  C   UNL A   1      32.304  20.320  24.858  1.00  0.00     0.022 A 
ATOM     22  C   UNL A   1      34.704  20.015  24.766  1.00  0.00     0.022 A 
ATOM     23  C   UNL A   1      33.414  19.510  24.610  1.00  0.00     0.082 A 
BRANCH  23  24
ATOM     24  S   UNL A   1      33.194  17.852  24.040  1.00  0.00     0.238 S 
ATOM     25  O   UNL A   1      32.891  17.887  22.624  1.00  0.00    -0.207 OA
ATOM     26  O   UNL A   1      34.228  17.011  24.586  1.00  0.00    -0.207 OA
BRANCH  24  27
ATOM     27  N   UNL A   1      31.782  17.376  24.810  1.00  0.00    -0.225 NA
ATOM     28  H   UNL A   1      32.015  16.901  25.683  1.00  0.00     0.137 HD
ATOM     29  H   UNL A   1      31.262  16.739  24.206  1.00  0.00     0.137 HD
ENDBRANCH  24  27
ENDBRANCH  23  24
ENDBRANCH  17  18
ENDBRANCH  16  17
ENDBRANCH  14  16
ENDBRANCH  11  12
ENDBRANCH   5   7
ENDBRANCH   4   5
ENDBRANCH   3   4
ENDBRANCH   2   3
ENDBRANCH   1   2
BRANCH   1  30
ATOM     30  C   UNL A   1      35.284  31.038  27.730  1.00  0.00     0.188 C 
BRANCH  30  31
ATOM     31  C   UNL A   1      34.771  32.237  28.542  1.00  0.00     0.188 C 
BRANCH  31  32
ATOM     32  O   UNL A   1      35.531  32.599  29.669  1.00  0.00    -0.376 OA
BRANCH  32  33
ATOM     33  C   UNL A   1      35.044  32.266  30.958  1.00  0.00     0.202 C 
BRANCH  33  34
ATOM     34  C   UNL A   1      35.754  31.344  31.979  1.00  0.00     0.261 C 
BRANCH  34  35
ATOM     35  O   UNL A   1      36.190  30.045  31.565  1.00  0.00    -0.460 OA
BRANCH  35  36
ATOM     36  C   UNL A   1      37.306  29.559  32.163  1.00  0.00     0.338 C 
ATOM     37  O   UNL A   1      37.377  28.573  32.876  1.00  0.00    -0.246 OA
BRANCH  36  38
ATOM     38  C   UNL A   1      38.483  30.269  31.612  1.00  0.00     0.060 A 
ATOM     39  C   UNL A   1      38.643  30.329  30.219  1.00  0.00     0.016 A 
ATOM     40  C   UNL A   1      39.430  30.853  32.453  1.00  0.00     0.016 A 
ATOM     41  C   UNL A   1      39.769  30.940  29.666  1.00  0.00     0.010 A 
ATOM     42  C   UNL A   1      40.571  31.443  31.898  1.00  0.00     0.010 A 
ATOM     43  C   UNL A   1      40.764  31.456  30.503  1.00  0.00    -0.014 A 
BRANCH  43  44
ATOM     44  C   UNL A   1      42.082  31.833  29.930  1.00  0.00     0.031 A 
ATOM     45  C   UNL A   1      42.351  33.286  29.636  1.00  0.00     0.074 A 
ATOM     46  C   UNL A   1      43.032  30.912  29.687  1.00  0.00     0.049 A 
ATOM     47  N   UNL A   1      43.411  33.846  29.117  1.00  0.00    -0.248 NA
ATOM     48  C   UNL A   1      41.273  34.234  29.972  1.00  0.00     0.031 C 
ATOM     49  C   UNL A   1      42.906  29.478  29.938  1.00  0.00     0.029 A 
ATOM     50  N   UNL A   1      44.289  31.051  29.149  1.00  0.00    -0.354 N 
ATOM     51  C   UNL A   1      43.119  35.202  29.030  1.00  0.00     0.074 A 
ATOM     52  C   UNL A   1      41.777  35.380  29.540  1.00  0.00     0.031 C 
ATOM     53  C   UNL A   1      44.028  28.863  29.526  1.00  0.00     0.029 A 
ATOM     54  C   UNL A   1      44.941  29.855  28.959  1.00  0.00     0.049 A 
ATOM     55  H   UNL A   1      44.684  31.923  28.920  1.00  0.00     0.167 HD
ATOM     56  C   UNL A   1      43.899  36.213  28.578  1.00  0.00     0.034 A 
ATOM     57  C   UNL A   1      46.127  29.590  28.373  1.00  0.00     0.034 A 
ATOM     58  C   UNL A   1      45.237  36.038  28.080  1.00  0.00     0.049 A 
ATOM     59  C   UNL A   1      46.965  30.729  27.849  1.00  0.00     0.074 A 
ATOM     60  C   UNL A   1      46.124  37.006  27.642  1.00  0.00     0.029 A 
ATOM     61  N   UNL A   1      45.876  34.817  27.936  1.00  0.00    -0.354 N 
ATOM     62  N   UNL A   1      46.718  32.017  27.872  1.00  0.00    -0.248 NA
ATOM     63  C   UNL A   1      48.262  30.380  27.249  1.00  0.00     0.031 C 
ATOM     64  C   UNL A   1      47.282  36.367  27.191  1.00  0.00     0.029 A 
ATOM     65  C   UNL A   1      47.139  35.004  27.401  1.00  0.00     0.049 A 
ATOM     66  H   UNL A   1      45.488  33.946  28.177  1.00  0.00     0.167 HD
ATOM     67  C   UNL A   1      47.846  32.632  27.335  1.00  0.00     0.074 A 
ATOM     68  C   UNL A   1      48.781  31.576  27.009  1.00  0.00     0.031 C 
ATOM     69  C   UNL A   1      48.084  33.951  27.126  1.00  0.00     0.034 A 
BRANCH  56  70
ATOM     70  C   UNL A   1      43.326  37.606  28.606  1.00  0.00     0.023 A 
ATOM     71  C   UNL A   1      42.444  38.026  27.590  1.00  0.00     0.012 A 
ATOM     72  C   UNL A   1      43.621  38.482  29.669  1.00  0.00     0.148 A 
ATOM     73  C   UNL A   1      41.893  39.308  27.612  1.00  0.00     0.002 A 
ATOM     74  C   UNL A   1      43.028  39.738  29.711  1.00  0.00     0.091 A 
ATOM     75  F   UNL A   1      44.478  38.073  30.616  1.00  0.00    -0.205 F 
ATOM     76  C   UNL A   1      42.176  40.157  28.677  1.00  0.00     0.022 A 
BRANCH  74  77
ATOM     77  S   UNL A   1      43.263  40.876  31.081  1.00  0.00     0.127 S 
ATOM     78  O   UNL A   1      44.716  41.036  31.085  1.00  0.00    -0.237 OA
ATOM     79  O   UNL A   1      42.521  42.053  30.631  1.00  0.00    -0.237 OA
ATOM     80  O   UNL A   1      42.706  40.217  32.253  1.00  0.00    -0.744 OA
ENDBRANCH  74  77
ENDBRANCH  56  70
BRANCH  57  81
ATOM     81  C   UNL A   1      46.610  28.184  28.266  1.00  0.00     0.023 A 
ATOM     82  C   UNL A   1      47.408  27.639  29.291  1.00  0.00     0.012 A 
ATOM     83  C   UNL A   1      46.284  27.386  27.152  1.00  0.00     0.148 A 
ATOM     84  C   UNL A   1      47.902  26.337  29.192  1.00  0.00     0.002 A 
ATOM     85  C   UNL A   1      46.732  26.072  27.086  1.00  0.00     0.091 A 
ATOM     86  F   UNL A   1      45.538  27.929  26.180  1.00  0.00    -0.205 F 
ATOM     87  C   UNL A   1      47.557  25.551  28.095  1.00  0.00     0.022 A 
BRANCH  85  88
ATOM     88  S   UNL A   1      46.239  24.950  25.774  1.00  0.00     0.127 S 
ATOM     89  O   UNL A   1      46.866  25.564  24.605  1.00  0.00    -0.237 OA
ATOM     90  O   UNL A   1      46.849  23.694  26.211  1.00  0.00    -0.237 OA
ATOM     91  O   UNL A   1      44.783  24.949  25.781  1.00  0.00    -0.744 OA
ENDBRANCH  85  88
ENDBRANCH  57  81
BRANCH  69  92
ATOM     92  C   UNL A   1      49.431  34.348  26.576  1.00  0.00     0.023 A 
ATOM     93  C   UNL A   1      49.602  34.562  25.195  1.00  0.00     0.012 A 
ATOM     94  C   UNL A   1      50.515  34.573  27.448  1.00  0.00     0.148 A 
ATOM     95  C   UNL A   1      50.841  34.954  24.686  1.00  0.00     0.002 A 
ATOM     96  C   UNL A   1      51.731  35.018  26.941  1.00  0.00     0.091 A 
ATOM     97  F   UNL A   1      50.339  34.350  28.759  1.00  0.00    -0.205 F 
ATOM     98  C   UNL A   1      51.900  35.192  25.559  1.00  0.00     0.022 A 
BRANCH  96  99
ATOM     99  S   UNL A   1      53.117  35.448  27.999  1.00  0.00     0.127 S 
ATOM    100  O   UNL A   1      53.604  34.131  28.403  1.00  0.00    -0.237 OA
ATOM    101  O   UNL A   1      53.997  36.167  27.077  1.00  0.00    -0.237 OA
ATOM    102  O   UNL A   1      52.567  36.266  29.071  1.00  0.00    -0.744 OA
ENDBRANCH  96  99
ENDBRANCH  69  92
ENDBRANCH  43  44
ENDBRANCH  36  38
ENDBRANCH  35  36
ENDBRANCH  34  35
ENDBRANCH  33  34
ENDBRANCH  32  33
ENDBRANCH  31  32
ENDBRANCH  30  31
ENDBRANCH   1  30
TORSDOF 26
ENDMDL
MODEL 2
REMARK VINA RESULT:      -9.3      5.354      7.531
REMARK SMILES CC1(C)[C@@H](C(=O)NCCc2ccc(S(N)(=O)=O)cc2)[C@@H]1C(=O)OCCOCCOCCOC(=O)c1ccc(-c2c3nc(c(-c4cccc(S(=O)(=O)[O-])c4F)c4ccc([nH]4)c(-c4cccc(S(=O)(=O)[O-])c4F)c4nc(c(-c5cccc(S(=O)(=O)[O-])c5F)c5ccc2[nH]5)C=C4)C=C3)cc1
REMARK SMILES IDX 26 1 25 2 24 3 23 4 21 5 22 6 20 7 1 8 2 9 3 10 4 11 5 12
REMARK SMILES IDX 6 13 7 14 8 16 9 17 10 18 11 19 19 20 12 21 18 22 13 23
REMARK SMILES IDX 14 24 16 25 17 26 15 27 27 30 28 31 29 32 30 33 31 34 32 35
REMARK SMILES IDX 33 36 34 37 35 38 36 39 97 40 37 41 96 42 38 43 39 44 40 45
REMARK SMILES IDX 90 46 41 47 95 48 89 49 91 50 42 51 94 52 88 53 87 54 43 56
REMARK SMILES IDX 75 57 55 58 74 59 56 60 59 61 73 62 92 63 57 64 58 65 72 67
REMARK SMILES IDX 93 68 60 69 44 70 45 71 53 72 46 73 48 74 54 75 47 76 49 77
REMARK SMILES IDX 50 78 51 79 52 80 76 81 77 82 85 83 78 84 80 85 86 86 79 87
REMARK SMILES IDX 81 88 82 89 83 90 84 91 61 92 62 93 70 94 63 95 65 96 71 97
REMARK SMILES IDX 64 98 66 99 67 100 68 101 69 102
REMARK H PARENT 7 15 15 28 15 29 91 55 59 66
REMARK Flexibility Score: inf
ROOT
ATOM      1  O   UNL A   1      34.747  34.016  28.127  1.00  0.00    -0.376 OA
ENDROOT
BRANCH   1   2
ATOM      2  C   UNL A   1      35.926  33.233  28.023  1.00  0.00     0.202 C 
BRANCH   2   3
ATOM      3  C   UNL A   1      35.924  31.695  27.927  1.00  0.00     0.261 C 
BRANCH   3   4
ATOM      4  O   UNL A   1      37.156  31.027  28.233  1.00  0.00    -0.463 OA
BRANCH   4   5
ATOM      5  C   UNL A   1      37.028  29.739  28.649  1.00  0.00     0.310 C 
ATOM      6  O   UNL A   1      36.043  29.265  29.192  1.00  0.00    -0.252 OA
BRANCH   5   7
ATOM      7  C   UNL A   1      38.191  28.906  28.237  1.00  0.00     0.118 C 
ATOM      8  C   UNL A   1      39.372  26.712  28.807  1.00  0.00     0.013 C 
ATOM      9  C   UNL A   1      38.993  28.113  29.242  1.00  0.00    -0.009 C 
ATOM     10  C   UNL A   1      38.677  28.210  30.712  1.00  0.00     0.013 C 
ATOM     11  C   UNL A   1      39.609  29.337  28.536  1.00  0.00     0.100 C 
BRANCH  11  12
ATOM     12  C   UNL A   1      40.805  29.072  27.691  1.00  0.00     0.224 C 
ATOM     13  O   UNL A   1      40.665  28.970  26.476  1.00  0.00    -0.275 OA
ATOM     14  N   UNL A   1      42.058  28.947  28.220  1.00  0.00    -0.355 N 
ATOM     15  H   UNL A   1      42.780  28.946  27.552  1.00  0.00     0.163 HD
BRANCH  14  16
ATOM     16  C   UNL A   1      42.511  28.817  29.590  1.00  0.00     0.120 C 
BRANCH  16  17
ATOM     17  C   UNL A   1      43.143  27.462  29.949  1.00  0.00     0.056 C 
BRANCH  17  18
ATOM     18  C   UNL A   1      44.047  26.793  28.931  1.00  0.00    -0.046 A 
ATOM     19  C   UNL A   1      45.439  26.764  29.140  1.00  0.00     0.005 A 
ATOM     20  C   UNL A   1      43.526  26.086  27.838  1.00  0.00     0.005 A 
ATOM     21  C   UNL A   1      46.284  26.054  28.278  1.00  0.00     0.022 A 
ATOM     22  C   UNL A   1      44.365  25.402  26.955  1.00  0.00     0.022 A 
ATOM     23  C   UNL A   1      45.739  25.380  27.184  1.00  0.00     0.082 A 
BRANCH  23  24
ATOM     24  S   UNL A   1      46.783  24.442  26.110  1.00  0.00     0.238 S 
ATOM     25  O   UNL A   1      46.456  24.777  24.739  1.00  0.00    -0.207 OA
ATOM     26  O   UNL A   1      48.135  24.467  26.607  1.00  0.00    -0.207 OA
BRANCH  24  27
ATOM     27  N   UNL A   1      46.251  22.870  26.350  1.00  0.00    -0.225 NA
ATOM     28  H   UNL A   1      45.286  22.785  26.029  1.00  0.00     0.137 HD
ATOM     29  H   UNL A   1      46.301  22.641  27.342  1.00  0.00     0.137 HD
ENDBRANCH  24  27
ENDBRANCH  23  24
ENDBRANCH  17  18
ENDBRANCH  16  17
ENDBRANCH  14  16
ENDBRANCH  11  12
ENDBRANCH   5   7
ENDBRANCH   4   5
ENDBRANCH   3   4
ENDBRANCH   2   3
ENDBRANCH   1   2
BRANCH   1  30
ATOM     30  C   UNL A   1      34.245  34.405  29.390  1.00  0.00     0.188 C 
BRANCH  30  31
ATOM     31  C   UNL A   1      33.022  35.332  29.455  1.00  0.00     0.188 C 
BRANCH  31  32
ATOM     32  O   UNL A   1      32.693  35.843  30.723  1.00  0.00    -0.376 OA
BRANCH  32  33
ATOM     33  C   UNL A   1      33.729  36.045  31.670  1.00  0.00     0.202 C 
BRANCH  33  34
ATOM     34  C   UNL A   1      33.735  35.517  33.125  1.00  0.00     0.261 C 
BRANCH  34  35
ATOM     35  O   UNL A   1      34.779  34.632  33.543  1.00  0.00    -0.460 OA
BRANCH  35  36
ATOM     36  C   UNL A   1      34.701  33.350  33.108  1.00  0.00     0.338 C 
ATOM     37  O   UNL A   1      33.705  32.785  32.690  1.00  0.00    -0.246 OA
BRANCH  36  38
ATOM     38  C   UNL A   1      36.074  32.810  32.981  1.00  0.00     0.060 A 
ATOM     39  C   UNL A   1      37.039  33.191  33.927  1.00  0.00     0.016 A 
ATOM     40  C   UNL A   1      36.417  31.955  31.933  1.00  0.00     0.016 A 
ATOM     41  C   UNL A   1      38.356  32.749  33.805  1.00  0.00     0.010 A 
ATOM     42  C   UNL A   1      37.744  31.532  31.799  1.00  0.00     0.010 A 
ATOM     43  C   UNL A   1      38.727  31.957  32.712  1.00  0.00    -0.014 A 
BRANCH  43  44
ATOM     44  C   UNL A   1      40.168  31.735  32.424  1.00  0.00     0.031 A 
ATOM     45  C   UNL A   1      40.870  32.685  31.488  1.00  0.00     0.074 A 
ATOM     46  C   UNL A   1      40.850  30.722  32.988  1.00  0.00     0.049 A 
ATOM     47  N   UNL A   1      42.109  32.676  31.072  1.00  0.00    -0.248 NA
ATOM     48  C   UNL A   1      40.061  33.791  30.947  1.00  0.00     0.031 C 
ATOM     49  C   UNL A   1      40.294  29.742  33.920  1.00  0.00     0.029 A 
ATOM     50  N   UNL A   1      42.161  30.339  32.838  1.00  0.00    -0.354 N 
ATOM     51  C   UNL A   1      42.221  33.750  30.196  1.00  0.00     0.074 A 
ATOM     52  C   UNL A   1      40.921  34.382  30.131  1.00  0.00     0.031 C 
ATOM     53  C   UNL A   1      41.250  28.851  34.235  1.00  0.00     0.029 A 
ATOM     54  C   UNL A   1      42.475  29.181  33.508  1.00  0.00     0.049 A 
ATOM     55  H   UNL A   1      42.812  30.845  32.300  1.00  0.00     0.167 HD
ATOM     56  C   UNL A   1      43.309  34.181  29.514  1.00  0.00     0.034 A 
ATOM     57  C   UNL A   1      43.614  28.458  33.516  1.00  0.00     0.034 A 
ATOM     58  C   UNL A   1      44.604  33.560  29.586  1.00  0.00     0.049 A 
ATOM     59  C   UNL A   1      44.803  28.940  32.724  1.00  0.00     0.074 A 
ATOM     60  C   UNL A   1      45.779  33.950  28.968  1.00  0.00     0.029 A 
ATOM     61  N   UNL A   1      44.892  32.409  30.303  1.00  0.00    -0.354 N 
ATOM     62  N   UNL A   1      44.924  30.017  31.985  1.00  0.00    -0.248 NA
ATOM     63  C   UNL A   1      46.026  28.126  32.797  1.00  0.00     0.031 C 
ATOM     64  C   UNL A   1      46.767  33.010  29.275  1.00  0.00     0.029 A 
ATOM     65  C   UNL A   1      46.222  32.066  30.131  1.00  0.00     0.049 A 
ATOM     66  H   UNL A   1      44.247  31.910  30.853  1.00  0.00     0.167 HD
ATOM     67  C   UNL A   1      46.245  30.033  31.545  1.00  0.00     0.074 A 
ATOM     68  C   UNL A   1      46.887  28.866  32.111  1.00  0.00     0.031 C 
ATOM     69  C   UNL A   1      46.867  30.930  30.740  1.00  0.00     0.034 A 
BRANCH  56  70
ATOM     70  C   UNL A   1      43.148  35.391  28.631  1.00  0.00     0.023 A 
ATOM     71  C   UNL A   1      42.727  35.238  27.295  1.00  0.00     0.012 A 
ATOM     72  C   UNL A   1      43.363  36.686  29.142  1.00  0.00     0.148 A 
ATOM     73  C   UNL A   1      42.558  36.350  26.470  1.00  0.00     0.002 A 
ATOM     74  C   UNL A   1      43.143  37.792  28.331  1.00  0.00     0.091 A 
ATOM     75  F   UNL A   1      43.783  36.812  30.410  1.00  0.00    -0.205 F 
ATOM     76  C   UNL A   1      42.754  37.626  26.991  1.00  0.00     0.022 A 
BRANCH  74  77
ATOM     77  S   UNL A   1      43.289  39.479  28.930  1.00  0.00     0.127 S 
ATOM     78  O   UNL A   1      44.571  39.885  28.356  1.00  0.00    -0.237 OA
ATOM     79  O   UNL A   1      42.121  40.120  28.325  1.00  0.00    -0.237 OA
ATOM     80  O   UNL A   1      43.255  39.396  30.382  1.00  0.00    -0.744 OA
ENDBRANCH  74  77
ENDBRANCH  56  70
BRANCH  57  81
ATOM     81  C   UNL A   1      43.698  27.203  34.318  1.00  0.00     0.023 A 
ATOM     82  C   UNL A   1      43.386  25.967  33.718  1.00  0.00     0.012 A 
ATOM     83  C   UNL A   1      44.083  27.231  35.672  1.00  0.00     0.148 A 
ATOM     84  C   UNL A   1      43.422  24.787  34.461  1.00  0.00     0.002 A 
ATOM     85  C   UNL A   1      44.172  26.045  36.392  1.00  0.00     0.091 A 
ATOM     86  F   UNL A   1      44.360  28.419  36.229  1.00  0.00    -0.205 F 
ATOM     87  C   UNL A   1      43.823  24.824  35.794  1.00  0.00     0.022 A 
BRANCH  85  88
ATOM     88  S   UNL A   1      44.794  25.982  38.075  1.00  0.00     0.127 S 
ATOM     89  O   UNL A   1      44.622  24.569  38.404  1.00  0.00    -0.237 OA
ATOM     90  O   UNL A   1      46.182  26.409  37.896  1.00  0.00    -0.237 OA
ATOM     91  O   UNL A   1      43.971  26.911  38.835  1.00  0.00    -0.744 OA
ENDBRANCH  85  88
ENDBRANCH  57  81
BRANCH  69  92
ATOM     92  C   UNL A   1      48.337  30.732  30.467  1.00  0.00     0.023 A 
ATOM     93  C   UNL A   1      49.304  31.285  31.329  1.00  0.00     0.012 A 
ATOM     94  C   UNL A   1      48.757  29.935  29.382  1.00  0.00     0.148 A 
ATOM     95  C   UNL A   1      50.664  31.082  31.093  1.00  0.00     0.002 A 
ATOM     96  C   UNL A   1      50.111  29.691  29.186  1.00  0.00     0.091 A 
ATOM     97  F   UNL A   1      47.824  29.429  28.562  1.00  0.00    -0.205 F 
ATOM     98  C   UNL A   1      51.066  30.277  30.030  1.00  0.00     0.022 A 
BRANCH  96  99
ATOM     99  S   UNL A   1      50.715  28.585  27.905  1.00  0.00     0.127 S 
ATOM    100  O   UNL A   1      49.963  27.364  28.187  1.00  0.00    -0.237 OA
ATOM    101  O   UNL A   1      50.312  29.280  26.682  1.00  0.00    -0.237 OA
ATOM    102  O   UNL A   1      52.155  28.490  28.100  1.00  0.00    -0.744 OA
ENDBRANCH  96  99
ENDBRANCH  69  92
ENDBRANCH  43  44
ENDBRANCH  36  38
ENDBRANCH  35  36
ENDBRANCH  34  35
ENDBRANCH  33  34
ENDBRANCH  32  33
ENDBRANCH  31  32
ENDBRANCH  30  31
ENDBRANCH   1  30
TORSDOF 26
ENDMDL
MODEL 3
REMARK VINA RESULT:      -9.1      1.716      2.381
REMARK SMILES CC1(C)[C@@H](C(=O)NCCc2ccc(S(N)(=O)=O)cc2)[C@@H]1C(=O)OCCOCCOCCOC(=O)c1ccc(-c2c3nc(c(-c4cccc(S(=O)(=O)[O-])c4F)c4ccc([nH]4)c(-c4cccc(S(=O)(=O)[O-])c4F)c4nc(c(-c5cccc(S(=O)(=O)[O-])c5F)c5ccc2[nH]5)C=C4)C=C3)cc1
REMARK SMILES IDX 26 1 25 2 24 3 23 4 21 5 22 6 20 7 1 8 2 9 3 10 4 11 5 12
REMARK SMILES IDX 6 13 7 14 8 16 9 17 10 18 11 19 19 20 12 21 18 22 13 23
REMARK SMILES IDX 14 24 16 25 17 26 15 27 27 30 28 31 29 32 30 33 31 34 32 35
REMARK SMILES IDX 33 36 34 37 35 38 36 39 97 40 37 41 96 42 38 43 39 44 40 45
REMARK SMILES IDX 90 46 41 47 95 48 89 49 91 50 42 51 94 52 88 53 87 54 43 56
REMARK SMILES IDX 75 57 55 58 74 59 56 60 59 61 73 62 92 63 57 64 58 65 72 67
REMARK SMILES IDX 93 68 60 69 44 70 45 71 53 72 46 73 48 74 54 75 47 76 49 77
REMARK SMILES IDX 50 78 51 79 52 80 76 81 77 82 85 83 78 84 80 85 86 86 79 87
REMARK SMILES IDX 81 88 82 89 83 90 84 91 61 92 62 93 70 94 63 95 65 96 71 97
REMARK SMILES IDX 64 98 66 99 67 100 68 101 69 102
REMARK H PARENT 7 15 15 28 15 29 91 55 59 66
REMARK Flexibility Score: inf
ROOT
ATOM      1  O   UNL A   1      34.598  29.714  28.100  1.00  0.00    -0.376 OA
ENDROOT
BRANCH   1   2
ATOM      2  C   UNL A   1      33.892  29.586  26.876  1.00  0.00     0.202 C 
BRANCH   2   3
ATOM      3  C   UNL A   1      34.263  28.569  25.779  1.00  0.00     0.261 C 
BRANCH   3   4
ATOM      4  O   UNL A   1      33.192  28.088  24.955  1.00  0.00    -0.463 OA
BRANCH   4   5
ATOM      5  C   UNL A   1      32.780  26.820  25.224  1.00  0.00     0.310 C 
ATOM      6  O   UNL A   1      32.310  26.439  26.283  1.00  0.00    -0.252 OA
BRANCH   5   7
ATOM      7  C   UNL A   1      32.833  25.954  24.015  1.00  0.00     0.118 C 
ATOM      8  C   UNL A   1      31.897  25.787  21.642  1.00  0.00     0.013 C 
ATOM      9  C   UNL A   1      31.624  25.753  23.131  1.00  0.00    -0.009 C 
ATOM     10  C   UNL A   1      30.301  26.370  23.503  1.00  0.00     0.013 C 
ATOM     11  C   UNL A   1      32.168  24.596  23.993  1.00  0.00     0.100 C 
BRANCH  11  12
ATOM     12  C   UNL A   1      32.644  23.397  23.252  1.00  0.00     0.224 C 
ATOM     13  O   UNL A   1      31.822  22.570  22.868  1.00  0.00    -0.275 OA
ATOM     14  N   UNL A   1      33.964  23.187  22.975  1.00  0.00    -0.355 N 
ATOM     15  H   UNL A   1      34.133  22.456  22.338  1.00  0.00     0.163 HD
BRANCH  14  16
ATOM     16  C   UNL A   1      35.160  23.851  23.452  1.00  0.00     0.120 C 
BRANCH  16  17
ATOM     17  C   UNL A   1      35.422  23.728  24.963  1.00  0.00     0.056 C 
BRANCH  17  18
ATOM     18  C   UNL A   1      36.672  23.002  25.424  1.00  0.00    -0.046 A 
ATOM     19  C   UNL A   1      36.900  21.672  25.020  1.00  0.00     0.005 A 
ATOM     20  C   UNL A   1      37.680  23.658  26.144  1.00  0.00     0.005 A 
ATOM     21  C   UNL A   1      38.097  21.018  25.335  1.00  0.00     0.022 A 
ATOM     22  C   UNL A   1      38.864  23.002  26.489  1.00  0.00     0.022 A 
ATOM     23  C   UNL A   1      39.073  21.688  26.074  1.00  0.00     0.082 A 
BRANCH  23  24
ATOM     24  S   UNL A   1      40.608  20.895  26.443  1.00  0.00     0.238 S 
ATOM     25  O   UNL A   1      41.631  21.444  25.577  1.00  0.00    -0.207 OA
ATOM     26  O   UNL A   1      40.775  20.804  27.871  1.00  0.00    -0.207 OA
BRANCH  24  27
ATOM     27  N   UNL A   1      40.351  19.321  25.924  1.00  0.00    -0.225 NA
ATOM     28  H   UNL A   1      39.501  18.956  26.355  1.00  0.00     0.137 HD
ATOM     29  H   UNL A   1      41.144  18.739  26.193  1.00  0.00     0.137 HD
ENDBRANCH  24  27
ENDBRANCH  23  24
ENDBRANCH  17  18
ENDBRANCH  16  17
ENDBRANCH  14  16
ENDBRANCH  11  12
ENDBRANCH   5   7
ENDBRANCH   4   5
ENDBRANCH   3   4
ENDBRANCH   2   3
ENDBRANCH   1   2
BRANCH   1  30
ATOM     30  C   UNL A   1      35.532  30.759  28.291  1.00  0.00     0.188 C 
BRANCH  30  31
ATOM     31  C   UNL A   1      35.037  32.118  28.807  1.00  0.00     0.188 C 
BRANCH  31  32
ATOM     32  O   UNL A   1      35.690  32.631  29.942  1.00  0.00    -0.376 OA
BRANCH  32  33
ATOM     33  C   UNL A   1      35.199  32.289  31.227  1.00  0.00     0.202 C 
BRANCH  33  34
ATOM     34  C   UNL A   1      35.856  31.286  32.206  1.00  0.00     0.261 C 
BRANCH  34  35
ATOM     35  O   UNL A   1      36.229  29.987  31.731  1.00  0.00    -0.460 OA
BRANCH  35  36
ATOM     36  C   UNL A   1      37.345  29.439  32.273  1.00  0.00     0.338 C 
ATOM     37  O   UNL A   1      37.406  28.412  32.925  1.00  0.00    -0.246 OA
BRANCH  36  38
ATOM     38  C   UNL A   1      38.527  30.152  31.737  1.00  0.00     0.060 A 
ATOM     39  C   UNL A   1      38.665  30.279  30.346  1.00  0.00     0.016 A 
ATOM     40  C   UNL A   1      39.500  30.674  32.590  1.00  0.00     0.016 A 
ATOM     41  C   UNL A   1      39.795  30.893  29.804  1.00  0.00     0.010 A 
ATOM     42  C   UNL A   1      40.644  31.268  32.045  1.00  0.00     0.010 A 
ATOM     43  C   UNL A   1      40.814  31.346  30.649  1.00  0.00    -0.014 A 
BRANCH  43  44
ATOM     44  C   UNL A   1      42.130  31.725  30.072  1.00  0.00     0.031 A 
ATOM     45  C   UNL A   1      42.400  33.179  29.786  1.00  0.00     0.074 A 
ATOM     46  C   UNL A   1      43.077  30.804  29.818  1.00  0.00     0.049 A 
ATOM     47  N   UNL A   1      43.459  33.740  29.265  1.00  0.00    -0.248 NA
ATOM     48  C   UNL A   1      41.326  34.126  30.133  1.00  0.00     0.031 C 
ATOM     49  C   UNL A   1      42.949  29.368  30.061  1.00  0.00     0.029 A 
ATOM     50  N   UNL A   1      44.332  30.944  29.275  1.00  0.00    -0.354 N 
ATOM     51  C   UNL A   1      43.169  35.097  29.188  1.00  0.00     0.074 A 
ATOM     52  C   UNL A   1      41.830  35.275  29.706  1.00  0.00     0.031 C 
ATOM     53  C   UNL A   1      44.069  28.754  29.640  1.00  0.00     0.029 A 
ATOM     54  C   UNL A   1      44.981  29.748  29.075  1.00  0.00     0.049 A 
ATOM     55  H   UNL A   1      44.727  31.817  29.050  1.00  0.00     0.167 HD
ATOM     56  C   UNL A   1      43.948  36.110  28.739  1.00  0.00     0.034 A 
ATOM     57  C   UNL A   1      46.163  29.485  28.482  1.00  0.00     0.034 A 
ATOM     58  C   UNL A   1      45.284  35.936  28.233  1.00  0.00     0.049 A 
ATOM     59  C   UNL A   1      47.001  30.625  27.961  1.00  0.00     0.074 A 
ATOM     60  C   UNL A   1      46.170  36.905  27.797  1.00  0.00     0.029 A 
ATOM     61  N   UNL A   1      45.919  34.715  28.078  1.00  0.00    -0.354 N 
ATOM     62  N   UNL A   1      46.757  31.914  27.994  1.00  0.00    -0.248 NA
ATOM     63  C   UNL A   1      48.295  30.277  27.353  1.00  0.00     0.031 C 
ATOM     64  C   UNL A   1      47.325  36.267  27.337  1.00  0.00     0.029 A 
ATOM     65  C   UNL A   1      47.180  34.903  27.539  1.00  0.00     0.049 A 
ATOM     66  H   UNL A   1      45.532  33.842  28.317  1.00  0.00     0.167 HD
ATOM     67  C   UNL A   1      47.883  32.530  27.455  1.00  0.00     0.074 A 
ATOM     68  C   UNL A   1      48.815  31.474  27.117  1.00  0.00     0.031 C 
ATOM     69  C   UNL A   1      48.122  33.850  27.253  1.00  0.00     0.034 A 
BRANCH  56  70
ATOM     70  C   UNL A   1      43.378  37.504  28.779  1.00  0.00     0.023 A 
ATOM     71  C   UNL A   1      42.559  37.960  27.727  1.00  0.00     0.012 A 
ATOM     72  C   UNL A   1      43.612  38.344  29.885  1.00  0.00     0.148 A 
ATOM     73  C   UNL A   1      42.010  39.243  27.758  1.00  0.00     0.002 A 
ATOM     74  C   UNL A   1      43.020  39.600  29.933  1.00  0.00     0.091 A 
ATOM     75  F   UNL A   1      44.410  37.901  30.867  1.00  0.00    -0.205 F 
ATOM     76  C   UNL A   1      42.232  40.056  28.865  1.00  0.00     0.022 A 
BRANCH  74  77
ATOM     77  S   UNL A   1      43.177  40.692  31.351  1.00  0.00     0.127 S 
ATOM     78  O   UNL A   1      42.093  41.643  31.112  1.00  0.00    -0.237 OA
ATOM     79  O   UNL A   1      42.949  39.776  32.468  1.00  0.00    -0.237 OA
ATOM     80  O   UNL A   1      44.521  41.249  31.284  1.00  0.00    -0.744 OA
ENDBRANCH  74  77
ENDBRANCH  56  70
BRANCH  57  81
ATOM     81  C   UNL A   1      46.644  28.078  28.364  1.00  0.00     0.023 A 
ATOM     82  C   UNL A   1      47.499  27.546  29.349  1.00  0.00     0.012 A 
ATOM     83  C   UNL A   1      46.259  27.268  27.278  1.00  0.00     0.148 A 
ATOM     84  C   UNL A   1      47.990  26.244  29.237  1.00  0.00     0.002 A 
ATOM     85  C   UNL A   1      46.705  25.954  27.202  1.00  0.00     0.091 A 
ATOM     86  F   UNL A   1      45.458  27.798  26.343  1.00  0.00    -0.205 F 
ATOM     87  C   UNL A   1      47.586  25.446  28.169  1.00  0.00     0.022 A 
BRANCH  85  88
ATOM     88  S   UNL A   1      46.143  24.816  25.932  1.00  0.00     0.127 S 
ATOM     89  O   UNL A   1      44.698  24.820  26.146  1.00  0.00    -0.237 OA
ATOM     90  O   UNL A   1      46.588  25.489  24.711  1.00  0.00    -0.237 OA
ATOM     91  O   UNL A   1      46.817  23.555  26.205  1.00  0.00    -0.744 OA
ENDBRANCH  85  88
ENDBRANCH  57  81
BRANCH  69  92
ATOM     92  C   UNL A   1      49.467  34.248  26.699  1.00  0.00     0.023 A 
ATOM     93  C   UNL A   1      49.632  34.473  25.319  1.00  0.00     0.012 A 
ATOM     94  C   UNL A   1      50.557  34.463  27.568  1.00  0.00     0.148 A 
ATOM     95  C   UNL A   1      50.869  34.866  24.807  1.00  0.00     0.002 A 
ATOM     96  C   UNL A   1      51.771  34.909  27.058  1.00  0.00     0.091 A 
ATOM     97  F   UNL A   1      50.387  34.230  28.878  1.00  0.00    -0.205 F 
ATOM     98  C   UNL A   1      51.933  35.095  25.676  1.00  0.00     0.022 A 
BRANCH  96  99
ATOM     99  S   UNL A   1      53.164  35.328  28.112  1.00  0.00     0.127 S 
ATOM    100  O   UNL A   1      53.814  34.030  28.275  1.00  0.00    -0.237 OA
ATOM    101  O   UNL A   1      53.903  36.281  27.283  1.00  0.00    -0.237 OA
ATOM    102  O   UNL A   1      52.594  35.897  29.325  1.00  0.00    -0.744 OA
ENDBRANCH  96  99
ENDBRANCH  69  92
ENDBRANCH  43  44
ENDBRANCH  36  38
ENDBRANCH  35  36
ENDBRANCH  34  35
ENDBRANCH  33  34
ENDBRANCH  32  33
ENDBRANCH  31  32
ENDBRANCH  30  31
ENDBRANCH   1  30
TORSDOF 26
ENDMDL
