MODEL 1
REMARK VINA RESULT:      -8.9      0.000      0.000
REMARK SMILES O=C(/C=C/c1cc(C(=O)Nc2ccc(F)cc2Cl)cs1)OCCOCCOCCOC(=O)c1ccc(-c2c3nc(c(-c4cccc(S(=O)(=O)[O-])c4F)c4ccc([nH]4)c(-c4cccc(S(=O)(=O)[O-])c4F)c4nc(c(-c5cccc(S(=O)(=O)[O-])c5F)c5ccc2[nH]5)C=C4)C=C3)cc1
REMARK SMILES IDX 25 1 24 2 23 3 22 4 21 5 2 6 1 7 3 8 4 9 5 10 6 11 20 12
REMARK SMILES IDX 7 13 19 14 8 15 9 16 10 17 11 19 12 20 17 21 13 22 16 23
REMARK SMILES IDX 18 24 14 25 15 26 26 27 27 28 28 29 29 30 30 31 31 32 32 33
REMARK SMILES IDX 33 34 34 35 95 36 35 37 94 38 36 39 37 40 38 41 88 42 39 43
REMARK SMILES IDX 93 44 87 45 89 46 40 47 92 48 86 49 85 50 41 52 73 53 53 54
REMARK SMILES IDX 72 55 54 56 57 57 71 58 90 59 55 60 56 61 70 63 91 64 58 65
REMARK SMILES IDX 42 66 43 67 51 68 44 69 46 70 52 71 45 72 47 73 48 74 49 75
REMARK SMILES IDX 50 76 74 77 75 78 83 79 76 80 78 81 84 82 77 83 79 84 80 85
REMARK SMILES IDX 81 86 82 87 59 88 60 89 68 90 61 91 63 92 69 93 62 94 64 95
REMARK SMILES IDX 65 96 66 97 67 98
REMARK H PARENT 10 18 89 51 57 62
REMARK Flexibility Score: inf
ROOT
ATOM      1  C   UNL A   1      34.379  33.315  28.719  1.00  0.00     0.188 C 
ENDROOT
BRANCH   1   2
ATOM      2  O   UNL A   1      35.030  32.615  27.688  1.00  0.00    -0.376 OA
BRANCH   2   3
ATOM      3  C   UNL A   1      35.977  31.604  27.948  1.00  0.00     0.202 C 
BRANCH   3   4
ATOM      4  C   UNL A   1      35.628  30.292  28.663  1.00  0.00     0.261 C 
BRANCH   4   5
ATOM      5  O   UNL A   1      35.029  29.127  28.029  1.00  0.00    -0.460 OA
BRANCH   5   6
ATOM      6  C   UNL A   1      34.632  28.777  26.793  1.00  0.00     0.330 C 
ATOM      7  O   UNL A   1      35.291  29.103  25.812  1.00  0.00    -0.247 OA
BRANCH   6   8
ATOM      8  C   UNL A   1      33.330  28.148  26.591  1.00  0.00     0.095 C 
ATOM      9  C   UNL A   1      33.173  26.831  26.462  1.00  0.00     0.026 C 
BRANCH   9  10
ATOM     10  C   UNL A   1      31.897  26.238  26.326  1.00  0.00     0.028 A 
ATOM     11  C   UNL A   1      30.659  26.827  26.163  1.00  0.00     0.033 A 
ATOM     12  S   UNL A   1      31.713  24.526  26.272  1.00  0.00    -0.144 S 
ATOM     13  C   UNL A   1      29.936  26.025  25.227  1.00  0.00     0.051 A 
ATOM     14  C   UNL A   1      30.221  24.690  25.458  1.00  0.00     0.079 A 
BRANCH  13  15
ATOM     15  C   UNL A   1      29.015  26.454  24.180  1.00  0.00     0.256 C 
ATOM     16  O   UNL A   1      27.852  26.049  24.217  1.00  0.00    -0.269 OA
ATOM     17  N   UNL A   1      29.472  27.273  23.164  1.00  0.00    -0.321 N 
ATOM     18  H   UNL A   1      28.763  27.677  22.613  1.00  0.00     0.170 HD
BRANCH  17  19
ATOM     19  C   UNL A   1      30.789  27.627  22.783  1.00  0.00     0.060 A 
ATOM     20  C   UNL A   1      31.557  26.776  21.974  1.00  0.00     0.031 A 
ATOM     21  C   UNL A   1      31.381  28.816  23.241  1.00  0.00     0.067 A 
ATOM     22  C   UNL A   1      32.914  27.033  21.751  1.00  0.00     0.041 A 
ATOM     23  C   UNL A   1      32.748  29.050  23.057  1.00  0.00     0.062 A 
ATOM     24  Cl  UNL A   1      30.513  30.001  24.131  1.00  0.00    -0.082 Cl
ATOM     25  C   UNL A   1      33.504  28.145  22.331  1.00  0.00     0.124 A 
ATOM     26  F   UNL A   1      34.820  28.350  22.187  1.00  0.00    -0.207 F 
ENDBRANCH  17  19
ENDBRANCH  13  15
ENDBRANCH   9  10
ENDBRANCH   6   8
ENDBRANCH   5   6
ENDBRANCH   4   5
ENDBRANCH   3   4
ENDBRANCH   2   3
ENDBRANCH   1   2
BRANCH   1  27
ATOM     27  C   UNL A   1      33.669  34.589  28.243  1.00  0.00     0.188 C 
BRANCH  27  28
ATOM     28  O   UNL A   1      34.243  35.851  28.547  1.00  0.00    -0.376 OA
BRANCH  28  29
ATOM     29  C   UNL A   1      33.382  36.908  28.955  1.00  0.00     0.202 C 
BRANCH  29  30
ATOM     30  C   UNL A   1      32.568  36.801  30.261  1.00  0.00     0.261 C 
BRANCH  30  31
ATOM     31  O   UNL A   1      33.304  36.612  31.484  1.00  0.00    -0.460 OA
BRANCH  31  32
ATOM     32  C   UNL A   1      33.077  35.436  32.120  1.00  0.00     0.338 C 
ATOM     33  O   UNL A   1      32.005  35.019  32.529  1.00  0.00    -0.246 OA
BRANCH  32  34
ATOM     34  C   UNL A   1      34.309  34.627  32.179  1.00  0.00     0.060 A 
ATOM     35  C   UNL A   1      34.301  33.413  32.879  1.00  0.00     0.016 A 
ATOM     36  C   UNL A   1      35.507  35.154  31.697  1.00  0.00     0.016 A 
ATOM     37  C   UNL A   1      35.498  32.735  33.126  1.00  0.00     0.010 A 
ATOM     38  C   UNL A   1      36.705  34.478  31.953  1.00  0.00     0.010 A 
ATOM     39  C   UNL A   1      36.714  33.286  32.700  1.00  0.00    -0.014 A 
BRANCH  39  40
ATOM     40  C   UNL A   1      38.010  32.709  33.145  1.00  0.00     0.031 A 
ATOM     41  C   UNL A   1      38.633  31.603  32.338  1.00  0.00     0.074 A 
ATOM     42  C   UNL A   1      38.588  33.108  34.292  1.00  0.00     0.049 A 
ATOM     43  N   UNL A   1      39.682  30.870  32.608  1.00  0.00    -0.248 NA
ATOM     44  C   UNL A   1      37.974  31.267  31.066  1.00  0.00     0.031 C 
ATOM     45  C   UNL A   1      38.070  34.149  35.174  1.00  0.00     0.029 A 
ATOM     46  N   UNL A   1      39.707  32.643  34.939  1.00  0.00    -0.354 N 
ATOM     47  C   UNL A   1      39.776  29.947  31.573  1.00  0.00     0.074 A 
ATOM     48  C   UNL A   1      38.682  30.221  30.665  1.00  0.00     0.031 C 
ATOM     49  C   UNL A   1      38.842  34.209  36.271  1.00  0.00     0.029 A 
ATOM     50  C   UNL A   1      39.900  33.208  36.179  1.00  0.00     0.049 A 
ATOM     51  H   UNL A   1      40.314  31.970  34.552  1.00  0.00     0.167 HD
ATOM     52  C   UNL A   1      40.684  28.958  31.396  1.00  0.00     0.034 A 
ATOM     53  C   UNL A   1      40.802  32.925  37.141  1.00  0.00     0.034 A 
ATOM     54  C   UNL A   1      41.776  28.693  32.294  1.00  0.00     0.049 A 
ATOM     55  C   UNL A   1      41.804  31.820  36.917  1.00  0.00     0.074 A 
ATOM     56  C   UNL A   1      42.790  27.761  32.161  1.00  0.00     0.029 A 
ATOM     57  N   UNL A   1      41.984  29.341  33.502  1.00  0.00    -0.354 N 
ATOM     58  N   UNL A   1      41.958  31.043  35.873  1.00  0.00    -0.248 NA
ATOM     59  C   UNL A   1      42.766  31.563  38.000  1.00  0.00     0.031 C 
ATOM     60  C   UNL A   1      43.583  27.811  33.311  1.00  0.00     0.029 A 
ATOM     61  C   UNL A   1      43.094  28.811  34.135  1.00  0.00     0.049 A 
ATOM     62  H   UNL A   1      41.425  30.069  33.855  1.00  0.00     0.167 HD
ATOM     63  C   UNL A   1      43.051  30.231  36.161  1.00  0.00     0.074 A 
ATOM     64  C   UNL A   1      43.533  30.622  37.468  1.00  0.00     0.031 C 
ATOM     65  C   UNL A   1      43.597  29.242  35.414  1.00  0.00     0.034 A 
BRANCH  52  66
ATOM     66  C   UNL A   1      40.529  28.073  30.187  1.00  0.00     0.023 A 
ATOM     67  C   UNL A   1      39.575  27.036  30.186  1.00  0.00     0.012 A 
ATOM     68  C   UNL A   1      41.304  28.299  29.032  1.00  0.00     0.148 A 
ATOM     69  C   UNL A   1      39.425  26.209  29.073  1.00  0.00     0.002 A 
ATOM     70  C   UNL A   1      41.114  27.503  27.908  1.00  0.00     0.091 A 
ATOM     71  F   UNL A   1      42.219  29.277  29.056  1.00  0.00    -0.205 F 
ATOM     72  C   UNL A   1      40.187  26.449  27.933  1.00  0.00     0.022 A 
BRANCH  70  73
ATOM     73  S   UNL A   1      41.986  27.790  26.365  1.00  0.00     0.127 S 
ATOM     74  O   UNL A   1      41.662  29.191  26.099  1.00  0.00    -0.237 OA
ATOM     75  O   UNL A   1      43.377  27.548  26.748  1.00  0.00    -0.237 OA
ATOM     76  O   UNL A   1      41.444  26.831  25.412  1.00  0.00    -0.744 OA
ENDBRANCH  70  73
ENDBRANCH  52  66
BRANCH  53  77
ATOM     77  C   UNL A   1      40.833  33.696  38.417  1.00  0.00     0.023 A 
ATOM     78  C   UNL A   1      41.859  34.642  38.625  1.00  0.00     0.012 A 
ATOM     79  C   UNL A   1      39.884  33.486  39.432  1.00  0.00     0.148 A 
ATOM     80  C   UNL A   1      41.961  35.335  39.831  1.00  0.00     0.002 A 
ATOM     81  C   UNL A   1      39.973  34.207  40.619  1.00  0.00     0.091 A 
ATOM     82  F   UNL A   1      38.885  32.621  39.204  1.00  0.00    -0.205 F 
ATOM     83  C   UNL A   1      41.017  35.118  40.829  1.00  0.00     0.022 A 
BRANCH  81  84
ATOM     84  S   UNL A   1      38.711  34.110  41.887  1.00  0.00     0.127 S 
ATOM     85  O   UNL A   1      37.828  33.057  41.388  1.00  0.00    -0.237 OA
ATOM     86  O   UNL A   1      39.536  33.719  43.031  1.00  0.00    -0.237 OA
ATOM     87  O   UNL A   1      38.108  35.432  41.927  1.00  0.00    -0.744 OA
ENDBRANCH  81  84
ENDBRANCH  53  77
BRANCH  65  88
ATOM     88  C   UNL A   1      44.815  28.536  35.954  1.00  0.00     0.023 A 
ATOM     89  C   UNL A   1      46.104  29.026  35.671  1.00  0.00     0.012 A 
ATOM     90  C   UNL A   1      44.667  27.438  36.826  1.00  0.00     0.148 A 
ATOM     91  C   UNL A   1      47.230  28.423  36.233  1.00  0.00     0.002 A 
ATOM     92  C   UNL A   1      45.788  26.876  37.423  1.00  0.00     0.091 A 
ATOM     93  F   UNL A   1      43.432  26.975  37.065  1.00  0.00    -0.205 F 
ATOM     94  C   UNL A   1      47.071  27.359  37.119  1.00  0.00     0.022 A 
BRANCH  92  95
ATOM     95  S   UNL A   1      45.675  25.571  38.652  1.00  0.00     0.127 S 
ATOM     96  O   UNL A   1      47.081  25.368  39.002  1.00  0.00    -0.237 OA
ATOM     97  O   UNL A   1      44.871  26.202  39.698  1.00  0.00    -0.237 OA
ATOM     98  O   UNL A   1      45.034  24.444  37.990  1.00  0.00    -0.744 OA
ENDBRANCH  92  95
ENDBRANCH  65  88
ENDBRANCH  39  40
ENDBRANCH  32  34
ENDBRANCH  31  32
ENDBRANCH  30  31
ENDBRANCH  29  30
ENDBRANCH  28  29
ENDBRANCH  27  28
ENDBRANCH   1  27
TORSDOF 23
ENDMDL
MODEL 2
REMARK VINA RESULT:      -8.8      8.415     10.268
REMARK SMILES O=C(/C=C/c1cc(C(=O)Nc2ccc(F)cc2Cl)cs1)OCCOCCOCCOC(=O)c1ccc(-c2c3nc(c(-c4cccc(S(=O)(=O)[O-])c4F)c4ccc([nH]4)c(-c4cccc(S(=O)(=O)[O-])c4F)c4nc(c(-c5cccc(S(=O)(=O)[O-])c5F)c5ccc2[nH]5)C=C4)C=C3)cc1
REMARK SMILES IDX 25 1 24 2 23 3 22 4 21 5 2 6 1 7 3 8 4 9 5 10 6 11 20 12
REMARK SMILES IDX 7 13 19 14 8 15 9 16 10 17 11 19 12 20 17 21 13 22 16 23
REMARK SMILES IDX 18 24 14 25 15 26 26 27 27 28 28 29 29 30 30 31 31 32 32 33
REMARK SMILES IDX 33 34 34 35 95 36 35 37 94 38 36 39 37 40 38 41 88 42 39 43
REMARK SMILES IDX 93 44 87 45 89 46 40 47 92 48 86 49 85 50 41 52 73 53 53 54
REMARK SMILES IDX 72 55 54 56 57 57 71 58 90 59 55 60 56 61 70 63 91 64 58 65
REMARK SMILES IDX 42 66 43 67 51 68 44 69 46 70 52 71 45 72 47 73 48 74 49 75
REMARK SMILES IDX 50 76 74 77 75 78 83 79 76 80 78 81 84 82 77 83 79 84 80 85
REMARK SMILES IDX 81 86 82 87 59 88 60 89 68 90 61 91 63 92 69 93 62 94 64 95
REMARK SMILES IDX 65 96 66 97 67 98
REMARK H PARENT 10 18 89 51 57 62
REMARK Flexibility Score: inf
ROOT
ATOM      1  C   UNL A   1      33.518  34.791  31.900  1.00  0.00     0.188 C 
ENDROOT
BRANCH   1   2
ATOM      2  O   UNL A   1      33.368  34.934  30.510  1.00  0.00    -0.376 OA
BRANCH   2   3
ATOM      3  C   UNL A   1      34.148  34.205  29.591  1.00  0.00     0.202 C 
BRANCH   3   4
ATOM      4  C   UNL A   1      33.727  33.968  28.135  1.00  0.00     0.261 C 
BRANCH   4   5
ATOM      5  O   UNL A   1      32.421  33.493  27.708  1.00  0.00    -0.460 OA
BRANCH   5   6
ATOM      6  C   UNL A   1      31.941  32.520  26.913  1.00  0.00     0.330 C 
ATOM      7  O   UNL A   1      31.031  32.754  26.124  1.00  0.00    -0.247 OA
BRANCH   6   8
ATOM      8  C   UNL A   1      32.383  31.141  27.090  1.00  0.00     0.095 C 
ATOM      9  C   UNL A   1      31.721  30.097  26.594  1.00  0.00     0.026 C 
BRANCH   9  10
ATOM     10  C   UNL A   1      32.199  28.773  26.727  1.00  0.00     0.028 A 
ATOM     11  C   UNL A   1      31.517  27.610  27.022  1.00  0.00     0.033 A 
ATOM     12  S   UNL A   1      33.854  28.392  26.436  1.00  0.00    -0.144 S 
ATOM     13  C   UNL A   1      32.077  26.579  26.207  1.00  0.00     0.051 A 
ATOM     14  C   UNL A   1      33.447  26.764  26.118  1.00  0.00     0.079 A 
BRANCH  13  15
ATOM     15  C   UNL A   1      31.399  25.465  25.552  1.00  0.00     0.256 C 
ATOM     16  O   UNL A   1      31.621  24.322  25.954  1.00  0.00    -0.269 OA
ATOM     17  N   UNL A   1      30.554  25.713  24.486  1.00  0.00    -0.321 N 
ATOM     18  H   UNL A   1      29.987  24.952  24.226  1.00  0.00     0.170 HD
BRANCH  17  19
ATOM     19  C   UNL A   1      30.369  26.881  23.706  1.00  0.00     0.060 A 
ATOM     20  C   UNL A   1      31.465  27.552  23.144  1.00  0.00     0.031 A 
ATOM     21  C   UNL A   1      29.088  27.426  23.512  1.00  0.00     0.067 A 
ATOM     22  C   UNL A   1      31.302  28.801  22.533  1.00  0.00     0.041 A 
ATOM     23  C   UNL A   1      28.931  28.694  22.942  1.00  0.00     0.062 A 
ATOM     24  Cl  UNL A   1      27.655  26.639  24.037  1.00  0.00    -0.082 Cl
ATOM     25  C   UNL A   1      30.043  29.377  22.478  1.00  0.00     0.124 A 
ATOM     26  F   UNL A   1      29.898  30.607  21.968  1.00  0.00    -0.207 F 
ENDBRANCH  17  19
ENDBRANCH  13  15
ENDBRANCH   9  10
ENDBRANCH   6   8
ENDBRANCH   5   6
ENDBRANCH   4   5
ENDBRANCH   3   4
ENDBRANCH   2   3
ENDBRANCH   1   2
BRANCH   1  27
ATOM     27  C   UNL A   1      34.141  36.017  32.580  1.00  0.00     0.188 C 
BRANCH  27  28
ATOM     28  O   UNL A   1      35.290  35.843  33.395  1.00  0.00    -0.376 OA
BRANCH  28  29
ATOM     29  C   UNL A   1      35.588  34.538  33.881  1.00  0.00     0.202 C 
BRANCH  29  30
ATOM     30  C   UNL A   1      36.353  33.526  33.003  1.00  0.00     0.261 C 
BRANCH  30  31
ATOM     31  O   UNL A   1      37.617  33.948  32.459  1.00  0.00    -0.460 OA
BRANCH  31  32
ATOM     32  C   UNL A   1      37.882  33.510  31.204  1.00  0.00     0.338 C 
ATOM     33  O   UNL A   1      37.201  32.753  30.532  1.00  0.00    -0.246 OA
BRANCH  32  34
ATOM     34  C   UNL A   1      39.097  34.157  30.670  1.00  0.00     0.060 A 
ATOM     35  C   UNL A   1      39.088  34.659  29.362  1.00  0.00     0.016 A 
ATOM     36  C   UNL A   1      40.285  34.106  31.397  1.00  0.00     0.016 A 
ATOM     37  C   UNL A   1      40.279  35.085  28.764  1.00  0.00     0.010 A 
ATOM     38  C   UNL A   1      41.476  34.524  30.794  1.00  0.00     0.010 A 
ATOM     39  C   UNL A   1      41.488  34.981  29.464  1.00  0.00    -0.014 A 
BRANCH  39  40
ATOM     40  C   UNL A   1      42.788  35.207  28.778  1.00  0.00     0.031 A 
ATOM     41  C   UNL A   1      43.670  34.026  28.479  1.00  0.00     0.074 A 
ATOM     42  C   UNL A   1      43.214  36.450  28.493  1.00  0.00     0.049 A 
ATOM     43  N   UNL A   1      44.892  34.001  28.011  1.00  0.00    -0.248 NA
ATOM     44  C   UNL A   1      43.107  32.696  28.763  1.00  0.00     0.031 C 
ATOM     45  C   UNL A   1      42.464  37.674  28.757  1.00  0.00     0.029 A 
ATOM     46  N   UNL A   1      44.407  36.890  27.972  1.00  0.00    -0.354 N 
ATOM     47  C   UNL A   1      45.267  32.663  28.001  1.00  0.00     0.074 A 
ATOM     48  C   UNL A   1      44.138  31.906  28.500  1.00  0.00     0.031 C 
ATOM     49  C   UNL A   1      43.235  38.729  28.442  1.00  0.00     0.029 A 
ATOM     50  C   UNL A   1      44.533  38.260  27.967  1.00  0.00     0.049 A 
ATOM     51  H   UNL A   1      45.105  36.282  27.633  1.00  0.00     0.167 HD
ATOM     52  C   UNL A   1      46.444  32.114  27.618  1.00  0.00     0.034 A 
ATOM     53  C   UNL A   1      45.585  39.043  27.651  1.00  0.00     0.034 A 
ATOM     54  C   UNL A   1      47.561  32.866  27.113  1.00  0.00     0.049 A 
ATOM     55  C   UNL A   1      46.883  38.404  27.225  1.00  0.00     0.074 A 
ATOM     56  C   UNL A   1      48.768  32.391  26.631  1.00  0.00     0.029 A 
ATOM     57  N   UNL A   1      47.621  34.249  27.049  1.00  0.00    -0.354 N 
ATOM     58  N   UNL A   1      47.177  37.134  27.096  1.00  0.00    -0.248 NA
ATOM     59  C   UNL A   1      47.992  39.311  26.886  1.00  0.00     0.031 C 
ATOM     60  C   UNL A   1      49.577  33.489  26.321  1.00  0.00     0.029 A 
ATOM     61  C   UNL A   1      48.853  34.645  26.560  1.00  0.00     0.049 A 
ATOM     62  H   UNL A   1      46.895  34.858  27.313  1.00  0.00     0.167 HD
ATOM     63  C   UNL A   1      48.488  37.091  26.633  1.00  0.00     0.074 A 
ATOM     64  C   UNL A   1      48.927  38.461  26.484  1.00  0.00     0.031 C 
ATOM     65  C   UNL A   1      49.263  36.012  26.367  1.00  0.00     0.034 A 
BRANCH  52  66
ATOM     66  C   UNL A   1      46.592  30.620  27.742  1.00  0.00     0.023 A 
ATOM     67  C   UNL A   1      46.988  30.047  28.967  1.00  0.00     0.012 A 
ATOM     68  C   UNL A   1      46.296  29.779  26.650  1.00  0.00     0.148 A 
ATOM     69  C   UNL A   1      47.131  28.665  29.091  1.00  0.00     0.002 A 
ATOM     70  C   UNL A   1      46.392  28.400  26.797  1.00  0.00     0.091 A 
ATOM     71  F   UNL A   1      45.939  30.342  25.487  1.00  0.00    -0.205 F 
ATOM     72  C   UNL A   1      46.824  27.843  28.011  1.00  0.00     0.022 A 
BRANCH  70  73
ATOM     73  S   UNL A   1      45.935  27.257  25.489  1.00  0.00     0.127 S 
ATOM     74  O   UNL A   1      46.925  27.575  24.460  1.00  0.00    -0.237 OA
ATOM     75  O   UNL A   1      46.126  25.958  26.136  1.00  0.00    -0.237 OA
ATOM     76  O   UNL A   1      44.554  27.567  25.147  1.00  0.00    -0.744 OA
ENDBRANCH  70  73
ENDBRANCH  52  66
BRANCH  53  77
ATOM     77  C   UNL A   1      45.480  40.529  27.702  1.00  0.00     0.023 A 
ATOM     78  C   UNL A   1      45.634  41.189  28.939  1.00  0.00     0.012 A 
ATOM     79  C   UNL A   1      45.201  41.291  26.553  1.00  0.00     0.148 A 
ATOM     80  C   UNL A   1      45.475  42.571  29.039  1.00  0.00     0.002 A 
ATOM     81  C   UNL A   1      45.079  42.673  26.656  1.00  0.00     0.091 A 
ATOM     82  F   UNL A   1      45.106  40.660  25.375  1.00  0.00    -0.205 F 
ATOM     83  C   UNL A   1      45.199  43.314  27.897  1.00  0.00     0.022 A 
BRANCH  81  84
ATOM     84  S   UNL A   1      44.885  43.721  25.216  1.00  0.00     0.127 S 
ATOM     85  O   UNL A   1      45.018  45.066  25.771  1.00  0.00    -0.237 OA
ATOM     86  O   UNL A   1      46.033  43.273  24.425  1.00  0.00    -0.237 OA
ATOM     87  O   UNL A   1      43.563  43.413  24.695  1.00  0.00    -0.744 OA
ENDBRANCH  81  84
ENDBRANCH  53  77
BRANCH  65  88
ATOM     88  C   UNL A   1      50.652  36.251  25.834  1.00  0.00     0.023 A 
ATOM     89  C   UNL A   1      50.873  36.366  24.448  1.00  0.00     0.012 A 
ATOM     90  C   UNL A   1      51.726  36.459  26.725  1.00  0.00     0.148 A 
ATOM     91  C   UNL A   1      52.143  36.665  23.955  1.00  0.00     0.002 A 
ATOM     92  C   UNL A   1      52.975  36.809  26.230  1.00  0.00     0.091 A 
ATOM     93  F   UNL A   1      51.498  36.326  28.039  1.00  0.00    -0.205 F 
ATOM     94  C   UNL A   1      53.189  36.901  24.845  1.00  0.00     0.022 A 
BRANCH  92  95
ATOM     95  S   UNL A   1      54.354  37.230  27.302  1.00  0.00     0.127 S 
ATOM     96  O   UNL A   1      54.088  36.395  28.473  1.00  0.00    -0.237 OA
ATOM     97  O   UNL A   1      55.504  36.809  26.501  1.00  0.00    -0.237 OA
ATOM     98  O   UNL A   1      54.267  38.665  27.531  1.00  0.00    -0.744 OA
ENDBRANCH  92  95
ENDBRANCH  65  88
ENDBRANCH  39  40
ENDBRANCH  32  34
ENDBRANCH  31  32
ENDBRANCH  30  31
ENDBRANCH  29  30
ENDBRANCH  28  29
ENDBRANCH  27  28
ENDBRANCH   1  27
TORSDOF 23
ENDMDL
MODEL 3
REMARK VINA RESULT:      -8.7      5.021     10.427
REMARK SMILES O=C(/C=C/c1cc(C(=O)Nc2ccc(F)cc2Cl)cs1)OCCOCCOCCOC(=O)c1ccc(-c2c3nc(c(-c4cccc(S(=O)(=O)[O-])c4F)c4ccc([nH]4)c(-c4cccc(S(=O)(=O)[O-])c4F)c4nc(c(-c5cccc(S(=O)(=O)[O-])c5F)c5ccc2[nH]5)C=C4)C=C3)cc1
REMARK SMILES IDX 25 1 24 2 23 3 22 4 21 5 2 6 1 7 3 8 4 9 5 10 6 11 20 12
REMARK SMILES IDX 7 13 19 14 8 15 9 16 10 17 11 19 12 20 17 21 13 22 16 23
REMARK SMILES IDX 18 24 14 25 15 26 26 27 27 28 28 29 29 30 30 31 31 32 32 33
REMARK SMILES IDX 33 34 34 35 95 36 35 37 94 38 36 39 37 40 38 41 88 42 39 43
REMARK SMILES IDX 93 44 87 45 89 46 40 47 92 48 86 49 85 50 41 52 73 53 53 54
REMARK SMILES IDX 72 55 54 56 57 57 71 58 90 59 55 60 56 61 70 63 91 64 58 65
REMARK SMILES IDX 42 66 43 67 51 68 44 69 46 70 52 71 45 72 47 73 48 74 49 75
REMARK SMILES IDX 50 76 74 77 75 78 83 79 76 80 78 81 84 82 77 83 79 84 80 85
REMARK SMILES IDX 81 86 82 87 59 88 60 89 68 90 61 91 63 92 69 93 62 94 64 95
REMARK SMILES IDX 65 96 66 97 67 98
REMARK H PARENT 10 18 89 51 57 62
REMARK Flexibility Score: inf
ROOT
ATOM      1  C   UNL A   1      44.075  21.750  24.908  1.00  0.00     0.188 C 
ENDROOT
BRANCH   1   2
ATOM      2  O   UNL A   1      42.761  21.962  25.360  1.00  0.00    -0.376 OA
BRANCH   2   3
ATOM      3  C   UNL A   1      42.112  21.066  26.232  1.00  0.00     0.202 C 
BRANCH   3   4
ATOM      4  C   UNL A   1      40.753  21.361  26.880  1.00  0.00     0.261 C 
BRANCH   4   5
ATOM      5  O   UNL A   1      40.345  22.649  27.419  1.00  0.00    -0.460 OA
BRANCH   5   6
ATOM      6  C   UNL A   1      40.932  23.677  28.058  1.00  0.00     0.330 C 
ATOM      7  O   UNL A   1      41.950  23.499  28.718  1.00  0.00    -0.247 OA
BRANCH   6   8
ATOM      8  C   UNL A   1      40.278  24.981  28.107  1.00  0.00     0.095 C 
ATOM      9  C   UNL A   1      40.912  26.097  28.466  1.00  0.00     0.026 C 
BRANCH   9  10
ATOM     10  C   UNL A   1      40.275  27.359  28.449  1.00  0.00     0.028 A 
ATOM     11  C   UNL A   1      39.439  27.942  29.380  1.00  0.00     0.033 A 
ATOM     12  S   UNL A   1      40.546  28.475  27.165  1.00  0.00    -0.144 S 
ATOM     13  C   UNL A   1      39.787  29.326  29.445  1.00  0.00     0.051 A 
ATOM     14  C   UNL A   1      40.090  29.777  28.171  1.00  0.00     0.079 A 
BRANCH  13  15
ATOM     15  C   UNL A   1      39.825  30.203  30.609  1.00  0.00     0.256 C 
ATOM     16  O   UNL A   1      40.649  29.970  31.496  1.00  0.00    -0.269 OA
ATOM     17  N   UNL A   1      38.925  31.249  30.705  1.00  0.00    -0.321 N 
ATOM     18  H   UNL A   1      39.134  31.907  31.407  1.00  0.00     0.170 HD
BRANCH  17  19
ATOM     19  C   UNL A   1      37.752  31.530  29.963  1.00  0.00     0.060 A 
ATOM     20  C   UNL A   1      36.731  30.577  29.843  1.00  0.00     0.031 A 
ATOM     21  C   UNL A   1      37.599  32.753  29.287  1.00  0.00     0.067 A 
ATOM     22  C   UNL A   1      35.662  30.780  28.963  1.00  0.00     0.041 A 
ATOM     23  C   UNL A   1      36.556  32.937  28.374  1.00  0.00     0.062 A 
ATOM     24  Cl  UNL A   1      38.713  34.050  29.453  1.00  0.00    -0.082 Cl
ATOM     25  C   UNL A   1      35.610  31.940  28.206  1.00  0.00     0.124 A 
ATOM     26  F   UNL A   1      34.633  32.101  27.304  1.00  0.00    -0.207 F 
ENDBRANCH  17  19
ENDBRANCH  13  15
ENDBRANCH   9  10
ENDBRANCH   6   8
ENDBRANCH   5   6
ENDBRANCH   4   5
ENDBRANCH   3   4
ENDBRANCH   2   3
ENDBRANCH   1   2
BRANCH   1  27
ATOM     27  C   UNL A   1      44.433  22.558  23.655  1.00  0.00     0.188 C 
BRANCH  27  28
ATOM     28  O   UNL A   1      45.698  23.197  23.586  1.00  0.00    -0.376 OA
BRANCH  28  29
ATOM     29  C   UNL A   1      46.530  23.186  24.741  1.00  0.00     0.202 C 
BRANCH  29  30
ATOM     30  C   UNL A   1      46.771  24.478  25.549  1.00  0.00     0.261 C 
BRANCH  30  31
ATOM     31  O   UNL A   1      47.501  25.536  24.900  1.00  0.00    -0.460 OA
BRANCH  31  32
ATOM     32  C   UNL A   1      46.844  26.717  24.803  1.00  0.00     0.338 C 
ATOM     33  O   UNL A   1      46.741  27.420  23.811  1.00  0.00    -0.246 OA
BRANCH  32  34
ATOM     34  C   UNL A   1      46.147  27.033  26.065  1.00  0.00     0.060 A 
ATOM     35  C   UNL A   1      44.747  26.989  26.106  1.00  0.00     0.016 A 
ATOM     36  C   UNL A   1      46.867  27.541  27.146  1.00  0.00     0.016 A 
ATOM     37  C   UNL A   1      44.060  27.482  27.220  1.00  0.00     0.010 A 
ATOM     38  C   UNL A   1      46.178  28.043  28.255  1.00  0.00     0.010 A 
ATOM     39  C   UNL A   1      44.771  28.050  28.284  1.00  0.00    -0.014 A 
BRANCH  39  40
ATOM     40  C   UNL A   1      44.064  28.785  29.367  1.00  0.00     0.031 A 
ATOM     41  C   UNL A   1      43.749  30.243  29.174  1.00  0.00     0.074 A 
ATOM     42  C   UNL A   1      43.776  28.187  30.536  1.00  0.00     0.049 A 
ATOM     43  N   UNL A   1      43.262  31.106  30.028  1.00  0.00    -0.248 NA
ATOM     44  C   UNL A   1      44.040  30.808  27.846  1.00  0.00     0.031 C 
ATOM     45  C   UNL A   1      44.054  26.790  30.854  1.00  0.00     0.029 A 
ATOM     46  N   UNL A   1      43.237  28.696  31.693  1.00  0.00    -0.354 N 
ATOM     47  C   UNL A   1      43.243  32.327  29.365  1.00  0.00     0.074 A 
ATOM     48  C   UNL A   1      43.758  32.090  28.033  1.00  0.00     0.031 C 
ATOM     49  C   UNL A   1      43.729  26.567  32.139  1.00  0.00     0.029 A 
ATOM     50  C   UNL A   1      43.233  27.801  32.738  1.00  0.00     0.049 A 
ATOM     51  H   UNL A   1      42.886  29.614  31.767  1.00  0.00     0.167 HD
ATOM     52  C   UNL A   1      42.841  33.536  29.822  1.00  0.00     0.034 A 
ATOM     53  C   UNL A   1      42.901  27.969  34.035  1.00  0.00     0.034 A 
ATOM     54  C   UNL A   1      42.319  33.769  31.142  1.00  0.00     0.049 A 
ATOM     55  C   UNL A   1      42.453  29.326  34.517  1.00  0.00     0.074 A 
ATOM     56  C   UNL A   1      41.817  34.944  31.672  1.00  0.00     0.029 A 
ATOM     57  N   UNL A   1      42.257  32.818  32.148  1.00  0.00    -0.354 N 
ATOM     58  N   UNL A   1      42.317  30.440  33.841  1.00  0.00    -0.248 NA
ATOM     59  C   UNL A   1      42.099  29.443  35.940  1.00  0.00     0.031 C 
ATOM     60  C   UNL A   1      41.496  34.717  33.014  1.00  0.00     0.029 A 
ATOM     61  C   UNL A   1      41.749  33.386  33.303  1.00  0.00     0.049 A 
ATOM     62  H   UNL A   1      42.533  31.878  32.054  1.00  0.00     0.167 HD
ATOM     63  C   UNL A   1      41.833  31.379  34.747  1.00  0.00     0.074 A 
ATOM     64  C   UNL A   1      41.680  30.699  36.015  1.00  0.00     0.031 C 
ATOM     65  C   UNL A   1      41.552  32.688  34.548  1.00  0.00     0.034 A 
BRANCH  52  66
ATOM     66  C   UNL A   1      42.959  34.713  28.888  1.00  0.00     0.023 A 
ATOM     67  C   UNL A   1      41.830  35.169  28.179  1.00  0.00     0.012 A 
ATOM     68  C   UNL A   1      44.185  35.392  28.746  1.00  0.00     0.148 A 
ATOM     69  C   UNL A   1      41.929  36.255  27.310  1.00  0.00     0.002 A 
ATOM     70  C   UNL A   1      44.264  36.505  27.917  1.00  0.00     0.091 A 
ATOM     71  F   UNL A   1      45.253  34.933  29.413  1.00  0.00    -0.205 F 
ATOM     72  C   UNL A   1      43.142  36.927  27.187  1.00  0.00     0.022 A 
BRANCH  70  73
ATOM     73  S   UNL A   1      45.759  37.487  27.759  1.00  0.00     0.127 S 
ATOM     74  O   UNL A   1      45.430  38.345  26.621  1.00  0.00    -0.237 OA
ATOM     75  O   UNL A   1      45.809  38.179  29.048  1.00  0.00    -0.237 OA
ATOM     76  O   UNL A   1      46.842  36.540  27.537  1.00  0.00    -0.744 OA
ENDBRANCH  70  73
ENDBRANCH  52  66
BRANCH  53  77
ATOM     77  C   UNL A   1      42.957  26.830  34.996  1.00  0.00     0.023 A 
ATOM     78  C   UNL A   1      41.792  26.070  35.232  1.00  0.00     0.012 A 
ATOM     79  C   UNL A   1      44.133  26.510  35.696  1.00  0.00     0.148 A 
ATOM     80  C   UNL A   1      41.787  25.040  36.173  1.00  0.00     0.002 A 
ATOM     81  C   UNL A   1      44.128  25.458  36.607  1.00  0.00     0.091 A 
ATOM     82  F   UNL A   1      45.247  27.206  35.427  1.00  0.00    -0.205 F 
ATOM     83  C   UNL A   1      42.956  24.733  36.860  1.00  0.00     0.022 A 
BRANCH  81  84
ATOM     84  S   UNL A   1      45.624  24.892  37.414  1.00  0.00     0.127 S 
ATOM     85  O   UNL A   1      45.166  23.727  38.169  1.00  0.00    -0.237 OA
ATOM     86  O   UNL A   1      46.436  24.573  36.238  1.00  0.00    -0.237 OA
ATOM     87  O   UNL A   1      46.061  26.008  38.236  1.00  0.00    -0.744 OA
ENDBRANCH  81  84
ENDBRANCH  53  77
BRANCH  65  88
ATOM     88  C   UNL A   1      40.998  33.478  35.706  1.00  0.00     0.023 A 
ATOM     89  C   UNL A   1      39.608  33.540  35.924  1.00  0.00     0.012 A 
ATOM     90  C   UNL A   1      41.872  34.080  36.634  1.00  0.00     0.148 A 
ATOM     91  C   UNL A   1      39.095  34.204  37.039  1.00  0.00     0.002 A 
ATOM     92  C   UNL A   1      41.357  34.693  37.769  1.00  0.00     0.091 A 
ATOM     93  F   UNL A   1      43.190  34.026  36.396  1.00  0.00    -0.205 F 
ATOM     94  C   UNL A   1      39.969  34.767  37.967  1.00  0.00     0.022 A 
BRANCH  92  95
ATOM     95  S   UNL A   1      42.406  35.356  39.068  1.00  0.00     0.127 S 
ATOM     96  O   UNL A   1      43.069  36.464  38.381  1.00  0.00    -0.237 OA
ATOM     97  O   UNL A   1      41.426  35.762  40.076  1.00  0.00    -0.237 OA
ATOM     98  O   UNL A   1      43.282  34.268  39.477  1.00  0.00    -0.744 OA
ENDBRANCH  92  95
ENDBRANCH  65  88
ENDBRANCH  39  40
ENDBRANCH  32  34
ENDBRANCH  31  32
ENDBRANCH  30  31
ENDBRANCH  29  30
ENDBRANCH  28  29
ENDBRANCH  27  28
ENDBRANCH   1  27
TORSDOF 23
ENDMDL
