MODEL 1
REMARK VINA RESULT:     -10.7      0.000      0.000
REMARK SMILES Cc1ccccc1OCC(=O)NCCC(=O)OCCOCCOCCOC(=O)c1ccc(-c2c3nc(c(-c4cccc(S(=O)(=O)[O-])c4F)c4ccc([nH]4)c(-c4cccc(S(=O)(=O)[O-])c4F)c4nc(c(-c5cccc(S(=O)(=O)[O-])c5F)c5ccc2[nH]5)C=C4)C=C3)cc1
REMARK SMILES IDX 21 1 20 2 19 3 18 4 17 5 15 6 16 7 14 8 13 9 12 10 10 11
REMARK SMILES IDX 11 12 9 14 8 15 7 16 1 17 2 18 3 19 4 20 6 21 5 22 22 23
REMARK SMILES IDX 23 24 24 25 25 26 26 27 27 28 28 29 29 30 30 31 91 32 31 33
REMARK SMILES IDX 90 34 32 35 33 36 34 37 84 38 35 39 89 40 83 41 85 42 36 43
REMARK SMILES IDX 88 44 82 45 81 46 37 48 69 49 49 50 68 51 50 52 53 53 67 54
REMARK SMILES IDX 86 55 51 56 52 57 66 59 87 60 54 61 38 62 39 63 47 64 40 65
REMARK SMILES IDX 42 66 48 67 41 68 43 69 44 70 45 71 46 72 70 73 71 74 79 75
REMARK SMILES IDX 72 76 74 77 80 78 73 79 75 80 76 81 77 82 78 83 55 84 56 85
REMARK SMILES IDX 64 86 57 87 59 88 65 89 58 90 60 91 61 92 62 93 63 94
REMARK H PARENT 12 13 85 47 53 58
REMARK Flexibility Score: inf
ROOT
ATOM      1  C   UNL A   1      36.022  21.837  26.076  1.00  0.00     0.188 C 
ENDROOT
BRANCH   1   2
ATOM      2  O   UNL A   1      34.978  22.834  26.071  1.00  0.00    -0.376 OA
BRANCH   2   3
ATOM      3  C   UNL A   1      33.944  22.984  27.068  1.00  0.00     0.202 C 
BRANCH   3   4
ATOM      4  C   UNL A   1      32.305  23.201  26.789  1.00  0.00     0.261 C 
BRANCH   4   5
ATOM      5  O   UNL A   1      31.308  24.580  26.922  1.00  0.00    -0.463 OA
BRANCH   5   6
ATOM      6  C   UNL A   1      31.355  25.980  26.596  1.00  0.00     0.307 C 
ATOM      7  O   UNL A   1      31.309  26.994  27.292  1.00  0.00    -0.252 OA
BRANCH   6   8
ATOM      8  C   UNL A   1      31.274  26.355  25.189  1.00  0.00     0.144 C 
BRANCH   8   9
ATOM      9  C   UNL A   1      30.394  27.556  25.080  1.00  0.00     0.127 C 
BRANCH   9  10
ATOM     10  N   UNL A   1      31.268  28.615  24.663  1.00  0.00    -0.353 N 
ATOM     11  C   UNL A   1      31.759  28.693  23.385  1.00  0.00     0.257 C 
ATOM     12  O   UNL A   1      32.777  29.359  23.191  1.00  0.00    -0.271 OA
ATOM     13  H   UNL A   1      31.522  29.308  25.314  1.00  0.00     0.163 HD
BRANCH  11  14
ATOM     14  C   UNL A   1      30.948  28.057  22.220  1.00  0.00     0.329 C 
BRANCH  14  15
ATOM     15  O   UNL A   1      29.654  28.428  21.801  1.00  0.00    -0.484 OA
BRANCH  15  16
ATOM     16  C   UNL A   1      28.920  29.483  22.260  1.00  0.00     0.122 A 
ATOM     17  C   UNL A   1      26.996  28.320  23.537  1.00  0.00     0.048 C 
ATOM     18  C   UNL A   1      27.759  29.512  23.041  1.00  0.00    -0.009 A 
ATOM     19  C   UNL A   1      27.297  30.765  23.516  1.00  0.00     0.007 A 
ATOM     20  C   UNL A   1      27.948  31.962  23.214  1.00  0.00     0.001 A 
ATOM     21  C   UNL A   1      29.549  30.709  21.942  1.00  0.00     0.047 A 
ATOM     22  C   UNL A   1      29.077  31.934  22.417  1.00  0.00     0.004 A 
ENDBRANCH  15  16
ENDBRANCH  14  15
ENDBRANCH  11  14
ENDBRANCH   9  10
ENDBRANCH   8   9
ENDBRANCH   6   8
ENDBRANCH   5   6
ENDBRANCH   4   5
ENDBRANCH   3   4
ENDBRANCH   2   3
ENDBRANCH   1   2
BRANCH   1  23
ATOM     23  C   UNL A   1      36.248  20.828  24.953  1.00  0.00     0.188 C 
BRANCH  23  24
ATOM     24  O   UNL A   1      37.607  20.808  24.583  1.00  0.00    -0.376 OA
BRANCH  24  25
ATOM     25  C   UNL A   1      38.378  19.735  25.082  1.00  0.00     0.202 C 
BRANCH  25  26
ATOM     26  C   UNL A   1      39.670  20.184  25.788  1.00  0.00     0.261 C 
BRANCH  26  27
ATOM     27  O   UNL A   1      39.564  21.543  26.276  1.00  0.00    -0.460 OA
BRANCH  27  28
ATOM     28  C   UNL A   1      40.437  21.929  27.272  1.00  0.00     0.338 C 
ATOM     29  O   UNL A   1      40.787  21.193  28.183  1.00  0.00    -0.246 OA
BRANCH  28  30
ATOM     30  C   UNL A   1      40.654  23.418  27.212  1.00  0.00     0.060 A 
ATOM     31  C   UNL A   1      41.838  24.122  27.488  1.00  0.00     0.016 A 
ATOM     32  C   UNL A   1      39.520  24.152  27.247  1.00  0.00     0.016 A 
ATOM     33  C   UNL A   1      41.827  25.493  28.003  1.00  0.00     0.010 A 
ATOM     34  C   UNL A   1      39.566  25.312  28.005  1.00  0.00     0.010 A 
ATOM     35  C   UNL A   1      40.652  26.135  28.407  1.00  0.00    -0.014 A 
BRANCH  35  36
ATOM     36  C   UNL A   1      40.531  27.590  29.262  1.00  0.00     0.031 A 
ATOM     37  C   UNL A   1      39.540  29.003  29.121  1.00  0.00     0.074 A 
ATOM     38  C   UNL A   1      41.464  27.754  30.222  1.00  0.00     0.049 A 
ATOM     39  N   UNL A   1      39.931  30.235  29.406  1.00  0.00    -0.248 NA
ATOM     40  C   UNL A   1      38.103  29.171  28.651  1.00  0.00     0.031 C 
ATOM     41  C   UNL A   1      41.489  28.737  31.299  1.00  0.00     0.029 A 
ATOM     42  N   UNL A   1      42.686  27.086  30.350  1.00  0.00    -0.354 N 
ATOM     43  C   UNL A   1      38.794  31.064  29.289  1.00  0.00     0.074 A 
ATOM     44  C   UNL A   1      37.917  30.451  28.389  1.00  0.00     0.031 C 
ATOM     45  C   UNL A   1      42.745  28.815  31.768  1.00  0.00     0.029 A 
ATOM     46  C   UNL A   1      43.575  28.032  30.870  1.00  0.00     0.049 A 
ATOM     47  H   UNL A   1      42.878  26.148  30.123  1.00  0.00     0.167 HD
ATOM     48  C   UNL A   1      38.426  32.008  30.202  1.00  0.00     0.034 A 
ATOM     49  C   UNL A   1      44.630  28.471  30.125  1.00  0.00     0.034 A 
ATOM     50  C   UNL A   1      39.595  32.399  30.942  1.00  0.00     0.049 A 
ATOM     51  C   UNL A   1      44.673  29.981  30.010  1.00  0.00     0.074 A 
ATOM     52  C   UNL A   1      40.063  32.157  32.212  1.00  0.00     0.029 A 
ATOM     53  N   UNL A   1      40.656  32.880  30.197  1.00  0.00    -0.354 N 
ATOM     54  N   UNL A   1      43.733  30.780  30.444  1.00  0.00    -0.248 NA
ATOM     55  C   UNL A   1      45.786  30.723  29.430  1.00  0.00     0.031 C 
ATOM     56  C   UNL A   1      41.481  32.325  32.164  1.00  0.00     0.029 A 
ATOM     57  C   UNL A   1      41.840  32.743  30.890  1.00  0.00     0.049 A 
ATOM     58  H   UNL A   1      40.577  33.266  29.295  1.00  0.00     0.167 HD
ATOM     59  C   UNL A   1      44.005  32.071  30.083  1.00  0.00     0.074 A 
ATOM     60  C   UNL A   1      45.351  31.991  29.541  1.00  0.00     0.031 C 
ATOM     61  C   UNL A   1      43.077  33.074  30.188  1.00  0.00     0.034 A 
BRANCH  48  62
ATOM     62  C   UNL A   1      36.982  32.497  30.486  1.00  0.00     0.023 A 
ATOM     63  C   UNL A   1      36.449  32.198  31.758  1.00  0.00     0.012 A 
ATOM     64  C   UNL A   1      36.063  33.136  29.589  1.00  0.00     0.148 A 
ATOM     65  C   UNL A   1      35.126  32.513  32.122  1.00  0.00     0.002 A 
ATOM     66  C   UNL A   1      34.775  33.538  29.989  1.00  0.00     0.091 A 
ATOM     67  F   UNL A   1      36.353  33.263  28.288  1.00  0.00    -0.205 F 
ATOM     68  C   UNL A   1      34.296  33.206  31.252  1.00  0.00     0.022 A 
BRANCH  66  69
ATOM     69  S   UNL A   1      33.686  34.522  28.924  1.00  0.00     0.127 S 
ATOM     70  O   UNL A   1      33.230  33.537  27.946  1.00  0.00    -0.237 OA
ATOM     71  O   UNL A   1      32.650  34.978  29.853  1.00  0.00    -0.237 OA
ATOM     72  O   UNL A   1      34.521  35.597  28.395  1.00  0.00    -0.744 OA
ENDBRANCH  66  69
ENDBRANCH  48  62
BRANCH  49  73
ATOM     73  C   UNL A   1      45.169  27.434  29.171  1.00  0.00     0.023 A 
ATOM     74  C   UNL A   1      45.632  26.220  29.758  1.00  0.00     0.012 A 
ATOM     75  C   UNL A   1      44.968  27.444  27.777  1.00  0.00     0.148 A 
ATOM     76  C   UNL A   1      45.761  25.039  29.022  1.00  0.00     0.002 A 
ATOM     77  C   UNL A   1      45.125  26.258  27.036  1.00  0.00     0.091 A 
ATOM     78  F   UNL A   1      44.576  28.582  27.189  1.00  0.00    -0.205 F 
ATOM     79  C   UNL A   1      45.489  25.055  27.664  1.00  0.00     0.022 A 
BRANCH  77  80
ATOM     80  S   UNL A   1      44.694  26.163  25.285  1.00  0.00     0.127 S 
ATOM     81  O   UNL A   1      44.828  24.733  24.990  1.00  0.00    -0.237 OA
ATOM     82  O   UNL A   1      43.329  26.658  25.207  1.00  0.00    -0.237 OA
ATOM     83  O   UNL A   1      45.726  27.001  24.681  1.00  0.00    -0.744 OA
ENDBRANCH  77  80
ENDBRANCH  49  73
BRANCH  61  84
ATOM     84  C   UNL A   1      43.176  34.440  29.517  1.00  0.00     0.023 A 
ATOM     85  C   UNL A   1      42.387  34.795  28.409  1.00  0.00     0.012 A 
ATOM     86  C   UNL A   1      43.920  35.491  30.118  1.00  0.00     0.148 A 
ATOM     87  C   UNL A   1      42.373  36.095  27.889  1.00  0.00     0.002 A 
ATOM     88  C   UNL A   1      43.783  36.810  29.692  1.00  0.00     0.091 A 
ATOM     89  F   UNL A   1      44.767  35.232  31.126  1.00  0.00    -0.205 F 
ATOM     90  C   UNL A   1      43.045  37.112  28.550  1.00  0.00     0.022 A 
BRANCH  88  91
ATOM     91  S   UNL A   1      44.363  38.150  30.744  1.00  0.00     0.127 S 
ATOM     92  O   UNL A   1      45.813  38.043  30.624  1.00  0.00    -0.237 OA
ATOM     93  O   UNL A   1      43.787  39.337  30.107  1.00  0.00    -0.237 OA
ATOM     94  O   UNL A   1      43.791  37.844  32.051  1.00  0.00    -0.744 OA
ENDBRANCH  88  91
ENDBRANCH  61  84
ENDBRANCH  35  36
ENDBRANCH  28  30
ENDBRANCH  27  28
ENDBRANCH  26  27
ENDBRANCH  25  26
ENDBRANCH  24  25
ENDBRANCH  23  24
ENDBRANCH   1  23
TORSDOF 25
ENDMDL
MODEL 2
REMARK VINA RESULT:     -10.5      1.693      2.417
REMARK SMILES Cc1ccccc1OCC(=O)NCCC(=O)OCCOCCOCCOC(=O)c1ccc(-c2c3nc(c(-c4cccc(S(=O)(=O)[O-])c4F)c4ccc([nH]4)c(-c4cccc(S(=O)(=O)[O-])c4F)c4nc(c(-c5cccc(S(=O)(=O)[O-])c5F)c5ccc2[nH]5)C=C4)C=C3)cc1
REMARK SMILES IDX 21 1 20 2 19 3 18 4 17 5 15 6 16 7 14 8 13 9 12 10 10 11
REMARK SMILES IDX 11 12 9 14 8 15 7 16 1 17 2 18 3 19 4 20 6 21 5 22 22 23
REMARK SMILES IDX 23 24 24 25 25 26 26 27 27 28 28 29 29 30 30 31 91 32 31 33
REMARK SMILES IDX 90 34 32 35 33 36 34 37 84 38 35 39 89 40 83 41 85 42 36 43
REMARK SMILES IDX 88 44 82 45 81 46 37 48 69 49 49 50 68 51 50 52 53 53 67 54
REMARK SMILES IDX 86 55 51 56 52 57 66 59 87 60 54 61 38 62 39 63 47 64 40 65
REMARK SMILES IDX 42 66 48 67 41 68 43 69 44 70 45 71 46 72 70 73 71 74 79 75
REMARK SMILES IDX 72 76 74 77 80 78 73 79 75 80 76 81 77 82 78 83 55 84 56 85
REMARK SMILES IDX 64 86 57 87 59 88 65 89 58 90 60 91 61 92 62 93 63 94
REMARK H PARENT 12 13 85 47 53 58
REMARK Flexibility Score: inf
ROOT
ATOM      1  C   UNL A   1      35.603  22.326  25.892  1.00  0.00     0.188 C 
ENDROOT
BRANCH   1   2
ATOM      2  O   UNL A   1      34.526  23.201  25.495  1.00  0.00    -0.376 OA
BRANCH   2   3
ATOM      3  C   UNL A   1      33.737  24.029  26.376  1.00  0.00     0.202 C 
BRANCH   3   4
ATOM      4  C   UNL A   1      32.067  24.177  26.385  1.00  0.00     0.261 C 
BRANCH   4   5
ATOM      5  O   UNL A   1      31.039  25.418  25.819  1.00  0.00    -0.463 OA
BRANCH   5   6
ATOM      6  C   UNL A   1      30.174  25.674  24.700  1.00  0.00     0.307 C 
ATOM      7  O   UNL A   1      29.120  26.300  24.593  1.00  0.00    -0.252 OA
BRANCH   6   8
ATOM      8  C   UNL A   1      30.437  24.955  23.458  1.00  0.00     0.144 C 
BRANCH   8   9
ATOM      9  C   UNL A   1      31.456  25.725  22.685  1.00  0.00     0.127 C 
BRANCH   9  10
ATOM     10  N   UNL A   1      30.728  26.810  22.093  1.00  0.00    -0.353 N 
ATOM     11  C   UNL A   1      31.103  28.118  22.265  1.00  0.00     0.257 C 
ATOM     12  O   UNL A   1      30.258  28.995  22.084  1.00  0.00    -0.271 OA
ATOM     13  H   UNL A   1      29.935  26.610  21.546  1.00  0.00     0.163 HD
BRANCH  11  14
ATOM     14  C   UNL A   1      32.597  28.448  22.548  1.00  0.00     0.329 C 
BRANCH  14  15
ATOM     15  O   UNL A   1      33.090  29.282  23.571  1.00  0.00    -0.484 OA
BRANCH  15  16
ATOM     16  C   UNL A   1      32.843  29.164  24.908  1.00  0.00     0.122 A 
ATOM     17  C   UNL A   1      30.995  30.931  25.298  1.00  0.00     0.048 C 
ATOM     18  C   UNL A   1      31.928  29.838  25.726  1.00  0.00    -0.009 A 
ATOM     19  C   UNL A   1      31.766  29.395  27.063  1.00  0.00     0.007 A 
ATOM     20  C   UNL A   1      32.499  28.331  27.589  1.00  0.00     0.001 A 
ATOM     21  C   UNL A   1      33.597  28.107  25.469  1.00  0.00     0.047 A 
ATOM     22  C   UNL A   1      33.425  27.687  26.789  1.00  0.00     0.004 A 
ENDBRANCH  15  16
ENDBRANCH  14  15
ENDBRANCH  11  14
ENDBRANCH   9  10
ENDBRANCH   8   9
ENDBRANCH   6   8
ENDBRANCH   5   6
ENDBRANCH   4   5
ENDBRANCH   3   4
ENDBRANCH   2   3
ENDBRANCH   1   2
BRANCH   1  23
ATOM     23  C   UNL A   1      35.815  20.920  25.335  1.00  0.00     0.188 C 
BRANCH  23  24
ATOM     24  O   UNL A   1      36.990  20.875  24.560  1.00  0.00    -0.376 OA
BRANCH  24  25
ATOM     25  C   UNL A   1      38.028  20.046  25.040  1.00  0.00     0.202 C 
BRANCH  25  26
ATOM     26  C   UNL A   1      39.310  20.817  25.402  1.00  0.00     0.261 C 
BRANCH  26  27
ATOM     27  O   UNL A   1      39.031  21.929  26.286  1.00  0.00    -0.460 OA
BRANCH  27  28
ATOM     28  C   UNL A   1      40.064  22.382  27.080  1.00  0.00     0.338 C 
ATOM     29  O   UNL A   1      40.702  21.661  27.832  1.00  0.00    -0.246 OA
BRANCH  28  30
ATOM     30  C   UNL A   1      40.086  23.888  27.078  1.00  0.00     0.060 A 
ATOM     31  C   UNL A   1      41.211  24.728  27.124  1.00  0.00     0.016 A 
ATOM     32  C   UNL A   1      38.915  24.467  27.425  1.00  0.00     0.016 A 
ATOM     33  C   UNL A   1      41.164  26.063  27.724  1.00  0.00     0.010 A 
ATOM     34  C   UNL A   1      39.004  25.591  28.233  1.00  0.00     0.010 A 
ATOM     35  C   UNL A   1      40.051  26.529  28.433  1.00  0.00    -0.014 A 
BRANCH  35  36
ATOM     36  C   UNL A   1      39.968  27.919  29.394  1.00  0.00     0.031 A 
ATOM     37  C   UNL A   1      39.102  29.416  29.293  1.00  0.00     0.074 A 
ATOM     38  C   UNL A   1      40.824  27.932  30.436  1.00  0.00     0.049 A 
ATOM     39  N   UNL A   1      39.559  30.585  29.710  1.00  0.00    -0.248 NA
ATOM     40  C   UNL A   1      37.728  29.738  28.726  1.00  0.00     0.031 C 
ATOM     41  C   UNL A   1      40.831  28.823  31.590  1.00  0.00     0.029 A 
ATOM     42  N   UNL A   1      41.976  27.157  30.604  1.00  0.00    -0.354 N 
ATOM     43  C   UNL A   1      38.503  31.513  29.573  1.00  0.00     0.074 A 
ATOM     44  C   UNL A   1      37.663  31.045  28.558  1.00  0.00     0.031 C 
ATOM     45  C   UNL A   1      42.044  28.761  32.162  1.00  0.00     0.029 A 
ATOM     46  C   UNL A   1      42.886  27.983  31.271  1.00  0.00     0.049 A 
ATOM     47  H   UNL A   1      42.116  26.226  30.315  1.00  0.00     0.167 HD
ATOM     48  C   UNL A   1      38.131  32.411  30.529  1.00  0.00     0.034 A 
ATOM     49  C   UNL A   1      44.031  28.390  30.652  1.00  0.00     0.034 A 
ATOM     50  C   UNL A   1      39.258  32.645  31.390  1.00  0.00     0.049 A 
ATOM     51  C   UNL A   1      44.199  29.895  30.667  1.00  0.00     0.074 A 
ATOM     52  C   UNL A   1      39.595  32.269  32.669  1.00  0.00     0.029 A 
ATOM     53  N   UNL A   1      40.412  33.093  30.775  1.00  0.00    -0.354 N 
ATOM     54  N   UNL A   1      43.289  30.733  31.090  1.00  0.00    -0.248 NA
ATOM     55  C   UNL A   1      45.411  30.585  30.242  1.00  0.00     0.031 C 
ATOM     56  C   UNL A   1      41.021  32.322  32.749  1.00  0.00     0.029 A 
ATOM     57  C   UNL A   1      41.519  32.806  31.547  1.00  0.00     0.049 A 
ATOM     58  H   UNL A   1      40.441  33.553  29.906  1.00  0.00     0.167 HD
ATOM     59  C   UNL A   1      43.688  32.022  30.862  1.00  0.00     0.074 A 
ATOM     60  C   UNL A   1      45.066  31.872  30.424  1.00  0.00     0.031 C 
ATOM     61  C   UNL A   1      42.833  33.086  30.976  1.00  0.00     0.034 A 
BRANCH  48  62
ATOM     62  C   UNL A   1      36.709  32.994  30.738  1.00  0.00     0.023 A 
ATOM     63  C   UNL A   1      36.126  32.805  32.008  1.00  0.00     0.012 A 
ATOM     64  C   UNL A   1      35.852  33.623  29.774  1.00  0.00     0.148 A 
ATOM     65  C   UNL A   1      34.812  33.213  32.311  1.00  0.00     0.002 A 
ATOM     66  C   UNL A   1      34.578  34.118  30.108  1.00  0.00     0.091 A 
ATOM     67  F   UNL A   1      36.184  33.650  28.478  1.00  0.00    -0.205 F 
ATOM     68  C   UNL A   1      34.046  33.893  31.373  1.00  0.00     0.022 A 
BRANCH  66  69
ATOM     69  S   UNL A   1      33.576  35.089  28.951  1.00  0.00     0.127 S 
ATOM     70  O   UNL A   1      34.567  35.973  28.343  1.00  0.00    -0.237 OA
ATOM     71  O   UNL A   1      33.041  34.068  28.049  1.00  0.00    -0.237 OA
ATOM     72  O   UNL A   1      32.560  35.748  29.767  1.00  0.00    -0.744 OA
ENDBRANCH  66  69
ENDBRANCH  48  62
BRANCH  49  73
ATOM     73  C   UNL A   1      44.571  27.388  29.660  1.00  0.00     0.023 A 
ATOM     74  C   UNL A   1      44.806  26.074  30.159  1.00  0.00     0.012 A 
ATOM     75  C   UNL A   1      44.563  27.559  28.262  1.00  0.00     0.148 A 
ATOM     76  C   UNL A   1      44.895  24.963  29.316  1.00  0.00     0.002 A 
ATOM     77  C   UNL A   1      44.679  26.440  27.418  1.00  0.00     0.091 A 
ATOM     78  F   UNL A   1      44.388  28.789  27.762  1.00  0.00    -0.205 F 
ATOM     79  C   UNL A   1      44.813  25.144  27.946  1.00  0.00     0.022 A 
BRANCH  77  80
ATOM     80  S   UNL A   1      44.481  26.570  25.627  1.00  0.00     0.127 S 
ATOM     81  O   UNL A   1      44.338  25.172  25.209  1.00  0.00    -0.237 OA
ATOM     82  O   UNL A   1      43.280  27.370  25.440  1.00  0.00    -0.237 OA
ATOM     83  O   UNL A   1      45.743  27.190  25.234  1.00  0.00    -0.744 OA
ENDBRANCH  77  80
ENDBRANCH  49  73
BRANCH  61  84
ATOM     84  C   UNL A   1      43.092  34.487  30.431  1.00  0.00     0.023 A 
ATOM     85  C   UNL A   1      43.491  35.555  31.254  1.00  0.00     0.012 A 
ATOM     86  C   UNL A   1      43.149  34.721  29.030  1.00  0.00     0.148 A 
ATOM     87  C   UNL A   1      43.870  36.797  30.731  1.00  0.00     0.002 A 
ATOM     88  C   UNL A   1      43.672  35.905  28.514  1.00  0.00     0.091 A 
ATOM     89  F   UNL A   1      42.706  33.792  28.169  1.00  0.00    -0.205 F 
ATOM     90  C   UNL A   1      43.994  36.964  29.360  1.00  0.00     0.022 A 
BRANCH  88  91
ATOM     91  S   UNL A   1      44.154  35.985  26.782  1.00  0.00     0.127 S 
ATOM     92  O   UNL A   1      44.780  37.300  26.688  1.00  0.00    -0.237 OA
ATOM     93  O   UNL A   1      45.081  34.860  26.650  1.00  0.00    -0.237 OA
ATOM     94  O   UNL A   1      42.899  35.807  26.060  1.00  0.00    -0.744 OA
ENDBRANCH  88  91
ENDBRANCH  61  84
ENDBRANCH  35  36
ENDBRANCH  28  30
ENDBRANCH  27  28
ENDBRANCH  26  27
ENDBRANCH  25  26
ENDBRANCH  24  25
ENDBRANCH  23  24
ENDBRANCH   1  23
TORSDOF 25
ENDMDL
MODEL 3
REMARK VINA RESULT:      -9.7      6.590     11.438
REMARK SMILES Cc1ccccc1OCC(=O)NCCC(=O)OCCOCCOCCOC(=O)c1ccc(-c2c3nc(c(-c4cccc(S(=O)(=O)[O-])c4F)c4ccc([nH]4)c(-c4cccc(S(=O)(=O)[O-])c4F)c4nc(c(-c5cccc(S(=O)(=O)[O-])c5F)c5ccc2[nH]5)C=C4)C=C3)cc1
REMARK SMILES IDX 21 1 20 2 19 3 18 4 17 5 15 6 16 7 14 8 13 9 12 10 10 11
REMARK SMILES IDX 11 12 9 14 8 15 7 16 1 17 2 18 3 19 4 20 6 21 5 22 22 23
REMARK SMILES IDX 23 24 24 25 25 26 26 27 27 28 28 29 29 30 30 31 91 32 31 33
REMARK SMILES IDX 90 34 32 35 33 36 34 37 84 38 35 39 89 40 83 41 85 42 36 43
REMARK SMILES IDX 88 44 82 45 81 46 37 48 69 49 49 50 68 51 50 52 53 53 67 54
REMARK SMILES IDX 86 55 51 56 52 57 66 59 87 60 54 61 38 62 39 63 47 64 40 65
REMARK SMILES IDX 42 66 48 67 41 68 43 69 44 70 45 71 46 72 70 73 71 74 79 75
REMARK SMILES IDX 72 76 74 77 80 78 73 79 75 80 76 81 77 82 78 83 55 84 56 85
REMARK SMILES IDX 64 86 57 87 59 88 65 89 58 90 60 91 61 92 62 93 63 94
REMARK H PARENT 12 13 85 47 53 58
REMARK Flexibility Score: inf
ROOT
ATOM      1  C   UNL A   1      35.838  21.984  25.831  1.00  0.00     0.188 C 
ENDROOT
BRANCH   1   2
ATOM      2  O   UNL A   1      34.939  22.974  26.373  1.00  0.00    -0.376 OA
BRANCH   2   3
ATOM      3  C   UNL A   1      33.949  22.749  27.401  1.00  0.00     0.202 C 
BRANCH   3   4
ATOM      4  C   UNL A   1      32.285  22.846  27.228  1.00  0.00     0.261 C 
BRANCH   4   5
ATOM      5  O   UNL A   1      31.224  24.184  27.218  1.00  0.00    -0.463 OA
BRANCH   5   6
ATOM      6  C   UNL A   1      30.898  25.294  26.364  1.00  0.00     0.307 C 
ATOM      7  O   UNL A   1      30.445  26.414  26.598  1.00  0.00    -0.252 OA
BRANCH   6   8
ATOM      8  C   UNL A   1      30.922  25.074  24.923  1.00  0.00     0.144 C 
BRANCH   8   9
ATOM      9  C   UNL A   1      32.286  25.424  24.424  1.00  0.00     0.127 C 
BRANCH   9  10
ATOM     10  N   UNL A   1      32.228  25.201  23.008  1.00  0.00    -0.353 N 
ATOM     11  C   UNL A   1      32.929  24.190  22.402  1.00  0.00     0.257 C 
ATOM     12  O   UNL A   1      33.158  24.282  21.195  1.00  0.00    -0.271 OA
ATOM     13  H   UNL A   1      31.668  25.791  22.455  1.00  0.00     0.163 HD
BRANCH  11  14
ATOM     14  C   UNL A   1      33.287  22.917  23.222  1.00  0.00     0.329 C 
BRANCH  14  15
ATOM     15  O   UNL A   1      32.390  21.918  23.649  1.00  0.00    -0.484 OA
BRANCH  15  16
ATOM     16  C   UNL A   1      32.480  20.579  23.396  1.00  0.00     0.122 A 
ATOM     17  C   UNL A   1      32.959  19.593  25.738  1.00  0.00     0.048 C 
ATOM     18  C   UNL A   1      32.707  19.504  24.262  1.00  0.00    -0.009 A 
ATOM     19  C   UNL A   1      32.585  18.187  23.749  1.00  0.00     0.007 A 
ATOM     20  C   UNL A   1      32.269  17.936  22.414  1.00  0.00     0.001 A 
ATOM     21  C   UNL A   1      32.189  20.303  22.040  1.00  0.00     0.047 A 
ATOM     22  C   UNL A   1      32.076  19.000  21.552  1.00  0.00     0.004 A 
ENDBRANCH  15  16
ENDBRANCH  14  15
ENDBRANCH  11  14
ENDBRANCH   9  10
ENDBRANCH   8   9
ENDBRANCH   6   8
ENDBRANCH   5   6
ENDBRANCH   4   5
ENDBRANCH   3   4
ENDBRANCH   2   3
ENDBRANCH   1   2
BRANCH   1  23
ATOM     23  C   UNL A   1      37.216  22.302  25.253  1.00  0.00     0.188 C 
BRANCH  23  24
ATOM     24  O   UNL A   1      38.047  21.167  25.326  1.00  0.00    -0.376 OA
BRANCH  24  25
ATOM     25  C   UNL A   1      39.345  21.373  25.844  1.00  0.00     0.202 C 
BRANCH  25  26
ATOM     26  C   UNL A   1      39.490  22.689  26.630  1.00  0.00     0.261 C 
BRANCH  26  27
ATOM     27  O   UNL A   1      40.877  23.078  26.767  1.00  0.00    -0.460 OA
BRANCH  27  28
ATOM     28  C   UNL A   1      41.566  22.597  27.861  1.00  0.00     0.338 C 
ATOM     29  O   UNL A   1      41.383  21.486  28.336  1.00  0.00    -0.246 OA
BRANCH  28  30
ATOM     30  C   UNL A   1      42.335  23.716  28.512  1.00  0.00     0.060 A 
ATOM     31  C   UNL A   1      42.626  24.981  27.973  1.00  0.00     0.016 A 
ATOM     32  C   UNL A   1      43.112  23.334  29.549  1.00  0.00     0.016 A 
ATOM     33  C   UNL A   1      43.825  25.731  28.350  1.00  0.00     0.010 A 
ATOM     34  C   UNL A   1      44.356  23.940  29.637  1.00  0.00     0.010 A 
ATOM     35  C   UNL A   1      44.840  25.180  29.140  1.00  0.00    -0.014 A 
BRANCH  35  36
ATOM     36  C   UNL A   1      46.378  25.828  29.417  1.00  0.00     0.031 A 
ATOM     37  C   UNL A   1      47.948  25.563  28.735  1.00  0.00     0.074 A 
ATOM     38  C   UNL A   1      46.447  26.683  30.456  1.00  0.00     0.049 A 
ATOM     39  N   UNL A   1      49.087  25.642  29.403  1.00  0.00    -0.248 NA
ATOM     40  C   UNL A   1      48.373  25.182  27.325  1.00  0.00     0.031 C 
ATOM     41  C   UNL A   1      47.523  27.606  30.799  1.00  0.00     0.029 A 
ATOM     42  N   UNL A   1      45.544  26.813  31.517  1.00  0.00    -0.354 N 
ATOM     43  C   UNL A   1      50.128  25.494  28.461  1.00  0.00     0.074 A 
ATOM     44  C   UNL A   1      49.620  24.757  27.387  1.00  0.00     0.031 C 
ATOM     45  C   UNL A   1      47.376  27.965  32.084  1.00  0.00     0.029 A 
ATOM     46  C   UNL A   1      46.325  27.127  32.634  1.00  0.00     0.049 A 
ATOM     47  H   UNL A   1      44.566  26.706  31.484  1.00  0.00     0.167 HD
ATOM     48  C   UNL A   1      51.234  26.290  28.396  1.00  0.00     0.034 A 
ATOM     49  C   UNL A   1      46.425  26.251  33.675  1.00  0.00     0.034 A 
ATOM     50  C   UNL A   1      51.442  26.878  29.690  1.00  0.00     0.049 A 
ATOM     51  C   UNL A   1      47.862  25.922  34.023  1.00  0.00     0.074 A 
ATOM     52  C   UNL A   1      51.258  28.132  30.225  1.00  0.00     0.029 A 
ATOM     53  N   UNL A   1      51.581  25.997  30.746  1.00  0.00    -0.354 N 
ATOM     54  N   UNL A   1      48.896  26.307  33.322  1.00  0.00    -0.248 NA
ATOM     55  C   UNL A   1      48.262  25.162  35.201  1.00  0.00     0.031 C 
ATOM     56  C   UNL A   1      51.100  27.956  31.635  1.00  0.00     0.029 A 
ATOM     57  C   UNL A   1      51.270  26.612  31.940  1.00  0.00     0.049 A 
ATOM     58  H   UNL A   1      51.864  25.058  30.657  1.00  0.00     0.167 HD
ATOM     59  C   UNL A   1      50.042  25.749  33.820  1.00  0.00     0.074 A 
ATOM     60  C   UNL A   1      49.599  25.126  35.056  1.00  0.00     0.031 C 
ATOM     61  C   UNL A   1      51.230  25.781  33.140  1.00  0.00     0.034 A 
BRANCH  48  62
ATOM     62  C   UNL A   1      52.062  26.609  27.124  1.00  0.00     0.023 A 
ATOM     63  C   UNL A   1      53.428  26.254  27.150  1.00  0.00     0.012 A 
ATOM     64  C   UNL A   1      51.651  27.314  25.944  1.00  0.00     0.148 A 
ATOM     65  C   UNL A   1      54.313  26.555  26.097  1.00  0.00     0.002 A 
ATOM     66  C   UNL A   1      52.514  27.526  24.853  1.00  0.00     0.091 A 
ATOM     67  F   UNL A   1      50.456  27.914  25.888  1.00  0.00    -0.205 F 
ATOM     68  C   UNL A   1      53.855  27.166  24.937  1.00  0.00     0.022 A 
BRANCH  66  69
ATOM     69  S   UNL A   1      51.946  28.235  23.284  1.00  0.00     0.127 S 
ATOM     70  O   UNL A   1      51.598  29.602  23.666  1.00  0.00    -0.237 OA
ATOM     71  O   UNL A   1      53.131  28.128  22.432  1.00  0.00    -0.237 OA
ATOM     72  O   UNL A   1      50.830  27.397  22.855  1.00  0.00    -0.744 OA
ENDBRANCH  66  69
ENDBRANCH  48  62
BRANCH  49  73
ATOM     73  C   UNL A   1      45.186  25.415  33.883  1.00  0.00     0.023 A 
ATOM     74  C   UNL A   1      45.345  24.007  33.724  1.00  0.00     0.012 A 
ATOM     75  C   UNL A   1      44.007  25.868  34.507  1.00  0.00     0.148 A 
ATOM     76  C   UNL A   1      44.445  23.090  34.273  1.00  0.00     0.002 A 
ATOM     77  C   UNL A   1      43.092  24.940  35.035  1.00  0.00     0.091 A 
ATOM     78  F   UNL A   1      43.808  27.186  34.632  1.00  0.00    -0.205 F 
ATOM     79  C   UNL A   1      43.327  23.558  34.945  1.00  0.00     0.022 A 
BRANCH  77  80
ATOM     80  S   UNL A   1      41.664  25.458  36.013  1.00  0.00     0.127 S 
ATOM     81  O   UNL A   1      42.279  26.123  37.166  1.00  0.00    -0.237 OA
ATOM     82  O   UNL A   1      40.918  26.353  35.142  1.00  0.00    -0.237 OA
ATOM     83  O   UNL A   1      41.036  24.177  36.321  1.00  0.00    -0.744 OA
ENDBRANCH  77  80
ENDBRANCH  49  73
BRANCH  61  84
ATOM     84  C   UNL A   1      52.449  24.918  33.453  1.00  0.00     0.023 A 
ATOM     85  C   UNL A   1      53.473  25.345  34.316  1.00  0.00     0.012 A 
ATOM     86  C   UNL A   1      52.494  23.555  33.053  1.00  0.00     0.148 A 
ATOM     87  C   UNL A   1      54.512  24.496  34.717  1.00  0.00     0.002 A 
ATOM     88  C   UNL A   1      53.442  22.678  33.576  1.00  0.00     0.091 A 
ATOM     89  F   UNL A   1      51.610  23.080  32.162  1.00  0.00    -0.205 F 
ATOM     90  C   UNL A   1      54.480  23.152  34.375  1.00  0.00     0.022 A 
BRANCH  88  91
ATOM     91  S   UNL A   1      53.196  20.903  33.416  1.00  0.00     0.127 S 
ATOM     92  O   UNL A   1      54.144  20.363  34.385  1.00  0.00    -0.237 OA
ATOM     93  O   UNL A   1      51.789  20.735  33.786  1.00  0.00    -0.237 OA
ATOM     94  O   UNL A   1      53.475  20.634  32.009  1.00  0.00    -0.744 OA
ENDBRANCH  88  91
ENDBRANCH  61  84
ENDBRANCH  35  36
ENDBRANCH  28  30
ENDBRANCH  27  28
ENDBRANCH  26  27
ENDBRANCH  25  26
ENDBRANCH  24  25
ENDBRANCH  23  24
ENDBRANCH   1  23
TORSDOF 25
ENDMDL
