MODEL 1
REMARK VINA RESULT:      -8.7      0.000      0.000
REMARK SMILES C[C@H](C(=O)OCCOCCOCCOC(=O)c1ccc(-c2c3nc(c(-c4cccc(S(=O)(=O)[O-])c4F)c4ccc([nH]4)c(-c4cccc(S(=O)(=O)[O-])c4F)c4nc(c(-c5cccc(S(=O)(=O)[O-])c5F)c5ccc2[nH]5)C=C4)C=C3)cc1)c1ccc(C[C@H]2CCC[C@@H]2O)cc1
REMARK SMILES IDX 9 1 8 2 7 3 6 4 5 5 3 6 4 7 2 8 1 9 80 10 81 11 92 12 82 13
REMARK SMILES IDX 91 14 83 15 84 16 85 17 86 18 89 19 87 20 88 21 90 22 10 24
REMARK SMILES IDX 11 25 12 26 13 27 14 28 15 29 16 30 17 31 18 32 79 33 19 34
REMARK SMILES IDX 78 35 20 36 21 37 22 38 72 39 23 40 77 41 71 42 73 43 24 44
REMARK SMILES IDX 76 45 70 46 69 47 25 49 57 50 37 51 56 52 38 53 41 54 55 55
REMARK SMILES IDX 74 56 39 57 40 58 54 60 75 61 42 62 26 63 27 64 35 65 28 66
REMARK SMILES IDX 30 67 36 68 29 69 31 70 32 71 33 72 34 73 58 74 59 75 67 76
REMARK SMILES IDX 60 77 62 78 68 79 61 80 63 81 64 82 65 83 66 84 43 85 44 86
REMARK SMILES IDX 52 87 45 88 47 89 53 90 46 91 48 92 49 93 50 94 51 95
REMARK H PARENT 90 23 73 48 41 59
REMARK Flexibility Score: inf
ROOT
ATOM      1  C   UNL A   1      38.013  28.485  29.106  1.00  0.00     0.188 C 
ENDROOT
BRANCH   1   2
ATOM      2  O   UNL A   1      38.063  29.329  27.976  1.00  0.00    -0.376 OA
BRANCH   2   3
ATOM      3  C   UNL A   1      36.923  30.115  27.682  1.00  0.00     0.202 C 
BRANCH   3   4
ATOM      4  C   UNL A   1      35.522  29.491  27.753  1.00  0.00     0.261 C 
BRANCH   4   5
ATOM      5  O   UNL A   1      34.526  30.050  26.877  1.00  0.00    -0.463 OA
BRANCH   5   6
ATOM      6  C   UNL A   1      33.717  31.037  27.339  1.00  0.00     0.313 C 
ATOM      7  O   UNL A   1      34.132  32.122  27.728  1.00  0.00    -0.252 OA
BRANCH   6   8
ATOM      8  C   UNL A   1      32.225  30.677  27.247  1.00  0.00     0.126 C 
ATOM      9  C   UNL A   1      31.472  31.793  26.505  1.00  0.00     0.025 C 
BRANCH   8  10
ATOM     10  C   UNL A   1      31.870  29.274  26.737  1.00  0.00    -0.034 A 
ATOM     11  C   UNL A   1      31.723  28.178  27.599  1.00  0.00     0.005 A 
ATOM     12  C   UNL A   1      31.566  29.064  25.379  1.00  0.00     0.005 A 
ATOM     13  C   UNL A   1      31.334  26.922  27.119  1.00  0.00     0.004 A 
ATOM     14  C   UNL A   1      31.188  27.806  24.895  1.00  0.00     0.004 A 
ATOM     15  C   UNL A   1      31.084  26.714  25.759  1.00  0.00    -0.048 A 
BRANCH  15  16
ATOM     16  C   UNL A   1      30.690  25.352  25.240  1.00  0.00     0.041 C 
BRANCH  16  17
ATOM     17  C   UNL A   1      31.694  24.211  25.469  1.00  0.00     0.022 C 
ATOM     18  C   UNL A   1      33.161  24.529  25.145  1.00  0.00     0.007 C 
ATOM     19  C   UNL A   1      31.741  23.642  26.887  1.00  0.00     0.117 C 
ATOM     20  C   UNL A   1      33.997  23.718  26.141  1.00  0.00     0.003 C 
ATOM     21  C   UNL A   1      33.013  22.810  26.865  1.00  0.00     0.032 C 
BRANCH  19  22
ATOM     22  O   UNL A   1      30.599  22.852  27.163  1.00  0.00    -0.393 OA
ATOM     23  H   UNL A   1      30.833  22.155  27.796  1.00  0.00     0.210 HD
ENDBRANCH  19  22
ENDBRANCH  16  17
ENDBRANCH  15  16
ENDBRANCH   8  10
ENDBRANCH   6   8
ENDBRANCH   5   6
ENDBRANCH   4   5
ENDBRANCH   3   4
ENDBRANCH   2   3
ENDBRANCH   1   2
BRANCH   1  24
ATOM     24  C   UNL A   1      39.153  27.440  29.125  1.00  0.00     0.188 C 
BRANCH  24  25
ATOM     25  O   UNL A   1      39.499  26.754  27.926  1.00  0.00    -0.376 OA
BRANCH  25  26
ATOM     26  C   UNL A   1      39.656  25.343  27.954  1.00  0.00     0.202 C 
BRANCH  26  27
ATOM     27  C   UNL A   1      40.202  24.618  26.712  1.00  0.00     0.261 C 
BRANCH  27  28
ATOM     28  O   UNL A   1      40.769  25.453  25.687  1.00  0.00    -0.460 OA
BRANCH  28  29
ATOM     29  C   UNL A   1      42.118  25.585  25.704  1.00  0.00     0.338 C 
ATOM     30  O   UNL A   1      42.936  24.803  25.237  1.00  0.00    -0.246 OA
BRANCH  29  31
ATOM     31  C   UNL A   1      42.498  26.921  26.217  1.00  0.00     0.060 A 
ATOM     32  C   UNL A   1      43.355  26.995  27.326  1.00  0.00     0.016 A 
ATOM     33  C   UNL A   1      41.982  28.090  25.655  1.00  0.00     0.016 A 
ATOM     34  C   UNL A   1      43.675  28.232  27.893  1.00  0.00     0.010 A 
ATOM     35  C   UNL A   1      42.284  29.328  26.240  1.00  0.00     0.010 A 
ATOM     36  C   UNL A   1      43.107  29.404  27.380  1.00  0.00    -0.014 A 
BRANCH  36  37
ATOM     37  C   UNL A   1      43.228  30.683  28.131  1.00  0.00     0.031 A 
ATOM     38  C   UNL A   1      44.373  31.608  27.807  1.00  0.00     0.074 A 
ATOM     39  C   UNL A   1      42.351  31.022  29.094  1.00  0.00     0.049 A 
ATOM     40  N   UNL A   1      44.709  32.740  28.367  1.00  0.00    -0.248 NA
ATOM     41  C   UNL A   1      45.257  31.194  26.705  1.00  0.00     0.031 C 
ATOM     42  C   UNL A   1      41.187  30.235  29.495  1.00  0.00     0.029 A 
ATOM     43  N   UNL A   1      42.326  32.113  29.932  1.00  0.00    -0.354 N 
ATOM     44  C   UNL A   1      45.862  33.159  27.712  1.00  0.00     0.074 A 
ATOM     45  C   UNL A   1      46.168  32.157  26.714  1.00  0.00     0.031 C 
ATOM     46  C   UNL A   1      40.579  30.851  30.525  1.00  0.00     0.029 A 
ATOM     47  C   UNL A   1      41.327  32.058  30.876  1.00  0.00     0.049 A 
ATOM     48  H   UNL A   1      42.962  32.860  29.862  1.00  0.00     0.167 HD
ATOM     49  C   UNL A   1      46.600  34.276  27.917  1.00  0.00     0.034 A 
ATOM     50  C   UNL A   1      41.065  32.873  31.920  1.00  0.00     0.034 A 
ATOM     51  C   UNL A   1      46.299  35.279  28.903  1.00  0.00     0.049 A 
ATOM     52  C   UNL A   1      41.930  34.087  32.156  1.00  0.00     0.074 A 
ATOM     53  C   UNL A   1      46.963  36.468  29.150  1.00  0.00     0.029 A 
ATOM     54  N   UNL A   1      45.265  35.202  29.823  1.00  0.00    -0.354 N 
ATOM     55  N   UNL A   1      42.947  34.528  31.456  1.00  0.00    -0.248 NA
ATOM     56  C   UNL A   1      41.591  34.931  33.313  1.00  0.00     0.031 C 
ATOM     57  C   UNL A   1      46.358  37.088  30.247  1.00  0.00     0.029 A 
ATOM     58  C   UNL A   1      45.285  36.310  30.652  1.00  0.00     0.049 A 
ATOM     59  H   UNL A   1      44.612  34.467  29.878  1.00  0.00     0.167 HD
ATOM     60  C   UNL A   1      43.339  35.721  32.060  1.00  0.00     0.074 A 
ATOM     61  C   UNL A   1      42.440  35.940  33.173  1.00  0.00     0.031 C 
ATOM     62  C   UNL A   1      44.356  36.553  31.725  1.00  0.00     0.034 A 
BRANCH  49  63
ATOM     63  C   UNL A   1      47.816  34.479  27.052  1.00  0.00     0.023 A 
ATOM     64  C   UNL A   1      47.698  35.137  25.811  1.00  0.00     0.012 A 
ATOM     65  C   UNL A   1      49.088  34.063  27.496  1.00  0.00     0.148 A 
ATOM     66  C   UNL A   1      48.819  35.348  25.010  1.00  0.00     0.002 A 
ATOM     67  C   UNL A   1      50.207  34.320  26.713  1.00  0.00     0.091 A 
ATOM     68  F   UNL A   1      49.177  33.420  28.668  1.00  0.00    -0.205 F 
ATOM     69  C   UNL A   1      50.074  34.949  25.465  1.00  0.00     0.022 A 
BRANCH  67  70
ATOM     70  S   UNL A   1      51.875  33.919  27.248  1.00  0.00     0.127 S 
ATOM     71  O   UNL A   1      52.670  34.412  26.124  1.00  0.00    -0.237 OA
ATOM     72  O   UNL A   1      51.999  34.705  28.475  1.00  0.00    -0.237 OA
ATOM     73  O   UNL A   1      51.900  32.476  27.444  1.00  0.00    -0.744 OA
ENDBRANCH  67  70
ENDBRANCH  49  63
BRANCH  50  74
ATOM     74  C   UNL A   1      39.915  32.584  32.827  1.00  0.00     0.023 A 
ATOM     75  C   UNL A   1      40.097  31.722  33.927  1.00  0.00     0.012 A 
ATOM     76  C   UNL A   1      38.644  33.144  32.597  1.00  0.00     0.148 A 
ATOM     77  C   UNL A   1      39.025  31.395  34.759  1.00  0.00     0.002 A 
ATOM     78  C   UNL A   1      37.595  32.859  33.463  1.00  0.00     0.091 A 
ATOM     79  F   UNL A   1      38.488  33.948  31.535  1.00  0.00    -0.205 F 
ATOM     80  C   UNL A   1      37.778  31.969  34.532  1.00  0.00     0.022 A 
BRANCH  78  81
ATOM     81  S   UNL A   1      35.983  33.638  33.319  1.00  0.00     0.127 S 
ATOM     82  O   UNL A   1      35.278  33.082  34.471  1.00  0.00    -0.237 OA
ATOM     83  O   UNL A   1      36.327  35.056  33.431  1.00  0.00    -0.237 OA
ATOM     84  O   UNL A   1      35.468  33.242  32.015  1.00  0.00    -0.744 OA
ENDBRANCH  78  81
ENDBRANCH  50  74
BRANCH  62  85
ATOM     85  C   UNL A   1      44.533  37.818  32.531  1.00  0.00     0.023 A 
ATOM     86  C   UNL A   1      45.392  37.836  33.648  1.00  0.00     0.012 A 
ATOM     87  C   UNL A   1      43.902  39.013  32.128  1.00  0.00     0.148 A 
ATOM     88  C   UNL A   1      45.593  39.014  34.370  1.00  0.00     0.002 A 
ATOM     89  C   UNL A   1      44.149  40.194  32.819  1.00  0.00     0.091 A 
ATOM     90  F   UNL A   1      43.076  38.975  31.072  1.00  0.00    -0.205 F 
ATOM     91  C   UNL A   1      44.982  40.193  33.949  1.00  0.00     0.022 A 
BRANCH  89  92
ATOM     92  S   UNL A   1      43.487  41.779  32.293  1.00  0.00     0.127 S 
ATOM     93  O   UNL A   1      42.058  41.603  32.542  1.00  0.00    -0.237 OA
ATOM     94  O   UNL A   1      44.156  42.710  33.203  1.00  0.00    -0.237 OA
ATOM     95  O   UNL A   1      43.861  41.927  30.893  1.00  0.00    -0.744 OA
ENDBRANCH  89  92
ENDBRANCH  62  85
ENDBRANCH  36  37
ENDBRANCH  29  31
ENDBRANCH  28  29
ENDBRANCH  27  28
ENDBRANCH  26  27
ENDBRANCH  25  26
ENDBRANCH  24  25
ENDBRANCH   1  24
TORSDOF 24
ENDMDL
MODEL 2
REMARK VINA RESULT:      -8.5      6.910     11.639
REMARK SMILES C[C@H](C(=O)OCCOCCOCCOC(=O)c1ccc(-c2c3nc(c(-c4cccc(S(=O)(=O)[O-])c4F)c4ccc([nH]4)c(-c4cccc(S(=O)(=O)[O-])c4F)c4nc(c(-c5cccc(S(=O)(=O)[O-])c5F)c5ccc2[nH]5)C=C4)C=C3)cc1)c1ccc(C[C@H]2CCC[C@@H]2O)cc1
REMARK SMILES IDX 9 1 8 2 7 3 6 4 5 5 3 6 4 7 2 8 1 9 80 10 81 11 92 12 82 13
REMARK SMILES IDX 91 14 83 15 84 16 85 17 86 18 89 19 87 20 88 21 90 22 10 24
REMARK SMILES IDX 11 25 12 26 13 27 14 28 15 29 16 30 17 31 18 32 79 33 19 34
REMARK SMILES IDX 78 35 20 36 21 37 22 38 72 39 23 40 77 41 71 42 73 43 24 44
REMARK SMILES IDX 76 45 70 46 69 47 25 49 57 50 37 51 56 52 38 53 41 54 55 55
REMARK SMILES IDX 74 56 39 57 40 58 54 60 75 61 42 62 26 63 27 64 35 65 28 66
REMARK SMILES IDX 30 67 36 68 29 69 31 70 32 71 33 72 34 73 58 74 59 75 67 76
REMARK SMILES IDX 60 77 62 78 68 79 61 80 63 81 64 82 65 83 66 84 43 85 44 86
REMARK SMILES IDX 52 87 45 88 47 89 53 90 46 91 48 92 49 93 50 94 51 95
REMARK H PARENT 90 23 73 48 41 59
REMARK Flexibility Score: inf
ROOT
ATOM      1  C   UNL A   1      40.196  25.933  27.841  1.00  0.00     0.188 C 
ENDROOT
BRANCH   1   2
ATOM      2  O   UNL A   1      39.625  25.304  26.714  1.00  0.00    -0.376 OA
BRANCH   2   3
ATOM      3  C   UNL A   1      38.734  24.227  26.935  1.00  0.00     0.202 C 
BRANCH   3   4
ATOM      4  C   UNL A   1      37.807  23.754  25.806  1.00  0.00     0.261 C 
BRANCH   4   5
ATOM      5  O   UNL A   1      36.535  23.211  26.205  1.00  0.00    -0.463 OA
BRANCH   5   6
ATOM      6  C   UNL A   1      35.779  22.552  25.289  1.00  0.00     0.313 C 
ATOM      7  O   UNL A   1      36.232  22.090  24.249  1.00  0.00    -0.252 OA
BRANCH   6   8
ATOM      8  C   UNL A   1      34.318  22.382  25.734  1.00  0.00     0.126 C 
ATOM      9  C   UNL A   1      34.275  21.630  27.075  1.00  0.00     0.025 C 
BRANCH   8  10
ATOM     10  C   UNL A   1      33.427  23.631  25.720  1.00  0.00    -0.034 A 
ATOM     11  C   UNL A   1      32.359  23.800  26.612  1.00  0.00     0.005 A 
ATOM     12  C   UNL A   1      33.728  24.712  24.870  1.00  0.00     0.005 A 
ATOM     13  C   UNL A   1      31.601  24.977  26.624  1.00  0.00     0.004 A 
ATOM     14  C   UNL A   1      32.964  25.885  24.873  1.00  0.00     0.004 A 
ATOM     15  C   UNL A   1      31.879  26.024  25.740  1.00  0.00    -0.048 A 
BRANCH  15  16
ATOM     16  C   UNL A   1      31.043  27.281  25.737  1.00  0.00     0.041 C 
BRANCH  16  17
ATOM     17  C   UNL A   1      31.678  28.532  26.366  1.00  0.00     0.022 C 
ATOM     18  C   UNL A   1      32.768  28.276  27.418  1.00  0.00     0.007 C 
ATOM     19  C   UNL A   1      32.326  29.512  25.388  1.00  0.00     0.117 C 
ATOM     20  C   UNL A   1      33.763  29.434  27.281  1.00  0.00     0.003 C 
ATOM     21  C   UNL A   1      33.123  30.419  26.312  1.00  0.00     0.032 C 
BRANCH  19  22
ATOM     22  O   UNL A   1      31.351  30.231  24.657  1.00  0.00    -0.393 OA
ATOM     23  H   UNL A   1      30.524  29.726  24.637  1.00  0.00     0.210 HD
ENDBRANCH  19  22
ENDBRANCH  16  17
ENDBRANCH  15  16
ENDBRANCH   8  10
ENDBRANCH   6   8
ENDBRANCH   5   6
ENDBRANCH   4   5
ENDBRANCH   3   4
ENDBRANCH   2   3
ENDBRANCH   1   2
BRANCH   1  24
ATOM     24  C   UNL A   1      39.837  27.435  27.936  1.00  0.00     0.188 C 
BRANCH  24  25
ATOM     25  O   UNL A   1      38.597  27.826  28.515  1.00  0.00    -0.376 OA
BRANCH  25  26
ATOM     26  C   UNL A   1      38.262  29.205  28.573  1.00  0.00     0.202 C 
BRANCH  26  27
ATOM     27  C   UNL A   1      37.095  29.663  29.465  1.00  0.00     0.261 C 
BRANCH  27  28
ATOM     28  O   UNL A   1      37.429  30.569  30.531  1.00  0.00    -0.460 OA
BRANCH  28  29
ATOM     29  C   UNL A   1      37.350  30.066  31.788  1.00  0.00     0.338 C 
ATOM     30  O   UNL A   1      36.341  29.967  32.474  1.00  0.00    -0.246 OA
BRANCH  29  31
ATOM     31  C   UNL A   1      38.645  29.467  32.185  1.00  0.00     0.060 A 
ATOM     32  C   UNL A   1      39.744  30.316  32.383  1.00  0.00     0.016 A 
ATOM     33  C   UNL A   1      38.797  28.086  32.312  1.00  0.00     0.016 A 
ATOM     34  C   UNL A   1      41.004  29.787  32.678  1.00  0.00     0.010 A 
ATOM     35  C   UNL A   1      40.066  27.555  32.585  1.00  0.00     0.010 A 
ATOM     36  C   UNL A   1      41.183  28.400  32.739  1.00  0.00    -0.014 A 
BRANCH  36  37
ATOM     37  C   UNL A   1      42.554  27.825  32.789  1.00  0.00     0.031 A 
ATOM     38  C   UNL A   1      43.206  27.622  34.133  1.00  0.00     0.074 A 
ATOM     39  C   UNL A   1      43.224  27.499  31.668  1.00  0.00     0.049 A 
ATOM     40  N   UNL A   1      44.407  27.193  34.416  1.00  0.00    -0.248 NA
ATOM     41  C   UNL A   1      42.389  27.950  35.313  1.00  0.00     0.031 C 
ATOM     42  C   UNL A   1      42.709  27.622  30.307  1.00  0.00     0.029 A 
ATOM     43  N   UNL A   1      44.503  27.021  31.503  1.00  0.00    -0.354 N 
ATOM     44  C   UNL A   1      44.508  27.232  35.802  1.00  0.00     0.074 A 
ATOM     45  C   UNL A   1      43.243  27.730  36.302  1.00  0.00     0.031 C 
ATOM     46  C   UNL A   1      43.674  27.262  29.442  1.00  0.00     0.029 A 
ATOM     47  C   UNL A   1      44.884  26.912  30.186  1.00  0.00     0.049 A 
ATOM     48  H   UNL A   1      45.090  26.780  32.256  1.00  0.00     0.167 HD
ATOM     49  C   UNL A   1      45.551  26.884  36.592  1.00  0.00     0.034 A 
ATOM     50  C   UNL A   1      46.079  26.596  29.644  1.00  0.00     0.034 A 
ATOM     51  C   UNL A   1      46.808  26.384  36.102  1.00  0.00     0.049 A 
ATOM     52  C   UNL A   1      47.242  26.257  30.545  1.00  0.00     0.074 A 
ATOM     53  C   UNL A   1      47.906  25.962  36.830  1.00  0.00     0.029 A 
ATOM     54  N   UNL A   1      47.147  26.264  34.764  1.00  0.00    -0.354 N 
ATOM     55  N   UNL A   1      47.284  26.190  31.853  1.00  0.00    -0.248 NA
ATOM     56  C   UNL A   1      48.517  25.924  29.889  1.00  0.00     0.031 C 
ATOM     57  C   UNL A   1      48.925  25.627  35.933  1.00  0.00     0.029 A 
ATOM     58  C   UNL A   1      48.444  25.794  34.644  1.00  0.00     0.049 A 
ATOM     59  H   UNL A   1      46.553  26.481  34.009  1.00  0.00     0.167 HD
ATOM     60  C   UNL A   1      48.571  25.764  32.175  1.00  0.00     0.074 A 
ATOM     61  C   UNL A   1      49.272  25.575  30.922  1.00  0.00     0.031 C 
ATOM     62  C   UNL A   1      49.122  25.556  33.396  1.00  0.00     0.034 A 
BRANCH  49  63
ATOM     63  C   UNL A   1      45.382  27.032  38.081  1.00  0.00     0.023 A 
ATOM     64  C   UNL A   1      44.901  25.951  38.847  1.00  0.00     0.012 A 
ATOM     65  C   UNL A   1      45.751  28.228  38.729  1.00  0.00     0.148 A 
ATOM     66  C   UNL A   1      44.757  26.068  40.229  1.00  0.00     0.002 A 
ATOM     67  C   UNL A   1      45.650  28.321  40.112  1.00  0.00     0.091 A 
ATOM     68  F   UNL A   1      46.186  29.252  37.982  1.00  0.00    -0.205 F 
ATOM     69  C   UNL A   1      45.141  27.248  40.861  1.00  0.00     0.022 A 
BRANCH  67  70
ATOM     70  S   UNL A   1      46.195  29.767  41.027  1.00  0.00     0.127 S 
ATOM     71  O   UNL A   1      45.751  29.442  42.382  1.00  0.00    -0.237 OA
ATOM     72  O   UNL A   1      47.644  29.722  40.834  1.00  0.00    -0.237 OA
ATOM     73  O   UNL A   1      45.533  30.908  40.411  1.00  0.00    -0.744 OA
ENDBRANCH  67  70
ENDBRANCH  49  63
BRANCH  50  74
ATOM     74  C   UNL A   1      46.247  26.565  28.161  1.00  0.00     0.023 A 
ATOM     75  C   UNL A   1      46.634  27.737  27.481  1.00  0.00     0.012 A 
ATOM     76  C   UNL A   1      46.009  25.390  27.423  1.00  0.00     0.148 A 
ATOM     77  C   UNL A   1      46.746  27.747  26.090  1.00  0.00     0.002 A 
ATOM     78  C   UNL A   1      46.177  25.393  26.044  1.00  0.00     0.091 A 
ATOM     79  F   UNL A   1      45.624  24.291  28.087  1.00  0.00    -0.205 F 
ATOM     80  C   UNL A   1      46.526  26.575  25.373  1.00  0.00     0.022 A 
BRANCH  78  81
ATOM     81  S   UNL A   1      46.027  23.906  25.048  1.00  0.00     0.127 S 
ATOM     82  O   UNL A   1      44.601  23.898  24.733  1.00  0.00    -0.237 OA
ATOM     83  O   UNL A   1      46.907  24.213  23.920  1.00  0.00    -0.237 OA
ATOM     84  O   UNL A   1      46.491  22.815  25.896  1.00  0.00    -0.744 OA
ENDBRANCH  78  81
ENDBRANCH  50  74
BRANCH  62  85
ATOM     85  C   UNL A   1      50.541  25.044  33.458  1.00  0.00     0.023 A 
ATOM     86  C   UNL A   1      51.608  25.933  33.695  1.00  0.00     0.012 A 
ATOM     87  C   UNL A   1      50.805  23.662  33.357  1.00  0.00     0.148 A 
ATOM     88  C   UNL A   1      52.917  25.459  33.796  1.00  0.00     0.002 A 
ATOM     89  C   UNL A   1      52.104  23.192  33.513  1.00  0.00     0.091 A 
ATOM     90  F   UNL A   1      49.780  22.832  33.116  1.00  0.00    -0.205 F 
ATOM     91  C   UNL A   1      53.163  24.090  33.717  1.00  0.00     0.022 A 
BRANCH  89  92
ATOM     92  S   UNL A   1      52.503  21.440  33.526  1.00  0.00     0.127 S 
ATOM     93  O   UNL A   1      51.744  20.970  34.683  1.00  0.00    -0.237 OA
ATOM     94  O   UNL A   1      51.983  20.996  32.233  1.00  0.00    -0.237 OA
ATOM     95  O   UNL A   1      53.952  21.358  33.657  1.00  0.00    -0.744 OA
ENDBRANCH  89  92
ENDBRANCH  62  85
ENDBRANCH  36  37
ENDBRANCH  29  31
ENDBRANCH  28  29
ENDBRANCH  27  28
ENDBRANCH  26  27
ENDBRANCH  25  26
ENDBRANCH  24  25
ENDBRANCH   1  24
TORSDOF 24
ENDMDL
MODEL 3
REMARK VINA RESULT:      -8.3      4.890     10.208
REMARK SMILES C[C@H](C(=O)OCCOCCOCCOC(=O)c1ccc(-c2c3nc(c(-c4cccc(S(=O)(=O)[O-])c4F)c4ccc([nH]4)c(-c4cccc(S(=O)(=O)[O-])c4F)c4nc(c(-c5cccc(S(=O)(=O)[O-])c5F)c5ccc2[nH]5)C=C4)C=C3)cc1)c1ccc(C[C@H]2CCC[C@@H]2O)cc1
REMARK SMILES IDX 9 1 8 2 7 3 6 4 5 5 3 6 4 7 2 8 1 9 80 10 81 11 92 12 82 13
REMARK SMILES IDX 91 14 83 15 84 16 85 17 86 18 89 19 87 20 88 21 90 22 10 24
REMARK SMILES IDX 11 25 12 26 13 27 14 28 15 29 16 30 17 31 18 32 79 33 19 34
REMARK SMILES IDX 78 35 20 36 21 37 22 38 72 39 23 40 77 41 71 42 73 43 24 44
REMARK SMILES IDX 76 45 70 46 69 47 25 49 57 50 37 51 56 52 38 53 41 54 55 55
REMARK SMILES IDX 74 56 39 57 40 58 54 60 75 61 42 62 26 63 27 64 35 65 28 66
REMARK SMILES IDX 30 67 36 68 29 69 31 70 32 71 33 72 34 73 58 74 59 75 67 76
REMARK SMILES IDX 60 77 62 78 68 79 61 80 63 81 64 82 65 83 66 84 43 85 44 86
REMARK SMILES IDX 52 87 45 88 47 89 53 90 46 91 48 92 49 93 50 94 51 95
REMARK H PARENT 90 23 73 48 41 59
REMARK Flexibility Score: inf
ROOT
ATOM      1  C   UNL A   1      38.001  32.343  39.008  1.00  0.00     0.188 C 
ENDROOT
BRANCH   1   2
ATOM      2  O   UNL A   1      36.926  32.264  38.096  1.00  0.00    -0.376 OA
BRANCH   2   3
ATOM      3  C   UNL A   1      36.569  33.436  37.387  1.00  0.00     0.202 C 
BRANCH   3   4
ATOM      4  C   UNL A   1      36.992  33.605  35.921  1.00  0.00     0.261 C 
BRANCH   4   5
ATOM      5  O   UNL A   1      37.038  32.407  35.124  1.00  0.00    -0.463 OA
BRANCH   5   6
ATOM      6  C   UNL A   1      37.843  32.369  34.032  1.00  0.00     0.313 C 
ATOM      7  O   UNL A   1      37.742  33.148  33.093  1.00  0.00    -0.252 OA
BRANCH   6   8
ATOM      8  C   UNL A   1      38.940  31.296  34.138  1.00  0.00     0.126 C 
ATOM      9  C   UNL A   1      39.008  30.773  35.582  1.00  0.00     0.025 C 
BRANCH   8  10
ATOM     10  C   UNL A   1      38.930  30.173  33.093  1.00  0.00    -0.034 A 
ATOM     11  C   UNL A   1      39.896  30.081  32.081  1.00  0.00     0.005 A 
ATOM     12  C   UNL A   1      38.000  29.120  33.188  1.00  0.00     0.005 A 
ATOM     13  C   UNL A   1      39.905  29.011  31.180  1.00  0.00     0.004 A 
ATOM     14  C   UNL A   1      38.001  28.055  32.279  1.00  0.00     0.004 A 
ATOM     15  C   UNL A   1      38.945  27.997  31.252  1.00  0.00    -0.048 A 
BRANCH  15  16
ATOM     16  C   UNL A   1      38.941  26.857  30.262  1.00  0.00     0.041 C 
BRANCH  16  17
ATOM     17  C   UNL A   1      39.887  26.989  29.057  1.00  0.00     0.022 C 
ATOM     18  C   UNL A   1      40.586  25.698  28.607  1.00  0.00     0.007 C 
ATOM     19  C   UNL A   1      39.260  27.540  27.777  1.00  0.00     0.117 C 
ATOM     20  C   UNL A   1      40.742  25.813  27.086  1.00  0.00     0.003 C 
ATOM     21  C   UNL A   1      40.322  27.233  26.733  1.00  0.00     0.032 C 
BRANCH  19  22
ATOM     22  O   UNL A   1      39.010  28.929  27.882  1.00  0.00    -0.393 OA
ATOM     23  H   UNL A   1      39.450  29.393  27.152  1.00  0.00     0.210 HD
ENDBRANCH  19  22
ENDBRANCH  16  17
ENDBRANCH  15  16
ENDBRANCH   8  10
ENDBRANCH   6   8
ENDBRANCH   5   6
ENDBRANCH   4   5
ENDBRANCH   3   4
ENDBRANCH   2   3
ENDBRANCH   1   2
BRANCH   1  24
ATOM     24  C   UNL A   1      37.838  33.491  40.030  1.00  0.00     0.188 C 
BRANCH  24  25
ATOM     25  O   UNL A   1      38.797  33.650  41.070  1.00  0.00    -0.376 OA
BRANCH  25  26
ATOM     26  C   UNL A   1      39.708  34.738  41.014  1.00  0.00     0.202 C 
BRANCH  26  27
ATOM     27  C   UNL A   1      40.960  34.631  40.127  1.00  0.00     0.261 C 
BRANCH  27  28
ATOM     28  O   UNL A   1      41.445  35.861  39.563  1.00  0.00    -0.460 OA
BRANCH  28  29
ATOM     29  C   UNL A   1      40.755  36.344  38.501  1.00  0.00     0.338 C 
ATOM     30  O   UNL A   1      39.940  37.258  38.512  1.00  0.00    -0.246 OA
BRANCH  29  31
ATOM     31  C   UNL A   1      41.247  35.732  37.245  1.00  0.00     0.060 A 
ATOM     32  C   UNL A   1      40.307  35.285  36.304  1.00  0.00     0.016 A 
ATOM     33  C   UNL A   1      42.610  35.548  37.012  1.00  0.00     0.016 A 
ATOM     34  C   UNL A   1      40.725  34.628  35.143  1.00  0.00     0.010 A 
ATOM     35  C   UNL A   1      43.027  34.868  35.859  1.00  0.00     0.010 A 
ATOM     36  C   UNL A   1      42.086  34.377  34.933  1.00  0.00    -0.014 A 
BRANCH  36  37
ATOM     37  C   UNL A   1      42.517  33.457  33.846  1.00  0.00     0.031 A 
ATOM     38  C   UNL A   1      42.781  34.027  32.476  1.00  0.00     0.074 A 
ATOM     39  C   UNL A   1      42.659  32.134  34.055  1.00  0.00     0.049 A 
ATOM     40  N   UNL A   1      43.108  33.412  31.370  1.00  0.00    -0.248 NA
ATOM     41  C   UNL A   1      42.658  35.488  32.340  1.00  0.00     0.031 C 
ATOM     42  C   UNL A   1      42.458  31.452  35.331  1.00  0.00     0.029 A 
ATOM     43  N   UNL A   1      42.983  31.124  33.179  1.00  0.00    -0.354 N 
ATOM     44  C   UNL A   1      43.195  34.402  30.397  1.00  0.00     0.074 A 
ATOM     45  C   UNL A   1      42.884  35.658  31.046  1.00  0.00     0.031 C 
ATOM     46  C   UNL A   1      42.629  30.130  35.149  1.00  0.00     0.029 A 
ATOM     47  C   UNL A   1      42.922  29.870  33.740  1.00  0.00     0.049 A 
ATOM     48  H   UNL A   1      43.234  31.285  32.241  1.00  0.00     0.167 HD
ATOM     49  C   UNL A   1      43.508  34.282  29.085  1.00  0.00     0.034 A 
ATOM     50  C   UNL A   1      43.056  28.652  33.175  1.00  0.00     0.034 A 
ATOM     51  C   UNL A   1      43.823  33.038  28.436  1.00  0.00     0.049 A 
ATOM     52  C   UNL A   1      43.359  28.541  31.700  1.00  0.00     0.074 A 
ATOM     53  C   UNL A   1      44.199  32.826  27.121  1.00  0.00     0.029 A 
ATOM     54  N   UNL A   1      43.776  31.792  29.042  1.00  0.00    -0.354 N 
ATOM     55  N   UNL A   1      43.550  29.494  30.821  1.00  0.00    -0.248 NA
ATOM     56  C   UNL A   1      43.491  27.184  31.147  1.00  0.00     0.031 C 
ATOM     57  C   UNL A   1      44.336  31.449  26.920  1.00  0.00     0.029 A 
ATOM     58  C   UNL A   1      44.094  30.807  28.123  1.00  0.00     0.049 A 
ATOM     59  H   UNL A   1      43.549  31.633  29.987  1.00  0.00     0.167 HD
ATOM     60  C   UNL A   1      43.868  28.854  29.625  1.00  0.00     0.074 A 
ATOM     61  C   UNL A   1      43.859  27.432  29.897  1.00  0.00     0.031 C 
ATOM     62  C   UNL A   1      44.137  29.396  28.411  1.00  0.00     0.034 A 
BRANCH  49  63
ATOM     63  C   UNL A   1      43.526  35.538  28.253  1.00  0.00     0.023 A 
ATOM     64  C   UNL A   1      42.331  36.023  27.684  1.00  0.00     0.012 A 
ATOM     65  C   UNL A   1      44.720  36.266  28.081  1.00  0.00     0.148 A 
ATOM     66  C   UNL A   1      42.330  37.194  26.928  1.00  0.00     0.002 A 
ATOM     67  C   UNL A   1      44.702  37.457  27.365  1.00  0.00     0.091 A 
ATOM     68  F   UNL A   1      45.849  35.777  28.611  1.00  0.00    -0.205 F 
ATOM     69  C   UNL A   1      43.512  37.916  26.777  1.00  0.00     0.022 A 
BRANCH  67  70
ATOM     70  S   UNL A   1      46.153  38.500  27.185  1.00  0.00     0.127 S 
ATOM     71  O   UNL A   1      45.809  39.280  25.997  1.00  0.00    -0.237 OA
ATOM     72  O   UNL A   1      46.142  39.257  28.436  1.00  0.00    -0.237 OA
ATOM     73  O   UNL A   1      47.283  37.595  27.030  1.00  0.00    -0.744 OA
ENDBRANCH  67  70
ENDBRANCH  49  63
BRANCH  50  74
ATOM     74  C   UNL A   1      42.924  27.419  34.006  1.00  0.00     0.023 A 
ATOM     75  C   UNL A   1      41.644  26.983  34.405  1.00  0.00     0.012 A 
ATOM     76  C   UNL A   1      44.056  26.690  34.417  1.00  0.00     0.148 A 
ATOM     77  C   UNL A   1      41.498  25.864  35.226  1.00  0.00     0.002 A 
ATOM     78  C   UNL A   1      43.899  25.544  35.188  1.00  0.00     0.091 A 
ATOM     79  F   UNL A   1      45.265  27.131  34.043  1.00  0.00    -0.205 F 
ATOM     80  C   UNL A   1      42.623  25.141  35.610  1.00  0.00     0.022 A 
BRANCH  78  81
ATOM     81  S   UNL A   1      45.277  24.483  35.637  1.00  0.00     0.127 S 
ATOM     82  O   UNL A   1      44.620  23.467  36.454  1.00  0.00    -0.237 OA
ATOM     83  O   UNL A   1      45.736  24.021  34.326  1.00  0.00    -0.237 OA
ATOM     84  O   UNL A   1      46.222  25.341  36.339  1.00  0.00    -0.744 OA
ENDBRANCH  78  81
ENDBRANCH  50  74
BRANCH  62  85
ATOM     85  C   UNL A   1      44.502  28.463  27.281  1.00  0.00     0.023 A 
ATOM     86  C   UNL A   1      43.508  27.987  26.403  1.00  0.00     0.012 A 
ATOM     87  C   UNL A   1      45.849  28.121  27.046  1.00  0.00     0.148 A 
ATOM     88  C   UNL A   1      43.845  27.159  25.331  1.00  0.00     0.002 A 
ATOM     89  C   UNL A   1      46.184  27.341  25.945  1.00  0.00     0.091 A 
ATOM     90  F   UNL A   1      46.781  28.570  27.900  1.00  0.00    -0.205 F 
ATOM     91  C   UNL A   1      45.182  26.847  25.096  1.00  0.00     0.022 A 
BRANCH  89  92
ATOM     92  S   UNL A   1      47.886  26.969  25.505  1.00  0.00     0.127 S 
ATOM     93  O   UNL A   1      47.711  26.080  24.360  1.00  0.00    -0.237 OA
ATOM     94  O   UNL A   1      48.415  28.293  25.176  1.00  0.00    -0.237 OA
ATOM     95  O   UNL A   1      48.483  26.356  26.685  1.00  0.00    -0.744 OA
ENDBRANCH  89  92
ENDBRANCH  62  85
ENDBRANCH  36  37
ENDBRANCH  29  31
ENDBRANCH  28  29
ENDBRANCH  27  28
ENDBRANCH  26  27
ENDBRANCH  25  26
ENDBRANCH  24  25
ENDBRANCH   1  24
TORSDOF 24
ENDMDL
