MODEL 1
REMARK VINA RESULT:     -12.4      0.000      0.000
REMARK SMILES Cc1ccc(S(=O)(=O)n2cc(C(=O)C(=O)N[C@H](Cc3c[nH]c4ccccc34)C(=O)NCC(=O)OCCOCCOCCOC(=O)c3ccc(-c4c5nc(c(-c6cccc(S(=O)(=O)[O-])c6F)c6ccc([nH]6)c(-c6cccc(S(=O)(=O)[O-])c6F)c6nc(c(-c7cccc(S(=O)(=O)[O-])c7F)c7ccc4[nH]7)C=C6)C=C5)cc3)c3ccccc32)cc1
REMARK SMILES IDX 36 1 35 2 34 3 32 4 33 5 31 6 30 7 28 8 29 9 17 11 16 12
REMARK SMILES IDX 14 13 15 14 12 16 13 17 11 18 9 19 10 20 114 21 109 22
REMARK SMILES IDX 113 23 110 24 112 25 111 26 6 27 7 28 8 29 5 30 1 31 2 32
REMARK SMILES IDX 3 33 116 34 4 35 115 36 18 37 19 38 20 39 27 40 21 41 22 42
REMARK SMILES IDX 26 43 23 45 25 46 24 47 37 48 38 49 39 50 40 51 41 52 42 53
REMARK SMILES IDX 43 54 44 55 45 56 46 57 47 58 108 59 48 60 107 61 49 62
REMARK SMILES IDX 50 63 51 64 101 65 52 66 106 67 100 68 102 69 53 70 105 71
REMARK SMILES IDX 99 72 98 73 54 75 86 76 66 77 85 78 67 79 70 80 84 81 103 82
REMARK SMILES IDX 68 83 69 84 83 86 104 87 71 88 55 89 56 90 64 91 57 92 59 93
REMARK SMILES IDX 65 94 58 95 60 96 61 97 62 98 63 99 87 100 88 101 96 102
REMARK SMILES IDX 89 103 91 104 97 105 90 106 92 107 93 108 94 109 95 110
REMARK SMILES IDX 72 111 73 112 81 113 74 114 76 115 82 116 75 117 77 118
REMARK SMILES IDX 78 119 79 120 80 121
REMARK H PARENT 30 10 16 15 21 44 102 74 70 85
REMARK Flexibility Score: inf
ROOT
ATOM      1  C   UNL A   1      35.682  22.786  24.313  1.00  0.00     0.202 C 
ENDROOT
BRANCH   1   2
ATOM      2  C   UNL A   1      34.502  21.743  24.423  1.00  0.00     0.261 C 
BRANCH   2   3
ATOM      3  O   UNL A   1      33.146  22.338  24.618  1.00  0.00    -0.462 OA
BRANCH   3   4
ATOM      4  C   UNL A   1      32.132  21.980  25.487  1.00  0.00     0.325 C 
ATOM      5  O   UNL A   1      31.572  20.896  25.407  1.00  0.00    -0.250 OA
BRANCH   4   6
ATOM      6  C   UNL A   1      31.550  23.295  26.561  1.00  0.00     0.238 C 
BRANCH   6   7
ATOM      7  N   UNL A   1      30.304  24.040  26.552  1.00  0.00    -0.343 N 
ATOM      8  C   UNL A   1      30.164  25.266  25.899  1.00  0.00     0.243 C 
ATOM      9  O   UNL A   1      29.094  25.801  25.791  1.00  0.00    -0.273 OA
ATOM     10  H   UNL A   1      29.527  23.665  27.026  1.00  0.00     0.164 HD
BRANCH   8  11
ATOM     11  C   UNL A   1      31.496  25.812  25.277  1.00  0.00     0.176 C 
BRANCH  11  12
ATOM     12  N   UNL A   1      31.982  26.842  26.627  1.00  0.00    -0.337 N 
ATOM     13  C   UNL A   1      32.235  28.366  26.962  1.00  0.00     0.293 C 
ATOM     14  O   UNL A   1      31.426  28.823  27.771  1.00  0.00    -0.265 OA
ATOM     15  H   UNL A   1      32.149  26.291  27.425  1.00  0.00     0.164 HD
BRANCH  13  16
ATOM     16  C   UNL A   1      33.782  29.155  26.842  1.00  0.00     0.252 C 
ATOM     17  O   UNL A   1      34.190  28.788  25.722  1.00  0.00    -0.283 OA
BRANCH  16  18
ATOM     18  C   UNL A   1      34.928  30.085  27.832  1.00  0.00     0.054 A 
ATOM     19  N   UNL A   1      37.030  29.887  28.922  1.00  0.00    -0.240 N 
ATOM     20  C   UNL A   1      35.747  29.359  28.634  1.00  0.00     0.117 A 
ATOM     21  C   UNL A   1      36.948  31.249  28.748  1.00  0.00     0.065 A 
ATOM     22  C   UNL A   1      35.661  31.487  28.268  1.00  0.00     0.012 A 
ATOM     23  C   UNL A   1      37.891  32.281  29.074  1.00  0.00     0.028 A 
ATOM     24  C   UNL A   1      35.417  32.909  28.487  1.00  0.00     0.011 A 
ATOM     25  C   UNL A   1      37.574  33.620  29.059  1.00  0.00     0.002 A 
ATOM     26  C   UNL A   1      36.292  33.946  28.799  1.00  0.00     0.001 A 
BRANCH  19  27
ATOM     27  S   UNL A   1      38.540  29.453  29.811  1.00  0.00     0.268 S 
ATOM     28  O   UNL A   1      38.489  27.991  29.714  1.00  0.00    -0.201 OA
ATOM     29  O   UNL A   1      38.303  30.065  31.119  1.00  0.00    -0.201 OA
BRANCH  27  30
ATOM     30  C   UNL A   1      40.314  29.722  29.761  1.00  0.00     0.088 A 
ATOM     31  C   UNL A   1      44.385  31.101  30.472  1.00  0.00     0.044 C 
ATOM     32  C   UNL A   1      42.994  30.618  30.198  1.00  0.00    -0.051 A 
ATOM     33  C   UNL A   1      42.011  30.877  31.140  1.00  0.00     0.005 A 
ATOM     34  C   UNL A   1      42.629  29.963  29.018  1.00  0.00     0.005 A 
ATOM     35  C   UNL A   1      40.714  30.426  30.924  1.00  0.00     0.022 A 
ATOM     36  C   UNL A   1      41.291  29.561  28.784  1.00  0.00     0.022 A 
ENDBRANCH  27  30
ENDBRANCH  19  27
ENDBRANCH  16  18
ENDBRANCH  13  16
ENDBRANCH  11  12
BRANCH  11  37
ATOM     37  C   UNL A   1      30.996  26.224  23.799  1.00  0.00     0.072 C 
BRANCH  37  38
ATOM     38  C   UNL A   1      30.754  27.282  22.748  1.00  0.00    -0.020 A 
ATOM     39  C   UNL A   1      31.792  28.134  22.327  1.00  0.00     0.087 A 
ATOM     40  C   UNL A   1      29.583  28.104  22.725  1.00  0.00     0.003 A 
ATOM     41  N   UNL A   1      31.332  29.429  22.337  1.00  0.00    -0.361 N 
ATOM     42  C   UNL A   1      29.987  29.438  22.600  1.00  0.00     0.046 A 
ATOM     43  C   UNL A   1      28.251  27.834  23.058  1.00  0.00     0.010 A 
ATOM     44  H   UNL A   1      31.885  30.228  22.179  1.00  0.00     0.166 HD
ATOM     45  C   UNL A   1      29.121  30.517  22.798  1.00  0.00     0.026 A 
ATOM     46  C   UNL A   1      27.354  28.893  23.184  1.00  0.00     0.001 A 
ATOM     47  C   UNL A   1      27.785  30.213  23.068  1.00  0.00     0.002 A 
ENDBRANCH  37  38
ENDBRANCH  11  37
ENDBRANCH   8  11
ENDBRANCH   6   7
ENDBRANCH   4   6
ENDBRANCH   3   4
ENDBRANCH   2   3
ENDBRANCH   1   2
BRANCH   1  48
ATOM     48  O   UNL A   1      36.154  23.432  25.487  1.00  0.00    -0.376 OA
BRANCH  48  49
ATOM     49  C   UNL A   1      37.552  23.340  25.590  1.00  0.00     0.188 C 
BRANCH  49  50
ATOM     50  C   UNL A   1      38.000  21.886  25.374  1.00  0.00     0.188 C 
BRANCH  50  51
ATOM     51  O   UNL A   1      39.000  21.464  26.278  1.00  0.00    -0.376 OA
BRANCH  51  52
ATOM     52  C   UNL A   1      39.736  20.344  25.806  1.00  0.00     0.202 C 
BRANCH  52  53
ATOM     53  C   UNL A   1      41.295  20.261  26.091  1.00  0.00     0.261 C 
BRANCH  53  54
ATOM     54  O   UNL A   1      41.916  21.462  26.704  1.00  0.00    -0.460 OA
BRANCH  54  55
ATOM     55  C   UNL A   1      42.803  22.323  26.071  1.00  0.00     0.338 C 
ATOM     56  O   UNL A   1      43.159  22.200  24.912  1.00  0.00    -0.246 OA
BRANCH  55  57
ATOM     57  C   UNL A   1      43.135  23.545  26.883  1.00  0.00     0.060 A 
ATOM     58  C   UNL A   1      43.484  24.807  26.457  1.00  0.00     0.016 A 
ATOM     59  C   UNL A   1      42.969  23.547  28.221  1.00  0.00     0.016 A 
ATOM     60  C   UNL A   1      44.323  25.648  27.278  1.00  0.00     0.010 A 
ATOM     61  C   UNL A   1      43.860  24.339  28.971  1.00  0.00     0.010 A 
ATOM     62  C   UNL A   1      44.887  25.228  28.481  1.00  0.00    -0.014 A 
BRANCH  62  63
ATOM     63  C   UNL A   1      46.486  25.819  29.085  1.00  0.00     0.031 A 
ATOM     64  C   UNL A   1      48.247  25.998  28.368  1.00  0.00     0.074 A 
ATOM     65  C   UNL A   1      46.086  26.413  30.274  1.00  0.00     0.049 A 
ATOM     66  N   UNL A   1      49.156  26.979  28.294  1.00  0.00    -0.248 NA
ATOM     67  C   UNL A   1      49.227  24.998  27.913  1.00  0.00     0.031 C 
ATOM     68  C   UNL A   1      46.079  27.784  30.799  1.00  0.00     0.029 A 
ATOM     69  N   UNL A   1      45.673  25.703  31.426  1.00  0.00    -0.354 N 
ATOM     70  C   UNL A   1      50.557  26.684  28.135  1.00  0.00     0.074 A 
ATOM     71  C   UNL A   1      50.464  25.380  27.647  1.00  0.00     0.031 C 
ATOM     72  C   UNL A   1      45.911  27.785  32.146  1.00  0.00     0.029 A 
ATOM     73  C   UNL A   1      45.879  26.410  32.630  1.00  0.00     0.049 A 
ATOM     74  H   UNL A   1      45.278  24.801  31.391  1.00  0.00     0.167 HD
ATOM     75  C   UNL A   1      51.739  26.816  28.865  1.00  0.00     0.034 A 
ATOM     76  C   UNL A   1      45.717  25.956  33.921  1.00  0.00     0.034 A 
ATOM     77  C   UNL A   1      51.794  26.862  30.406  1.00  0.00     0.049 A 
ATOM     78  C   UNL A   1      47.094  25.231  34.479  1.00  0.00     0.074 A 
ATOM     79  C   UNL A   1      52.170  27.805  31.356  1.00  0.00     0.029 A 
ATOM     80  N   UNL A   1      51.606  25.736  31.276  1.00  0.00    -0.354 N 
ATOM     81  N   UNL A   1      48.306  25.775  34.403  1.00  0.00    -0.248 NA
ATOM     82  C   UNL A   1      47.302  23.914  35.077  1.00  0.00     0.031 C 
ATOM     83  C   UNL A   1      51.937  27.289  32.716  1.00  0.00     0.029 A 
ATOM     84  C   UNL A   1      51.292  26.044  32.679  1.00  0.00     0.049 A 
ATOM     85  H   UNL A   1      51.682  24.809  30.951  1.00  0.00     0.167 HD
ATOM     86  C   UNL A   1      49.376  24.829  34.332  1.00  0.00     0.074 A 
ATOM     87  C   UNL A   1      48.646  23.710  34.980  1.00  0.00     0.031 C 
ATOM     88  C   UNL A   1      50.704  24.959  33.751  1.00  0.00     0.034 A 
BRANCH  75  89
ATOM     89  C   UNL A   1      53.044  26.895  27.925  1.00  0.00     0.023 A 
ATOM     90  C   UNL A   1      52.983  27.720  26.786  1.00  0.00     0.012 A 
ATOM     91  C   UNL A   1      54.287  26.157  28.057  1.00  0.00     0.148 A 
ATOM     92  C   UNL A   1      54.031  27.798  25.841  1.00  0.00     0.002 A 
ATOM     93  C   UNL A   1      55.353  26.283  27.141  1.00  0.00     0.091 A 
ATOM     94  F   UNL A   1      54.445  25.274  29.051  1.00  0.00    -0.205 F 
ATOM     95  C   UNL A   1      55.215  27.092  26.018  1.00  0.00     0.022 A 
BRANCH  93  96
ATOM     96  S   UNL A   1      56.964  25.461  27.343  1.00  0.00     0.127 S 
ATOM     97  O   UNL A   1      56.618  24.050  27.166  1.00  0.00    -0.237 OA
ATOM     98  O   UNL A   1      57.757  26.024  26.248  1.00  0.00    -0.237 OA
ATOM     99  O   UNL A   1      57.437  25.832  28.670  1.00  0.00    -0.744 OA
ENDBRANCH  93  96
ENDBRANCH  75  89
BRANCH  76 100
ATOM    100  C   UNL A   1      44.296  25.385  33.919  1.00  0.00     0.023 A 
ATOM    101  C   UNL A   1      44.173  23.952  33.879  1.00  0.00     0.012 A 
ATOM    102  C   UNL A   1      43.271  26.090  34.545  1.00  0.00     0.148 A 
ATOM    103  C   UNL A   1      43.195  23.275  34.630  1.00  0.00     0.002 A 
ATOM    104  C   UNL A   1      42.349  25.413  35.341  1.00  0.00     0.091 A 
ATOM    105  F   UNL A   1      43.280  27.422  34.529  1.00  0.00    -0.205 F 
ATOM    106  C   UNL A   1      42.297  24.014  35.389  1.00  0.00     0.022 A 
BRANCH 104 107
ATOM    107  S   UNL A   1      41.555  26.392  36.628  1.00  0.00     0.127 S 
ATOM    108  O   UNL A   1      41.076  27.567  35.901  1.00  0.00    -0.237 OA
ATOM    109  O   UNL A   1      40.490  25.495  37.058  1.00  0.00    -0.237 OA
ATOM    110  O   UNL A   1      42.649  26.625  37.558  1.00  0.00    -0.744 OA
ENDBRANCH 104 107
ENDBRANCH  76 100
BRANCH  88 111
ATOM    111  C   UNL A   1      51.814  24.081  34.333  1.00  0.00     0.023 A 
ATOM    112  C   UNL A   1      52.937  24.668  34.951  1.00  0.00     0.012 A 
ATOM    113  C   UNL A   1      51.911  22.704  34.008  1.00  0.00     0.148 A 
ATOM    114  C   UNL A   1      54.088  23.933  35.240  1.00  0.00     0.002 A 
ATOM    115  C   UNL A   1      53.095  22.006  34.194  1.00  0.00     0.091 A 
ATOM    116  F   UNL A   1      50.849  22.053  33.523  1.00  0.00    -0.205 F 
ATOM    117  C   UNL A   1      54.181  22.613  34.827  1.00  0.00     0.022 A 
BRANCH 115 118
ATOM    118  S   UNL A   1      53.346  20.353  33.534  1.00  0.00     0.127 S 
ATOM    119  O   UNL A   1      52.013  19.763  33.688  1.00  0.00    -0.237 OA
ATOM    120  O   UNL A   1      53.727  20.644  32.154  1.00  0.00    -0.237 OA
ATOM    121  O   UNL A   1      54.373  19.733  34.359  1.00  0.00    -0.744 OA
ENDBRANCH 115 118
ENDBRANCH  88 111
ENDBRANCH  62  63
ENDBRANCH  55  57
ENDBRANCH  54  55
ENDBRANCH  53  54
ENDBRANCH  52  53
ENDBRANCH  51  52
ENDBRANCH  50  51
ENDBRANCH  49  50
ENDBRANCH  48  49
ENDBRANCH   1  48
TORSDOF 29
ENDMDL
MODEL 2
REMARK VINA RESULT:     -10.8      5.382      9.361
REMARK SMILES Cc1ccc(S(=O)(=O)n2cc(C(=O)C(=O)N[C@H](Cc3c[nH]c4ccccc34)C(=O)NCC(=O)OCCOCCOCCOC(=O)c3ccc(-c4c5nc(c(-c6cccc(S(=O)(=O)[O-])c6F)c6ccc([nH]6)c(-c6cccc(S(=O)(=O)[O-])c6F)c6nc(c(-c7cccc(S(=O)(=O)[O-])c7F)c7ccc4[nH]7)C=C6)C=C5)cc3)c3ccccc32)cc1
REMARK SMILES IDX 36 1 35 2 34 3 32 4 33 5 31 6 30 7 28 8 29 9 17 11 16 12
REMARK SMILES IDX 14 13 15 14 12 16 13 17 11 18 9 19 10 20 114 21 109 22
REMARK SMILES IDX 113 23 110 24 112 25 111 26 6 27 7 28 8 29 5 30 1 31 2 32
REMARK SMILES IDX 3 33 116 34 4 35 115 36 18 37 19 38 20 39 27 40 21 41 22 42
REMARK SMILES IDX 26 43 23 45 25 46 24 47 37 48 38 49 39 50 40 51 41 52 42 53
REMARK SMILES IDX 43 54 44 55 45 56 46 57 47 58 108 59 48 60 107 61 49 62
REMARK SMILES IDX 50 63 51 64 101 65 52 66 106 67 100 68 102 69 53 70 105 71
REMARK SMILES IDX 99 72 98 73 54 75 86 76 66 77 85 78 67 79 70 80 84 81 103 82
REMARK SMILES IDX 68 83 69 84 83 86 104 87 71 88 55 89 56 90 64 91 57 92 59 93
REMARK SMILES IDX 65 94 58 95 60 96 61 97 62 98 63 99 87 100 88 101 96 102
REMARK SMILES IDX 89 103 91 104 97 105 90 106 92 107 93 108 94 109 95 110
REMARK SMILES IDX 72 111 73 112 81 113 74 114 76 115 82 116 75 117 77 118
REMARK SMILES IDX 78 119 79 120 80 121
REMARK H PARENT 30 10 16 15 21 44 102 74 70 85
REMARK Flexibility Score: inf
ROOT
ATOM      1  C   UNL A   1      36.110  23.608  24.854  1.00  0.00     0.202 C 
ENDROOT
BRANCH   1   2
ATOM      2  C   UNL A   1      35.216  22.479  24.208  1.00  0.00     0.261 C 
BRANCH   2   3
ATOM      3  O   UNL A   1      33.746  22.740  24.237  1.00  0.00    -0.462 OA
BRANCH   3   4
ATOM      4  C   UNL A   1      32.765  22.222  25.063  1.00  0.00     0.325 C 
ATOM      5  O   UNL A   1      32.222  21.154  24.823  1.00  0.00    -0.250 OA
BRANCH   4   6
ATOM      6  C   UNL A   1      32.194  23.331  26.353  1.00  0.00     0.238 C 
BRANCH   6   7
ATOM      7  N   UNL A   1      30.885  23.915  26.585  1.00  0.00    -0.343 N 
ATOM      8  C   UNL A   1      30.517  25.164  26.080  1.00  0.00     0.243 C 
ATOM      9  O   UNL A   1      29.391  25.571  26.169  1.00  0.00    -0.273 OA
ATOM     10  H   UNL A   1      30.231  23.411  27.120  1.00  0.00     0.164 HD
BRANCH   8  11
ATOM     11  C   UNL A   1      31.677  25.919  25.341  1.00  0.00     0.176 C 
BRANCH  11  12
ATOM     12  N   UNL A   1      32.145  26.988  26.667  1.00  0.00    -0.337 N 
ATOM     13  C   UNL A   1      32.183  28.527  27.030  1.00  0.00     0.293 C 
ATOM     14  O   UNL A   1      31.411  28.826  27.943  1.00  0.00    -0.265 OA
ATOM     15  H   UNL A   1      32.492  26.458  27.419  1.00  0.00     0.164 HD
BRANCH  13  16
ATOM     16  C   UNL A   1      33.555  29.564  26.767  1.00  0.00     0.252 C 
ATOM     17  O   UNL A   1      33.530  29.743  25.533  1.00  0.00    -0.283 OA
BRANCH  16  18
ATOM     18  C   UNL A   1      34.961  30.224  27.631  1.00  0.00     0.054 A 
ATOM     19  N   UNL A   1      35.529  31.552  29.517  1.00  0.00    -0.240 N 
ATOM     20  C   UNL A   1      34.739  31.347  28.359  1.00  0.00     0.117 A 
ATOM     21  C   UNL A   1      36.686  30.830  29.343  1.00  0.00     0.065 A 
ATOM     22  C   UNL A   1      36.517  30.140  28.144  1.00  0.00     0.012 A 
ATOM     23  C   UNL A   1      37.897  30.822  30.115  1.00  0.00     0.028 A 
ATOM     24  C   UNL A   1      37.857  29.729  27.735  1.00  0.00     0.011 A 
ATOM     25  C   UNL A   1      39.059  30.225  29.684  1.00  0.00     0.002 A 
ATOM     26  C   UNL A   1      39.056  29.698  28.443  1.00  0.00     0.001 A 
BRANCH  19  27
ATOM     27  S   UNL A   1      35.713  32.721  30.881  1.00  0.00     0.268 S 
ATOM     28  O   UNL A   1      34.306  32.919  31.247  1.00  0.00    -0.201 OA
ATOM     29  O   UNL A   1      36.418  33.827  30.233  1.00  0.00    -0.201 OA
BRANCH  27  30
ATOM     30  C   UNL A   1      36.493  32.875  32.491  1.00  0.00     0.088 A 
ATOM     31  C   UNL A   1      38.847  34.167  35.922  1.00  0.00     0.044 C 
ATOM     32  C   UNL A   1      38.037  33.693  34.754  1.00  0.00    -0.051 A 
ATOM     33  C   UNL A   1      37.818  34.573  33.705  1.00  0.00     0.005 A 
ATOM     34  C   UNL A   1      37.533  32.393  34.648  1.00  0.00     0.005 A 
ATOM     35  C   UNL A   1      37.056  34.170  32.615  1.00  0.00     0.022 A 
ATOM     36  C   UNL A   1      36.807  31.977  33.504  1.00  0.00     0.022 A 
ENDBRANCH  27  30
ENDBRANCH  19  27
ENDBRANCH  16  18
ENDBRANCH  13  16
ENDBRANCH  11  12
BRANCH  11  37
ATOM     37  C   UNL A   1      30.965  26.274  23.938  1.00  0.00     0.072 C 
BRANCH  37  38
ATOM     38  C   UNL A   1      30.707  27.247  22.811  1.00  0.00    -0.020 A 
ATOM     39  C   UNL A   1      31.742  28.053  22.302  1.00  0.00     0.087 A 
ATOM     40  C   UNL A   1      29.543  28.076  22.747  1.00  0.00     0.003 A 
ATOM     41  N   UNL A   1      31.293  29.349  22.218  1.00  0.00    -0.361 N 
ATOM     42  C   UNL A   1      29.954  29.392  22.507  1.00  0.00     0.046 A 
ATOM     43  C   UNL A   1      28.216  27.845  23.128  1.00  0.00     0.010 A 
ATOM     44  H   UNL A   1      31.848  30.129  21.986  1.00  0.00     0.166 HD
ATOM     45  C   UNL A   1      29.100  30.491  22.637  1.00  0.00     0.026 A 
ATOM     46  C   UNL A   1      27.330  28.919  23.188  1.00  0.00     0.001 A 
ATOM     47  C   UNL A   1      27.769  30.222  22.959  1.00  0.00     0.002 A 
ENDBRANCH  37  38
ENDBRANCH  11  37
ENDBRANCH   8  11
ENDBRANCH   6   7
ENDBRANCH   4   6
ENDBRANCH   3   4
ENDBRANCH   2   3
ENDBRANCH   1   2
BRANCH   1  48
ATOM     48  O   UNL A   1      36.458  23.521  26.229  1.00  0.00    -0.376 OA
BRANCH  48  49
ATOM     49  C   UNL A   1      37.834  23.728  26.418  1.00  0.00     0.188 C 
BRANCH  49  50
ATOM     50  C   UNL A   1      38.607  22.434  26.120  1.00  0.00     0.188 C 
BRANCH  50  51
ATOM     51  O   UNL A   1      39.993  22.635  25.931  1.00  0.00    -0.376 OA
BRANCH  51  52
ATOM     52  C   UNL A   1      40.762  21.470  26.192  1.00  0.00     0.202 C 
BRANCH  52  53
ATOM     53  C   UNL A   1      42.345  21.572  26.224  1.00  0.00     0.261 C 
BRANCH  53  54
ATOM     54  O   UNL A   1      42.942  22.748  25.542  1.00  0.00    -0.460 OA
BRANCH  54  55
ATOM     55  C   UNL A   1      43.278  23.950  26.151  1.00  0.00     0.338 C 
ATOM     56  O   UNL A   1      42.690  24.411  27.115  1.00  0.00    -0.246 OA
BRANCH  55  57
ATOM     57  C   UNL A   1      44.563  24.541  25.641  1.00  0.00     0.060 A 
ATOM     58  C   UNL A   1      45.821  23.983  25.593  1.00  0.00     0.016 A 
ATOM     59  C   UNL A   1      44.568  25.727  25.000  1.00  0.00     0.016 A 
ATOM     60  C   UNL A   1      46.994  24.822  25.655  1.00  0.00     0.010 A 
ATOM     61  C   UNL A   1      45.717  26.527  25.151  1.00  0.00     0.010 A 
ATOM     62  C   UNL A   1      46.941  26.202  25.843  1.00  0.00    -0.014 A 
BRANCH  62  63
ATOM     63  C   UNL A   1      48.219  27.131  26.722  1.00  0.00     0.031 A 
ATOM     64  C   UNL A   1      48.311  28.169  28.323  1.00  0.00     0.074 A 
ATOM     65  C   UNL A   1      49.344  26.704  26.029  1.00  0.00     0.049 A 
ATOM     66  N   UNL A   1      49.105  28.197  29.402  1.00  0.00    -0.248 NA
ATOM     67  C   UNL A   1      47.673  29.439  28.707  1.00  0.00     0.031 C 
ATOM     68  C   UNL A   1      50.543  25.931  26.371  1.00  0.00     0.029 A 
ATOM     69  N   UNL A   1      49.667  27.094  24.708  1.00  0.00    -0.354 N 
ATOM     70  C   UNL A   1      49.229  29.388  30.202  1.00  0.00     0.074 A 
ATOM     71  C   UNL A   1      48.068  30.052  29.809  1.00  0.00     0.031 C 
ATOM     72  C   UNL A   1      51.505  26.087  25.426  1.00  0.00     0.029 A 
ATOM     73  C   UNL A   1      51.049  27.045  24.426  1.00  0.00     0.049 A 
ATOM     74  H   UNL A   1      48.991  27.372  24.046  1.00  0.00     0.167 HD
ATOM     75  C   UNL A   1      50.208  30.329  30.524  1.00  0.00     0.034 A 
ATOM     76  C   UNL A   1      51.703  27.486  23.296  1.00  0.00     0.034 A 
ATOM     77  C   UNL A   1      51.410  30.662  29.615  1.00  0.00     0.049 A 
ATOM     78  C   UNL A   1      52.106  29.084  23.422  1.00  0.00     0.074 A 
ATOM     79  C   UNL A   1      52.790  30.534  29.712  1.00  0.00     0.029 A 
ATOM     80  N   UNL A   1      51.344  31.426  28.402  1.00  0.00    -0.354 N 
ATOM     81  N   UNL A   1      52.730  29.615  24.469  1.00  0.00    -0.248 NA
ATOM     82  C   UNL A   1      51.841  30.205  22.524  1.00  0.00     0.031 C 
ATOM     83  C   UNL A   1      53.438  30.977  28.465  1.00  0.00     0.029 A 
ATOM     84  C   UNL A   1      52.485  31.290  27.486  1.00  0.00     0.049 A 
ATOM     85  H   UNL A   1      50.576  32.008  28.194  1.00  0.00     0.167 HD
ATOM     86  C   UNL A   1      52.439  30.997  24.693  1.00  0.00     0.074 A 
ATOM     87  C   UNL A   1      52.049  31.310  23.295  1.00  0.00     0.031 C 
ATOM     88  C   UNL A   1      52.476  31.774  25.924  1.00  0.00     0.034 A 
BRANCH  75  89
ATOM     89  C   UNL A   1      49.938  31.047  31.941  1.00  0.00     0.023 A 
ATOM     90  C   UNL A   1      49.421  30.260  32.986  1.00  0.00     0.012 A 
ATOM     91  C   UNL A   1      50.095  32.451  32.275  1.00  0.00     0.148 A 
ATOM     92  C   UNL A   1      49.060  30.799  34.242  1.00  0.00     0.002 A 
ATOM     93  C   UNL A   1      49.787  32.972  33.550  1.00  0.00     0.091 A 
ATOM     94  F   UNL A   1      50.500  33.325  31.346  1.00  0.00    -0.205 F 
ATOM     95  C   UNL A   1      49.248  32.145  34.530  1.00  0.00     0.022 A 
BRANCH  93  96
ATOM     96  S   UNL A   1      50.081  34.702  34.034  1.00  0.00     0.127 S 
ATOM     97  O   UNL A   1      49.644  34.713  35.430  1.00  0.00    -0.237 OA
ATOM     98  O   UNL A   1      51.527  34.848  33.859  1.00  0.00    -0.237 OA
ATOM     99  O   UNL A   1      49.288  35.512  33.119  1.00  0.00    -0.744 OA
ENDBRANCH  93  96
ENDBRANCH  75  89
BRANCH  76 100
ATOM    100  C   UNL A   1      50.942  26.800  22.157  1.00  0.00     0.023 A 
ATOM    101  C   UNL A   1      49.557  27.159  21.996  1.00  0.00     0.012 A 
ATOM    102  C   UNL A   1      51.628  26.399  21.014  1.00  0.00     0.148 A 
ATOM    103  C   UNL A   1      48.983  27.322  20.722  1.00  0.00     0.002 A 
ATOM    104  C   UNL A   1      51.075  26.628  19.757  1.00  0.00     0.091 A 
ATOM    105  F   UNL A   1      52.883  25.963  21.117  1.00  0.00    -0.205 F 
ATOM    106  C   UNL A   1      49.760  27.084  19.597  1.00  0.00     0.022 A 
BRANCH 104 107
ATOM    107  S   UNL A   1      52.249  26.758  18.395  1.00  0.00     0.127 S 
ATOM    108  O   UNL A   1      52.565  25.361  18.100  1.00  0.00    -0.237 OA
ATOM    109  O   UNL A   1      51.435  27.403  17.373  1.00  0.00    -0.237 OA
ATOM    110  O   UNL A   1      53.323  27.540  18.987  1.00  0.00    -0.744 OA
ENDBRANCH 104 107
ENDBRANCH  76 100
BRANCH  88 111
ATOM    111  C   UNL A   1      52.726  33.278  25.796  1.00  0.00     0.023 A 
ATOM    112  C   UNL A   1      53.945  33.837  26.236  1.00  0.00     0.012 A 
ATOM    113  C   UNL A   1      51.667  34.182  25.536  1.00  0.00     0.148 A 
ATOM    114  C   UNL A   1      54.108  35.214  26.399  1.00  0.00     0.002 A 
ATOM    115  C   UNL A   1      51.797  35.537  25.806  1.00  0.00     0.091 A 
ATOM    116  F   UNL A   1      50.520  33.739  25.012  1.00  0.00    -0.205 F 
ATOM    117  C   UNL A   1      53.023  36.060  26.220  1.00  0.00     0.022 A 
BRANCH 115 118
ATOM    118  S   UNL A   1      50.396  36.662  25.763  1.00  0.00     0.127 S 
ATOM    119  O   UNL A   1      50.976  37.886  26.321  1.00  0.00    -0.237 OA
ATOM    120  O   UNL A   1      50.112  36.719  24.331  1.00  0.00    -0.237 OA
ATOM    121  O   UNL A   1      49.360  36.060  26.591  1.00  0.00    -0.744 OA
ENDBRANCH 115 118
ENDBRANCH  88 111
ENDBRANCH  62  63
ENDBRANCH  55  57
ENDBRANCH  54  55
ENDBRANCH  53  54
ENDBRANCH  52  53
ENDBRANCH  51  52
ENDBRANCH  50  51
ENDBRANCH  49  50
ENDBRANCH  48  49
ENDBRANCH   1  48
TORSDOF 29
ENDMDL
