MODEL 1
REMARK VINA RESULT:     -10.1      0.000      0.000
REMARK SMILES Cc1cc(CNc2ccc(C(=O)OCCOCCOCCOC(=O)c3ccc(-c4c5nc(c(-c6cccc(S(=O)(=O)[O-])c6F)c6ccc([nH]6)c(-c6cccc(S(=O)(=O)[O-])c6F)c6nc(c(-c7cccc(S(=O)(=O)[O-])c7F)c7ccc4[nH]7)C=C6)C=C5)cc3)c(F)c2F)sc1C
REMARK SMILES IDX 17 1 16 2 15 3 14 4 13 5 11 6 12 7 10 8 7 9 8 10 90 11 9 12
REMARK SMILES IDX 88 13 91 14 89 15 6 16 5 18 4 19 1 20 2 21 3 22 93 23 92 24
REMARK SMILES IDX 94 25 18 26 19 27 20 28 21 29 22 30 23 31 24 32 25 33 26 34
REMARK SMILES IDX 87 35 27 36 86 37 28 38 29 39 30 40 80 41 31 42 85 43 79 44
REMARK SMILES IDX 81 45 32 46 84 47 78 48 77 49 33 51 65 52 45 53 64 54 46 55
REMARK SMILES IDX 49 56 63 57 82 58 47 59 48 60 62 62 83 63 50 64 34 65 35 66
REMARK SMILES IDX 43 67 36 68 38 69 44 70 37 71 39 72 40 73 41 74 42 75 66 76
REMARK SMILES IDX 67 77 75 78 68 79 70 80 76 81 69 82 71 83 72 84 73 85 74 86
REMARK SMILES IDX 51 87 52 88 60 89 53 90 55 91 61 92 54 93 56 94 57 95 58 96
REMARK SMILES IDX 59 97
REMARK H PARENT 6 17 81 50 49 61
REMARK Flexibility Score: inf
ROOT
ATOM      1  C   UNL A   1      30.409  26.563  24.886  1.00  0.00     0.188 C 
ENDROOT
BRANCH   1   2
ATOM      2  O   UNL A   1      30.549  25.161  24.881  1.00  0.00    -0.376 OA
BRANCH   2   3
ATOM      3  C   UNL A   1      31.062  24.479  23.751  1.00  0.00     0.202 C 
BRANCH   3   4
ATOM      4  C   UNL A   1      32.472  23.872  23.642  1.00  0.00     0.261 C 
BRANCH   4   5
ATOM      5  O   UNL A   1      32.640  22.533  24.110  1.00  0.00    -0.460 OA
BRANCH   5   6
ATOM      6  C   UNL A   1      33.043  22.420  25.403  1.00  0.00     0.341 C 
ATOM      7  O   UNL A   1      32.344  22.308  26.385  1.00  0.00    -0.246 OA
BRANCH   6   8
ATOM      8  C   UNL A   1      34.505  22.269  25.458  1.00  0.00     0.099 A 
ATOM      9  C   UNL A   1      37.316  22.085  25.462  1.00  0.00     0.074 A 
ATOM     10  C   UNL A   1      36.686  23.276  25.833  1.00  0.00     0.030 A 
ATOM     11  C   UNL A   1      36.499  20.985  25.133  1.00  0.00     0.182 A 
ATOM     12  C   UNL A   1      35.287  23.378  25.811  1.00  0.00     0.021 A 
ATOM     13  C   UNL A   1      35.111  21.066  25.137  1.00  0.00     0.175 A 
ATOM     14  F   UNL A   1      37.083  19.819  24.804  1.00  0.00    -0.201 F 
ATOM     15  F   UNL A   1      34.384  19.989  24.806  1.00  0.00    -0.203 F 
BRANCH   9  16
ATOM     16  N   UNL A   1      38.687  21.935  25.406  1.00  0.00    -0.378 N 
ATOM     17  H   UNL A   1      39.074  21.715  24.528  1.00  0.00     0.161 HD
BRANCH  16  18
ATOM     18  C   UNL A   1      39.616  22.073  26.518  1.00  0.00     0.160 C 
BRANCH  18  19
ATOM     19  C   UNL A   1      40.915  21.383  26.195  1.00  0.00     0.024 A 
ATOM     20  C   UNL A   1      44.586  21.489  25.401  1.00  0.00     0.045 C 
ATOM     21  C   UNL A   1      43.191  21.061  25.717  1.00  0.00    -0.037 A 
ATOM     22  C   UNL A   1      42.110  21.987  25.859  1.00  0.00     0.021 A 
ATOM     23  C   UNL A   1      42.757  19.761  25.925  1.00  0.00     0.005 A 
ATOM     24  S   UNL A   1      41.083  19.690  26.288  1.00  0.00    -0.144 S 
ATOM     25  C   UNL A   1      43.557  18.502  25.874  1.00  0.00     0.056 C 
ENDBRANCH  18  19
ENDBRANCH  16  18
ENDBRANCH   9  16
ENDBRANCH   6   8
ENDBRANCH   5   6
ENDBRANCH   4   5
ENDBRANCH   3   4
ENDBRANCH   2   3
ENDBRANCH   1   2
BRANCH   1  26
ATOM     26  C   UNL A   1      31.591  27.415  25.397  1.00  0.00     0.188 C 
BRANCH  26  27
ATOM     27  O   UNL A   1      31.455  28.808  25.597  1.00  0.00    -0.376 OA
BRANCH  27  28
ATOM     28  C   UNL A   1      32.079  29.428  26.708  1.00  0.00     0.202 C 
BRANCH  28  29
ATOM     29  C   UNL A   1      32.584  30.880  26.684  1.00  0.00     0.261 C 
BRANCH  29  30
ATOM     30  O   UNL A   1      33.134  31.386  27.906  1.00  0.00    -0.460 OA
BRANCH  30  31
ATOM     31  C   UNL A   1      34.138  32.285  27.757  1.00  0.00     0.338 C 
ATOM     32  O   UNL A   1      34.051  33.433  27.358  1.00  0.00    -0.246 OA
BRANCH  31  33
ATOM     33  C   UNL A   1      35.373  31.725  28.334  1.00  0.00     0.060 A 
ATOM     34  C   UNL A   1      35.366  30.394  28.775  1.00  0.00     0.016 A 
ATOM     35  C   UNL A   1      36.512  32.518  28.480  1.00  0.00     0.016 A 
ATOM     36  C   UNL A   1      36.498  29.852  29.379  1.00  0.00     0.010 A 
ATOM     37  C   UNL A   1      37.638  31.980  29.110  1.00  0.00     0.010 A 
ATOM     38  C   UNL A   1      37.627  30.655  29.584  1.00  0.00    -0.014 A 
BRANCH  38  39
ATOM     39  C   UNL A   1      38.734  30.172  30.442  1.00  0.00     0.031 A 
ATOM     40  C   UNL A   1      38.870  30.742  31.827  1.00  0.00     0.074 A 
ATOM     41  C   UNL A   1      39.613  29.258  29.994  1.00  0.00     0.049 A 
ATOM     42  N   UNL A   1      39.800  30.537  32.720  1.00  0.00    -0.248 NA
ATOM     43  C   UNL A   1      37.813  31.673  32.262  1.00  0.00     0.031 C 
ATOM     44  C   UNL A   1      39.574  28.619  28.679  1.00  0.00     0.029 A 
ATOM     45  N   UNL A   1      40.731  28.733  30.591  1.00  0.00    -0.354 N 
ATOM     46  C   UNL A   1      39.461  31.330  33.810  1.00  0.00     0.074 A 
ATOM     47  C   UNL A   1      38.243  32.029  33.463  1.00  0.00     0.031 C 
ATOM     48  C   UNL A   1      40.644  27.813  28.556  1.00  0.00     0.029 A 
ATOM     49  C   UNL A   1      41.457  27.904  29.768  1.00  0.00     0.049 A 
ATOM     50  H   UNL A   1      40.990  28.931  31.520  1.00  0.00     0.167 HD
ATOM     51  C   UNL A   1      40.099  31.456  34.998  1.00  0.00     0.034 A 
ATOM     52  C   UNL A   1      42.654  27.315  29.961  1.00  0.00     0.034 A 
ATOM     53  C   UNL A   1      41.305  30.756  35.341  1.00  0.00     0.049 A 
ATOM     54  C   UNL A   1      43.369  27.516  31.275  1.00  0.00     0.074 A 
ATOM     55  C   UNL A   1      42.013  30.797  36.529  1.00  0.00     0.029 A 
ATOM     56  N   UNL A   1      41.989  29.896  34.497  1.00  0.00    -0.354 N 
ATOM     57  N   UNL A   1      42.986  28.188  32.333  1.00  0.00    -0.248 NA
ATOM     58  C   UNL A   1      44.673  26.850  31.431  1.00  0.00     0.031 C 
ATOM     59  C   UNL A   1      43.142  29.983  36.393  1.00  0.00     0.029 A 
ATOM     60  C   UNL A   1      43.116  29.406  35.133  1.00  0.00     0.049 A 
ATOM     61  H   UNL A   1      41.714  29.667  33.579  1.00  0.00     0.167 HD
ATOM     62  C   UNL A   1      43.974  27.989  33.293  1.00  0.00     0.074 A 
ATOM     63  C   UNL A   1      44.966  27.118  32.696  1.00  0.00     0.031 C 
ATOM     64  C   UNL A   1      44.060  28.487  34.551  1.00  0.00     0.034 A 
BRANCH  51  65
ATOM     65  C   UNL A   1      39.489  32.371  36.025  1.00  0.00     0.023 A 
ATOM     66  C   UNL A   1      38.453  31.896  36.854  1.00  0.00     0.012 A 
ATOM     67  C   UNL A   1      39.984  33.677  36.214  1.00  0.00     0.148 A 
ATOM     68  C   UNL A   1      37.899  32.714  37.838  1.00  0.00     0.002 A 
ATOM     69  C   UNL A   1      39.458  34.471  37.226  1.00  0.00     0.091 A 
ATOM     70  F   UNL A   1      40.955  34.115  35.402  1.00  0.00    -0.205 F 
ATOM     71  C   UNL A   1      38.409  33.996  38.030  1.00  0.00     0.022 A 
BRANCH  69  72
ATOM     72  S   UNL A   1      40.096  36.105  37.608  1.00  0.00     0.127 S 
ATOM     73  O   UNL A   1      39.863  36.814  36.350  1.00  0.00    -0.237 OA
ATOM     74  O   UNL A   1      39.230  36.522  38.712  1.00  0.00    -0.237 OA
ATOM     75  O   UNL A   1      41.495  35.919  37.967  1.00  0.00    -0.744 OA
ENDBRANCH  69  72
ENDBRANCH  51  65
BRANCH  52  76
ATOM     76  C   UNL A   1      43.257  26.461  28.898  1.00  0.00     0.023 A 
ATOM     77  C   UNL A   1      43.003  25.075  28.894  1.00  0.00     0.012 A 
ATOM     78  C   UNL A   1      44.100  27.005  27.910  1.00  0.00     0.148 A 
ATOM     79  C   UNL A   1      43.607  24.242  27.951  1.00  0.00     0.002 A 
ATOM     80  C   UNL A   1      44.655  26.178  26.939  1.00  0.00     0.091 A 
ATOM     81  F   UNL A   1      44.347  28.323  27.940  1.00  0.00    -0.205 F 
ATOM     82  C   UNL A   1      44.427  24.794  26.971  1.00  0.00     0.022 A 
BRANCH  80  83
ATOM     83  S   UNL A   1      45.626  26.817  25.571  1.00  0.00     0.127 S 
ATOM     84  O   UNL A   1      45.846  25.613  24.773  1.00  0.00    -0.237 OA
ATOM     85  O   UNL A   1      44.709  27.791  24.979  1.00  0.00    -0.237 OA
ATOM     86  O   UNL A   1      46.815  27.403  26.174  1.00  0.00    -0.744 OA
ENDBRANCH  80  83
ENDBRANCH  52  76
BRANCH  64  87
ATOM     87  C   UNL A   1      45.230  28.063  35.400  1.00  0.00     0.023 A 
ATOM     88  C   UNL A   1      46.379  28.874  35.479  1.00  0.00     0.012 A 
ATOM     89  C   UNL A   1      45.153  26.897  36.189  1.00  0.00     0.148 A 
ATOM     90  C   UNL A   1      47.445  28.515  36.304  1.00  0.00     0.002 A 
ATOM     91  C   UNL A   1      46.196  26.573  37.047  1.00  0.00     0.091 A 
ATOM     92  F   UNL A   1      44.057  26.130  36.089  1.00  0.00    -0.205 F 
ATOM     93  C   UNL A   1      47.348  27.373  37.096  1.00  0.00     0.022 A 
BRANCH  91  94
ATOM     94  S   UNL A   1      46.119  25.178  38.177  1.00  0.00     0.127 S 
ATOM     95  O   UNL A   1      47.387  25.305  38.892  1.00  0.00    -0.237 OA
ATOM     96  O   UNL A   1      44.933  25.493  38.976  1.00  0.00    -0.237 OA
ATOM     97  O   UNL A   1      45.988  23.990  37.344  1.00  0.00    -0.744 OA
ENDBRANCH  91  94
ENDBRANCH  64  87
ENDBRANCH  38  39
ENDBRANCH  31  33
ENDBRANCH  30  31
ENDBRANCH  29  30
ENDBRANCH  28  29
ENDBRANCH  27  28
ENDBRANCH  26  27
ENDBRANCH   1  26
TORSDOF 23
ENDMDL
MODEL 2
REMARK VINA RESULT:     -10.0      2.920      9.700
REMARK SMILES Cc1cc(CNc2ccc(C(=O)OCCOCCOCCOC(=O)c3ccc(-c4c5nc(c(-c6cccc(S(=O)(=O)[O-])c6F)c6ccc([nH]6)c(-c6cccc(S(=O)(=O)[O-])c6F)c6nc(c(-c7cccc(S(=O)(=O)[O-])c7F)c7ccc4[nH]7)C=C6)C=C5)cc3)c(F)c2F)sc1C
REMARK SMILES IDX 17 1 16 2 15 3 14 4 13 5 11 6 12 7 10 8 7 9 8 10 90 11 9 12
REMARK SMILES IDX 88 13 91 14 89 15 6 16 5 18 4 19 1 20 2 21 3 22 93 23 92 24
REMARK SMILES IDX 94 25 18 26 19 27 20 28 21 29 22 30 23 31 24 32 25 33 26 34
REMARK SMILES IDX 87 35 27 36 86 37 28 38 29 39 30 40 80 41 31 42 85 43 79 44
REMARK SMILES IDX 81 45 32 46 84 47 78 48 77 49 33 51 65 52 45 53 64 54 46 55
REMARK SMILES IDX 49 56 63 57 82 58 47 59 48 60 62 62 83 63 50 64 34 65 35 66
REMARK SMILES IDX 43 67 36 68 38 69 44 70 37 71 39 72 40 73 41 74 42 75 66 76
REMARK SMILES IDX 67 77 75 78 68 79 70 80 76 81 69 82 71 83 72 84 73 85 74 86
REMARK SMILES IDX 51 87 52 88 60 89 53 90 55 91 61 92 54 93 56 94 57 95 58 96
REMARK SMILES IDX 59 97
REMARK H PARENT 6 17 81 50 49 61
REMARK Flexibility Score: inf
ROOT
ATOM      1  C   UNL A   1      40.931  20.113  26.094  1.00  0.00     0.188 C 
ENDROOT
BRANCH   1   2
ATOM      2  O   UNL A   1      39.633  20.656  26.168  1.00  0.00    -0.376 OA
BRANCH   2   3
ATOM      3  C   UNL A   1      38.565  20.107  25.417  1.00  0.00     0.202 C 
BRANCH   3   4
ATOM      4  C   UNL A   1      37.390  20.906  24.826  1.00  0.00     0.261 C 
BRANCH   4   5
ATOM      5  O   UNL A   1      36.519  21.559  25.752  1.00  0.00    -0.460 OA
BRANCH   5   6
ATOM      6  C   UNL A   1      36.619  22.914  25.781  1.00  0.00     0.341 C 
ATOM      7  O   UNL A   1      37.611  23.583  25.595  1.00  0.00    -0.246 OA
BRANCH   6   8
ATOM      8  C   UNL A   1      35.281  23.511  25.900  1.00  0.00     0.099 A 
ATOM      9  C   UNL A   1      32.777  24.770  26.190  1.00  0.00     0.074 A 
ATOM     10  C   UNL A   1      33.771  25.348  25.395  1.00  0.00     0.030 A 
ATOM     11  C   UNL A   1      33.061  23.530  26.796  1.00  0.00     0.182 A 
ATOM     12  C   UNL A   1      35.026  24.734  25.265  1.00  0.00     0.021 A 
ATOM     13  C   UNL A   1      34.290  22.898  26.650  1.00  0.00     0.175 A 
ATOM     14  F   UNL A   1      32.109  22.940  27.540  1.00  0.00    -0.201 F 
ATOM     15  F   UNL A   1      34.507  21.723  27.259  1.00  0.00    -0.203 F 
BRANCH   9  16
ATOM     16  N   UNL A   1      31.543  25.350  26.405  1.00  0.00    -0.378 N 
ATOM     17  H   UNL A   1      31.468  25.961  27.173  1.00  0.00     0.161 HD
BRANCH  16  18
ATOM     18  C   UNL A   1      30.344  25.145  25.607  1.00  0.00     0.160 C 
BRANCH  18  19
ATOM     19  C   UNL A   1      30.043  26.380  24.800  1.00  0.00     0.024 A 
ATOM     20  C   UNL A   1      27.697  28.478  22.747  1.00  0.00     0.045 C 
ATOM     21  C   UNL A   1      28.863  27.955  23.519  1.00  0.00    -0.037 A 
ATOM     22  C   UNL A   1      28.888  26.644  24.092  1.00  0.00     0.021 A 
ATOM     23  C   UNL A   1      30.038  28.635  23.794  1.00  0.00     0.005 A 
ATOM     24  S   UNL A   1      31.125  27.696  24.729  1.00  0.00    -0.144 S 
ATOM     25  C   UNL A   1      30.420  30.021  23.387  1.00  0.00     0.056 C 
ENDBRANCH  18  19
ENDBRANCH  16  18
ENDBRANCH   9  16
ENDBRANCH   6   8
ENDBRANCH   5   6
ENDBRANCH   4   5
ENDBRANCH   3   4
ENDBRANCH   2   3
ENDBRANCH   1   2
BRANCH   1  26
ATOM     26  C   UNL A   1      42.132  21.084  26.114  1.00  0.00     0.188 C 
BRANCH  26  27
ATOM     27  O   UNL A   1      43.461  20.602  26.142  1.00  0.00    -0.376 OA
BRANCH  27  28
ATOM     28  C   UNL A   1      44.479  21.293  25.439  1.00  0.00     0.202 C 
BRANCH  28  29
ATOM     29  C   UNL A   1      44.212  22.109  24.163  1.00  0.00     0.261 C 
BRANCH  29  30
ATOM     30  O   UNL A   1      43.660  23.417  24.345  1.00  0.00    -0.460 OA
BRANCH  30  31
ATOM     31  C   UNL A   1      44.520  24.342  24.839  1.00  0.00     0.338 C 
ATOM     32  O   UNL A   1      45.674  24.536  24.499  1.00  0.00    -0.246 OA
BRANCH  31  33
ATOM     33  C   UNL A   1      43.790  25.236  25.755  1.00  0.00     0.060 A 
ATOM     34  C   UNL A   1      44.174  26.582  25.830  1.00  0.00     0.016 A 
ATOM     35  C   UNL A   1      42.767  24.740  26.566  1.00  0.00     0.016 A 
ATOM     36  C   UNL A   1      43.544  27.439  26.730  1.00  0.00     0.010 A 
ATOM     37  C   UNL A   1      42.155  25.596  27.485  1.00  0.00     0.010 A 
ATOM     38  C   UNL A   1      42.557  26.940  27.589  1.00  0.00    -0.014 A 
BRANCH  38  39
ATOM     39  C   UNL A   1      42.061  27.772  28.711  1.00  0.00     0.031 A 
ATOM     40  C   UNL A   1      42.784  27.704  30.028  1.00  0.00     0.074 A 
ATOM     41  C   UNL A   1      40.979  28.559  28.568  1.00  0.00     0.049 A 
ATOM     42  N   UNL A   1      42.486  28.271  31.166  1.00  0.00    -0.248 NA
ATOM     43  C   UNL A   1      44.007  26.882  30.065  1.00  0.00     0.031 C 
ATOM     44  C   UNL A   1      40.208  28.723  27.337  1.00  0.00     0.029 A 
ATOM     45  N   UNL A   1      40.326  29.345  29.484  1.00  0.00    -0.354 N 
ATOM     46  C   UNL A   1      43.464  27.855  32.062  1.00  0.00     0.074 A 
ATOM     47  C   UNL A   1      44.360  26.980  31.338  1.00  0.00     0.031 C 
ATOM     48  C   UNL A   1      39.162  29.531  27.584  1.00  0.00     0.029 A 
ATOM     49  C   UNL A   1      39.173  29.915  28.996  1.00  0.00     0.049 A 
ATOM     50  H   UNL A   1      40.650  29.487  30.402  1.00  0.00     0.167 HD
ATOM     51  C   UNL A   1      43.611  28.183  33.368  1.00  0.00     0.034 A 
ATOM     52  C   UNL A   1      38.223  30.634  29.626  1.00  0.00     0.034 A 
ATOM     53  C   UNL A   1      42.723  29.057  34.083  1.00  0.00     0.049 A 
ATOM     54  C   UNL A   1      38.385  30.939  31.095  1.00  0.00     0.074 A 
ATOM     55  C   UNL A   1      42.802  29.470  35.401  1.00  0.00     0.029 A 
ATOM     56  N   UNL A   1      41.589  29.645  33.546  1.00  0.00    -0.354 N 
ATOM     57  N   UNL A   1      39.366  30.623  31.904  1.00  0.00    -0.248 NA
ATOM     58  C   UNL A   1      37.317  31.728  31.731  1.00  0.00     0.031 C 
ATOM     59  C   UNL A   1      41.699  30.286  35.669  1.00  0.00     0.029 A 
ATOM     60  C   UNL A   1      40.954  30.412  34.507  1.00  0.00     0.049 A 
ATOM     61  H   UNL A   1      41.281  29.534  32.617  1.00  0.00     0.167 HD
ATOM     62  C   UNL A   1      39.060  31.211  33.127  1.00  0.00     0.074 A 
ATOM     63  C   UNL A   1      37.808  31.917  32.948  1.00  0.00     0.031 C 
ATOM     64  C   UNL A   1      39.745  31.164  34.297  1.00  0.00     0.034 A 
BRANCH  51  65
ATOM     65  C   UNL A   1      44.791  27.608  34.104  1.00  0.00     0.023 A 
ATOM     66  C   UNL A   1      45.974  28.365  34.223  1.00  0.00     0.012 A 
ATOM     67  C   UNL A   1      44.708  26.350  34.733  1.00  0.00     0.148 A 
ATOM     68  C   UNL A   1      47.066  27.869  34.933  1.00  0.00     0.002 A 
ATOM     69  C   UNL A   1      45.785  25.882  35.476  1.00  0.00     0.091 A 
ATOM     70  F   UNL A   1      43.582  25.638  34.591  1.00  0.00    -0.205 F 
ATOM     71  C   UNL A   1      46.968  26.634  35.568  1.00  0.00     0.022 A 
BRANCH  69  72
ATOM     72  S   UNL A   1      45.732  24.341  36.397  1.00  0.00     0.127 S 
ATOM     73  O   UNL A   1      44.603  24.575  37.298  1.00  0.00    -0.237 OA
ATOM     74  O   UNL A   1      45.475  23.361  35.340  1.00  0.00    -0.237 OA
ATOM     75  O   UNL A   1      47.029  24.213  37.046  1.00  0.00    -0.744 OA
ENDBRANCH  69  72
ENDBRANCH  51  65
BRANCH  52  76
ATOM     76  C   UNL A   1      37.036  31.139  28.878  1.00  0.00     0.023 A 
ATOM     77  C   UNL A   1      36.914  32.518  28.619  1.00  0.00     0.012 A 
ATOM     78  C   UNL A   1      36.017  30.268  28.446  1.00  0.00     0.148 A 
ATOM     79  C   UNL A   1      35.782  33.025  27.980  1.00  0.00     0.002 A 
ATOM     80  C   UNL A   1      34.917  30.773  27.761  1.00  0.00     0.091 A 
ATOM     81  F   UNL A   1      36.139  28.961  28.719  1.00  0.00    -0.205 F 
ATOM     82  C   UNL A   1      34.788  32.153  27.545  1.00  0.00     0.022 A 
BRANCH  80  83
ATOM     83  S   UNL A   1      33.648  29.712  27.061  1.00  0.00     0.127 S 
ATOM     84  O   UNL A   1      32.594  30.674  26.749  1.00  0.00    -0.237 OA
ATOM     85  O   UNL A   1      34.334  29.149  25.899  1.00  0.00    -0.237 OA
ATOM     86  O   UNL A   1      33.333  28.741  28.100  1.00  0.00    -0.744 OA
ENDBRANCH  80  83
ENDBRANCH  52  76
BRANCH  64  87
ATOM     87  C   UNL A   1      39.200  31.943  35.466  1.00  0.00     0.023 A 
ATOM     88  C   UNL A   1      38.309  31.332  36.370  1.00  0.00     0.012 A 
ATOM     89  C   UNL A   1      39.642  33.259  35.715  1.00  0.00     0.148 A 
ATOM     90  C   UNL A   1      37.841  32.029  37.484  1.00  0.00     0.002 A 
ATOM     91  C   UNL A   1      39.212  33.928  36.853  1.00  0.00     0.091 A 
ATOM     92  F   UNL A   1      40.478  33.828  34.835  1.00  0.00    -0.205 F 
ATOM     93  C   UNL A   1      38.302  33.321  37.733  1.00  0.00     0.022 A 
BRANCH  91  94
ATOM     94  S   UNL A   1      39.828  35.554  37.308  1.00  0.00     0.127 S 
ATOM     95  O   UNL A   1      39.094  35.815  38.544  1.00  0.00    -0.237 OA
ATOM     96  O   UNL A   1      41.259  35.303  37.488  1.00  0.00    -0.237 OA
ATOM     97  O   UNL A   1      39.505  36.434  36.193  1.00  0.00    -0.744 OA
ENDBRANCH  91  94
ENDBRANCH  64  87
ENDBRANCH  38  39
ENDBRANCH  31  33
ENDBRANCH  30  31
ENDBRANCH  29  30
ENDBRANCH  28  29
ENDBRANCH  27  28
ENDBRANCH  26  27
ENDBRANCH   1  26
TORSDOF 23
ENDMDL
MODEL 3
REMARK VINA RESULT:      -9.9      4.591      7.654
REMARK SMILES Cc1cc(CNc2ccc(C(=O)OCCOCCOCCOC(=O)c3ccc(-c4c5nc(c(-c6cccc(S(=O)(=O)[O-])c6F)c6ccc([nH]6)c(-c6cccc(S(=O)(=O)[O-])c6F)c6nc(c(-c7cccc(S(=O)(=O)[O-])c7F)c7ccc4[nH]7)C=C6)C=C5)cc3)c(F)c2F)sc1C
REMARK SMILES IDX 17 1 16 2 15 3 14 4 13 5 11 6 12 7 10 8 7 9 8 10 90 11 9 12
REMARK SMILES IDX 88 13 91 14 89 15 6 16 5 18 4 19 1 20 2 21 3 22 93 23 92 24
REMARK SMILES IDX 94 25 18 26 19 27 20 28 21 29 22 30 23 31 24 32 25 33 26 34
REMARK SMILES IDX 87 35 27 36 86 37 28 38 29 39 30 40 80 41 31 42 85 43 79 44
REMARK SMILES IDX 81 45 32 46 84 47 78 48 77 49 33 51 65 52 45 53 64 54 46 55
REMARK SMILES IDX 49 56 63 57 82 58 47 59 48 60 62 62 83 63 50 64 34 65 35 66
REMARK SMILES IDX 43 67 36 68 38 69 44 70 37 71 39 72 40 73 41 74 42 75 66 76
REMARK SMILES IDX 67 77 75 78 68 79 70 80 76 81 69 82 71 83 72 84 73 85 74 86
REMARK SMILES IDX 51 87 52 88 60 89 53 90 55 91 61 92 54 93 56 94 57 95 58 96
REMARK SMILES IDX 59 97
REMARK H PARENT 6 17 81 50 49 61
REMARK Flexibility Score: inf
ROOT
ATOM      1  C   UNL A   1      32.762  35.740  30.735  1.00  0.00     0.188 C 
ENDROOT
BRANCH   1   2
ATOM      2  O   UNL A   1      33.874  35.970  31.568  1.00  0.00    -0.376 OA
BRANCH   2   3
ATOM      3  C   UNL A   1      34.524  34.903  32.236  1.00  0.00     0.202 C 
BRANCH   3   4
ATOM      4  C   UNL A   1      36.018  34.861  32.604  1.00  0.00     0.261 C 
BRANCH   4   5
ATOM      5  O   UNL A   1      36.603  33.572  32.793  1.00  0.00    -0.460 OA
BRANCH   5   6
ATOM      6  C   UNL A   1      36.708  33.170  34.088  1.00  0.00     0.341 C 
ATOM      7  O   UNL A   1      36.066  33.566  35.035  1.00  0.00    -0.246 OA
BRANCH   6   8
ATOM      8  C   UNL A   1      37.616  32.017  34.180  1.00  0.00     0.099 A 
ATOM      9  C   UNL A   1      39.463  29.894  34.306  1.00  0.00     0.074 A 
ATOM     10  C   UNL A   1      39.661  31.049  35.068  1.00  0.00     0.030 A 
ATOM     11  C   UNL A   1      38.297  29.820  33.518  1.00  0.00     0.182 A 
ATOM     12  C   UNL A   1      38.755  32.116  34.992  1.00  0.00     0.021 A 
ATOM     13  C   UNL A   1      37.377  30.860  33.458  1.00  0.00     0.175 A 
ATOM     14  F   UNL A   1      38.069  28.706  32.801  1.00  0.00    -0.201 F 
ATOM     15  F   UNL A   1      36.289  30.738  32.682  1.00  0.00    -0.203 F 
BRANCH   9  16
ATOM     16  N   UNL A   1      40.344  28.832  34.291  1.00  0.00    -0.378 N 
ATOM     17  H   UNL A   1      40.003  27.967  34.613  1.00  0.00     0.161 HD
BRANCH  16  18
ATOM     18  C   UNL A   1      41.729  28.868  33.844  1.00  0.00     0.160 C 
BRANCH  18  19
ATOM     19  C   UNL A   1      42.364  27.514  34.020  1.00  0.00     0.024 A 
ATOM     20  C   UNL A   1      45.153  25.079  33.375  1.00  0.00     0.045 C 
ATOM     21  C   UNL A   1      43.917  25.760  33.865  1.00  0.00    -0.037 A 
ATOM     22  C   UNL A   1      43.511  27.052  33.405  1.00  0.00     0.021 A 
ATOM     23  C   UNL A   1      43.027  25.268  34.805  1.00  0.00     0.005 A 
ATOM     24  S   UNL A   1      41.744  26.363  35.114  1.00  0.00    -0.144 S 
ATOM     25  C   UNL A   1      43.078  23.966  35.534  1.00  0.00     0.056 C 
ENDBRANCH  18  19
ENDBRANCH  16  18
ENDBRANCH   9  16
ENDBRANCH   6   8
ENDBRANCH   5   6
ENDBRANCH   4   5
ENDBRANCH   3   4
ENDBRANCH   2   3
ENDBRANCH   1   2
BRANCH   1  26
ATOM     26  C   UNL A   1      32.977  35.762  29.206  1.00  0.00     0.188 C 
BRANCH  26  27
ATOM     27  O   UNL A   1      34.272  35.671  28.648  1.00  0.00    -0.376 OA
BRANCH  27  28
ATOM     28  C   UNL A   1      34.892  34.404  28.502  1.00  0.00     0.202 C 
BRANCH  28  29
ATOM     29  C   UNL A   1      34.101  33.092  28.381  1.00  0.00     0.261 C 
BRANCH  29  30
ATOM     30  O   UNL A   1      34.585  32.139  27.428  1.00  0.00    -0.460 OA
BRANCH  30  31
ATOM     31  C   UNL A   1      34.414  30.839  27.775  1.00  0.00     0.338 C 
ATOM     32  O   UNL A   1      33.392  30.180  27.696  1.00  0.00    -0.246 OA
BRANCH  31  33
ATOM     33  C   UNL A   1      35.725  30.255  28.109  1.00  0.00     0.060 A 
ATOM     34  C   UNL A   1      35.936  29.775  29.409  1.00  0.00     0.016 A 
ATOM     35  C   UNL A   1      36.750  30.224  27.162  1.00  0.00     0.016 A 
ATOM     36  C   UNL A   1      37.183  29.272  29.774  1.00  0.00     0.010 A 
ATOM     37  C   UNL A   1      38.007  29.742  27.538  1.00  0.00     0.010 A 
ATOM     38  C   UNL A   1      38.236  29.289  28.850  1.00  0.00    -0.014 A 
BRANCH  38  39
ATOM     39  C   UNL A   1      39.617  28.994  29.296  1.00  0.00     0.031 A 
ATOM     40  C   UNL A   1      40.386  30.071  30.011  1.00  0.00     0.074 A 
ATOM     41  C   UNL A   1      40.186  27.799  29.055  1.00  0.00     0.049 A 
ATOM     42  N   UNL A   1      41.627  30.073  30.416  1.00  0.00    -0.248 NA
ATOM     43  C   UNL A   1      39.653  31.316  30.306  1.00  0.00     0.031 C 
ATOM     44  C   UNL A   1      39.537  26.671  28.389  1.00  0.00     0.029 A 
ATOM     45  N   UNL A   1      41.456  27.350  29.319  1.00  0.00    -0.354 N 
ATOM     46  C   UNL A   1      41.836  31.323  30.987  1.00  0.00     0.074 A 
ATOM     47  C   UNL A   1      40.596  32.057  30.869  1.00  0.00     0.031 C 
ATOM     48  C   UNL A   1      40.426  25.670  28.263  1.00  0.00     0.029 A 
ATOM     49  C   UNL A   1      41.713  26.098  28.811  1.00  0.00     0.049 A 
ATOM     50  H   UNL A   1      42.120  27.874  29.823  1.00  0.00     0.167 HD
ATOM     51  C   UNL A   1      42.957  31.811  31.570  1.00  0.00     0.034 A 
ATOM     52  C   UNL A   1      42.863  25.395  28.766  1.00  0.00     0.034 A 
ATOM     53  C   UNL A   1      44.185  31.078  31.693  1.00  0.00     0.049 A 
ATOM     54  C   UNL A   1      44.110  25.986  29.376  1.00  0.00     0.074 A 
ATOM     55  C   UNL A   1      45.368  31.476  32.290  1.00  0.00     0.029 A 
ATOM     56  N   UNL A   1      44.396  29.799  31.201  1.00  0.00    -0.354 N 
ATOM     57  N   UNL A   1      44.266  27.127  30.002  1.00  0.00    -0.248 NA
ATOM     58  C   UNL A   1      45.336  25.176  29.298  1.00  0.00     0.031 C 
ATOM     59  C   UNL A   1      46.303  30.449  32.134  1.00  0.00     0.029 A 
ATOM     60  C   UNL A   1      45.691  29.395  31.474  1.00  0.00     0.049 A 
ATOM     61  H   UNL A   1      43.723  29.258  30.728  1.00  0.00     0.167 HD
ATOM     62  C   UNL A   1      45.589  27.151  30.432  1.00  0.00     0.074 A 
ATOM     63  C   UNL A   1      46.187  25.902  30.009  1.00  0.00     0.031 C 
ATOM     64  C   UNL A   1      46.254  28.122  31.106  1.00  0.00     0.034 A 
BRANCH  51  65
ATOM     65  C   UNL A   1      42.898  33.202  32.143  1.00  0.00     0.023 A 
ATOM     66  C   UNL A   1      42.418  33.396  33.454  1.00  0.00     0.012 A 
ATOM     67  C   UNL A   1      43.376  34.306  31.410  1.00  0.00     0.148 A 
ATOM     68  C   UNL A   1      42.390  34.671  34.018  1.00  0.00     0.002 A 
ATOM     69  C   UNL A   1      43.386  35.567  31.995  1.00  0.00     0.091 A 
ATOM     70  F   UNL A   1      43.808  34.103  30.158  1.00  0.00    -0.205 F 
ATOM     71  C   UNL A   1      42.884  35.752  33.294  1.00  0.00     0.022 A 
BRANCH  69  72
ATOM     72  S   UNL A   1      44.072  37.011  31.177  1.00  0.00     0.127 S 
ATOM     73  O   UNL A   1      43.749  38.070  32.133  1.00  0.00    -0.237 OA
ATOM     74  O   UNL A   1      45.494  36.672  31.101  1.00  0.00    -0.237 OA
ATOM     75  O   UNL A   1      43.397  37.106  29.891  1.00  0.00    -0.744 OA
ENDBRANCH  69  72
ENDBRANCH  51  65
BRANCH  52  76
ATOM     76  C   UNL A   1      42.899  24.043  28.138  1.00  0.00     0.023 A 
ATOM     77  C   UNL A   1      42.292  22.956  28.797  1.00  0.00     0.012 A 
ATOM     78  C   UNL A   1      43.551  23.822  26.910  1.00  0.00     0.148 A 
ATOM     79  C   UNL A   1      42.368  21.668  28.266  1.00  0.00     0.002 A 
ATOM     80  C   UNL A   1      43.575  22.546  26.358  1.00  0.00     0.091 A 
ATOM     81  F   UNL A   1      44.140  24.864  26.306  1.00  0.00    -0.205 F 
ATOM     82  C   UNL A   1      43.003  21.464  27.044  1.00  0.00     0.022 A 
BRANCH  80  83
ATOM     83  S   UNL A   1      44.267  22.212  24.734  1.00  0.00     0.127 S 
ATOM     84  O   UNL A   1      44.017  20.780  24.592  1.00  0.00    -0.237 OA
ATOM     85  O   UNL A   1      43.448  23.070  23.877  1.00  0.00    -0.237 OA
ATOM     86  O   UNL A   1      45.666  22.607  24.816  1.00  0.00    -0.744 OA
ENDBRANCH  80  83
ENDBRANCH  52  76
BRANCH  64  87
ATOM     87  C   UNL A   1      47.687  27.860  31.490  1.00  0.00     0.023 A 
ATOM     88  C   UNL A   1      47.987  27.161  32.675  1.00  0.00     0.012 A 
ATOM     89  C   UNL A   1      48.737  28.237  30.627  1.00  0.00     0.148 A 
ATOM     90  C   UNL A   1      49.309  26.868  33.011  1.00  0.00     0.002 A 
ATOM     91  C   UNL A   1      50.046  27.897  30.942  1.00  0.00     0.091 A 
ATOM     92  F   UNL A   1      48.433  28.915  29.511  1.00  0.00    -0.205 F 
ATOM     93  C   UNL A   1      50.336  27.225  32.140  1.00  0.00     0.022 A 
BRANCH  91  94
ATOM     94  S   UNL A   1      51.422  28.226  29.834  1.00  0.00     0.127 S 
ATOM     95  O   UNL A   1      52.570  27.961  30.699  1.00  0.00    -0.237 OA
ATOM     96  O   UNL A   1      51.212  27.236  28.778  1.00  0.00    -0.237 OA
ATOM     97  O   UNL A   1      51.272  29.610  29.404  1.00  0.00    -0.744 OA
ENDBRANCH  91  94
ENDBRANCH  64  87
ENDBRANCH  38  39
ENDBRANCH  31  33
ENDBRANCH  30  31
ENDBRANCH  29  30
ENDBRANCH  28  29
ENDBRANCH  27  28
ENDBRANCH  26  27
ENDBRANCH   1  26
TORSDOF 23
ENDMDL
