MODEL 1
REMARK VINA RESULT:      -9.7      0.000      0.000
REMARK SMILES CC[NH+](CC)CC[N@H+]1CC[C@@H](C(=O)OCCOCCOCCOC(=O)c2ccc(-c3c4nc(c(-c5cccc(S(=O)(=O)[O-])c5F)c5ccc([nH]5)c(-c5cccc(S(=O)(=O)[O-])c5F)c5nc(c(-c6cccc(S(=O)(=O)[O-])c6F)c6ccc3[nH]6)C=C5)C=C4)cc2)[C@@H]1C
REMARK SMILES IDX 18 1 17 2 16 3 15 4 14 5 12 6 13 7 11 8 8 9 9 10 89 11 10 13
REMARK SMILES IDX 90 14 7 15 6 16 3 17 2 19 1 20 4 21 5 22 19 23 20 24 21 25
REMARK SMILES IDX 22 26 23 27 24 28 25 29 26 30 27 31 88 32 28 33 87 34 29 35
REMARK SMILES IDX 30 36 31 37 81 38 32 39 86 40 80 41 82 42 33 43 85 44 79 45
REMARK SMILES IDX 78 46 34 48 66 49 46 50 65 51 47 52 50 53 64 54 83 55 48 56
REMARK SMILES IDX 49 57 63 59 84 60 51 61 35 62 36 63 44 64 37 65 39 66 45 67
REMARK SMILES IDX 38 68 40 69 41 70 42 71 43 72 67 73 68 74 76 75 69 76 71 77
REMARK SMILES IDX 77 78 70 79 72 80 73 81 74 82 75 83 52 84 53 85 61 86 54 87
REMARK SMILES IDX 56 88 62 89 55 90 57 91 58 92 59 93 60 94
REMARK H PARENT 8 12 3 18 82 47 50 58
REMARK Flexibility Score: inf
ROOT
ATOM      1  C   UNL A   1      33.141  26.967  22.009  1.00  0.00     0.188 C 
ENDROOT
BRANCH   1   2
ATOM      2  O   UNL A   1      32.717  25.672  22.413  1.00  0.00    -0.376 OA
BRANCH   2   3
ATOM      3  C   UNL A   1      31.332  25.390  22.552  1.00  0.00     0.202 C 
BRANCH   3   4
ATOM      4  C   UNL A   1      30.876  24.255  23.485  1.00  0.00     0.261 C 
BRANCH   4   5
ATOM      5  O   UNL A   1      31.325  24.332  24.854  1.00  0.00    -0.463 OA
BRANCH   5   6
ATOM      6  C   UNL A   1      31.699  23.158  25.420  1.00  0.00     0.315 C 
ATOM      7  O   UNL A   1      30.976  22.169  25.487  1.00  0.00    -0.252 OA
BRANCH   6   8
ATOM      8  C   UNL A   1      33.084  23.153  26.053  1.00  0.00     0.162 C 
ATOM      9  N   UNL A   1      35.111  21.826  25.860  1.00  0.00    -0.327 N 
ATOM     10  C   UNL A   1      35.373  23.152  25.314  1.00  0.00     0.263 C 
ATOM     11  C   UNL A   1      33.762  21.833  26.442  1.00  0.00     0.195 C 
ATOM     12  H   UNL A   1      35.807  21.646  26.584  1.00  0.00     0.348 HD
ATOM     13  C   UNL A   1      34.033  23.796  25.057  1.00  0.00     0.083 C 
ATOM     14  C   UNL A   1      33.974  21.734  27.965  1.00  0.00     0.076 C 
BRANCH   9  15
ATOM     15  C   UNL A   1      35.340  20.708  24.944  1.00  0.00     0.324 C 
BRANCH  15  16
ATOM     16  C   UNL A   1      34.087  19.854  24.590  1.00  0.00     0.324 C 
BRANCH  16  17
ATOM     17  N   UNL A   1      33.964  18.442  25.001  1.00  0.00    -0.331 N 
ATOM     18  H   UNL A   1      34.388  18.476  25.928  1.00  0.00     0.348 HD
BRANCH  17  19
ATOM     19  C   UNL A   1      32.604  17.952  25.246  1.00  0.00     0.258 C 
ATOM     20  C   UNL A   1      32.547  16.710  26.131  1.00  0.00     0.071 C 
ENDBRANCH  17  19
BRANCH  17  21
ATOM     21  C   UNL A   1      34.774  17.496  24.227  1.00  0.00     0.258 C 
ATOM     22  C   UNL A   1      34.172  16.894  22.961  1.00  0.00     0.071 C 
ENDBRANCH  17  21
ENDBRANCH  16  17
ENDBRANCH  15  16
ENDBRANCH   9  15
ENDBRANCH   6   8
ENDBRANCH   5   6
ENDBRANCH   4   5
ENDBRANCH   3   4
ENDBRANCH   2   3
ENDBRANCH   1   2
BRANCH   1  23
ATOM     23  C   UNL A   1      33.381  28.047  23.074  1.00  0.00     0.188 C 
BRANCH  23  24
ATOM     24  O   UNL A   1      32.266  28.850  23.384  1.00  0.00    -0.376 OA
BRANCH  24  25
ATOM     25  C   UNL A   1      31.566  28.556  24.577  1.00  0.00     0.202 C 
BRANCH  25  26
ATOM     26  C   UNL A   1      31.723  29.504  25.780  1.00  0.00     0.261 C 
BRANCH  26  27
ATOM     27  O   UNL A   1      32.896  30.340  25.800  1.00  0.00    -0.460 OA
BRANCH  27  28
ATOM     28  C   UNL A   1      33.043  31.185  26.846  1.00  0.00     0.338 C 
ATOM     29  O   UNL A   1      32.168  31.887  27.338  1.00  0.00    -0.246 OA
BRANCH  28  30
ATOM     30  C   UNL A   1      34.371  30.947  27.463  1.00  0.00     0.060 A 
ATOM     31  C   UNL A   1      34.766  29.627  27.728  1.00  0.00     0.016 A 
ATOM     32  C   UNL A   1      35.228  32.005  27.771  1.00  0.00     0.016 A 
ATOM     33  C   UNL A   1      36.002  29.365  28.324  1.00  0.00     0.010 A 
ATOM     34  C   UNL A   1      36.458  31.741  28.391  1.00  0.00     0.010 A 
ATOM     35  C   UNL A   1      36.841  30.422  28.699  1.00  0.00    -0.014 A 
BRANCH  35  36
ATOM     36  C   UNL A   1      38.035  30.154  29.546  1.00  0.00     0.031 A 
ATOM     37  C   UNL A   1      39.096  29.214  29.036  1.00  0.00     0.074 A 
ATOM     38  C   UNL A   1      38.195  30.747  30.745  1.00  0.00     0.049 A 
ATOM     39  N   UNL A   1      40.201  28.815  29.610  1.00  0.00    -0.248 NA
ATOM     40  C   UNL A   1      38.880  28.649  27.693  1.00  0.00     0.031 C 
ATOM     41  C   UNL A   1      37.258  31.687  31.356  1.00  0.00     0.029 A 
ATOM     42  N   UNL A   1      39.200  30.622  31.674  1.00  0.00    -0.354 N 
ATOM     43  C   UNL A   1      40.795  27.928  28.720  1.00  0.00     0.074 A 
ATOM     44  C   UNL A   1      39.923  27.841  27.568  1.00  0.00     0.031 C 
ATOM     45  C   UNL A   1      37.719  32.036  32.569  1.00  0.00     0.029 A 
ATOM     46  C   UNL A   1      38.967  31.322  32.836  1.00  0.00     0.049 A 
ATOM     47  H   UNL A   1      40.010  30.084  31.523  1.00  0.00     0.167 HD
ATOM     48  C   UNL A   1      41.964  27.255  28.840  1.00  0.00     0.034 A 
ATOM     49  C   UNL A   1      39.663  31.361  33.991  1.00  0.00     0.034 A 
ATOM     50  C   UNL A   1      42.843  27.347  29.976  1.00  0.00     0.049 A 
ATOM     51  C   UNL A   1      40.945  30.573  34.112  1.00  0.00     0.074 A 
ATOM     52  C   UNL A   1      44.069  26.735  30.166  1.00  0.00     0.029 A 
ATOM     53  N   UNL A   1      42.585  28.085  31.120  1.00  0.00    -0.354 N 
ATOM     54  N   UNL A   1      41.546  29.824  33.220  1.00  0.00    -0.248 NA
ATOM     55  C   UNL A   1      41.661  30.666  35.394  1.00  0.00     0.031 C 
ATOM     56  C   UNL A   1      44.533  27.069  31.443  1.00  0.00     0.029 A 
ATOM     57  C   UNL A   1      43.619  27.929  32.029  1.00  0.00     0.049 A 
ATOM     58  H   UNL A   1      41.785  28.639  31.266  1.00  0.00     0.167 HD
ATOM     59  C   UNL A   1      42.722  29.383  33.819  1.00  0.00     0.074 A 
ATOM     60  C   UNL A   1      42.764  29.975  35.139  1.00  0.00     0.031 C 
ATOM     61  C   UNL A   1      43.675  28.552  33.327  1.00  0.00     0.034 A 
BRANCH  48  62
ATOM     62  C   UNL A   1      42.371  26.353  27.702  1.00  0.00     0.023 A 
ATOM     63  C   UNL A   1      43.266  26.821  26.718  1.00  0.00     0.012 A 
ATOM     64  C   UNL A   1      41.908  25.023  27.638  1.00  0.00     0.148 A 
ATOM     65  C   UNL A   1      43.668  25.992  25.672  1.00  0.00     0.002 A 
ATOM     66  C   UNL A   1      42.351  24.188  26.619  1.00  0.00     0.091 A 
ATOM     67  F   UNL A   1      41.042  24.603  28.570  1.00  0.00    -0.205 F 
ATOM     68  C   UNL A   1      43.220  24.674  25.628  1.00  0.00     0.022 A 
BRANCH  66  69
ATOM     69  S   UNL A   1      41.895  22.453  26.520  1.00  0.00     0.127 S 
ATOM     70  O   UNL A   1      40.435  22.533  26.490  1.00  0.00    -0.237 OA
ATOM     71  O   UNL A   1      42.510  22.049  25.255  1.00  0.00    -0.237 OA
ATOM     72  O   UNL A   1      42.461  21.820  27.702  1.00  0.00    -0.744 OA
ENDBRANCH  66  69
ENDBRANCH  48  62
BRANCH  49  73
ATOM     73  C   UNL A   1      39.176  32.186  35.134  1.00  0.00     0.023 A 
ATOM     74  C   UNL A   1      39.340  33.585  35.110  1.00  0.00     0.012 A 
ATOM     75  C   UNL A   1      38.562  31.587  36.253  1.00  0.00     0.148 A 
ATOM     76  C   UNL A   1      38.934  34.368  36.190  1.00  0.00     0.002 A 
ATOM     77  C   UNL A   1      38.106  32.379  37.299  1.00  0.00     0.091 A 
ATOM     78  F   UNL A   1      38.434  30.253  36.268  1.00  0.00    -0.205 F 
ATOM     79  C   UNL A   1      38.308  33.768  37.279  1.00  0.00     0.022 A 
BRANCH  77  80
ATOM     80  S   UNL A   1      37.183  31.709  38.685  1.00  0.00     0.127 S 
ATOM     81  O   UNL A   1      38.127  31.880  39.786  1.00  0.00    -0.237 OA
ATOM     82  O   UNL A   1      36.020  32.596  38.727  1.00  0.00    -0.237 OA
ATOM     83  O   UNL A   1      36.877  30.330  38.325  1.00  0.00    -0.744 OA
ENDBRANCH  77  80
ENDBRANCH  49  73
BRANCH  61  84
ATOM     84  C   UNL A   1      44.869  28.258  34.205  1.00  0.00     0.023 A 
ATOM     85  C   UNL A   1      45.940  29.172  34.270  1.00  0.00     0.012 A 
ATOM     86  C   UNL A   1      44.910  27.093  34.997  1.00  0.00     0.148 A 
ATOM     87  C   UNL A   1      47.054  28.907  35.068  1.00  0.00     0.002 A 
ATOM     88  C   UNL A   1      45.998  26.862  35.831  1.00  0.00     0.091 A 
ATOM     89  F   UNL A   1      43.891  26.226  34.915  1.00  0.00    -0.205 F 
ATOM     90  C   UNL A   1      47.079  27.758  35.855  1.00  0.00     0.022 A 
BRANCH  88  91
ATOM     91  S   UNL A   1      46.073  25.461  36.953  1.00  0.00     0.127 S 
ATOM     92  O   UNL A   1      45.892  24.336  36.037  1.00  0.00    -0.237 OA
ATOM     93  O   UNL A   1      47.420  25.581  37.512  1.00  0.00    -0.237 OA
ATOM     94  O   UNL A   1      45.000  25.661  37.918  1.00  0.00    -0.744 OA
ENDBRANCH  88  91
ENDBRANCH  61  84
ENDBRANCH  35  36
ENDBRANCH  28  30
ENDBRANCH  27  28
ENDBRANCH  26  27
ENDBRANCH  25  26
ENDBRANCH  24  25
ENDBRANCH  23  24
ENDBRANCH   1  23
TORSDOF 25
ENDMDL
MODEL 2
REMARK VINA RESULT:      -9.6      1.725      2.453
REMARK SMILES CC[NH+](CC)CC[N@H+]1CC[C@@H](C(=O)OCCOCCOCCOC(=O)c2ccc(-c3c4nc(c(-c5cccc(S(=O)(=O)[O-])c5F)c5ccc([nH]5)c(-c5cccc(S(=O)(=O)[O-])c5F)c5nc(c(-c6cccc(S(=O)(=O)[O-])c6F)c6ccc3[nH]6)C=C5)C=C4)cc2)[C@@H]1C
REMARK SMILES IDX 18 1 17 2 16 3 15 4 14 5 12 6 13 7 11 8 8 9 9 10 89 11 10 13
REMARK SMILES IDX 90 14 7 15 6 16 3 17 2 19 1 20 4 21 5 22 19 23 20 24 21 25
REMARK SMILES IDX 22 26 23 27 24 28 25 29 26 30 27 31 88 32 28 33 87 34 29 35
REMARK SMILES IDX 30 36 31 37 81 38 32 39 86 40 80 41 82 42 33 43 85 44 79 45
REMARK SMILES IDX 78 46 34 48 66 49 46 50 65 51 47 52 50 53 64 54 83 55 48 56
REMARK SMILES IDX 49 57 63 59 84 60 51 61 35 62 36 63 44 64 37 65 39 66 45 67
REMARK SMILES IDX 38 68 40 69 41 70 42 71 43 72 67 73 68 74 76 75 69 76 71 77
REMARK SMILES IDX 77 78 70 79 72 80 73 81 74 82 75 83 52 84 53 85 61 86 54 87
REMARK SMILES IDX 56 88 62 89 55 90 57 91 58 92 59 93 60 94
REMARK H PARENT 8 12 3 18 82 47 50 58
REMARK Flexibility Score: inf
ROOT
ATOM      1  C   UNL A   1      32.624  27.585  22.158  1.00  0.00     0.188 C 
ENDROOT
BRANCH   1   2
ATOM      2  O   UNL A   1      32.187  26.256  22.412  1.00  0.00    -0.376 OA
BRANCH   2   3
ATOM      3  C   UNL A   1      30.804  25.985  22.581  1.00  0.00     0.202 C 
BRANCH   3   4
ATOM      4  C   UNL A   1      30.242  25.744  23.993  1.00  0.00     0.261 C 
BRANCH   4   5
ATOM      5  O   UNL A   1      31.169  25.902  25.087  1.00  0.00    -0.463 OA
BRANCH   5   6
ATOM      6  C   UNL A   1      31.454  24.777  25.789  1.00  0.00     0.315 C 
ATOM      7  O   UNL A   1      31.635  24.756  27.002  1.00  0.00    -0.252 OA
BRANCH   6   8
ATOM      8  C   UNL A   1      31.610  23.512  24.956  1.00  0.00     0.162 C 
ATOM      9  N   UNL A   1      32.933  21.476  25.067  1.00  0.00    -0.327 N 
ATOM     10  C   UNL A   1      31.537  21.135  25.311  1.00  0.00     0.263 C 
ATOM     11  C   UNL A   1      32.997  22.902  24.715  1.00  0.00     0.195 C 
ATOM     12  H   UNL A   1      33.260  20.905  24.288  1.00  0.00     0.348 HD
ATOM     13  C   UNL A   1      30.822  22.417  25.654  1.00  0.00     0.083 C 
ATOM     14  C   UNL A   1      33.377  22.937  23.223  1.00  0.00     0.076 C 
BRANCH   9  15
ATOM     15  C   UNL A   1      33.871  21.100  26.126  1.00  0.00     0.324 C 
BRANCH  15  16
ATOM     16  C   UNL A   1      34.836  22.222  26.608  1.00  0.00     0.324 C 
BRANCH  16  17
ATOM     17  N   UNL A   1      36.205  22.356  26.073  1.00  0.00    -0.331 N 
ATOM     18  H   UNL A   1      36.747  21.935  26.829  1.00  0.00     0.348 HD
BRANCH  17  19
ATOM     19  C   UNL A   1      36.529  21.537  24.901  1.00  0.00     0.258 C 
ATOM     20  C   UNL A   1      37.881  20.834  24.996  1.00  0.00     0.071 C 
ENDBRANCH  17  19
BRANCH  17  21
ATOM     21  C   UNL A   1      36.694  23.734  25.952  1.00  0.00     0.258 C 
ATOM     22  C   UNL A   1      38.147  24.021  26.314  1.00  0.00     0.071 C 
ENDBRANCH  17  21
ENDBRANCH  16  17
ENDBRANCH  15  16
ENDBRANCH   9  15
ENDBRANCH   6   8
ENDBRANCH   5   6
ENDBRANCH   4   5
ENDBRANCH   3   4
ENDBRANCH   2   3
ENDBRANCH   1   2
BRANCH   1  23
ATOM     23  C   UNL A   1      32.773  28.566  23.329  1.00  0.00     0.188 C 
BRANCH  23  24
ATOM     24  O   UNL A   1      31.698  29.458  23.512  1.00  0.00    -0.376 OA
BRANCH  24  25
ATOM     25  C   UNL A   1      31.056  29.450  24.773  1.00  0.00     0.202 C 
BRANCH  25  26
ATOM     26  C   UNL A   1      31.455  30.515  25.813  1.00  0.00     0.261 C 
BRANCH  26  27
ATOM     27  O   UNL A   1      32.814  30.482  26.289  1.00  0.00    -0.460 OA
BRANCH  27  28
ATOM     28  C   UNL A   1      33.252  31.545  27.001  1.00  0.00     0.338 C 
ATOM     29  O   UNL A   1      32.604  32.546  27.280  1.00  0.00    -0.246 OA
BRANCH  28  30
ATOM     30  C   UNL A   1      34.564  31.202  27.603  1.00  0.00     0.060 A 
ATOM     31  C   UNL A   1      34.841  29.859  27.899  1.00  0.00     0.016 A 
ATOM     32  C   UNL A   1      35.519  32.185  27.868  1.00  0.00     0.016 A 
ATOM     33  C   UNL A   1      36.059  29.500  28.482  1.00  0.00     0.010 A 
ATOM     34  C   UNL A   1      36.731  31.825  28.476  1.00  0.00     0.010 A 
ATOM     35  C   UNL A   1      36.997  30.485  28.815  1.00  0.00    -0.014 A 
BRANCH  35  36
ATOM     36  C   UNL A   1      38.177  30.131  29.650  1.00  0.00     0.031 A 
ATOM     37  C   UNL A   1      39.184  29.148  29.111  1.00  0.00     0.074 A 
ATOM     38  C   UNL A   1      38.372  30.683  30.863  1.00  0.00     0.049 A 
ATOM     39  N   UNL A   1      40.267  28.675  29.671  1.00  0.00    -0.248 NA
ATOM     40  C   UNL A   1      38.934  28.630  27.756  1.00  0.00     0.031 C 
ATOM     41  C   UNL A   1      37.489  31.657  31.501  1.00  0.00     0.029 A 
ATOM     42  N   UNL A   1      39.371  30.480  31.785  1.00  0.00    -0.354 N 
ATOM     43  C   UNL A   1      40.809  27.780  28.756  1.00  0.00     0.074 A 
ATOM     44  C   UNL A   1      39.931  27.770  27.606  1.00  0.00     0.031 C 
ATOM     45  C   UNL A   1      37.972  31.949  32.722  1.00  0.00     0.029 A 
ATOM     46  C   UNL A   1      39.179  31.161  32.965  1.00  0.00     0.049 A 
ATOM     47  H   UNL A   1      40.150  29.903  31.617  1.00  0.00     0.167 HD
ATOM     48  C   UNL A   1      41.941  27.041  28.854  1.00  0.00     0.034 A 
ATOM     49  C   UNL A   1      39.880  31.132  34.118  1.00  0.00     0.034 A 
ATOM     50  C   UNL A   1      42.826  27.056  29.988  1.00  0.00     0.049 A 
ATOM     51  C   UNL A   1      41.117  30.273  34.214  1.00  0.00     0.074 A 
ATOM     52  C   UNL A   1      44.017  26.373  30.159  1.00  0.00     0.029 A 
ATOM     53  N   UNL A   1      42.611  27.777  31.152  1.00  0.00    -0.354 N 
ATOM     54  N   UNL A   1      41.674  29.516  33.300  1.00  0.00    -0.248 NA
ATOM     55  C   UNL A   1      41.841  30.293  35.495  1.00  0.00     0.031 C 
ATOM     56  C   UNL A   1      44.503  26.649  31.442  1.00  0.00     0.029 A 
ATOM     57  C   UNL A   1      43.637  27.542  32.053  1.00  0.00     0.049 A 
ATOM     58  H   UNL A   1      41.843  28.370  31.316  1.00  0.00     0.167 HD
ATOM     59  C   UNL A   1      42.826  28.996  33.883  1.00  0.00     0.074 A 
ATOM     60  C   UNL A   1      42.904  29.551  35.218  1.00  0.00     0.031 C 
ATOM     61  C   UNL A   1      43.731  28.127  33.367  1.00  0.00     0.034 A 
BRANCH  48  62
ATOM     62  C   UNL A   1      42.294  26.148  27.692  1.00  0.00     0.023 A 
ATOM     63  C   UNL A   1      43.005  26.672  26.593  1.00  0.00     0.012 A 
ATOM     64  C   UNL A   1      41.971  24.776  27.715  1.00  0.00     0.148 A 
ATOM     65  C   UNL A   1      43.357  25.854  25.520  1.00  0.00     0.002 A 
ATOM     66  C   UNL A   1      42.369  23.958  26.665  1.00  0.00     0.091 A 
ATOM     67  F   UNL A   1      41.278  24.301  28.759  1.00  0.00    -0.205 F 
ATOM     68  C   UNL A   1      43.050  24.497  25.561  1.00  0.00     0.022 A 
BRANCH  66  69
ATOM     69  S   UNL A   1      42.091  22.183  26.659  1.00  0.00     0.127 S 
ATOM     70  O   UNL A   1      40.630  22.113  26.689  1.00  0.00    -0.237 OA
ATOM     71  O   UNL A   1      42.694  21.784  25.388  1.00  0.00    -0.237 OA
ATOM     72  O   UNL A   1      42.763  21.666  27.842  1.00  0.00    -0.744 OA
ENDBRANCH  66  69
ENDBRANCH  48  62
BRANCH  49  73
ATOM     73  C   UNL A   1      39.442  31.953  35.284  1.00  0.00     0.023 A 
ATOM     74  C   UNL A   1      38.521  31.422  36.209  1.00  0.00     0.012 A 
ATOM     75  C   UNL A   1      39.925  33.263  35.473  1.00  0.00     0.148 A 
ATOM     76  C   UNL A   1      38.063  32.190  37.279  1.00  0.00     0.002 A 
ATOM     77  C   UNL A   1      39.510  34.002  36.574  1.00  0.00     0.091 A 
ATOM     78  F   UNL A   1      40.783  33.759  34.571  1.00  0.00    -0.205 F 
ATOM     79  C   UNL A   1      38.565  33.475  37.468  1.00  0.00     0.022 A 
BRANCH  77  80
ATOM     80  S   UNL A   1      40.192  35.616  36.966  1.00  0.00     0.127 S 
ATOM     81  O   UNL A   1      39.650  36.439  35.888  1.00  0.00    -0.237 OA
ATOM     82  O   UNL A   1      39.617  35.872  38.286  1.00  0.00    -0.237 OA
ATOM     83  O   UNL A   1      41.639  35.444  36.961  1.00  0.00    -0.744 OA
ENDBRANCH  77  80
ENDBRANCH  49  73
BRANCH  61  84
ATOM     84  C   UNL A   1      44.909  27.746  34.231  1.00  0.00     0.023 A 
ATOM     85  C   UNL A   1      46.083  28.526  34.210  1.00  0.00     0.012 A 
ATOM     86  C   UNL A   1      44.838  26.636  35.097  1.00  0.00     0.148 A 
ATOM     87  C   UNL A   1      47.183  28.179  34.995  1.00  0.00     0.002 A 
ATOM     88  C   UNL A   1      45.917  26.328  35.918  1.00  0.00     0.091 A 
ATOM     89  F   UNL A   1      43.720  25.895  35.098  1.00  0.00    -0.205 F 
ATOM     90  C   UNL A   1      47.097  27.087  35.856  1.00  0.00     0.022 A 
BRANCH  88  91
ATOM     91  S   UNL A   1      45.861  25.001  37.127  1.00  0.00     0.127 S 
ATOM     92  O   UNL A   1      46.868  25.436  38.093  1.00  0.00    -0.237 OA
ATOM     93  O   UNL A   1      44.481  25.077  37.609  1.00  0.00    -0.237 OA
ATOM     94  O   UNL A   1      46.179  23.780  36.399  1.00  0.00    -0.744 OA
ENDBRANCH  88  91
ENDBRANCH  61  84
ENDBRANCH  35  36
ENDBRANCH  28  30
ENDBRANCH  27  28
ENDBRANCH  26  27
ENDBRANCH  25  26
ENDBRANCH  24  25
ENDBRANCH  23  24
ENDBRANCH   1  23
TORSDOF 25
ENDMDL
MODEL 3
REMARK VINA RESULT:      -8.4      3.023      9.034
REMARK SMILES CC[NH+](CC)CC[N@H+]1CC[C@@H](C(=O)OCCOCCOCCOC(=O)c2ccc(-c3c4nc(c(-c5cccc(S(=O)(=O)[O-])c5F)c5ccc([nH]5)c(-c5cccc(S(=O)(=O)[O-])c5F)c5nc(c(-c6cccc(S(=O)(=O)[O-])c6F)c6ccc3[nH]6)C=C5)C=C4)cc2)[C@@H]1C
REMARK SMILES IDX 18 1 17 2 16 3 15 4 14 5 12 6 13 7 11 8 8 9 9 10 89 11 10 13
REMARK SMILES IDX 90 14 7 15 6 16 3 17 2 19 1 20 4 21 5 22 19 23 20 24 21 25
REMARK SMILES IDX 22 26 23 27 24 28 25 29 26 30 27 31 88 32 28 33 87 34 29 35
REMARK SMILES IDX 30 36 31 37 81 38 32 39 86 40 80 41 82 42 33 43 85 44 79 45
REMARK SMILES IDX 78 46 34 48 66 49 46 50 65 51 47 52 50 53 64 54 83 55 48 56
REMARK SMILES IDX 49 57 63 59 84 60 51 61 35 62 36 63 44 64 37 65 39 66 45 67
REMARK SMILES IDX 38 68 40 69 41 70 42 71 43 72 67 73 68 74 76 75 69 76 71 77
REMARK SMILES IDX 77 78 70 79 72 80 73 81 74 82 75 83 52 84 53 85 61 86 54 87
REMARK SMILES IDX 56 88 62 89 55 90 57 91 58 92 59 93 60 94
REMARK H PARENT 8 12 3 18 82 47 50 58
REMARK Flexibility Score: inf
ROOT
ATOM      1  C   UNL A   1      33.618  31.685  27.737  1.00  0.00     0.188 C 
ENDROOT
BRANCH   1   2
ATOM      2  O   UNL A   1      33.419  30.278  27.722  1.00  0.00    -0.376 OA
BRANCH   2   3
ATOM      3  C   UNL A   1      33.768  29.524  26.571  1.00  0.00     0.202 C 
BRANCH   3   4
ATOM      4  C   UNL A   1      32.682  28.735  25.819  1.00  0.00     0.261 C 
BRANCH   4   5
ATOM      5  O   UNL A   1      32.925  27.325  25.639  1.00  0.00    -0.463 OA
BRANCH   5   6
ATOM      6  C   UNL A   1      32.147  26.491  26.373  1.00  0.00     0.315 C 
ATOM      7  O   UNL A   1      31.277  26.873  27.149  1.00  0.00    -0.252 OA
BRANCH   6   8
ATOM      8  C   UNL A   1      32.467  25.009  26.231  1.00  0.00     0.162 C 
ATOM      9  N   UNL A   1      32.678  23.413  24.410  1.00  0.00    -0.327 N 
ATOM     10  C   UNL A   1      33.999  23.636  24.985  1.00  0.00     0.263 C 
ATOM     11  C   UNL A   1      31.697  24.135  25.233  1.00  0.00     0.195 C 
ATOM     12  H   UNL A   1      32.493  22.410  24.439  1.00  0.00     0.348 HD
ATOM     13  C   UNL A   1      33.919  24.905  25.797  1.00  0.00     0.083 C 
ATOM     14  C   UNL A   1      30.883  23.042  25.951  1.00  0.00     0.076 C 
BRANCH   9  15
ATOM     15  C   UNL A   1      32.554  23.697  22.980  1.00  0.00     0.324 C 
BRANCH  15  16
ATOM     16  C   UNL A   1      31.573  24.843  22.599  1.00  0.00     0.324 C 
BRANCH  16  17
ATOM     17  N   UNL A   1      31.992  26.259  22.593  1.00  0.00    -0.331 N 
ATOM     18  H   UNL A   1      32.118  26.425  23.591  1.00  0.00     0.348 HD
BRANCH  17  19
ATOM     19  C   UNL A   1      33.308  26.545  22.013  1.00  0.00     0.258 C 
ATOM     20  C   UNL A   1      33.842  27.933  22.355  1.00  0.00     0.071 C 
ENDBRANCH  17  19
BRANCH  17  21
ATOM     21  C   UNL A   1      30.963  27.210  22.157  1.00  0.00     0.258 C 
ATOM     22  C   UNL A   1      30.470  28.251  23.156  1.00  0.00     0.071 C 
ENDBRANCH  17  21
ENDBRANCH  16  17
ENDBRANCH  15  16
ENDBRANCH   9  15
ENDBRANCH   6   8
ENDBRANCH   5   6
ENDBRANCH   4   5
ENDBRANCH   3   4
ENDBRANCH   2   3
ENDBRANCH   1   2
BRANCH   1  23
ATOM     23  C   UNL A   1      35.045  32.244  27.832  1.00  0.00     0.188 C 
BRANCH  23  24
ATOM     24  O   UNL A   1      35.203  33.578  27.408  1.00  0.00    -0.376 OA
BRANCH  24  25
ATOM     25  C   UNL A   1      35.177  34.583  28.404  1.00  0.00     0.202 C 
BRANCH  25  26
ATOM     26  C   UNL A   1      33.818  35.174  28.823  1.00  0.00     0.261 C 
BRANCH  26  27
ATOM     27  O   UNL A   1      33.088  34.466  29.843  1.00  0.00    -0.460 OA
BRANCH  27  28
ATOM     28  C   UNL A   1      33.089  34.990  31.090  1.00  0.00     0.338 C 
ATOM     29  O   UNL A   1      32.192  35.650  31.599  1.00  0.00    -0.246 OA
BRANCH  28  30
ATOM     30  C   UNL A   1      34.245  34.432  31.836  1.00  0.00     0.060 A 
ATOM     31  C   UNL A   1      35.160  35.318  32.422  1.00  0.00     0.016 A 
ATOM     32  C   UNL A   1      34.426  33.054  31.968  1.00  0.00     0.016 A 
ATOM     33  C   UNL A   1      36.270  34.830  33.118  1.00  0.00     0.010 A 
ATOM     34  C   UNL A   1      35.553  32.566  32.646  1.00  0.00     0.010 A 
ATOM     35  C   UNL A   1      36.498  33.451  33.200  1.00  0.00    -0.014 A 
BRANCH  35  36
ATOM     36  C   UNL A   1      37.796  32.945  33.725  1.00  0.00     0.031 A 
ATOM     37  C   UNL A   1      38.151  33.205  35.166  1.00  0.00     0.074 A 
ATOM     38  C   UNL A   1      38.646  32.247  32.947  1.00  0.00     0.049 A 
ATOM     39  N   UNL A   1      39.232  32.884  35.827  1.00  0.00    -0.248 NA
ATOM     40  C   UNL A   1      37.148  33.925  35.968  1.00  0.00     0.031 C 
ATOM     41  C   UNL A   1      38.425  31.910  31.543  1.00  0.00     0.029 A 
ATOM     42  N   UNL A   1      39.882  31.717  33.230  1.00  0.00    -0.354 N 
ATOM     43  C   UNL A   1      39.058  33.390  37.110  1.00  0.00     0.074 A 
ATOM     44  C   UNL A   1      37.769  34.046  37.132  1.00  0.00     0.031 C 
ATOM     45  C   UNL A   1      39.501  31.250  31.079  1.00  0.00     0.029 A 
ATOM     46  C   UNL A   1      40.500  31.146  32.141  1.00  0.00     0.049 A 
ATOM     47  H   UNL A   1      40.287  31.742  34.127  1.00  0.00     0.167 HD
ATOM     48  C   UNL A   1      39.887  33.307  38.179  1.00  0.00     0.034 A 
ATOM     49  C   UNL A   1      41.737  30.624  32.009  1.00  0.00     0.034 A 
ATOM     50  C   UNL A   1      41.164  32.644  38.168  1.00  0.00     0.049 A 
ATOM     51  C   UNL A   1      42.655  30.576  33.206  1.00  0.00     0.074 A 
ATOM     52  C   UNL A   1      42.053  32.473  39.214  1.00  0.00     0.029 A 
ATOM     53  N   UNL A   1      41.743  32.056  37.055  1.00  0.00    -0.354 N 
ATOM     54  N   UNL A   1      42.432  30.963  34.439  1.00  0.00    -0.248 NA
ATOM     55  C   UNL A   1      43.987  29.986  32.997  1.00  0.00     0.031 C 
ATOM     56  C   UNL A   1      43.188  31.818  38.724  1.00  0.00     0.029 A 
ATOM     57  C   UNL A   1      42.986  31.539  37.383  1.00  0.00     0.049 A 
ATOM     58  H   UNL A   1      41.333  32.013  36.161  1.00  0.00     0.167 HD
ATOM     59  C   UNL A   1      43.579  30.636  35.156  1.00  0.00     0.074 A 
ATOM     60  C   UNL A   1      44.481  29.990  34.228  1.00  0.00     0.031 C 
ATOM     61  C   UNL A   1      43.865  30.861  36.463  1.00  0.00     0.034 A 
BRANCH  48  62
ATOM     62  C   UNL A   1      39.435  33.951  39.465  1.00  0.00     0.023 A 
ATOM     63  C   UNL A   1      39.895  35.239  39.807  1.00  0.00     0.012 A 
ATOM     64  C   UNL A   1      38.510  33.302  40.307  1.00  0.00     0.148 A 
ATOM     65  C   UNL A   1      39.469  35.856  40.983  1.00  0.00     0.002 A 
ATOM     66  C   UNL A   1      38.052  33.943  41.452  1.00  0.00     0.091 A 
ATOM     67  F   UNL A   1      38.100  32.070  39.975  1.00  0.00    -0.205 F 
ATOM     68  C   UNL A   1      38.541  35.214  41.798  1.00  0.00     0.022 A 
BRANCH  66  69
ATOM     69  S   UNL A   1      36.798  33.235  42.525  1.00  0.00     0.127 S 
ATOM     70  O   UNL A   1      37.505  32.083  43.085  1.00  0.00    -0.237 OA
ATOM     71  O   UNL A   1      36.559  34.323  43.474  1.00  0.00    -0.237 OA
ATOM     72  O   UNL A   1      35.667  32.915  41.667  1.00  0.00    -0.744 OA
ENDBRANCH  66  69
ENDBRANCH  48  62
BRANCH  49  73
ATOM     73  C   UNL A   1      42.189  30.087  30.692  1.00  0.00     0.023 A 
ATOM     74  C   UNL A   1      42.803  30.945  29.759  1.00  0.00     0.012 A 
ATOM     75  C   UNL A   1      42.001  28.731  30.357  1.00  0.00     0.148 A 
ATOM     76  C   UNL A   1      43.189  30.473  28.504  1.00  0.00     0.002 A 
ATOM     77  C   UNL A   1      42.442  28.254  29.129  1.00  0.00     0.091 A 
ATOM     78  F   UNL A   1      41.396  27.935  31.249  1.00  0.00    -0.205 F 
ATOM     79  C   UNL A   1      43.019  29.127  28.194  1.00  0.00     0.022 A 
BRANCH  77  80
ATOM     80  S   UNL A   1      42.376  26.515  28.689  1.00  0.00     0.127 S 
ATOM     81  O   UNL A   1      43.048  26.507  27.393  1.00  0.00    -0.237 OA
ATOM     82  O   UNL A   1      43.133  25.901  29.780  1.00  0.00    -0.237 OA
ATOM     83  O   UNL A   1      40.960  26.168  28.668  1.00  0.00    -0.744 OA
ENDBRANCH  77  80
ENDBRANCH  49  73
BRANCH  61  84
ATOM     84  C   UNL A   1      45.197  30.376  36.982  1.00  0.00     0.023 A 
ATOM     85  C   UNL A   1      46.313  31.238  36.983  1.00  0.00     0.012 A 
ATOM     86  C   UNL A   1      45.335  29.075  37.508  1.00  0.00     0.148 A 
ATOM     87  C   UNL A   1      47.552  30.799  37.449  1.00  0.00     0.002 A 
ATOM     88  C   UNL A   1      46.559  28.662  38.021  1.00  0.00     0.091 A 
ATOM     89  F   UNL A   1      44.270  28.261  37.489  1.00  0.00    -0.205 F 
ATOM     90  C   UNL A   1      47.673  29.516  37.977  1.00  0.00     0.022 A 
BRANCH  88  91
ATOM     91  S   UNL A   1      46.784  27.064  38.810  1.00  0.00     0.127 S 
ATOM     92  O   UNL A   1      45.796  27.121  39.885  1.00  0.00    -0.237 OA
ATOM     93  O   UNL A   1      46.455  26.134  37.729  1.00  0.00    -0.237 OA
ATOM     94  O   UNL A   1      48.176  27.021  39.240  1.00  0.00    -0.744 OA
ENDBRANCH  88  91
ENDBRANCH  61  84
ENDBRANCH  35  36
ENDBRANCH  28  30
ENDBRANCH  27  28
ENDBRANCH  26  27
ENDBRANCH  25  26
ENDBRANCH  24  25
ENDBRANCH  23  24
ENDBRANCH   1  23
TORSDOF 25
ENDMDL
