MODEL 1
REMARK VINA RESULT:     -12.1      0.000      0.000
REMARK SMILES C[C@@H](C(=O)OCCOCCOCCOC(=O)c1ccc(-c2c3nc(c(-c4cccc(S(=O)(=O)[O-])c4F)c4ccc([nH]4)c(-c4cccc(S(=O)(=O)[O-])c4F)c4nc(c(-c5cccc(S(=O)(=O)[O-])c5F)c5ccc2[nH]5)C=C4)C=C3)cc1)[N@@H+]1CCc2n[nH]c(C(c3ccccc3)c3ccccc3)c2C1
REMARK SMILES IDX 9 1 8 2 7 3 6 4 5 5 3 6 4 7 2 8 1 9 80 10 81 11 101 12 82 14
REMARK SMILES IDX 100 15 83 16 86 17 84 18 85 19 87 21 88 22 89 23 93 24 90 25
REMARK SMILES IDX 92 26 91 27 94 28 95 29 99 30 96 31 98 32 97 33 10 34 11 35
REMARK SMILES IDX 12 36 13 37 14 38 15 39 16 40 17 41 18 42 79 43 19 44 78 45
REMARK SMILES IDX 20 46 21 47 22 48 72 49 23 50 77 51 71 52 73 53 24 54 76 55
REMARK SMILES IDX 70 56 69 57 25 59 57 60 37 61 56 62 38 63 41 64 55 65 74 66
REMARK SMILES IDX 39 67 40 68 54 70 75 71 42 72 26 73 27 74 35 75 28 76 30 77
REMARK SMILES IDX 36 78 29 79 31 80 32 81 33 82 34 83 58 84 59 85 67 86 60 87
REMARK SMILES IDX 62 88 68 89 61 90 63 91 64 92 65 93 66 94 43 95 44 96 52 97
REMARK SMILES IDX 45 98 47 99 53 100 46 101 48 102 49 103 50 104 51 105
REMARK H PARENT 80 13 85 20 73 58 41 69
REMARK Flexibility Score: inf
ROOT
ATOM      1  C   UNL A   1      36.786  23.070  24.081  1.00  0.00     0.188 C 
ENDROOT
BRANCH   1   2
ATOM      2  O   UNL A   1      36.401  24.122  24.977  1.00  0.00    -0.376 OA
BRANCH   2   3
ATOM      3  C   UNL A   1      35.247  23.863  25.802  1.00  0.00     0.202 C 
BRANCH   3   4
ATOM      4  C   UNL A   1      34.025  24.864  25.682  1.00  0.00     0.261 C 
BRANCH   4   5
ATOM      5  O   UNL A   1      33.080  24.673  26.803  1.00  0.00    -0.459 OA
BRANCH   5   6
ATOM      6  C   UNL A   1      31.800  24.186  26.649  1.00  0.00     0.364 C 
ATOM      7  O   UNL A   1      31.286  23.423  27.460  1.00  0.00    -0.245 OA
BRANCH   6   8
ATOM      8  C   UNL A   1      30.977  24.877  25.413  1.00  0.00     0.292 C 
ATOM      9  C   UNL A   1      29.648  25.577  25.730  1.00  0.00     0.088 C 
BRANCH   8  10
ATOM     10  N   UNL A   1      30.905  23.926  24.258  1.00  0.00    -0.319 N 
ATOM     11  C   UNL A   1      32.143  23.191  23.841  1.00  0.00     0.269 C 
ATOM     12  C   UNL A   1      30.354  24.605  23.098  1.00  0.00     0.303 C 
ATOM     13  H   UNL A   1      30.307  23.185  24.627  1.00  0.00     0.349 HD
ATOM     14  C   UNL A   1      32.753  23.569  22.434  1.00  0.00     0.120 C 
ATOM     15  C   UNL A   1      31.340  25.657  22.634  1.00  0.00     0.052 A 
ATOM     16  C   UNL A   1      32.507  25.015  22.155  1.00  0.00     0.077 A 
ATOM     17  C   UNL A   1      31.718  27.032  22.673  1.00  0.00     0.056 A 
ATOM     18  N   UNL A   1      33.308  25.848  21.520  1.00  0.00    -0.180 NA
ATOM     19  N   UNL A   1      32.636  27.001  21.617  1.00  0.00    -0.281 N 
ATOM     20  H   UNL A   1      32.775  27.757  21.003  1.00  0.00     0.190 HD
BRANCH  17  21
ATOM     21  C   UNL A   1      31.422  28.502  23.291  1.00  0.00     0.098 C 
BRANCH  21  22
ATOM     22  C   UNL A   1      30.011  29.209  23.328  1.00  0.00    -0.035 A 
ATOM     23  C   UNL A   1      28.862  28.484  22.935  1.00  0.00     0.005 A 
ATOM     24  C   UNL A   1      29.768  30.569  23.622  1.00  0.00     0.005 A 
ATOM     25  C   UNL A   1      27.568  29.043  22.961  1.00  0.00     0.000 A 
ATOM     26  C   UNL A   1      28.482  31.137  23.650  1.00  0.00     0.000 A 
ATOM     27  C   UNL A   1      27.375  30.366  23.337  1.00  0.00     0.000 A 
ENDBRANCH  21  22
BRANCH  21  28
ATOM     28  C   UNL A   1      32.132  28.631  24.678  1.00  0.00    -0.035 A 
ATOM     29  C   UNL A   1      31.444  28.600  25.904  1.00  0.00     0.005 A 
ATOM     30  C   UNL A   1      33.539  28.590  24.724  1.00  0.00     0.005 A 
ATOM     31  C   UNL A   1      32.120  28.496  27.120  1.00  0.00     0.000 A 
ATOM     32  C   UNL A   1      34.211  28.417  25.937  1.00  0.00     0.000 A 
ATOM     33  C   UNL A   1      33.501  28.369  27.134  1.00  0.00     0.000 A 
ENDBRANCH  21  28
ENDBRANCH  17  21
ENDBRANCH   8  10
ENDBRANCH   6   8
ENDBRANCH   5   6
ENDBRANCH   4   5
ENDBRANCH   3   4
ENDBRANCH   2   3
ENDBRANCH   1   2
BRANCH   1  34
ATOM     34  C   UNL A   1      36.509  21.596  24.450  1.00  0.00     0.188 C 
BRANCH  34  35
ATOM     35  O   UNL A   1      37.382  21.014  25.428  1.00  0.00    -0.376 OA
BRANCH  35  36
ATOM     36  C   UNL A   1      38.012  19.822  24.918  1.00  0.00     0.202 C 
BRANCH  36  37
ATOM     37  C   UNL A   1      39.126  19.223  25.792  1.00  0.00     0.261 C 
BRANCH  37  38
ATOM     38  O   UNL A   1      40.420  19.757  25.478  1.00  0.00    -0.460 OA
BRANCH  38  39
ATOM     39  C   UNL A   1      41.262  19.884  26.531  1.00  0.00     0.338 C 
ATOM     40  O   UNL A   1      41.847  18.952  27.097  1.00  0.00    -0.246 OA
BRANCH  39  41
ATOM     41  C   UNL A   1      41.458  21.306  26.889  1.00  0.00     0.060 A 
ATOM     42  C   UNL A   1      41.288  22.270  25.888  1.00  0.00     0.016 A 
ATOM     43  C   UNL A   1      41.809  21.712  28.182  1.00  0.00     0.016 A 
ATOM     44  C   UNL A   1      41.403  23.629  26.178  1.00  0.00     0.010 A 
ATOM     45  C   UNL A   1      41.970  23.074  28.465  1.00  0.00     0.010 A 
ATOM     46  C   UNL A   1      41.766  24.039  27.466  1.00  0.00    -0.014 A 
BRANCH  46  47
ATOM     47  C   UNL A   1      42.133  25.453  27.702  1.00  0.00     0.031 A 
ATOM     48  C   UNL A   1      43.497  25.907  27.263  1.00  0.00     0.074 A 
ATOM     49  C   UNL A   1      41.294  26.314  28.305  1.00  0.00     0.049 A 
ATOM     50  N   UNL A   1      44.050  27.085  27.365  1.00  0.00    -0.248 NA
ATOM     51  C   UNL A   1      44.351  24.890  26.623  1.00  0.00     0.031 C 
ATOM     52  C   UNL A   1      39.944  26.002  28.771  1.00  0.00     0.029 A 
ATOM     53  N   UNL A   1      41.472  27.632  28.651  1.00  0.00    -0.354 N 
ATOM     54  C   UNL A   1      45.317  26.952  26.814  1.00  0.00     0.074 A 
ATOM     55  C   UNL A   1      45.454  25.579  26.381  1.00  0.00     0.031 C 
ATOM     56  C   UNL A   1      39.428  27.090  29.372  1.00  0.00     0.029 A 
ATOM     57  C   UNL A   1      40.416  28.168  29.349  1.00  0.00     0.049 A 
ATOM     58  H   UNL A   1      42.281  28.144  28.420  1.00  0.00     0.167 HD
ATOM     59  C   UNL A   1      46.281  27.888  26.672  1.00  0.00     0.034 A 
ATOM     60  C   UNL A   1      40.278  29.383  29.920  1.00  0.00     0.034 A 
ATOM     61  C   UNL A   1      46.163  29.247  27.116  1.00  0.00     0.049 A 
ATOM     62  C   UNL A   1      41.395  30.390  29.796  1.00  0.00     0.074 A 
ATOM     63  C   UNL A   1      47.082  30.272  26.998  1.00  0.00     0.029 A 
ATOM     64  N   UNL A   1      45.067  29.762  27.788  1.00  0.00    -0.354 N 
ATOM     65  N   UNL A   1      42.528  30.295  29.144  1.00  0.00    -0.248 NA
ATOM     66  C   UNL A   1      41.202  31.686  30.469  1.00  0.00     0.031 C 
ATOM     67  C   UNL A   1      46.549  31.407  27.618  1.00  0.00     0.029 A 
ATOM     68  C   UNL A   1      45.291  31.090  28.105  1.00  0.00     0.049 A 
ATOM     69  H   UNL A   1      44.249  29.259  28.007  1.00  0.00     0.167 HD
ATOM     70  C   UNL A   1      43.162  31.526  29.292  1.00  0.00     0.074 A 
ATOM     71  C   UNL A   1      42.279  32.357  30.083  1.00  0.00     0.031 C 
ATOM     72  C   UNL A   1      44.372  31.929  28.831  1.00  0.00     0.034 A 
BRANCH  59  73
ATOM     73  C   UNL A   1      47.549  27.462  25.990  1.00  0.00     0.023 A 
ATOM     74  C   UNL A   1      48.574  26.863  26.750  1.00  0.00     0.012 A 
ATOM     75  C   UNL A   1      47.719  27.635  24.604  1.00  0.00     0.148 A 
ATOM     76  C   UNL A   1      49.763  26.464  26.143  1.00  0.00     0.002 A 
ATOM     77  C   UNL A   1      48.892  27.203  24.001  1.00  0.00     0.091 A 
ATOM     78  F   UNL A   1      46.744  28.240  23.911  1.00  0.00    -0.205 F 
ATOM     79  C   UNL A   1      49.918  26.626  24.768  1.00  0.00     0.022 A 
BRANCH  77  80
ATOM     80  S   UNL A   1      49.161  27.317  22.229  1.00  0.00     0.127 S 
ATOM     81  O   UNL A   1      50.619  27.409  22.158  1.00  0.00    -0.237 OA
ATOM     82  O   UNL A   1      48.607  26.051  21.750  1.00  0.00    -0.237 OA
ATOM     83  O   UNL A   1      48.437  28.501  21.790  1.00  0.00    -0.744 OA
ENDBRANCH  77  80
ENDBRANCH  59  73
BRANCH  60  84
ATOM     84  C   UNL A   1      39.024  29.743  30.643  1.00  0.00     0.023 A 
ATOM     85  C   UNL A   1      38.781  29.196  31.918  1.00  0.00     0.012 A 
ATOM     86  C   UNL A   1      38.059  30.593  30.066  1.00  0.00     0.148 A 
ATOM     87  C   UNL A   1      37.586  29.458  32.589  1.00  0.00     0.002 A 
ATOM     88  C   UNL A   1      36.893  30.888  30.761  1.00  0.00     0.091 A 
ATOM     89  F   UNL A   1      38.297  31.085  28.841  1.00  0.00    -0.205 F 
ATOM     90  C   UNL A   1      36.645  30.308  32.015  1.00  0.00     0.022 A 
BRANCH  88  91
ATOM     91  S   UNL A   1      35.675  32.054  30.141  1.00  0.00     0.127 S 
ATOM     92  O   UNL A   1      34.757  32.159  31.272  1.00  0.00    -0.237 OA
ATOM     93  O   UNL A   1      36.491  33.245  29.897  1.00  0.00    -0.237 OA
ATOM     94  O   UNL A   1      35.132  31.445  28.935  1.00  0.00    -0.744 OA
ENDBRANCH  88  91
ENDBRANCH  60  84
BRANCH  72  95
ATOM     95  C   UNL A   1      44.813  33.339  29.125  1.00  0.00     0.023 A 
ATOM     96  C   UNL A   1      45.451  33.631  30.346  1.00  0.00     0.012 A 
ATOM     97  C   UNL A   1      44.691  34.348  28.149  1.00  0.00     0.148 A 
ATOM     98  C   UNL A   1      45.944  34.911  30.599  1.00  0.00     0.002 A 
ATOM     99  C   UNL A   1      45.225  35.609  28.390  1.00  0.00     0.091 A 
ATOM    100  F   UNL A   1      44.063  34.055  27.001  1.00  0.00    -0.205 F 
ATOM    101  C   UNL A   1      45.844  35.894  29.618  1.00  0.00     0.022 A 
BRANCH  99 102
ATOM    102  S   UNL A   1      45.230  36.901  27.141  1.00  0.00     0.127 S 
ATOM    103  O   UNL A   1      46.036  36.292  26.086  1.00  0.00    -0.237 OA
ATOM    104  O   UNL A   1      43.808  37.033  26.820  1.00  0.00    -0.237 OA
ATOM    105  O   UNL A   1      45.812  38.072  27.782  1.00  0.00    -0.744 OA
ENDBRANCH  99 102
ENDBRANCH  72  95
ENDBRANCH  46  47
ENDBRANCH  39  41
ENDBRANCH  38  39
ENDBRANCH  37  38
ENDBRANCH  36  37
ENDBRANCH  35  36
ENDBRANCH  34  35
ENDBRANCH   1  34
TORSDOF 24
ENDMDL
MODEL 2
REMARK VINA RESULT:     -11.7      1.572      7.343
REMARK SMILES C[C@@H](C(=O)OCCOCCOCCOC(=O)c1ccc(-c2c3nc(c(-c4cccc(S(=O)(=O)[O-])c4F)c4ccc([nH]4)c(-c4cccc(S(=O)(=O)[O-])c4F)c4nc(c(-c5cccc(S(=O)(=O)[O-])c5F)c5ccc2[nH]5)C=C4)C=C3)cc1)[N@@H+]1CCc2n[nH]c(C(c3ccccc3)c3ccccc3)c2C1
REMARK SMILES IDX 9 1 8 2 7 3 6 4 5 5 3 6 4 7 2 8 1 9 80 10 81 11 101 12 82 14
REMARK SMILES IDX 100 15 83 16 86 17 84 18 85 19 87 21 88 22 89 23 93 24 90 25
REMARK SMILES IDX 92 26 91 27 94 28 95 29 99 30 96 31 98 32 97 33 10 34 11 35
REMARK SMILES IDX 12 36 13 37 14 38 15 39 16 40 17 41 18 42 79 43 19 44 78 45
REMARK SMILES IDX 20 46 21 47 22 48 72 49 23 50 77 51 71 52 73 53 24 54 76 55
REMARK SMILES IDX 70 56 69 57 25 59 57 60 37 61 56 62 38 63 41 64 55 65 74 66
REMARK SMILES IDX 39 67 40 68 54 70 75 71 42 72 26 73 27 74 35 75 28 76 30 77
REMARK SMILES IDX 36 78 29 79 31 80 32 81 33 82 34 83 58 84 59 85 67 86 60 87
REMARK SMILES IDX 62 88 68 89 61 90 63 91 64 92 65 93 66 94 43 95 44 96 52 97
REMARK SMILES IDX 45 98 47 99 53 100 46 101 48 102 49 103 50 104 51 105
REMARK H PARENT 80 13 85 20 73 58 41 69
REMARK Flexibility Score: inf
ROOT
ATOM      1  C   UNL A   1      36.017  23.030  24.276  1.00  0.00     0.188 C 
ENDROOT
BRANCH   1   2
ATOM      2  O   UNL A   1      35.678  23.838  25.412  1.00  0.00    -0.376 OA
BRANCH   2   3
ATOM      3  C   UNL A   1      34.661  24.838  25.199  1.00  0.00     0.202 C 
BRANCH   3   4
ATOM      4  C   UNL A   1      33.653  25.118  26.389  1.00  0.00     0.261 C 
BRANCH   4   5
ATOM      5  O   UNL A   1      32.896  23.895  26.733  1.00  0.00    -0.459 OA
BRANCH   5   6
ATOM      6  C   UNL A   1      31.524  23.795  26.645  1.00  0.00     0.364 C 
ATOM      7  O   UNL A   1      30.845  23.286  27.530  1.00  0.00    -0.245 OA
BRANCH   6   8
ATOM      8  C   UNL A   1      30.886  24.595  25.366  1.00  0.00     0.292 C 
ATOM      9  C   UNL A   1      29.619  25.430  25.594  1.00  0.00     0.088 C 
BRANCH   8  10
ATOM     10  N   UNL A   1      30.809  23.678  24.183  1.00  0.00    -0.319 N 
ATOM     11  C   UNL A   1      32.025  22.901  23.784  1.00  0.00     0.269 C 
ATOM     12  C   UNL A   1      30.324  24.412  23.026  1.00  0.00     0.303 C 
ATOM     13  H   UNL A   1      30.168  22.956  24.513  1.00  0.00     0.349 HD
ATOM     14  C   UNL A   1      32.696  23.288  22.406  1.00  0.00     0.120 C 
ATOM     15  C   UNL A   1      31.370  25.431  22.622  1.00  0.00     0.052 A 
ATOM     16  C   UNL A   1      32.522  24.750  22.160  1.00  0.00     0.077 A 
ATOM     17  C   UNL A   1      31.807  26.786  22.710  1.00  0.00     0.056 A 
ATOM     18  N   UNL A   1      33.379  25.563  21.573  1.00  0.00    -0.180 NA
ATOM     19  N   UNL A   1      32.755  26.741  21.682  1.00  0.00    -0.281 N 
ATOM     20  H   UNL A   1      32.947  27.507  21.093  1.00  0.00     0.190 HD
BRANCH  17  21
ATOM     21  C   UNL A   1      31.557  28.251  23.360  1.00  0.00     0.098 C 
BRANCH  21  22
ATOM     22  C   UNL A   1      30.182  29.028  23.356  1.00  0.00    -0.035 A 
ATOM     23  C   UNL A   1      28.998  28.338  23.011  1.00  0.00     0.005 A 
ATOM     24  C   UNL A   1      30.009  30.413  23.566  1.00  0.00     0.005 A 
ATOM     25  C   UNL A   1      27.733  28.962  23.005  1.00  0.00     0.000 A 
ATOM     26  C   UNL A   1      28.752  31.045  23.563  1.00  0.00     0.000 A 
ATOM     27  C   UNL A   1      27.608  30.313  23.300  1.00  0.00     0.000 A 
ENDBRANCH  21  22
BRANCH  21  28
ATOM     28  C   UNL A   1      32.208  28.304  24.780  1.00  0.00    -0.035 A 
ATOM     29  C   UNL A   1      33.577  28.546  24.993  1.00  0.00     0.005 A 
ATOM     30  C   UNL A   1      31.369  28.297  25.910  1.00  0.00     0.005 A 
ATOM     31  C   UNL A   1      34.085  28.805  26.266  1.00  0.00     0.000 A 
ATOM     32  C   UNL A   1      31.867  28.625  27.174  1.00  0.00     0.000 A 
ATOM     33  C   UNL A   1      33.224  28.880  27.351  1.00  0.00     0.000 A 
ENDBRANCH  21  28
ENDBRANCH  17  21
ENDBRANCH   8  10
ENDBRANCH   6   8
ENDBRANCH   5   6
ENDBRANCH   4   5
ENDBRANCH   3   4
ENDBRANCH   2   3
ENDBRANCH   1   2
BRANCH   1  34
ATOM     34  C   UNL A   1      36.562  21.600  24.476  1.00  0.00     0.188 C 
BRANCH  34  35
ATOM     35  O   UNL A   1      37.698  21.472  25.343  1.00  0.00    -0.376 OA
BRANCH  35  36
ATOM     36  C   UNL A   1      38.354  20.202  25.156  1.00  0.00     0.202 C 
BRANCH  36  37
ATOM     37  C   UNL A   1      39.525  19.903  26.105  1.00  0.00     0.261 C 
BRANCH  37  38
ATOM     38  O   UNL A   1      40.627  19.271  25.438  1.00  0.00    -0.460 OA
BRANCH  38  39
ATOM     39  C   UNL A   1      41.797  19.282  26.120  1.00  0.00     0.338 C 
ATOM     40  O   UNL A   1      42.482  18.285  26.383  1.00  0.00    -0.246 OA
BRANCH  39  41
ATOM     41  C   UNL A   1      42.203  20.663  26.462  1.00  0.00     0.060 A 
ATOM     42  C   UNL A   1      42.482  21.549  25.415  1.00  0.00     0.016 A 
ATOM     43  C   UNL A   1      42.320  21.104  27.785  1.00  0.00     0.016 A 
ATOM     44  C   UNL A   1      42.813  22.878  25.673  1.00  0.00     0.010 A 
ATOM     45  C   UNL A   1      42.696  22.427  28.049  1.00  0.00     0.010 A 
ATOM     46  C   UNL A   1      42.943  23.321  26.994  1.00  0.00    -0.014 A 
BRANCH  46  47
ATOM     47  C   UNL A   1      43.537  24.649  27.260  1.00  0.00     0.031 A 
ATOM     48  C   UNL A   1      42.624  25.744  27.736  1.00  0.00     0.074 A 
ATOM     49  C   UNL A   1      44.846  24.894  27.070  1.00  0.00     0.049 A 
ATOM     50  N   UNL A   1      42.902  26.986  28.028  1.00  0.00    -0.248 NA
ATOM     51  C   UNL A   1      41.204  25.386  27.903  1.00  0.00     0.031 C 
ATOM     52  C   UNL A   1      45.838  23.920  26.619  1.00  0.00     0.029 A 
ATOM     53  N   UNL A   1      45.561  26.059  27.212  1.00  0.00    -0.354 N 
ATOM     54  C   UNL A   1      41.695  27.561  28.402  1.00  0.00     0.074 A 
ATOM     55  C   UNL A   1      40.681  26.535  28.299  1.00  0.00     0.031 C 
ATOM     56  C   UNL A   1      47.027  24.535  26.490  1.00  0.00     0.029 A 
ATOM     57  C   UNL A   1      46.878  25.950  26.831  1.00  0.00     0.049 A 
ATOM     58  H   UNL A   1      45.167  26.894  27.554  1.00  0.00     0.167 HD
ATOM     59  C   UNL A   1      41.449  28.827  28.805  1.00  0.00     0.034 A 
ATOM     60  C   UNL A   1      47.841  26.891  26.750  1.00  0.00     0.034 A 
ATOM     61  C   UNL A   1      42.444  29.857  28.892  1.00  0.00     0.049 A 
ATOM     62  C   UNL A   1      47.523  28.312  27.150  1.00  0.00     0.074 A 
ATOM     63  C   UNL A   1      42.290  31.167  29.307  1.00  0.00     0.029 A 
ATOM     64  N   UNL A   1      43.772  29.701  28.531  1.00  0.00    -0.354 N 
ATOM     65  N   UNL A   1      46.413  28.806  27.642  1.00  0.00    -0.248 NA
ATOM     66  C   UNL A   1      48.603  29.303  27.006  1.00  0.00     0.031 C 
ATOM     67  C   UNL A   1      43.525  31.810  29.179  1.00  0.00     0.029 A 
ATOM     68  C   UNL A   1      44.449  30.895  28.700  1.00  0.00     0.049 A 
ATOM     69  H   UNL A   1      44.174  28.864  28.203  1.00  0.00     0.167 HD
ATOM     70  C   UNL A   1      46.672  30.148  27.904  1.00  0.00     0.074 A 
ATOM     71  C   UNL A   1      48.050  30.388  27.532  1.00  0.00     0.031 C 
ATOM     72  C   UNL A   1      45.841  31.102  28.393  1.00  0.00     0.034 A 
BRANCH  59  73
ATOM     73  C   UNL A   1      40.037  29.156  29.196  1.00  0.00     0.023 A 
ATOM     74  C   UNL A   1      39.106  29.497  28.194  1.00  0.00     0.012 A 
ATOM     75  C   UNL A   1      39.629  29.108  30.541  1.00  0.00     0.148 A 
ATOM     76  C   UNL A   1      37.791  29.812  28.530  1.00  0.00     0.002 A 
ATOM     77  C   UNL A   1      38.308  29.390  30.864  1.00  0.00     0.091 A 
ATOM     78  F   UNL A   1      40.543  28.816  31.477  1.00  0.00    -0.205 F 
ATOM     79  C   UNL A   1      37.391  29.750  29.862  1.00  0.00     0.022 A 
BRANCH  77  80
ATOM     80  S   UNL A   1      37.685  29.281  32.544  1.00  0.00     0.127 S 
ATOM     81  O   UNL A   1      38.593  30.180  33.255  1.00  0.00    -0.237 OA
ATOM     82  O   UNL A   1      36.319  29.784  32.400  1.00  0.00    -0.237 OA
ATOM     83  O   UNL A   1      37.777  27.876  32.915  1.00  0.00    -0.744 OA
ENDBRANCH  77  80
ENDBRANCH  59  73
BRANCH  60  84
ATOM     84  C   UNL A   1      49.216  26.533  26.297  1.00  0.00     0.023 A 
ATOM     85  C   UNL A   1      50.050  25.782  27.148  1.00  0.00     0.012 A 
ATOM     86  C   UNL A   1      49.714  26.957  25.049  1.00  0.00     0.148 A 
ATOM     87  C   UNL A   1      51.364  25.491  26.783  1.00  0.00     0.002 A 
ATOM     88  C   UNL A   1      51.009  26.622  24.671  1.00  0.00     0.091 A 
ATOM     89  F   UNL A   1      48.915  27.692  24.262  1.00  0.00    -0.205 F 
ATOM     90  C   UNL A   1      51.842  25.905  25.542  1.00  0.00     0.022 A 
BRANCH  88  91
ATOM     91  S   UNL A   1      51.670  27.026  23.050  1.00  0.00     0.127 S 
ATOM     92  O   UNL A   1      52.791  26.096  22.943  1.00  0.00    -0.237 OA
ATOM     93  O   UNL A   1      50.535  26.726  22.175  1.00  0.00    -0.237 OA
ATOM     94  O   UNL A   1      52.019  28.438  23.112  1.00  0.00    -0.744 OA
ENDBRANCH  88  91
ENDBRANCH  60  84
BRANCH  72  95
ATOM     95  C   UNL A   1      46.392  32.489  28.598  1.00  0.00     0.023 A 
ATOM     96  C   UNL A   1      46.878  32.867  29.864  1.00  0.00     0.012 A 
ATOM     97  C   UNL A   1      46.526  33.377  27.511  1.00  0.00     0.148 A 
ATOM     98  C   UNL A   1      47.472  34.115  30.051  1.00  0.00     0.002 A 
ATOM     99  C   UNL A   1      47.160  34.600  27.695  1.00  0.00     0.091 A 
ATOM    100  F   UNL A   1      46.039  33.006  26.318  1.00  0.00    -0.205 F 
ATOM    101  C   UNL A   1      47.626  34.975  28.965  1.00  0.00     0.022 A 
BRANCH  99 102
ATOM    102  S   UNL A   1      47.491  35.721  26.329  1.00  0.00     0.127 S 
ATOM    103  O   UNL A   1      48.567  35.027  25.627  1.00  0.00    -0.237 OA
ATOM    104  O   UNL A   1      46.211  35.736  25.619  1.00  0.00    -0.237 OA
ATOM    105  O   UNL A   1      47.854  36.994  26.938  1.00  0.00    -0.744 OA
ENDBRANCH  99 102
ENDBRANCH  72  95
ENDBRANCH  46  47
ENDBRANCH  39  41
ENDBRANCH  38  39
ENDBRANCH  37  38
ENDBRANCH  36  37
ENDBRANCH  35  36
ENDBRANCH  34  35
ENDBRANCH   1  34
TORSDOF 24
ENDMDL
MODEL 3
REMARK VINA RESULT:     -11.2      1.843      2.170
REMARK SMILES C[C@@H](C(=O)OCCOCCOCCOC(=O)c1ccc(-c2c3nc(c(-c4cccc(S(=O)(=O)[O-])c4F)c4ccc([nH]4)c(-c4cccc(S(=O)(=O)[O-])c4F)c4nc(c(-c5cccc(S(=O)(=O)[O-])c5F)c5ccc2[nH]5)C=C4)C=C3)cc1)[N@@H+]1CCc2n[nH]c(C(c3ccccc3)c3ccccc3)c2C1
REMARK SMILES IDX 9 1 8 2 7 3 6 4 5 5 3 6 4 7 2 8 1 9 80 10 81 11 101 12 82 14
REMARK SMILES IDX 100 15 83 16 86 17 84 18 85 19 87 21 88 22 89 23 93 24 90 25
REMARK SMILES IDX 92 26 91 27 94 28 95 29 99 30 96 31 98 32 97 33 10 34 11 35
REMARK SMILES IDX 12 36 13 37 14 38 15 39 16 40 17 41 18 42 79 43 19 44 78 45
REMARK SMILES IDX 20 46 21 47 22 48 72 49 23 50 77 51 71 52 73 53 24 54 76 55
REMARK SMILES IDX 70 56 69 57 25 59 57 60 37 61 56 62 38 63 41 64 55 65 74 66
REMARK SMILES IDX 39 67 40 68 54 70 75 71 42 72 26 73 27 74 35 75 28 76 30 77
REMARK SMILES IDX 36 78 29 79 31 80 32 81 33 82 34 83 58 84 59 85 67 86 60 87
REMARK SMILES IDX 62 88 68 89 61 90 63 91 64 92 65 93 66 94 43 95 44 96 52 97
REMARK SMILES IDX 45 98 47 99 53 100 46 101 48 102 49 103 50 104 51 105
REMARK H PARENT 80 13 85 20 73 58 41 69
REMARK Flexibility Score: inf
ROOT
ATOM      1  C   UNL A   1      37.688  22.628  25.472  1.00  0.00     0.188 C 
ENDROOT
BRANCH   1   2
ATOM      2  O   UNL A   1      36.936  23.534  26.291  1.00  0.00    -0.376 OA
BRANCH   2   3
ATOM      3  C   UNL A   1      35.622  23.884  25.809  1.00  0.00     0.202 C 
BRANCH   3   4
ATOM      4  C   UNL A   1      34.379  23.398  26.663  1.00  0.00     0.261 C 
BRANCH   4   5
ATOM      5  O   UNL A   1      33.308  24.417  26.655  1.00  0.00    -0.459 OA
BRANCH   5   6
ATOM      6  C   UNL A   1      31.964  24.114  26.612  1.00  0.00     0.364 C 
ATOM      7  O   UNL A   1      31.382  23.578  27.548  1.00  0.00    -0.245 OA
BRANCH   6   8
ATOM      8  C   UNL A   1      31.195  24.717  25.298  1.00  0.00     0.292 C 
ATOM      9  C   UNL A   1      29.875  25.470  25.515  1.00  0.00     0.088 C 
BRANCH   8  10
ATOM     10  N   UNL A   1      31.134  23.676  24.223  1.00  0.00    -0.319 N 
ATOM     11  C   UNL A   1      32.379  22.922  23.868  1.00  0.00     0.269 C 
ATOM     12  C   UNL A   1      30.578  24.254  23.012  1.00  0.00     0.303 C 
ATOM     13  H   UNL A   1      30.542  22.962  24.650  1.00  0.00     0.349 HD
ATOM     14  C   UNL A   1      32.989  23.191  22.436  1.00  0.00     0.120 C 
ATOM     15  C   UNL A   1      31.555  25.275  22.466  1.00  0.00     0.052 A 
ATOM     16  C   UNL A   1      32.729  24.607  22.040  1.00  0.00     0.077 A 
ATOM     17  C   UNL A   1      31.920  26.651  22.394  1.00  0.00     0.056 A 
ATOM     18  N   UNL A   1      33.523  25.394  21.341  1.00  0.00    -0.180 NA
ATOM     19  N   UNL A   1      32.840  26.544  21.345  1.00  0.00    -0.281 N 
ATOM     20  H   UNL A   1      32.973  27.250  20.672  1.00  0.00     0.190 HD
BRANCH  17  21
ATOM     21  C   UNL A   1      31.609  28.164  22.891  1.00  0.00     0.098 C 
BRANCH  21  22
ATOM     22  C   UNL A   1      30.224  28.906  22.744  1.00  0.00    -0.035 A 
ATOM     23  C   UNL A   1      29.036  28.237  23.121  1.00  0.00     0.005 A 
ATOM     24  C   UNL A   1      30.016  30.174  22.160  1.00  0.00     0.005 A 
ATOM     25  C   UNL A   1      27.766  28.844  23.036  1.00  0.00     0.000 A 
ATOM     26  C   UNL A   1      28.754  30.789  22.070  1.00  0.00     0.000 A 
ATOM     27  C   UNL A   1      27.627  30.128  22.528  1.00  0.00     0.000 A 
ENDBRANCH  21  22
BRANCH  21  28
ATOM     28  C   UNL A   1      32.183  28.361  24.332  1.00  0.00    -0.035 A 
ATOM     29  C   UNL A   1      31.469  28.987  25.368  1.00  0.00     0.005 A 
ATOM     30  C   UNL A   1      33.392  27.724  24.672  1.00  0.00     0.005 A 
ATOM     31  C   UNL A   1      31.914  28.953  26.690  1.00  0.00     0.000 A 
ATOM     32  C   UNL A   1      33.801  27.631  26.006  1.00  0.00     0.000 A 
ATOM     33  C   UNL A   1      33.062  28.244  27.013  1.00  0.00     0.000 A 
ENDBRANCH  21  28
ENDBRANCH  17  21
ENDBRANCH   8  10
ENDBRANCH   6   8
ENDBRANCH   5   6
ENDBRANCH   4   5
ENDBRANCH   3   4
ENDBRANCH   2   3
ENDBRANCH   1   2
BRANCH   1  34
ATOM     34  C   UNL A   1      37.076  21.277  25.044  1.00  0.00     0.188 C 
BRANCH  34  35
ATOM     35  O   UNL A   1      37.978  20.335  24.446  1.00  0.00    -0.376 OA
BRANCH  35  36
ATOM     36  C   UNL A   1      38.300  19.270  25.363  1.00  0.00     0.202 C 
BRANCH  36  37
ATOM     37  C   UNL A   1      39.784  19.129  25.737  1.00  0.00     0.261 C 
BRANCH  37  38
ATOM     38  O   UNL A   1      40.423  20.396  25.947  1.00  0.00    -0.460 OA
BRANCH  38  39
ATOM     39  C   UNL A   1      40.848  20.624  27.212  1.00  0.00     0.338 C 
ATOM     40  O   UNL A   1      40.928  19.772  28.106  1.00  0.00    -0.246 OA
BRANCH  39  41
ATOM     41  C   UNL A   1      41.280  22.029  27.385  1.00  0.00     0.060 A 
ATOM     42  C   UNL A   1      41.901  22.388  28.587  1.00  0.00     0.016 A 
ATOM     43  C   UNL A   1      41.085  23.000  26.395  1.00  0.00     0.016 A 
ATOM     44  C   UNL A   1      42.381  23.681  28.784  1.00  0.00     0.010 A 
ATOM     45  C   UNL A   1      41.526  24.312  26.609  1.00  0.00     0.010 A 
ATOM     46  C   UNL A   1      42.177  24.658  27.804  1.00  0.00    -0.014 A 
BRANCH  46  47
ATOM     47  C   UNL A   1      42.459  26.076  28.121  1.00  0.00     0.031 A 
ATOM     48  C   UNL A   1      43.865  26.571  27.934  1.00  0.00     0.074 A 
ATOM     49  C   UNL A   1      41.504  26.904  28.583  1.00  0.00     0.049 A 
ATOM     50  N   UNL A   1      44.359  27.761  28.148  1.00  0.00    -0.248 NA
ATOM     51  C   UNL A   1      44.844  25.589  27.437  1.00  0.00     0.031 C 
ATOM     52  C   UNL A   1      40.103  26.551  28.802  1.00  0.00     0.029 A 
ATOM     53  N   UNL A   1      41.584  28.219  28.974  1.00  0.00    -0.354 N 
ATOM     54  C   UNL A   1      45.706  27.669  27.824  1.00  0.00     0.074 A 
ATOM     55  C   UNL A   1      45.954  26.309  27.401  1.00  0.00     0.031 C 
ATOM     56  C   UNL A   1      39.461  27.614  29.320  1.00  0.00     0.029 A 
ATOM     57  C   UNL A   1      40.408  28.716  29.486  1.00  0.00     0.049 A 
ATOM     58  H   UNL A   1      42.406  28.755  28.896  1.00  0.00     0.167 HD
ATOM     59  C   UNL A   1      46.655  28.631  27.866  1.00  0.00     0.034 A 
ATOM     60  C   UNL A   1      40.140  29.916  30.042  1.00  0.00     0.034 A 
ATOM     61  C   UNL A   1      46.424  29.978  28.303  1.00  0.00     0.049 A 
ATOM     62  C   UNL A   1      41.234  30.952  30.130  1.00  0.00     0.074 A 
ATOM     63  C   UNL A   1      47.322  31.027  28.362  1.00  0.00     0.029 A 
ATOM     64  N   UNL A   1      45.214  30.453  28.782  1.00  0.00    -0.354 N 
ATOM     65  N   UNL A   1      42.466  30.898  29.683  1.00  0.00    -0.248 NA
ATOM     66  C   UNL A   1      40.892  32.229  30.779  1.00  0.00     0.031 C 
ATOM     67  C   UNL A   1      46.658  32.136  28.897  1.00  0.00     0.029 A 
ATOM     68  C   UNL A   1      45.344  31.779  29.153  1.00  0.00     0.049 A 
ATOM     69  H   UNL A   1      44.385  29.926  28.848  1.00  0.00     0.167 HD
ATOM     70  C   UNL A   1      43.030  32.140  29.958  1.00  0.00     0.074 A 
ATOM     71  C   UNL A   1      42.001  32.934  30.596  1.00  0.00     0.031 C 
ATOM     72  C   UNL A   1      44.291  32.581  29.721  1.00  0.00     0.034 A 
BRANCH  59  73
ATOM     73  C   UNL A   1      48.033  28.250  27.408  1.00  0.00     0.023 A 
ATOM     74  C   UNL A   1      48.342  28.302  26.034  1.00  0.00     0.012 A 
ATOM     75  C   UNL A   1      49.021  27.861  28.331  1.00  0.00     0.148 A 
ATOM     76  C   UNL A   1      49.612  27.947  25.581  1.00  0.00     0.002 A 
ATOM     77  C   UNL A   1      50.293  27.542  27.876  1.00  0.00     0.091 A 
ATOM     78  F   UNL A   1      48.690  27.785  29.628  1.00  0.00    -0.205 F 
ATOM     79  C   UNL A   1      50.588  27.576  26.502  1.00  0.00     0.022 A 
BRANCH  77  80
ATOM     80  S   UNL A   1      51.632  27.108  28.990  1.00  0.00     0.127 S 
ATOM     81  O   UNL A   1      52.536  26.383  28.097  1.00  0.00    -0.237 OA
ATOM     82  O   UNL A   1      52.118  28.420  29.415  1.00  0.00    -0.237 OA
ATOM     83  O   UNL A   1      51.029  26.313  30.050  1.00  0.00    -0.744 OA
ENDBRANCH  77  80
ENDBRANCH  59  73
BRANCH  60  84
ATOM     84  C   UNL A   1      38.770  30.231  30.541  1.00  0.00     0.023 A 
ATOM     85  C   UNL A   1      38.361  29.735  31.795  1.00  0.00     0.012 A 
ATOM     86  C   UNL A   1      37.863  30.987  29.774  1.00  0.00     0.148 A 
ATOM     87  C   UNL A   1      37.064  29.953  32.258  1.00  0.00     0.002 A 
ATOM     88  C   UNL A   1      36.587  31.242  30.263  1.00  0.00     0.091 A 
ATOM     89  F   UNL A   1      38.261  31.431  28.573  1.00  0.00    -0.205 F 
ATOM     90  C   UNL A   1      36.179  30.712  31.496  1.00  0.00     0.022 A 
BRANCH  88  91
ATOM     91  S   UNL A   1      35.419  32.295  29.394  1.00  0.00     0.127 S 
ATOM     92  O   UNL A   1      36.208  33.504  29.178  1.00  0.00    -0.237 OA
ATOM     93  O   UNL A   1      35.144  31.513  28.187  1.00  0.00    -0.237 OA
ATOM     94  O   UNL A   1      34.278  32.431  30.289  1.00  0.00    -0.744 OA
ENDBRANCH  88  91
ENDBRANCH  60  84
BRANCH  72  95
ATOM     95  C   UNL A   1      44.635  33.995  30.109  1.00  0.00     0.023 A 
ATOM     96  C   UNL A   1      45.282  34.246  31.334  1.00  0.00     0.012 A 
ATOM     97  C   UNL A   1      44.414  35.060  29.212  1.00  0.00     0.148 A 
ATOM     98  C   UNL A   1      45.687  35.537  31.670  1.00  0.00     0.002 A 
ATOM     99  C   UNL A   1      44.861  36.336  29.534  1.00  0.00     0.091 A 
ATOM    100  F   UNL A   1      43.779  34.804  28.059  1.00  0.00    -0.205 F 
ATOM    101  C   UNL A   1      45.489  36.579  30.766  1.00  0.00     0.022 A 
BRANCH  99 102
ATOM    102  S   UNL A   1      44.739  37.711  28.383  1.00  0.00     0.127 S 
ATOM    103  O   UNL A   1      43.297  37.787  28.160  1.00  0.00    -0.237 OA
ATOM    104  O   UNL A   1      45.294  38.821  29.160  1.00  0.00    -0.237 OA
ATOM    105  O   UNL A   1      45.537  37.332  27.225  1.00  0.00    -0.744 OA
ENDBRANCH  99 102
ENDBRANCH  72  95
ENDBRANCH  46  47
ENDBRANCH  39  41
ENDBRANCH  38  39
ENDBRANCH  37  38
ENDBRANCH  36  37
ENDBRANCH  35  36
ENDBRANCH  34  35
ENDBRANCH   1  34
TORSDOF 24
ENDMDL
