MODEL 1
REMARK VINA RESULT:     -10.6      0.000      0.000
REMARK SMILES C[C@@H](C(=O)OCCOCCOCCOC(=O)c1ccc(-c2c3nc(c(-c4cccc(S(=O)(=O)[O-])c4F)c4ccc([nH]4)c(-c4cccc(S(=O)(=O)[O-])c4F)c4nc(c(-c5cccc(S(=O)(=O)[O-])c5F)c5ccc2[nH]5)C=C4)C=C3)cc1)c1ccc(O[C@H]2CCCC2=O)cc1F
REMARK SMILES IDX 9 1 8 2 7 3 6 4 5 5 3 6 4 7 2 8 1 9 80 10 81 11 92 12 82 13
REMARK SMILES IDX 91 14 93 15 83 16 84 17 85 18 86 19 89 20 87 21 88 22 90 23
REMARK SMILES IDX 10 24 11 25 12 26 13 27 14 28 15 29 16 30 17 31 18 32 79 33
REMARK SMILES IDX 19 34 78 35 20 36 21 37 22 38 72 39 23 40 77 41 71 42 73 43
REMARK SMILES IDX 24 44 76 45 70 46 69 47 25 49 57 50 37 51 56 52 38 53 41 54
REMARK SMILES IDX 55 55 74 56 39 57 40 58 54 60 75 61 42 62 26 63 27 64 35 65
REMARK SMILES IDX 28 66 30 67 36 68 29 69 31 70 32 71 33 72 34 73 58 74 59 75
REMARK SMILES IDX 67 76 60 77 62 78 68 79 61 80 63 81 64 82 65 83 66 84 43 85
REMARK SMILES IDX 44 86 52 87 45 88 47 89 53 90 46 91 48 92 49 93 50 94 51 95
REMARK H PARENT 73 48 41 59
REMARK Flexibility Score: inf
ROOT
ATOM      1  C   UNL A   1      33.370  19.167  23.873  1.00  0.00     0.188 C 
ENDROOT
BRANCH   1   2
ATOM      2  O   UNL A   1      32.636  20.359  23.619  1.00  0.00    -0.376 OA
BRANCH   2   3
ATOM      3  C   UNL A   1      32.891  21.502  24.432  1.00  0.00     0.202 C 
BRANCH   3   4
ATOM      4  C   UNL A   1      32.080  22.792  24.203  1.00  0.00     0.261 C 
BRANCH   4   5
ATOM      5  O   UNL A   1      32.879  23.984  24.033  1.00  0.00    -0.463 OA
BRANCH   5   6
ATOM      6  C   UNL A   1      33.273  24.287  22.768  1.00  0.00     0.313 C 
ATOM      7  O   UNL A   1      34.319  23.879  22.271  1.00  0.00    -0.252 OA
BRANCH   6   8
ATOM      8  C   UNL A   1      32.276  25.167  21.990  1.00  0.00     0.129 C 
ATOM      9  C   UNL A   1      32.615  25.281  20.494  1.00  0.00     0.025 C 
BRANCH   8  10
ATOM     10  C   UNL A   1      31.838  26.449  22.719  1.00  0.00     0.002 A 
ATOM     11  C   UNL A   1      30.562  26.525  23.298  1.00  0.00     0.011 A 
ATOM     12  C   UNL A   1      32.577  27.646  22.710  1.00  0.00     0.130 A 
ATOM     13  C   UNL A   1      30.048  27.736  23.781  1.00  0.00     0.047 A 
ATOM     14  C   UNL A   1      32.063  28.865  23.195  1.00  0.00     0.086 A 
ATOM     15  F   UNL A   1      33.812  27.678  22.191  1.00  0.00    -0.207 F 
ATOM     16  C   UNL A   1      30.775  28.925  23.698  1.00  0.00     0.123 A 
BRANCH  16  17
ATOM     17  O   UNL A   1      30.076  30.020  24.095  1.00  0.00    -0.483 OA
BRANCH  17  18
ATOM     18  C   UNL A   1      29.059  30.633  23.340  1.00  0.00     0.239 C 
ATOM     19  C   UNL A   1      28.710  32.029  23.852  1.00  0.00     0.054 C 
ATOM     20  C   UNL A   1      29.044  30.808  21.823  1.00  0.00     0.173 C 
ATOM     21  C   UNL A   1      28.725  32.977  22.661  1.00  0.00     0.012 C 
ATOM     22  C   UNL A   1      28.441  32.132  21.434  1.00  0.00     0.080 C 
ATOM     23  O   UNL A   1      29.429  29.975  21.010  1.00  0.00    -0.296 OA
ENDBRANCH  17  18
ENDBRANCH  16  17
ENDBRANCH   8  10
ENDBRANCH   6   8
ENDBRANCH   5   6
ENDBRANCH   4   5
ENDBRANCH   3   4
ENDBRANCH   2   3
ENDBRANCH   1   2
BRANCH   1  24
ATOM     24  C   UNL A   1      34.425  19.186  24.991  1.00  0.00     0.188 C 
BRANCH  24  25
ATOM     25  O   UNL A   1      35.628  18.523  24.683  1.00  0.00    -0.376 OA
BRANCH  25  26
ATOM     26  C   UNL A   1      36.844  19.249  24.704  1.00  0.00     0.202 C 
BRANCH  26  27
ATOM     27  C   UNL A   1      36.981  20.632  25.376  1.00  0.00     0.261 C 
BRANCH  27  28
ATOM     28  O   UNL A   1      38.197  21.361  25.172  1.00  0.00    -0.460 OA
BRANCH  28  29
ATOM     29  C   UNL A   1      39.220  21.114  26.023  1.00  0.00     0.338 C 
ATOM     30  O   UNL A   1      39.810  20.055  26.172  1.00  0.00    -0.246 OA
BRANCH  29  31
ATOM     31  C   UNL A   1      39.669  22.418  26.560  1.00  0.00     0.060 A 
ATOM     32  C   UNL A   1      39.039  23.588  26.114  1.00  0.00     0.016 A 
ATOM     33  C   UNL A   1      40.673  22.486  27.527  1.00  0.00     0.016 A 
ATOM     34  C   UNL A   1      39.420  24.827  26.630  1.00  0.00     0.010 A 
ATOM     35  C   UNL A   1      41.078  23.732  28.015  1.00  0.00     0.010 A 
ATOM     36  C   UNL A   1      40.471  24.913  27.552  1.00  0.00    -0.014 A 
BRANCH  36  37
ATOM     37  C   UNL A   1      41.068  26.233  27.879  1.00  0.00     0.031 A 
ATOM     38  C   UNL A   1      42.428  26.558  27.322  1.00  0.00     0.074 A 
ATOM     39  C   UNL A   1      40.413  27.149  28.616  1.00  0.00     0.049 A 
ATOM     40  N   UNL A   1      43.152  27.635  27.475  1.00  0.00    -0.248 NA
ATOM     41  C   UNL A   1      43.051  25.528  26.473  1.00  0.00     0.031 C 
ATOM     42  C   UNL A   1      39.057  27.002  29.141  1.00  0.00     0.029 A 
ATOM     43  N   UNL A   1      40.794  28.409  29.011  1.00  0.00    -0.354 N 
ATOM     44  C   UNL A   1      44.344  27.387  26.804  1.00  0.00     0.074 A 
ATOM     45  C   UNL A   1      44.231  26.071  26.215  1.00  0.00     0.031 C 
ATOM     46  C   UNL A   1      38.712  28.137  29.775  1.00  0.00     0.029 A 
ATOM     47  C   UNL A   1      39.841  29.068  29.753  1.00  0.00     0.049 A 
ATOM     48  H   UNL A   1      41.666  28.805  28.784  1.00  0.00     0.167 HD
ATOM     49  C   UNL A   1      45.438  28.174  26.697  1.00  0.00     0.034 A 
ATOM     50  C   UNL A   1      39.883  30.272  30.359  1.00  0.00     0.034 A 
ATOM     51  C   UNL A   1      45.552  29.490  27.267  1.00  0.00     0.049 A 
ATOM     52  C   UNL A   1      41.128  31.119  30.247  1.00  0.00     0.074 A 
ATOM     53  C   UNL A   1      46.616  30.370  27.185  1.00  0.00     0.029 A 
ATOM     54  N   UNL A   1      44.582  30.106  28.040  1.00  0.00    -0.354 N 
ATOM     55  N   UNL A   1      42.215  30.905  29.544  1.00  0.00    -0.248 NA
ATOM     56  C   UNL A   1      41.145  32.383  31.000  1.00  0.00     0.031 C 
ATOM     57  C   UNL A   1      46.307  31.502  27.945  1.00  0.00     0.029 A 
ATOM     58  C   UNL A   1      45.028  31.348  28.456  1.00  0.00     0.049 A 
ATOM     59  H   UNL A   1      43.704  29.717  28.260  1.00  0.00     0.167 HD
ATOM     60  C   UNL A   1      43.028  32.016  29.750  1.00  0.00     0.074 A 
ATOM     61  C   UNL A   1      42.297  32.915  30.617  1.00  0.00     0.031 C 
ATOM     62  C   UNL A   1      44.275  32.262  29.277  1.00  0.00     0.034 A 
BRANCH  49  63
ATOM     63  C   UNL A   1      46.626  27.622  25.953  1.00  0.00     0.023 A 
ATOM     64  C   UNL A   1      46.749  27.821  24.563  1.00  0.00     0.012 A 
ATOM     65  C   UNL A   1      47.647  26.947  26.650  1.00  0.00     0.148 A 
ATOM     66  C   UNL A   1      47.856  27.327  23.874  1.00  0.00     0.002 A 
ATOM     67  C   UNL A   1      48.770  26.503  25.965  1.00  0.00     0.091 A 
ATOM     68  F   UNL A   1      47.497  26.748  27.968  1.00  0.00    -0.205 F 
ATOM     69  C   UNL A   1      48.871  26.680  24.577  1.00  0.00     0.022 A 
BRANCH  67  70
ATOM     70  S   UNL A   1      50.167  25.734  26.793  1.00  0.00     0.127 S 
ATOM     71  O   UNL A   1      51.022  25.383  25.660  1.00  0.00    -0.237 OA
ATOM     72  O   UNL A   1      50.671  26.829  27.622  1.00  0.00    -0.237 OA
ATOM     73  O   UNL A   1      49.623  24.607  27.537  1.00  0.00    -0.744 OA
ENDBRANCH  67  70
ENDBRANCH  49  63
BRANCH  50  74
ATOM     74  C   UNL A   1      38.711  30.765  31.142  1.00  0.00     0.023 A 
ATOM     75  C   UNL A   1      38.680  30.598  32.542  1.00  0.00     0.012 A 
ATOM     76  C   UNL A   1      37.617  31.376  30.501  1.00  0.00     0.148 A 
ATOM     77  C   UNL A   1      37.566  31.002  33.281  1.00  0.00     0.002 A 
ATOM     78  C   UNL A   1      36.539  31.832  31.250  1.00  0.00     0.091 A 
ATOM     79  F   UNL A   1      37.651  31.497  29.167  1.00  0.00    -0.205 F 
ATOM     80  C   UNL A   1      36.501  31.627  32.638  1.00  0.00     0.022 A 
BRANCH  78  81
ATOM     81  S   UNL A   1      35.185  32.758  30.521  1.00  0.00     0.127 S 
ATOM     82  O   UNL A   1      34.730  31.847  29.474  1.00  0.00    -0.237 OA
ATOM     83  O   UNL A   1      34.274  32.899  31.656  1.00  0.00    -0.237 OA
ATOM     84  O   UNL A   1      35.769  34.009  30.058  1.00  0.00    -0.744 OA
ENDBRANCH  78  81
ENDBRANCH  50  74
BRANCH  62  85
ATOM     85  C   UNL A   1      44.926  33.575  29.638  1.00  0.00     0.023 A 
ATOM     86  C   UNL A   1      45.760  33.668  30.768  1.00  0.00     0.012 A 
ATOM     87  C   UNL A   1      44.771  34.700  28.802  1.00  0.00     0.148 A 
ATOM     88  C   UNL A   1      46.400  34.867  31.083  1.00  0.00     0.002 A 
ATOM     89  C   UNL A   1      45.454  35.876  29.091  1.00  0.00     0.091 A 
ATOM     90  F   UNL A   1      43.963  34.599  27.737  1.00  0.00    -0.205 F 
ATOM     91  C   UNL A   1      46.257  35.966  30.238  1.00  0.00     0.022 A 
BRANCH  89  92
ATOM     92  S   UNL A   1      45.412  37.309  28.007  1.00  0.00     0.127 S 
ATOM     93  O   UNL A   1      45.910  36.747  26.752  1.00  0.00    -0.237 OA
ATOM     94  O   UNL A   1      43.989  37.649  28.001  1.00  0.00    -0.237 OA
ATOM     95  O   UNL A   1      46.271  38.308  28.627  1.00  0.00    -0.744 OA
ENDBRANCH  89  92
ENDBRANCH  62  85
ENDBRANCH  36  37
ENDBRANCH  29  31
ENDBRANCH  28  29
ENDBRANCH  27  28
ENDBRANCH  26  27
ENDBRANCH  25  26
ENDBRANCH  24  25
ENDBRANCH   1  24
TORSDOF 23
ENDMDL
MODEL 2
REMARK VINA RESULT:     -10.2      1.692      2.023
REMARK SMILES C[C@@H](C(=O)OCCOCCOCCOC(=O)c1ccc(-c2c3nc(c(-c4cccc(S(=O)(=O)[O-])c4F)c4ccc([nH]4)c(-c4cccc(S(=O)(=O)[O-])c4F)c4nc(c(-c5cccc(S(=O)(=O)[O-])c5F)c5ccc2[nH]5)C=C4)C=C3)cc1)c1ccc(O[C@H]2CCCC2=O)cc1F
REMARK SMILES IDX 9 1 8 2 7 3 6 4 5 5 3 6 4 7 2 8 1 9 80 10 81 11 92 12 82 13
REMARK SMILES IDX 91 14 93 15 83 16 84 17 85 18 86 19 89 20 87 21 88 22 90 23
REMARK SMILES IDX 10 24 11 25 12 26 13 27 14 28 15 29 16 30 17 31 18 32 79 33
REMARK SMILES IDX 19 34 78 35 20 36 21 37 22 38 72 39 23 40 77 41 71 42 73 43
REMARK SMILES IDX 24 44 76 45 70 46 69 47 25 49 57 50 37 51 56 52 38 53 41 54
REMARK SMILES IDX 55 55 74 56 39 57 40 58 54 60 75 61 42 62 26 63 27 64 35 65
REMARK SMILES IDX 28 66 30 67 36 68 29 69 31 70 32 71 33 72 34 73 58 74 59 75
REMARK SMILES IDX 67 76 60 77 62 78 68 79 61 80 63 81 64 82 65 83 66 84 43 85
REMARK SMILES IDX 44 86 52 87 45 88 47 89 53 90 46 91 48 92 49 93 50 94 51 95
REMARK H PARENT 73 48 41 59
REMARK Flexibility Score: inf
ROOT
ATOM      1  C   UNL A   1      33.440  20.439  24.367  1.00  0.00     0.188 C 
ENDROOT
BRANCH   1   2
ATOM      2  O   UNL A   1      32.147  20.326  24.949  1.00  0.00    -0.376 OA
BRANCH   2   3
ATOM      3  C   UNL A   1      31.649  21.417  25.719  1.00  0.00     0.202 C 
BRANCH   3   4
ATOM      4  C   UNL A   1      31.733  22.848  25.149  1.00  0.00     0.261 C 
BRANCH   4   5
ATOM      5  O   UNL A   1      32.476  23.779  25.966  1.00  0.00    -0.463 OA
BRANCH   5   6
ATOM      6  C   UNL A   1      33.231  24.703  25.314  1.00  0.00     0.313 C 
ATOM      7  O   UNL A   1      34.285  25.149  25.758  1.00  0.00    -0.252 OA
BRANCH   6   8
ATOM      8  C   UNL A   1      32.665  25.128  23.944  1.00  0.00     0.129 C 
ATOM      9  C   UNL A   1      33.748  25.255  22.860  1.00  0.00     0.025 C 
BRANCH   8  10
ATOM     10  C   UNL A   1      31.585  26.221  24.001  1.00  0.00     0.002 A 
ATOM     11  C   UNL A   1      30.271  25.930  23.602  1.00  0.00     0.011 A 
ATOM     12  C   UNL A   1      31.854  27.574  24.276  1.00  0.00     0.130 A 
ATOM     13  C   UNL A   1      29.315  26.942  23.436  1.00  0.00     0.047 A 
ATOM     14  C   UNL A   1      30.896  28.593  24.111  1.00  0.00     0.086 A 
ATOM     15  F   UNL A   1      33.075  27.956  24.677  1.00  0.00    -0.207 F 
ATOM     16  C   UNL A   1      29.627  28.286  23.649  1.00  0.00     0.123 A 
BRANCH  16  17
ATOM     17  O   UNL A   1      28.621  29.138  23.319  1.00  0.00    -0.483 OA
BRANCH  17  18
ATOM     18  C   UNL A   1      28.811  30.450  22.850  1.00  0.00     0.239 C 
ATOM     19  C   UNL A   1      29.211  30.493  21.377  1.00  0.00     0.054 C 
ATOM     20  C   UNL A   1      27.816  31.603  22.971  1.00  0.00     0.173 C 
ATOM     21  C   UNL A   1      28.298  31.491  20.676  1.00  0.00     0.012 C 
ATOM     22  C   UNL A   1      27.833  32.468  21.739  1.00  0.00     0.080 C 
ATOM     23  O   UNL A   1      27.117  31.834  23.950  1.00  0.00    -0.296 OA
ENDBRANCH  17  18
ENDBRANCH  16  17
ENDBRANCH   8  10
ENDBRANCH   6   8
ENDBRANCH   5   6
ENDBRANCH   4   5
ENDBRANCH   3   4
ENDBRANCH   2   3
ENDBRANCH   1   2
BRANCH   1  24
ATOM     24  C   UNL A   1      34.662  20.421  25.299  1.00  0.00     0.188 C 
BRANCH  24  25
ATOM     25  O   UNL A   1      35.691  19.541  24.914  1.00  0.00    -0.376 OA
BRANCH  25  26
ATOM     26  C   UNL A   1      37.011  20.036  24.775  1.00  0.00     0.202 C 
BRANCH  26  27
ATOM     27  C   UNL A   1      37.509  21.303  25.501  1.00  0.00     0.261 C 
BRANCH  27  28
ATOM     28  O   UNL A   1      38.909  21.605  25.443  1.00  0.00    -0.460 OA
BRANCH  28  29
ATOM     29  C   UNL A   1      39.630  21.429  26.575  1.00  0.00     0.338 C 
ATOM     30  O   UNL A   1      39.982  20.365  27.061  1.00  0.00    -0.246 OA
BRANCH  29  31
ATOM     31  C   UNL A   1      40.135  22.758  26.985  1.00  0.00     0.060 A 
ATOM     32  C   UNL A   1      39.578  23.905  26.402  1.00  0.00     0.016 A 
ATOM     33  C   UNL A   1      41.121  22.877  27.966  1.00  0.00     0.016 A 
ATOM     34  C   UNL A   1      40.013  25.170  26.795  1.00  0.00     0.010 A 
ATOM     35  C   UNL A   1      41.581  24.146  28.331  1.00  0.00     0.010 A 
ATOM     36  C   UNL A   1      41.047  25.300  27.731  1.00  0.00    -0.014 A 
BRANCH  36  37
ATOM     37  C   UNL A   1      41.706  26.616  27.934  1.00  0.00     0.031 A 
ATOM     38  C   UNL A   1      43.060  26.838  27.315  1.00  0.00     0.074 A 
ATOM     39  C   UNL A   1      41.112  27.614  28.614  1.00  0.00     0.049 A 
ATOM     40  N   UNL A   1      43.831  27.892  27.361  1.00  0.00    -0.248 NA
ATOM     41  C   UNL A   1      43.615  25.719  26.535  1.00  0.00     0.031 C 
ATOM     42  C   UNL A   1      39.769  27.566  29.187  1.00  0.00     0.029 A 
ATOM     43  N   UNL A   1      41.555  28.884  28.895  1.00  0.00    -0.354 N 
ATOM     44  C   UNL A   1      44.990  27.541  26.679  1.00  0.00     0.074 A 
ATOM     45  C   UNL A   1      44.807  26.189  26.200  1.00  0.00     0.031 C 
ATOM     46  C   UNL A   1      39.489  28.761  29.737  1.00  0.00     0.029 A 
ATOM     47  C   UNL A   1      40.652  29.639  29.608  1.00  0.00     0.049 A 
ATOM     48  H   UNL A   1      42.435  29.224  28.613  1.00  0.00     0.167 HD
ATOM     49  C   UNL A   1      46.112  28.271  26.478  1.00  0.00     0.034 A 
ATOM     50  C   UNL A   1      40.761  30.885  30.114  1.00  0.00     0.034 A 
ATOM     51  C   UNL A   1      46.295  29.621  26.937  1.00  0.00     0.049 A 
ATOM     52  C   UNL A   1      42.035  31.666  29.900  1.00  0.00     0.074 A 
ATOM     53  C   UNL A   1      47.390  30.447  26.755  1.00  0.00     0.029 A 
ATOM     54  N   UNL A   1      45.375  30.337  27.685  1.00  0.00    -0.354 N 
ATOM     55  N   UNL A   1      43.090  31.352  29.187  1.00  0.00    -0.248 NA
ATOM     56  C   UNL A   1      42.126  32.984  30.549  1.00  0.00     0.031 C 
ATOM     57  C   UNL A   1      47.150  31.647  27.430  1.00  0.00     0.029 A 
ATOM     58  C   UNL A   1      45.883  31.589  27.988  1.00  0.00     0.049 A 
ATOM     59  H   UNL A   1      44.490  30.005  27.961  1.00  0.00     0.167 HD
ATOM     60  C   UNL A   1      43.953  32.440  29.280  1.00  0.00     0.074 A 
ATOM     61  C   UNL A   1      43.286  33.435  30.091  1.00  0.00     0.031 C 
ATOM     62  C   UNL A   1      45.193  32.595  28.754  1.00  0.00     0.034 A 
BRANCH  49  63
ATOM     63  C   UNL A   1      47.252  27.613  25.747  1.00  0.00     0.023 A 
ATOM     64  C   UNL A   1      47.310  27.649  24.340  1.00  0.00     0.012 A 
ATOM     65  C   UNL A   1      48.295  26.998  26.469  1.00  0.00     0.148 A 
ATOM     66  C   UNL A   1      48.375  27.056  23.661  1.00  0.00     0.002 A 
ATOM     67  C   UNL A   1      49.376  26.456  25.788  1.00  0.00     0.091 A 
ATOM     68  F   UNL A   1      48.206  26.954  27.807  1.00  0.00    -0.205 F 
ATOM     69  C   UNL A   1      49.412  26.472  24.385  1.00  0.00     0.022 A 
BRANCH  67  70
ATOM     70  S   UNL A   1      50.798  25.756  26.632  1.00  0.00     0.127 S 
ATOM     71  O   UNL A   1      51.725  25.544  25.521  1.00  0.00    -0.237 OA
ATOM     72  O   UNL A   1      51.175  26.836  27.544  1.00  0.00    -0.237 OA
ATOM     73  O   UNL A   1      50.323  24.545  27.286  1.00  0.00    -0.744 OA
ENDBRANCH  67  70
ENDBRANCH  49  63
BRANCH  50  74
ATOM     74  C   UNL A   1      39.636  31.487  30.888  1.00  0.00     0.023 A 
ATOM     75  C   UNL A   1      38.637  32.224  30.221  1.00  0.00     0.012 A 
ATOM     76  C   UNL A   1      39.567  31.353  32.288  1.00  0.00     0.148 A 
ATOM     77  C   UNL A   1      37.610  32.841  30.938  1.00  0.00     0.002 A 
ATOM     78  C   UNL A   1      38.508  31.916  32.989  1.00  0.00     0.091 A 
ATOM     79  F   UNL A   1      40.543  30.675  32.909  1.00  0.00    -0.205 F 
ATOM     80  C   UNL A   1      37.539  32.679  32.319  1.00  0.00     0.022 A 
BRANCH  78  81
ATOM     81  S   UNL A   1      38.271  31.653  34.748  1.00  0.00     0.127 S 
ATOM     82  O   UNL A   1      39.402  32.383  35.315  1.00  0.00    -0.237 OA
ATOM     83  O   UNL A   1      36.964  32.270  34.970  1.00  0.00    -0.237 OA
ATOM     84  O   UNL A   1      38.295  30.209  34.937  1.00  0.00    -0.744 OA
ENDBRANCH  78  81
ENDBRANCH  50  74
BRANCH  62  85
ATOM     85  C   UNL A   1      45.907  33.905  28.989  1.00  0.00     0.023 A 
ATOM     86  C   UNL A   1      46.800  34.043  30.069  1.00  0.00     0.012 A 
ATOM     87  C   UNL A   1      45.749  34.975  28.085  1.00  0.00     0.148 A 
ATOM     88  C   UNL A   1      47.497  35.235  30.267  1.00  0.00     0.002 A 
ATOM     89  C   UNL A   1      46.486  36.141  28.257  1.00  0.00     0.091 A 
ATOM     90  F   UNL A   1      44.885  34.831  27.069  1.00  0.00    -0.205 F 
ATOM     91  C   UNL A   1      47.349  36.279  29.355  1.00  0.00     0.022 A 
BRANCH  89  92
ATOM     92  S   UNL A   1      46.439  37.496  27.078  1.00  0.00     0.127 S 
ATOM     93  O   UNL A   1      47.263  38.502  27.748  1.00  0.00    -0.237 OA
ATOM     94  O   UNL A   1      47.051  36.897  25.893  1.00  0.00    -0.237 OA
ATOM     95  O   UNL A   1      45.033  37.846  26.923  1.00  0.00    -0.744 OA
ENDBRANCH  89  92
ENDBRANCH  62  85
ENDBRANCH  36  37
ENDBRANCH  29  31
ENDBRANCH  28  29
ENDBRANCH  27  28
ENDBRANCH  26  27
ENDBRANCH  25  26
ENDBRANCH  24  25
ENDBRANCH   1  24
TORSDOF 23
ENDMDL
MODEL 3
REMARK VINA RESULT:      -9.8      2.197      3.649
REMARK SMILES C[C@@H](C(=O)OCCOCCOCCOC(=O)c1ccc(-c2c3nc(c(-c4cccc(S(=O)(=O)[O-])c4F)c4ccc([nH]4)c(-c4cccc(S(=O)(=O)[O-])c4F)c4nc(c(-c5cccc(S(=O)(=O)[O-])c5F)c5ccc2[nH]5)C=C4)C=C3)cc1)c1ccc(O[C@H]2CCCC2=O)cc1F
REMARK SMILES IDX 9 1 8 2 7 3 6 4 5 5 3 6 4 7 2 8 1 9 80 10 81 11 92 12 82 13
REMARK SMILES IDX 91 14 93 15 83 16 84 17 85 18 86 19 89 20 87 21 88 22 90 23
REMARK SMILES IDX 10 24 11 25 12 26 13 27 14 28 15 29 16 30 17 31 18 32 79 33
REMARK SMILES IDX 19 34 78 35 20 36 21 37 22 38 72 39 23 40 77 41 71 42 73 43
REMARK SMILES IDX 24 44 76 45 70 46 69 47 25 49 57 50 37 51 56 52 38 53 41 54
REMARK SMILES IDX 55 55 74 56 39 57 40 58 54 60 75 61 42 62 26 63 27 64 35 65
REMARK SMILES IDX 28 66 30 67 36 68 29 69 31 70 32 71 33 72 34 73 58 74 59 75
REMARK SMILES IDX 67 76 60 77 62 78 68 79 61 80 63 81 64 82 65 83 66 84 43 85
REMARK SMILES IDX 44 86 52 87 45 88 47 89 53 90 46 91 48 92 49 93 50 94 51 95
REMARK H PARENT 73 48 41 59
REMARK Flexibility Score: inf
ROOT
ATOM      1  C   UNL A   1      33.180  22.727  24.654  1.00  0.00     0.188 C 
ENDROOT
BRANCH   1   2
ATOM      2  O   UNL A   1      33.638  23.970  24.137  1.00  0.00    -0.376 OA
BRANCH   2   3
ATOM      3  C   UNL A   1      33.332  24.299  22.784  1.00  0.00     0.202 C 
BRANCH   3   4
ATOM      4  C   UNL A   1      31.952  24.896  22.443  1.00  0.00     0.261 C 
BRANCH   4   5
ATOM      5  O   UNL A   1      31.968  26.303  22.116  1.00  0.00    -0.463 OA
BRANCH   5   6
ATOM      6  C   UNL A   1      30.972  27.068  22.638  1.00  0.00     0.313 C 
ATOM      7  O   UNL A   1      30.329  27.880  21.979  1.00  0.00    -0.252 OA
BRANCH   6   8
ATOM      8  C   UNL A   1      30.694  26.807  24.132  1.00  0.00     0.129 C 
ATOM      9  C   UNL A   1      29.219  26.480  24.419  1.00  0.00     0.025 C 
BRANCH   8  10
ATOM     10  C   UNL A   1      31.411  27.763  25.100  1.00  0.00     0.002 A 
ATOM     11  C   UNL A   1      31.533  29.124  24.780  1.00  0.00     0.011 A 
ATOM     12  C   UNL A   1      32.119  27.338  26.239  1.00  0.00     0.130 A 
ATOM     13  C   UNL A   1      32.356  29.981  25.524  1.00  0.00     0.047 A 
ATOM     14  C   UNL A   1      32.947  28.196  26.989  1.00  0.00     0.086 A 
ATOM     15  F   UNL A   1      32.060  26.060  26.637  1.00  0.00    -0.207 F 
ATOM     16  C   UNL A   1      33.102  29.518  26.610  1.00  0.00     0.123 A 
BRANCH  16  17
ATOM     17  O   UNL A   1      33.939  30.452  27.132  1.00  0.00    -0.483 OA
BRANCH  17  18
ATOM     18  C   UNL A   1      34.916  30.189  28.109  1.00  0.00     0.239 C 
ATOM     19  C   UNL A   1      36.142  29.481  27.536  1.00  0.00     0.054 C 
ATOM     20  C   UNL A   1      35.524  31.205  29.073  1.00  0.00     0.173 C 
ATOM     21  C   UNL A   1      37.377  30.238  28.005  1.00  0.00     0.012 C 
ATOM     22  C   UNL A   1      36.989  30.938  29.294  1.00  0.00     0.080 C 
ATOM     23  O   UNL A   1      34.909  32.103  29.635  1.00  0.00    -0.296 OA
ENDBRANCH  17  18
ENDBRANCH  16  17
ENDBRANCH   8  10
ENDBRANCH   6   8
ENDBRANCH   5   6
ENDBRANCH   4   5
ENDBRANCH   3   4
ENDBRANCH   2   3
ENDBRANCH   1   2
BRANCH   1  24
ATOM     24  C   UNL A   1      33.787  21.434  24.085  1.00  0.00     0.188 C 
BRANCH  24  25
ATOM     25  O   UNL A   1      34.438  20.618  25.030  1.00  0.00    -0.376 OA
BRANCH  25  26
ATOM     26  C   UNL A   1      35.801  20.858  25.330  1.00  0.00     0.202 C 
BRANCH  26  27
ATOM     27  C   UNL A   1      36.394  22.278  25.445  1.00  0.00     0.261 C 
BRANCH  27  28
ATOM     28  O   UNL A   1      37.764  22.466  25.071  1.00  0.00    -0.460 OA
BRANCH  28  29
ATOM     29  C   UNL A   1      38.709  21.942  25.886  1.00  0.00     0.338 C 
ATOM     30  O   UNL A   1      39.110  20.788  25.896  1.00  0.00    -0.246 OA
BRANCH  29  31
ATOM     31  C   UNL A   1      39.355  23.071  26.592  1.00  0.00     0.060 A 
ATOM     32  C   UNL A   1      38.898  24.373  26.349  1.00  0.00     0.016 A 
ATOM     33  C   UNL A   1      40.375  22.846  27.517  1.00  0.00     0.016 A 
ATOM     34  C   UNL A   1      39.466  25.451  27.028  1.00  0.00     0.010 A 
ATOM     35  C   UNL A   1      40.969  23.932  28.168  1.00  0.00     0.010 A 
ATOM     36  C   UNL A   1      40.535  25.244  27.910  1.00  0.00    -0.014 A 
BRANCH  36  37
ATOM     37  C   UNL A   1      41.326  26.400  28.404  1.00  0.00     0.031 A 
ATOM     38  C   UNL A   1      42.715  26.598  27.860  1.00  0.00     0.074 A 
ATOM     39  C   UNL A   1      40.822  27.285  29.285  1.00  0.00     0.049 A 
ATOM     40  N   UNL A   1      43.594  27.522  28.144  1.00  0.00    -0.248 NA
ATOM     41  C   UNL A   1      43.169  25.623  26.855  1.00  0.00     0.031 C 
ATOM     42  C   UNL A   1      39.463  27.264  29.822  1.00  0.00     0.029 A 
ATOM     43  N   UNL A   1      41.391  28.404  29.844  1.00  0.00    -0.354 N 
ATOM     44  C   UNL A   1      44.729  27.202  27.410  1.00  0.00     0.074 A 
ATOM     45  C   UNL A   1      44.415  26.017  26.642  1.00  0.00     0.031 C 
ATOM     46  C   UNL A   1      39.298  28.333  30.622  1.00  0.00     0.029 A 
ATOM     47  C   UNL A   1      40.553  29.080  30.701  1.00  0.00     0.049 A 
ATOM     48  H   UNL A   1      42.311  28.695  29.650  1.00  0.00     0.167 HD
ATOM     49  C   UNL A   1      45.929  27.826  27.385  1.00  0.00     0.034 A 
ATOM     50  C   UNL A   1      40.780  30.164  31.471  1.00  0.00     0.034 A 
ATOM     51  C   UNL A   1      46.243  29.013  28.134  1.00  0.00     0.049 A 
ATOM     52  C   UNL A   1      42.138  30.824  31.445  1.00  0.00     0.074 A 
ATOM     53  C   UNL A   1      47.427  29.729  28.148  1.00  0.00     0.029 A 
ATOM     54  N   UNL A   1      45.383  29.646  29.015  1.00  0.00    -0.354 N 
ATOM     55  N   UNL A   1      43.174  30.557  30.688  1.00  0.00    -0.248 NA
ATOM     56  C   UNL A   1      42.350  31.948  32.371  1.00  0.00     0.031 C 
ATOM     57  C   UNL A   1      47.298  30.771  29.070  1.00  0.00     0.029 A 
ATOM     58  C   UNL A   1      46.014  30.734  29.592  1.00  0.00     0.049 A 
ATOM     59  H   UNL A   1      44.459  29.363  29.203  1.00  0.00     0.167 HD
ATOM     60  C   UNL A   1      44.148  31.494  31.026  1.00  0.00     0.074 A 
ATOM     61  C   UNL A   1      43.566  32.355  32.034  1.00  0.00     0.031 C 
ATOM     62  C   UNL A   1      45.413  31.619  30.557  1.00  0.00     0.034 A 
BRANCH  49  63
ATOM     63  C   UNL A   1      47.014  27.219  26.534  1.00  0.00     0.023 A 
ATOM     64  C   UNL A   1      47.789  26.150  27.027  1.00  0.00     0.012 A 
ATOM     65  C   UNL A   1      47.228  27.684  25.221  1.00  0.00     0.148 A 
ATOM     66  C   UNL A   1      48.782  25.574  26.235  1.00  0.00     0.002 A 
ATOM     67  C   UNL A   1      48.183  27.071  24.422  1.00  0.00     0.091 A 
ATOM     68  F   UNL A   1      46.496  28.718  24.782  1.00  0.00    -0.205 F 
ATOM     69  C   UNL A   1      48.970  26.026  24.930  1.00  0.00     0.022 A 
BRANCH  67  70
ATOM     70  S   UNL A   1      48.443  27.525  22.704  1.00  0.00     0.127 S 
ATOM     71  O   UNL A   1      48.622  26.216  22.078  1.00  0.00    -0.237 OA
ATOM     72  O   UNL A   1      47.185  28.194  22.371  1.00  0.00    -0.237 OA
ATOM     73  O   UNL A   1      49.615  28.390  22.688  1.00  0.00    -0.744 OA
ENDBRANCH  67  70
ENDBRANCH  49  63
BRANCH  50  74
ATOM     74  C   UNL A   1      39.703  30.704  32.352  1.00  0.00     0.023 A 
ATOM     75  C   UNL A   1      39.330  30.006  33.518  1.00  0.00     0.012 A 
ATOM     76  C   UNL A   1      39.028  31.895  32.022  1.00  0.00     0.148 A 
ATOM     77  C   UNL A   1      38.284  30.469  34.320  1.00  0.00     0.002 A 
ATOM     78  C   UNL A   1      38.032  32.384  32.858  1.00  0.00     0.091 A 
ATOM     79  F   UNL A   1      39.375  32.529  30.893  1.00  0.00    -0.205 F 
ATOM     80  C   UNL A   1      37.643  31.661  33.997  1.00  0.00     0.022 A 
BRANCH  78  81
ATOM     81  S   UNL A   1      37.241  33.971  32.585  1.00  0.00     0.127 S 
ATOM     82  O   UNL A   1      37.260  34.069  31.128  1.00  0.00    -0.237 OA
ATOM     83  O   UNL A   1      35.919  33.753  33.172  1.00  0.00    -0.237 OA
ATOM     84  O   UNL A   1      38.060  34.946  33.293  1.00  0.00    -0.744 OA
ENDBRANCH  78  81
ENDBRANCH  50  74
BRANCH  62  85
ATOM     85  C   UNL A   1      46.257  32.755  31.082  1.00  0.00     0.023 A 
ATOM     86  C   UNL A   1      47.154  32.541  32.146  1.00  0.00     0.012 A 
ATOM     87  C   UNL A   1      46.216  34.020  30.461  1.00  0.00     0.148 A 
ATOM     88  C   UNL A   1      47.969  33.575  32.608  1.00  0.00     0.002 A 
ATOM     89  C   UNL A   1      47.068  35.031  30.891  1.00  0.00     0.091 A 
ATOM     90  F   UNL A   1      45.346  34.211  29.458  1.00  0.00    -0.205 F 
ATOM     91  C   UNL A   1      47.935  34.815  31.973  1.00  0.00     0.022 A 
BRANCH  89  92
ATOM     92  S   UNL A   1      47.167  36.626  30.069  1.00  0.00     0.127 S 
ATOM     93  O   UNL A   1      45.840  37.180  30.335  1.00  0.00    -0.237 OA
ATOM     94  O   UNL A   1      48.257  37.279  30.793  1.00  0.00    -0.237 OA
ATOM     95  O   UNL A   1      47.454  36.341  28.670  1.00  0.00    -0.744 OA
ENDBRANCH  89  92
ENDBRANCH  62  85
ENDBRANCH  36  37
ENDBRANCH  29  31
ENDBRANCH  28  29
ENDBRANCH  27  28
ENDBRANCH  26  27
ENDBRANCH  25  26
ENDBRANCH  24  25
ENDBRANCH   1  24
TORSDOF 23
ENDMDL
