MODEL 1
REMARK VINA RESULT:     -10.4      0.000      0.000
REMARK SMILES C[C@@](NC(=O)CCOC1CC[NH2+]CC1)(C(=O)OCCOCCOCCOC(=O)c1ccc(-c2c3nc(c(-c4cccc(S(=O)(=O)[O-])c4F)c4ccc([nH]4)c(-c4cccc(S(=O)(=O)[O-])c4F)c4nc(c(-c5cccc(S(=O)(=O)[O-])c5F)c5ccc2[nH]5)C=C4)C=C3)cc1)C(F)(F)F
REMARK SMILES IDX 21 1 20 2 19 3 18 4 17 5 15 6 16 7 2 8 1 9 3 10 4 11 5 13
REMARK SMILES IDX 6 14 7 15 8 16 9 17 10 18 14 19 11 20 13 21 12 22 92 25
REMARK SMILES IDX 93 26 94 27 95 28 22 29 23 30 24 31 25 32 26 33 27 34 28 35
REMARK SMILES IDX 29 36 30 37 91 38 31 39 90 40 32 41 33 42 34 43 84 44 35 45
REMARK SMILES IDX 89 46 83 47 85 48 36 49 88 50 82 51 81 52 37 54 69 55 49 56
REMARK SMILES IDX 68 57 50 58 53 59 67 60 86 61 51 62 52 63 66 65 87 66 54 67
REMARK SMILES IDX 38 68 39 69 47 70 40 71 42 72 48 73 41 74 43 75 44 76 45 77
REMARK SMILES IDX 46 78 70 79 71 80 79 81 72 82 74 83 80 84 73 85 75 86 76 87
REMARK SMILES IDX 77 88 78 89 55 90 56 91 64 92 57 93 59 94 65 95 58 96 60 97
REMARK SMILES IDX 61 98 62 99 63 100
REMARK H PARENT 3 12 12 23 12 24 85 53 53 64
REMARK Flexibility Score: inf
ROOT
ATOM      1  C   UNL A   1      33.843  21.980  24.280  1.00  0.00     0.188 C 
ENDROOT
BRANCH   1   2
ATOM      2  O   UNL A   1      32.472  21.643  24.145  1.00  0.00    -0.376 OA
BRANCH   2   3
ATOM      3  C   UNL A   1      31.741  21.455  25.352  1.00  0.00     0.202 C 
BRANCH   3   4
ATOM      4  C   UNL A   1      30.877  22.636  25.812  1.00  0.00     0.261 C 
BRANCH   4   5
ATOM      5  O   UNL A   1      31.189  23.849  25.110  1.00  0.00    -0.461 OA
BRANCH   5   6
ATOM      6  C   UNL A   1      31.408  24.987  25.844  1.00  0.00     0.341 C 
ATOM      7  O   UNL A   1      31.014  25.146  26.985  1.00  0.00    -0.249 OA
BRANCH   6   8
ATOM      8  C   UNL A   1      32.065  26.074  24.983  1.00  0.00     0.231 C 
ATOM      9  C   UNL A   1      31.818  25.899  23.484  1.00  0.00     0.058 C 
BRANCH   8  10
ATOM     10  N   UNL A   1      31.672  27.449  25.469  1.00  0.00    -0.333 N 
ATOM     11  C   UNL A   1      31.672  28.681  24.898  1.00  0.00     0.223 C 
ATOM     12  H   UNL A   1      31.344  27.453  26.398  1.00  0.00     0.164 HD
ATOM     13  O   UNL A   1      31.455  29.658  25.618  1.00  0.00    -0.275 OA
BRANCH  11  14
ATOM     14  C   UNL A   1      31.924  28.864  23.426  1.00  0.00     0.128 C 
BRANCH  14  15
ATOM     15  C   UNL A   1      30.637  29.090  22.647  1.00  0.00     0.170 C 
BRANCH  15  16
ATOM     16  O   UNL A   1      30.132  30.402  22.882  1.00  0.00    -0.377 OA
BRANCH  16  17
ATOM     17  C   UNL A   1      28.712  30.504  23.010  1.00  0.00     0.129 C 
ATOM     18  C   UNL A   1      28.085  30.135  21.672  1.00  0.00     0.093 C 
ATOM     19  C   UNL A   1      28.301  31.927  23.431  1.00  0.00     0.093 C 
ATOM     20  C   UNL A   1      28.325  31.233  20.637  1.00  0.00     0.263 C 
ATOM     21  C   UNL A   1      28.298  32.967  22.300  1.00  0.00     0.263 C 
ATOM     22  N   UNL A   1      27.685  32.476  21.069  1.00  0.00    -0.346 N 
ATOM     23  H   UNL A   1      26.694  32.304  21.234  1.00  0.00     0.346 HD
ATOM     24  H   UNL A   1      27.804  33.179  20.339  1.00  0.00     0.346 HD
ENDBRANCH  16  17
ENDBRANCH  15  16
ENDBRANCH  14  15
ENDBRANCH  11  14
ENDBRANCH   8  10
BRANCH   8  25
ATOM     25  C   UNL A   1      33.590  25.885  25.143  1.00  0.00     0.422 C 
ATOM     26  F   UNL A   1      34.209  25.614  23.974  1.00  0.00    -0.168 F 
ATOM     27  F   UNL A   1      34.131  27.052  25.605  1.00  0.00    -0.168 F 
ATOM     28  F   UNL A   1      33.921  24.940  26.043  1.00  0.00    -0.168 F 
ENDBRANCH   8  25
ENDBRANCH   6   8
ENDBRANCH   5   6
ENDBRANCH   4   5
ENDBRANCH   3   4
ENDBRANCH   2   3
ENDBRANCH   1   2
BRANCH   1  29
ATOM     29  C   UNL A   1      34.397  22.024  25.699  1.00  0.00     0.188 C 
BRANCH  29  30
ATOM     30  O   UNL A   1      35.535  21.236  26.014  1.00  0.00    -0.376 OA
BRANCH  30  31
ATOM     31  C   UNL A   1      36.205  20.672  24.874  1.00  0.00     0.202 C 
BRANCH  31  32
ATOM     32  C   UNL A   1      37.597  20.017  25.089  1.00  0.00     0.261 C 
BRANCH  32  33
ATOM     33  O   UNL A   1      38.741  20.907  25.150  1.00  0.00    -0.460 OA
BRANCH  33  34
ATOM     34  C   UNL A   1      39.627  20.756  26.162  1.00  0.00     0.338 C 
ATOM     35  O   UNL A   1      40.198  19.712  26.448  1.00  0.00    -0.246 OA
BRANCH  34  36
ATOM     36  C   UNL A   1      40.029  22.102  26.696  1.00  0.00     0.060 A 
ATOM     37  C   UNL A   1      39.311  23.225  26.251  1.00  0.00     0.016 A 
ATOM     38  C   UNL A   1      41.012  22.280  27.679  1.00  0.00     0.016 A 
ATOM     39  C   UNL A   1      39.611  24.511  26.726  1.00  0.00     0.010 A 
ATOM     40  C   UNL A   1      41.317  23.572  28.148  1.00  0.00     0.010 A 
ATOM     41  C   UNL A   1      40.649  24.706  27.644  1.00  0.00    -0.014 A 
BRANCH  41  42
ATOM     42  C   UNL A   1      41.173  26.082  27.912  1.00  0.00     0.031 A 
ATOM     43  C   UNL A   1      42.577  26.414  27.457  1.00  0.00     0.074 A 
ATOM     44  C   UNL A   1      40.447  27.044  28.518  1.00  0.00     0.049 A 
ATOM     45  N   UNL A   1      43.274  27.509  27.625  1.00  0.00    -0.248 NA
ATOM     46  C   UNL A   1      43.286  25.362  26.710  1.00  0.00     0.031 C 
ATOM     47  C   UNL A   1      39.069  26.906  28.984  1.00  0.00     0.029 A 
ATOM     48  N   UNL A   1      40.791  28.333  28.870  1.00  0.00    -0.354 N 
ATOM     49  C   UNL A   1      44.513  27.265  27.041  1.00  0.00     0.074 A 
ATOM     50  C   UNL A   1      44.473  25.915  26.520  1.00  0.00     0.031 C 
ATOM     51  C   UNL A   1      38.696  28.051  29.587  1.00  0.00     0.029 A 
ATOM     52  C   UNL A   1      39.815  28.995  29.581  1.00  0.00     0.049 A 
ATOM     53  H   UNL A   1      41.654  28.742  28.633  1.00  0.00     0.167 HD
ATOM     54  C   UNL A   1      45.588  28.082  26.934  1.00  0.00     0.034 A 
ATOM     55  C   UNL A   1      39.827  30.204  30.185  1.00  0.00     0.034 A 
ATOM     56  C   UNL A   1      45.641  29.433  27.426  1.00  0.00     0.049 A 
ATOM     57  C   UNL A   1      41.057  31.081  30.098  1.00  0.00     0.074 A 
ATOM     58  C   UNL A   1      46.681  30.341  27.326  1.00  0.00     0.029 A 
ATOM     59  N   UNL A   1      44.624  30.066  28.120  1.00  0.00    -0.354 N 
ATOM     60  N   UNL A   1      42.185  30.866  29.467  1.00  0.00    -0.248 NA
ATOM     61  C   UNL A   1      41.002  32.383  30.785  1.00  0.00     0.031 C 
ATOM     62  C   UNL A   1      46.309  31.509  27.999  1.00  0.00     0.029 A 
ATOM     63  C   UNL A   1      45.017  31.347  28.470  1.00  0.00     0.049 A 
ATOM     64  H   UNL A   1      43.751  29.665  28.334  1.00  0.00     0.167 HD
ATOM     65  C   UNL A   1      42.951  32.018  29.643  1.00  0.00     0.074 A 
ATOM     66  C   UNL A   1      42.154  32.935  30.428  1.00  0.00     0.031 C 
ATOM     67  C   UNL A   1      44.204  32.285  29.200  1.00  0.00     0.034 A 
BRANCH  54  68
ATOM     68  C   UNL A   1      46.815  27.537  26.250  1.00  0.00     0.023 A 
ATOM     69  C   UNL A   1      47.668  26.649  26.936  1.00  0.00     0.012 A 
ATOM     70  C   UNL A   1      47.091  27.861  24.906  1.00  0.00     0.148 A 
ATOM     71  C   UNL A   1      48.796  26.121  26.308  1.00  0.00     0.002 A 
ATOM     72  C   UNL A   1      48.189  27.294  24.272  1.00  0.00     0.091 A 
ATOM     73  F   UNL A   1      46.277  28.720  24.277  1.00  0.00    -0.205 F 
ATOM     74  C   UNL A   1      49.050  26.436  24.975  1.00  0.00     0.022 A 
BRANCH  72  75
ATOM     75  S   UNL A   1      48.555  27.569  22.536  1.00  0.00     0.127 S 
ATOM     76  O   UNL A   1      49.811  28.314  22.616  1.00  0.00    -0.237 OA
ATOM     77  O   UNL A   1      48.687  26.203  22.030  1.00  0.00    -0.237 OA
ATOM     78  O   UNL A   1      47.424  28.311  21.998  1.00  0.00    -0.744 OA
ENDBRANCH  72  75
ENDBRANCH  54  68
BRANCH  55  79
ATOM     79  C   UNL A   1      38.630  30.684  30.941  1.00  0.00     0.023 A 
ATOM     80  C   UNL A   1      38.523  30.428  32.323  1.00  0.00     0.012 A 
ATOM     81  C   UNL A   1      37.581  31.363  30.289  1.00  0.00     0.148 A 
ATOM     82  C   UNL A   1      37.380  30.805  33.032  1.00  0.00     0.002 A 
ATOM     83  C   UNL A   1      36.473  31.786  31.012  1.00  0.00     0.091 A 
ATOM     84  F   UNL A   1      37.688  31.574  28.970  1.00  0.00    -0.205 F 
ATOM     85  C   UNL A   1      36.361  31.493  32.380  1.00  0.00     0.022 A 
BRANCH  83  86
ATOM     86  S   UNL A   1      35.161  32.772  30.282  1.00  0.00     0.127 S 
ATOM     87  O   UNL A   1      34.655  31.876  29.245  1.00  0.00    -0.237 OA
ATOM     88  O   UNL A   1      34.263  32.966  31.419  1.00  0.00    -0.237 OA
ATOM     89  O   UNL A   1      35.801  33.989  29.802  1.00  0.00    -0.744 OA
ENDBRANCH  83  86
ENDBRANCH  55  79
BRANCH  67  90
ATOM     90  C   UNL A   1      44.792  33.647  29.485  1.00  0.00     0.023 A 
ATOM     91  C   UNL A   1      45.540  33.869  30.658  1.00  0.00     0.012 A 
ATOM     92  C   UNL A   1      44.672  34.686  28.538  1.00  0.00     0.148 A 
ATOM     93  C   UNL A   1      46.129  35.111  30.900  1.00  0.00     0.002 A 
ATOM     94  C   UNL A   1      45.307  35.904  28.761  1.00  0.00     0.091 A 
ATOM     95  F   UNL A   1      43.946  34.463  27.434  1.00  0.00    -0.205 F 
ATOM     96  C   UNL A   1      46.023  36.122  29.948  1.00  0.00     0.022 A 
BRANCH  94  97
ATOM     97  S   UNL A   1      45.310  37.229  27.548  1.00  0.00     0.127 S 
ATOM     98  O   UNL A   1      45.861  38.341  28.322  1.00  0.00    -0.237 OA
ATOM     99  O   UNL A   1      46.204  36.701  26.516  1.00  0.00    -0.237 OA
ATOM    100  O   UNL A   1      43.926  37.392  27.124  1.00  0.00    -0.744 OA
ENDBRANCH  94  97
ENDBRANCH  67  90
ENDBRANCH  41  42
ENDBRANCH  34  36
ENDBRANCH  33  34
ENDBRANCH  32  33
ENDBRANCH  31  32
ENDBRANCH  30  31
ENDBRANCH  29  30
ENDBRANCH   1  29
TORSDOF 26
ENDMDL
MODEL 2
REMARK VINA RESULT:     -10.2      5.283      8.857
REMARK SMILES C[C@@](NC(=O)CCOC1CC[NH2+]CC1)(C(=O)OCCOCCOCCOC(=O)c1ccc(-c2c3nc(c(-c4cccc(S(=O)(=O)[O-])c4F)c4ccc([nH]4)c(-c4cccc(S(=O)(=O)[O-])c4F)c4nc(c(-c5cccc(S(=O)(=O)[O-])c5F)c5ccc2[nH]5)C=C4)C=C3)cc1)C(F)(F)F
REMARK SMILES IDX 21 1 20 2 19 3 18 4 17 5 15 6 16 7 2 8 1 9 3 10 4 11 5 13
REMARK SMILES IDX 6 14 7 15 8 16 9 17 10 18 14 19 11 20 13 21 12 22 92 25
REMARK SMILES IDX 93 26 94 27 95 28 22 29 23 30 24 31 25 32 26 33 27 34 28 35
REMARK SMILES IDX 29 36 30 37 91 38 31 39 90 40 32 41 33 42 34 43 84 44 35 45
REMARK SMILES IDX 89 46 83 47 85 48 36 49 88 50 82 51 81 52 37 54 69 55 49 56
REMARK SMILES IDX 68 57 50 58 53 59 67 60 86 61 51 62 52 63 66 65 87 66 54 67
REMARK SMILES IDX 38 68 39 69 47 70 40 71 42 72 48 73 41 74 43 75 44 76 45 77
REMARK SMILES IDX 46 78 70 79 71 80 79 81 72 82 74 83 80 84 73 85 75 86 76 87
REMARK SMILES IDX 77 88 78 89 55 90 56 91 64 92 57 93 59 94 65 95 58 96 60 97
REMARK SMILES IDX 61 98 62 99 63 100
REMARK H PARENT 3 12 12 23 12 24 85 53 53 64
REMARK Flexibility Score: inf
ROOT
ATOM      1  C   UNL A   1      32.736  28.687  27.595  1.00  0.00     0.188 C 
ENDROOT
BRANCH   1   2
ATOM      2  O   UNL A   1      31.438  28.195  27.301  1.00  0.00    -0.376 OA
BRANCH   2   3
ATOM      3  C   UNL A   1      31.355  26.851  26.841  1.00  0.00     0.202 C 
BRANCH   3   4
ATOM      4  C   UNL A   1      30.768  26.651  25.438  1.00  0.00     0.261 C 
BRANCH   4   5
ATOM      5  O   UNL A   1      31.263  27.613  24.494  1.00  0.00    -0.461 OA
BRANCH   5   6
ATOM      6  C   UNL A   1      31.508  27.198  23.209  1.00  0.00     0.341 C 
ATOM      7  O   UNL A   1      30.635  26.975  22.391  1.00  0.00    -0.249 OA
BRANCH   6   8
ATOM      8  C   UNL A   1      32.999  26.905  23.005  1.00  0.00     0.231 C 
ATOM      9  C   UNL A   1      33.750  26.620  24.307  1.00  0.00     0.058 C 
BRANCH   8  10
ATOM     10  N   UNL A   1      33.191  25.807  21.985  1.00  0.00    -0.333 N 
ATOM     11  C   UNL A   1      33.002  24.463  22.007  1.00  0.00     0.223 C 
ATOM     12  H   UNL A   1      33.523  26.137  21.118  1.00  0.00     0.164 HD
ATOM     13  O   UNL A   1      33.422  23.798  21.058  1.00  0.00    -0.275 OA
BRANCH  11  14
ATOM     14  C   UNL A   1      32.296  23.787  23.152  1.00  0.00     0.128 C 
BRANCH  14  15
ATOM     15  C   UNL A   1      33.237  22.921  23.975  1.00  0.00     0.170 C 
BRANCH  15  16
ATOM     16  O   UNL A   1      32.874  21.546  23.870  1.00  0.00    -0.377 OA
BRANCH  16  17
ATOM     17  C   UNL A   1      32.930  20.797  25.087  1.00  0.00     0.129 C 
ATOM     18  C   UNL A   1      34.286  21.041  25.734  1.00  0.00     0.093 C 
ATOM     19  C   UNL A   1      32.716  19.297  24.816  1.00  0.00     0.093 C 
ATOM     20  C   UNL A   1      35.396  20.338  24.954  1.00  0.00     0.263 C 
ATOM     21  C   UNL A   1      33.943  18.550  24.271  1.00  0.00     0.263 C 
ATOM     22  N   UNL A   1      35.180  18.891  24.969  1.00  0.00    -0.346 N 
ATOM     23  H   UNL A   1      35.119  18.571  25.935  1.00  0.00     0.346 HD
ATOM     24  H   UNL A   1      35.960  18.436  24.496  1.00  0.00     0.346 HD
ENDBRANCH  16  17
ENDBRANCH  15  16
ENDBRANCH  14  15
ENDBRANCH  11  14
ENDBRANCH   8  10
BRANCH   8  25
ATOM     25  C   UNL A   1      33.628  28.215  22.480  1.00  0.00     0.422 C 
ATOM     26  F   UNL A   1      32.729  29.215  22.361  1.00  0.00    -0.168 F 
ATOM     27  F   UNL A   1      34.564  28.642  23.378  1.00  0.00    -0.168 F 
ATOM     28  F   UNL A   1      34.275  28.066  21.309  1.00  0.00    -0.168 F 
ENDBRANCH   8  25
ENDBRANCH   6   8
ENDBRANCH   5   6
ENDBRANCH   4   5
ENDBRANCH   3   4
ENDBRANCH   2   3
ENDBRANCH   1   2
BRANCH   1  29
ATOM     29  C   UNL A   1      33.406  29.526  26.513  1.00  0.00     0.188 C 
BRANCH  29  30
ATOM     30  O   UNL A   1      32.616  30.449  25.777  1.00  0.00    -0.376 OA
BRANCH  30  31
ATOM     31  C   UNL A   1      31.540  31.043  26.522  1.00  0.00     0.202 C 
BRANCH  31  32
ATOM     32  C   UNL A   1      31.632  32.554  26.868  1.00  0.00     0.261 C 
BRANCH  32  33
ATOM     33  O   UNL A   1      32.954  33.150  26.867  1.00  0.00    -0.460 OA
BRANCH  33  34
ATOM     34  C   UNL A   1      33.372  33.804  27.976  1.00  0.00     0.338 C 
ATOM     35  O   UNL A   1      32.709  34.621  28.602  1.00  0.00    -0.246 OA
BRANCH  34  36
ATOM     36  C   UNL A   1      34.637  33.181  28.493  1.00  0.00     0.060 A 
ATOM     37  C   UNL A   1      34.545  31.914  29.094  1.00  0.00     0.016 A 
ATOM     38  C   UNL A   1      35.905  33.752  28.321  1.00  0.00     0.016 A 
ATOM     39  C   UNL A   1      35.687  31.257  29.578  1.00  0.00     0.010 A 
ATOM     40  C   UNL A   1      37.049  33.095  28.814  1.00  0.00     0.010 A 
ATOM     41  C   UNL A   1      36.947  31.860  29.486  1.00  0.00    -0.014 A 
BRANCH  41  42
ATOM     42  C   UNL A   1      38.103  31.318  30.266  1.00  0.00     0.031 A 
ATOM     43  C   UNL A   1      38.956  30.244  29.627  1.00  0.00     0.074 A 
ATOM     44  C   UNL A   1      38.432  31.755  31.499  1.00  0.00     0.049 A 
ATOM     45  N   UNL A   1      39.969  29.577  30.119  1.00  0.00    -0.248 NA
ATOM     46  C   UNL A   1      38.615  29.879  28.243  1.00  0.00     0.031 C 
ATOM     47  C   UNL A   1      37.743  32.806  32.243  1.00  0.00     0.029 A 
ATOM     48  N   UNL A   1      39.429  31.338  32.357  1.00  0.00    -0.354 N 
ATOM     49  C   UNL A   1      40.361  28.688  29.123  1.00  0.00     0.074 A 
ATOM     50  C   UNL A   1      39.471  28.899  28.000  1.00  0.00     0.031 C 
ATOM     51  C   UNL A   1      38.316  32.931  33.455  1.00  0.00     0.029 A 
ATOM     52  C   UNL A   1      39.393  31.948  33.591  1.00  0.00     0.049 A 
ATOM     53  H   UNL A   1      40.105  30.667  32.109  1.00  0.00     0.167 HD
ATOM     54  C   UNL A   1      41.369  27.785  29.126  1.00  0.00     0.034 A 
ATOM     55  C   UNL A   1      40.118  31.724  34.710  1.00  0.00     0.034 A 
ATOM     56  C   UNL A   1      42.276  27.575  30.222  1.00  0.00     0.049 A 
ATOM     57  C   UNL A   1      41.206  30.673  34.708  1.00  0.00     0.074 A 
ATOM     58  C   UNL A   1      43.349  26.702  30.292  1.00  0.00     0.029 A 
ATOM     59  N   UNL A   1      42.214  28.228  31.441  1.00  0.00    -0.354 N 
ATOM     60  N   UNL A   1      41.616  29.906  33.729  1.00  0.00    -0.248 NA
ATOM     61  C   UNL A   1      41.951  30.478  35.965  1.00  0.00     0.031 C 
ATOM     62  C   UNL A   1      43.909  26.797  31.570  1.00  0.00     0.029 A 
ATOM     63  C   UNL A   1      43.218  27.767  32.277  1.00  0.00     0.049 A 
ATOM     64  H   UNL A   1      41.553  28.919  31.679  1.00  0.00     0.167 HD
ATOM     65  C   UNL A   1      42.690  29.175  34.235  1.00  0.00     0.074 A 
ATOM     66  C   UNL A   1      42.877  29.600  35.605  1.00  0.00     0.031 C 
ATOM     67  C   UNL A   1      43.445  28.231  33.621  1.00  0.00     0.034 A 
BRANCH  54  68
ATOM     68  C   UNL A   1      41.553  26.939  27.892  1.00  0.00     0.023 A 
ATOM     69  C   UNL A   1      42.187  27.480  26.755  1.00  0.00     0.012 A 
ATOM     70  C   UNL A   1      41.148  25.590  27.882  1.00  0.00     0.148 A 
ATOM     71  C   UNL A   1      42.381  26.702  25.614  1.00  0.00     0.002 A 
ATOM     72  C   UNL A   1      41.388  24.807  26.759  1.00  0.00     0.091 A 
ATOM     73  F   UNL A   1      40.532  25.099  28.967  1.00  0.00    -0.205 F 
ATOM     74  C   UNL A   1      41.991  25.364  25.620  1.00  0.00     0.022 A 
BRANCH  72  75
ATOM     75  S   UNL A   1      41.000  23.055  26.698  1.00  0.00     0.127 S 
ATOM     76  O   UNL A   1      39.621  23.077  26.210  1.00  0.00    -0.237 OA
ATOM     77  O   UNL A   1      41.981  22.557  25.734  1.00  0.00    -0.237 OA
ATOM     78  O   UNL A   1      41.171  22.555  28.055  1.00  0.00    -0.744 OA
ENDBRANCH  72  75
ENDBRANCH  54  68
BRANCH  55  79
ATOM     79  C   UNL A   1      39.852  32.510  35.953  1.00  0.00     0.023 A 
ATOM     80  C   UNL A   1      40.615  33.661  36.234  1.00  0.00     0.012 A 
ATOM     81  C   UNL A   1      38.869  32.099  36.877  1.00  0.00     0.148 A 
ATOM     82  C   UNL A   1      40.430  34.367  37.425  1.00  0.00     0.002 A 
ATOM     83  C   UNL A   1      38.651  32.839  38.032  1.00  0.00     0.091 A 
ATOM     84  F   UNL A   1      38.173  30.987  36.607  1.00  0.00    -0.205 F 
ATOM     85  C   UNL A   1      39.442  33.963  38.318  1.00  0.00     0.022 A 
BRANCH  83  86
ATOM     86  S   UNL A   1      37.331  32.459  39.189  1.00  0.00     0.127 S 
ATOM     87  O   UNL A   1      37.714  31.128  39.654  1.00  0.00    -0.237 OA
ATOM     88  O   UNL A   1      37.482  33.524  40.179  1.00  0.00    -0.237 OA
ATOM     89  O   UNL A   1      36.098  32.523  38.416  1.00  0.00    -0.744 OA
ENDBRANCH  83  86
ENDBRANCH  55  79
BRANCH  67  90
ATOM     90  C   UNL A   1      44.597  27.623  34.385  1.00  0.00     0.023 A 
ATOM     91  C   UNL A   1      45.818  28.315  34.505  1.00  0.00     0.012 A 
ATOM     92  C   UNL A   1      44.433  26.395  35.062  1.00  0.00     0.148 A 
ATOM     93  C   UNL A   1      46.867  27.780  35.255  1.00  0.00     0.002 A 
ATOM     94  C   UNL A   1      45.463  25.895  35.851  1.00  0.00     0.091 A 
ATOM     95  F   UNL A   1      43.270  25.743  34.927  1.00  0.00    -0.205 F 
ATOM     96  C   UNL A   1      46.686  26.579  35.936  1.00  0.00     0.022 A 
BRANCH  94  97
ATOM     97  S   UNL A   1      45.287  24.407  36.843  1.00  0.00     0.127 S 
ATOM     98  O   UNL A   1      46.637  23.850  36.788  1.00  0.00    -0.237 OA
ATOM     99  O   UNL A   1      44.904  24.950  38.148  1.00  0.00    -0.237 OA
ATOM    100  O   UNL A   1      44.256  23.608  36.194  1.00  0.00    -0.744 OA
ENDBRANCH  94  97
ENDBRANCH  67  90
ENDBRANCH  41  42
ENDBRANCH  34  36
ENDBRANCH  33  34
ENDBRANCH  32  33
ENDBRANCH  31  32
ENDBRANCH  30  31
ENDBRANCH  29  30
ENDBRANCH   1  29
TORSDOF 26
ENDMDL
MODEL 3
REMARK VINA RESULT:     -10.1      4.990     10.023
REMARK SMILES C[C@@](NC(=O)CCOC1CC[NH2+]CC1)(C(=O)OCCOCCOCCOC(=O)c1ccc(-c2c3nc(c(-c4cccc(S(=O)(=O)[O-])c4F)c4ccc([nH]4)c(-c4cccc(S(=O)(=O)[O-])c4F)c4nc(c(-c5cccc(S(=O)(=O)[O-])c5F)c5ccc2[nH]5)C=C4)C=C3)cc1)C(F)(F)F
REMARK SMILES IDX 21 1 20 2 19 3 18 4 17 5 15 6 16 7 2 8 1 9 3 10 4 11 5 13
REMARK SMILES IDX 6 14 7 15 8 16 9 17 10 18 14 19 11 20 13 21 12 22 92 25
REMARK SMILES IDX 93 26 94 27 95 28 22 29 23 30 24 31 25 32 26 33 27 34 28 35
REMARK SMILES IDX 29 36 30 37 91 38 31 39 90 40 32 41 33 42 34 43 84 44 35 45
REMARK SMILES IDX 89 46 83 47 85 48 36 49 88 50 82 51 81 52 37 54 69 55 49 56
REMARK SMILES IDX 68 57 50 58 53 59 67 60 86 61 51 62 52 63 66 65 87 66 54 67
REMARK SMILES IDX 38 68 39 69 47 70 40 71 42 72 48 73 41 74 43 75 44 76 45 77
REMARK SMILES IDX 46 78 70 79 71 80 79 81 72 82 74 83 80 84 73 85 75 86 76 87
REMARK SMILES IDX 77 88 78 89 55 90 56 91 64 92 57 93 59 94 65 95 58 96 60 97
REMARK SMILES IDX 61 98 62 99 63 100
REMARK H PARENT 3 12 12 23 12 24 85 53 53 64
REMARK Flexibility Score: inf
ROOT
ATOM      1  C   UNL A   1      31.397  27.711  27.306  1.00  0.00     0.188 C 
ENDROOT
BRANCH   1   2
ATOM      2  O   UNL A   1      31.616  26.343  27.000  1.00  0.00    -0.376 OA
BRANCH   2   3
ATOM      3  C   UNL A   1      30.540  25.650  26.377  1.00  0.00     0.202 C 
BRANCH   3   4
ATOM      4  C   UNL A   1      30.635  24.119  26.369  1.00  0.00     0.261 C 
BRANCH   4   5
ATOM      5  O   UNL A   1      31.618  23.637  25.440  1.00  0.00    -0.461 OA
BRANCH   5   6
ATOM      6  C   UNL A   1      32.759  23.061  25.940  1.00  0.00     0.341 C 
ATOM      7  O   UNL A   1      33.307  23.421  26.966  1.00  0.00    -0.249 OA
BRANCH   6   8
ATOM      8  C   UNL A   1      33.327  22.030  24.957  1.00  0.00     0.231 C 
ATOM      9  C   UNL A   1      32.282  21.465  23.993  1.00  0.00     0.058 C 
BRANCH   8  10
ATOM     10  N   UNL A   1      34.528  22.589  24.233  1.00  0.00    -0.333 N 
ATOM     11  C   UNL A   1      34.683  23.503  23.241  1.00  0.00     0.223 C 
ATOM     12  H   UNL A   1      35.382  22.211  24.548  1.00  0.00     0.164 HD
ATOM     13  O   UNL A   1      35.798  23.624  22.727  1.00  0.00    -0.275 OA
BRANCH  11  14
ATOM     14  C   UNL A   1      33.536  24.356  22.772  1.00  0.00     0.128 C 
BRANCH  14  15
ATOM     15  C   UNL A   1      33.538  25.730  23.424  1.00  0.00     0.170 C 
BRANCH  15  16
ATOM     16  O   UNL A   1      32.313  26.411  23.164  1.00  0.00    -0.377 OA
BRANCH  16  17
ATOM     17  C   UNL A   1      32.138  27.653  23.850  1.00  0.00     0.129 C 
ATOM     18  C   UNL A   1      30.697  28.105  23.656  1.00  0.00     0.093 C 
ATOM     19  C   UNL A   1      33.119  28.714  23.319  1.00  0.00     0.093 C 
ATOM     20  C   UNL A   1      30.462  28.573  22.221  1.00  0.00     0.263 C 
ATOM     21  C   UNL A   1      32.718  29.365  21.986  1.00  0.00     0.263 C 
ATOM     22  N   UNL A   1      31.306  29.732  21.928  1.00  0.00    -0.346 N 
ATOM     23  H   UNL A   1      31.121  30.464  22.613  1.00  0.00     0.346 HD
ATOM     24  H   UNL A   1      31.092  30.066  20.988  1.00  0.00     0.346 HD
ENDBRANCH  16  17
ENDBRANCH  15  16
ENDBRANCH  14  15
ENDBRANCH  11  14
ENDBRANCH   8  10
BRANCH   8  25
ATOM     25  C   UNL A   1      33.755  20.814  25.809  1.00  0.00     0.422 C 
ATOM     26  F   UNL A   1      33.858  19.679  25.086  1.00  0.00    -0.168 F 
ATOM     27  F   UNL A   1      34.996  21.056  26.326  1.00  0.00    -0.168 F 
ATOM     28  F   UNL A   1      32.950  20.589  26.864  1.00  0.00    -0.168 F 
ENDBRANCH   8  25
ENDBRANCH   6   8
ENDBRANCH   5   6
ENDBRANCH   4   5
ENDBRANCH   3   4
ENDBRANCH   2   3
ENDBRANCH   1   2
BRANCH   1  29
ATOM     29  C   UNL A   1      32.583  28.649  27.118  1.00  0.00     0.188 C 
BRANCH  29  30
ATOM     30  O   UNL A   1      32.440  30.014  27.482  1.00  0.00    -0.376 OA
BRANCH  30  31
ATOM     31  C   UNL A   1      31.714  30.813  26.533  1.00  0.00     0.202 C 
BRANCH  31  32
ATOM     32  C   UNL A   1      31.622  32.344  26.779  1.00  0.00     0.261 C 
BRANCH  32  33
ATOM     33  O   UNL A   1      32.862  33.094  26.726  1.00  0.00    -0.460 OA
BRANCH  33  34
ATOM     34  C   UNL A   1      33.340  33.638  27.870  1.00  0.00     0.338 C 
ATOM     35  O   UNL A   1      32.733  34.428  28.582  1.00  0.00    -0.246 OA
BRANCH  34  36
ATOM     36  C   UNL A   1      34.591  32.921  28.295  1.00  0.00     0.060 A 
ATOM     37  C   UNL A   1      34.476  31.573  28.674  1.00  0.00     0.016 A 
ATOM     38  C   UNL A   1      35.867  33.498  28.240  1.00  0.00     0.016 A 
ATOM     39  C   UNL A   1      35.604  30.830  29.058  1.00  0.00     0.010 A 
ATOM     40  C   UNL A   1      36.996  32.753  28.633  1.00  0.00     0.010 A 
ATOM     41  C   UNL A   1      36.871  31.425  29.087  1.00  0.00    -0.014 A 
BRANCH  41  42
ATOM     42  C   UNL A   1      38.009  30.746  29.782  1.00  0.00     0.031 A 
ATOM     43  C   UNL A   1      38.300  31.125  31.217  1.00  0.00     0.074 A 
ATOM     44  C   UNL A   1      38.772  29.798  29.198  1.00  0.00     0.049 A 
ATOM     45  N   UNL A   1      39.262  30.726  32.010  1.00  0.00    -0.248 NA
ATOM     46  C   UNL A   1      37.375  32.088  31.837  1.00  0.00     0.031 C 
ATOM     47  C   UNL A   1      38.605  29.288  27.839  1.00  0.00     0.029 A 
ATOM     48  N   UNL A   1      39.867  29.113  29.680  1.00  0.00    -0.354 N 
ATOM     49  C   UNL A   1      39.082  31.414  33.205  1.00  0.00     0.074 A 
ATOM     50  C   UNL A   1      37.921  32.261  33.030  1.00  0.00     0.031 C 
ATOM     51  C   UNL A   1      39.580  28.395  27.586  1.00  0.00     0.029 A 
ATOM     52  C   UNL A   1      40.463  28.290  28.749  1.00  0.00     0.049 A 
ATOM     53  H   UNL A   1      40.193  29.202  30.604  1.00  0.00     0.167 HD
ATOM     54  C   UNL A   1      39.801  31.349  34.351  1.00  0.00     0.034 A 
ATOM     55  C   UNL A   1      41.600  27.562  28.812  1.00  0.00     0.034 A 
ATOM     56  C   UNL A   1      40.945  30.500  34.552  1.00  0.00     0.049 A 
ATOM     57  C   UNL A   1      42.418  27.545  30.083  1.00  0.00     0.074 A 
ATOM     58  C   UNL A   1      41.709  30.349  35.696  1.00  0.00     0.029 A 
ATOM     59  N   UNL A   1      41.497  29.672  33.590  1.00  0.00    -0.354 N 
ATOM     60  N   UNL A   1      42.182  28.134  31.230  1.00  0.00    -0.248 NA
ATOM     61  C   UNL A   1      43.649  26.735  30.077  1.00  0.00     0.031 C 
ATOM     62  C   UNL A   1      42.751  29.460  35.412  1.00  0.00     0.029 A 
ATOM     63  C   UNL A   1      42.604  29.019  34.108  1.00  0.00     0.049 A 
ATOM     64  H   UNL A   1      41.155  29.563  32.673  1.00  0.00     0.167 HD
ATOM     65  C   UNL A   1      43.203  27.731  32.089  1.00  0.00     0.074 A 
ATOM     66  C   UNL A   1      44.055  26.837  31.336  1.00  0.00     0.031 C 
ATOM     67  C   UNL A   1      43.419  28.081  33.381  1.00  0.00     0.034 A 
BRANCH  54  68
ATOM     68  C   UNL A   1      39.373  32.231  35.496  1.00  0.00     0.023 A 
ATOM     69  C   UNL A   1      38.492  31.733  36.477  1.00  0.00     0.012 A 
ATOM     70  C   UNL A   1      39.890  33.535  35.628  1.00  0.00     0.148 A 
ATOM     71  C   UNL A   1      38.104  32.531  37.552  1.00  0.00     0.002 A 
ATOM     72  C   UNL A   1      39.536  34.308  36.727  1.00  0.00     0.091 A 
ATOM     73  F   UNL A   1      40.712  33.996  34.675  1.00  0.00    -0.205 F 
ATOM     74  C   UNL A   1      38.633  33.813  37.682  1.00  0.00     0.022 A 
BRANCH  72  75
ATOM     75  S   UNL A   1      40.227  35.937  37.029  1.00  0.00     0.127 S 
ATOM     76  O   UNL A   1      41.662  35.660  36.985  1.00  0.00    -0.237 OA
ATOM     77  O   UNL A   1      39.717  36.702  35.892  1.00  0.00    -0.237 OA
ATOM     78  O   UNL A   1      39.715  36.359  38.326  1.00  0.00    -0.744 OA
ENDBRANCH  72  75
ENDBRANCH  54  68
BRANCH  55  79
ATOM     79  C   UNL A   1      42.057  26.771  27.628  1.00  0.00     0.023 A 
ATOM     80  C   UNL A   1      42.706  27.419  26.558  1.00  0.00     0.012 A 
ATOM     81  C   UNL A   1      41.819  25.384  27.544  1.00  0.00     0.148 A 
ATOM     82  C   UNL A   1      43.076  26.710  25.413  1.00  0.00     0.002 A 
ATOM     83  C   UNL A   1      42.241  24.675  26.427  1.00  0.00     0.091 A 
ATOM     84  F   UNL A   1      41.176  24.790  28.558  1.00  0.00    -0.205 F 
ATOM     85  C   UNL A   1      42.854  25.338  25.352  1.00  0.00     0.022 A 
BRANCH  83  86
ATOM     86  S   UNL A   1      42.095  22.888  26.304  1.00  0.00     0.127 S 
ATOM     87  O   UNL A   1      40.647  22.703  26.348  1.00  0.00    -0.237 OA
ATOM     88  O   UNL A   1      42.710  22.626  25.004  1.00  0.00    -0.237 OA
ATOM     89  O   UNL A   1      42.832  22.353  27.441  1.00  0.00    -0.744 OA
ENDBRANCH  83  86
ENDBRANCH  55  79
BRANCH  67  90
ATOM     90  C   UNL A   1      44.583  27.454  34.110  1.00  0.00     0.023 A 
ATOM     91  C   UNL A   1      45.837  28.096  34.138  1.00  0.00     0.012 A 
ATOM     92  C   UNL A   1      44.404  26.262  34.845  1.00  0.00     0.148 A 
ATOM     93  C   UNL A   1      46.901  27.546  34.854  1.00  0.00     0.002 A 
ATOM     94  C   UNL A   1      45.454  25.748  35.600  1.00  0.00     0.091 A 
ATOM     95  F   UNL A   1      43.210  25.656  34.798  1.00  0.00    -0.205 F 
ATOM     96  C   UNL A   1      46.707  26.381  35.594  1.00  0.00     0.022 A 
BRANCH  94  97
ATOM     97  S   UNL A   1      45.269  24.311  36.661  1.00  0.00     0.127 S 
ATOM     98  O   UNL A   1      46.636  24.117  37.142  1.00  0.00    -0.237 OA
ATOM     99  O   UNL A   1      44.329  24.794  37.675  1.00  0.00    -0.237 OA
ATOM    100  O   UNL A   1      44.750  23.246  35.813  1.00  0.00    -0.744 OA
ENDBRANCH  94  97
ENDBRANCH  67  90
ENDBRANCH  41  42
ENDBRANCH  34  36
ENDBRANCH  33  34
ENDBRANCH  32  33
ENDBRANCH  31  32
ENDBRANCH  30  31
ENDBRANCH  29  30
ENDBRANCH   1  29
TORSDOF 26
ENDMDL
