MODEL 1
REMARK VINA RESULT:      -9.6      0.000      0.000
REMARK SMILES CSc1nc(O)nc(C)c1C(=O)N1C[C@@H](O)C[C@@H]1C(=O)OCCOCCOCCOC(=O)c1ccc(-c2c3nc(c(-c4cccc(S(=O)(=O)[O-])c4F)c4ccc([nH]4)c(-c4cccc(S(=O)(=O)[O-])c4F)c4nc(c(-c5cccc(S(=O)(=O)[O-])c5F)c5ccc2[nH]5)C=C4)C=C3)cc1
REMARK SMILES IDX 25 1 24 2 23 3 22 4 21 5 19 6 20 7 18 8 13 9 14 10 15 11
REMARK SMILES IDX 17 12 11 13 12 14 10 15 3 16 4 17 5 18 8 19 7 20 9 21 2 22
REMARK SMILES IDX 1 23 6 24 16 26 26 28 27 29 28 30 29 31 30 32 31 33 32 34
REMARK SMILES IDX 33 35 34 36 95 37 35 38 94 39 36 40 37 41 38 42 88 43 39 44
REMARK SMILES IDX 93 45 87 46 89 47 40 48 92 49 86 50 85 51 41 53 73 54 53 55
REMARK SMILES IDX 72 56 54 57 57 58 71 59 90 60 55 61 56 62 70 64 91 65 58 66
REMARK SMILES IDX 42 67 43 68 51 69 44 70 46 71 52 72 45 73 47 74 48 75 49 76
REMARK SMILES IDX 50 77 74 78 75 79 83 80 76 81 78 82 84 83 77 84 79 85 80 86
REMARK SMILES IDX 81 87 82 88 59 89 60 90 68 91 61 92 63 93 69 94 62 95 64 96
REMARK SMILES IDX 65 97 66 98 67 99
REMARK H PARENT 6 25 16 27 89 52 57 63
REMARK Flexibility Score: inf
ROOT
ATOM      1  C   UNL A   1      33.901  31.445  27.744  1.00  0.00     0.188 C 
ENDROOT
BRANCH   1   2
ATOM      2  O   UNL A   1      32.988  30.408  27.412  1.00  0.00    -0.376 OA
BRANCH   2   3
ATOM      3  C   UNL A   1      31.957  30.685  26.484  1.00  0.00     0.202 C 
BRANCH   3   4
ATOM      4  C   UNL A   1      32.135  30.086  25.090  1.00  0.00     0.261 C 
BRANCH   4   5
ATOM      5  O   UNL A   1      30.936  29.496  24.526  1.00  0.00    -0.462 OA
BRANCH   5   6
ATOM      6  C   UNL A   1      31.127  28.778  23.387  1.00  0.00     0.329 C 
ATOM      7  O   UNL A   1      30.729  29.176  22.295  1.00  0.00    -0.250 OA
BRANCH   6   8
ATOM      8  C   UNL A   1      31.702  27.340  23.606  1.00  0.00     0.198 C 
ATOM      9  N   UNL A   1      33.121  27.012  24.058  1.00  0.00    -0.322 N 
ATOM     10  C   UNL A   1      33.664  26.123  23.049  1.00  0.00     0.152 C 
ATOM     11  C   UNL A   1      32.990  26.487  21.752  1.00  0.00     0.136 C 
ATOM     12  C   UNL A   1      31.564  26.625  22.225  1.00  0.00     0.071 C 
BRANCH   9  13
ATOM     13  C   UNL A   1      33.450  26.692  25.402  1.00  0.00     0.259 C 
ATOM     14  O   UNL A   1      34.068  27.515  26.076  1.00  0.00    -0.269 OA
BRANCH  13  15
ATOM     15  C   UNL A   1      33.211  25.298  25.990  1.00  0.00     0.093 A 
ATOM     16  C   UNL A   1      34.096  24.220  26.132  1.00  0.00     0.116 A 
ATOM     17  N   UNL A   1      33.831  23.113  26.876  1.00  0.00    -0.188 NA
ATOM     18  C   UNL A   1      32.622  23.019  27.396  1.00  0.00     0.315 A 
ATOM     19  C   UNL A   1      31.926  24.990  26.477  1.00  0.00     0.058 A 
ATOM     20  N   UNL A   1      31.638  23.884  27.220  1.00  0.00    -0.200 NA
ATOM     21  C   UNL A   1      30.686  25.768  26.131  1.00  0.00     0.068 C 
BRANCH  16  22
ATOM     22  S   UNL A   1      35.519  23.889  25.103  1.00  0.00    -0.109 SA
ATOM     23  C   UNL A   1      35.565  22.072  25.257  1.00  0.00     0.092 C 
ENDBRANCH  16  22
BRANCH  18  24
ATOM     24  O   UNL A   1      32.357  21.965  28.208  1.00  0.00    -0.479 OA
ATOM     25  H   UNL A   1      31.479  21.653  28.300  1.00  0.00     0.297 HD
ENDBRANCH  18  24
ENDBRANCH  13  15
ENDBRANCH   9  13
BRANCH  11  26
ATOM     26  O   UNL A   1      33.133  25.506  20.746  1.00  0.00    -0.391 OA
ATOM     27  H   UNL A   1      32.495  25.675  20.035  1.00  0.00     0.211 HD
ENDBRANCH  11  26
ENDBRANCH   6   8
ENDBRANCH   5   6
ENDBRANCH   4   5
ENDBRANCH   3   4
ENDBRANCH   2   3
ENDBRANCH   1   2
BRANCH   1  28
ATOM     28  C   UNL A   1      35.073  31.158  28.705  1.00  0.00     0.188 C 
BRANCH  28  29
ATOM     29  O   UNL A   1      35.719  32.318  29.205  1.00  0.00    -0.376 OA
BRANCH  29  30
ATOM     30  C   UNL A   1      37.091  32.434  28.851  1.00  0.00     0.202 C 
BRANCH  30  31
ATOM     31  C   UNL A   1      37.999  31.593  29.745  1.00  0.00     0.261 C 
BRANCH  31  32
ATOM     32  O   UNL A   1      37.683  31.752  31.142  1.00  0.00    -0.460 OA
BRANCH  32  33
ATOM     33  C   UNL A   1      37.377  30.640  31.848  1.00  0.00     0.338 C 
ATOM     34  O   UNL A   1      36.265  30.256  32.164  1.00  0.00    -0.246 OA
BRANCH  33  35
ATOM     35  C   UNL A   1      38.633  29.926  32.183  1.00  0.00     0.060 A 
ATOM     36  C   UNL A   1      39.803  30.632  32.474  1.00  0.00     0.016 A 
ATOM     37  C   UNL A   1      38.677  28.534  32.109  1.00  0.00     0.016 A 
ATOM     38  C   UNL A   1      41.008  29.968  32.671  1.00  0.00     0.010 A 
ATOM     39  C   UNL A   1      39.890  27.864  32.320  1.00  0.00     0.010 A 
ATOM     40  C   UNL A   1      41.075  28.578  32.572  1.00  0.00    -0.014 A 
BRANCH  40  41
ATOM     41  C   UNL A   1      42.395  27.895  32.606  1.00  0.00     0.031 A 
ATOM     42  C   UNL A   1      43.020  27.561  33.932  1.00  0.00     0.074 A 
ATOM     43  C   UNL A   1      43.016  27.497  31.477  1.00  0.00     0.049 A 
ATOM     44  N   UNL A   1      44.237  27.158  34.188  1.00  0.00    -0.248 NA
ATOM     45  C   UNL A   1      42.159  27.675  35.122  1.00  0.00     0.031 C 
ATOM     46  C   UNL A   1      42.484  27.620  30.122  1.00  0.00     0.029 A 
ATOM     47  N   UNL A   1      44.244  26.901  31.301  1.00  0.00    -0.354 N 
ATOM     48  C   UNL A   1      44.313  27.043  35.569  1.00  0.00     0.074 A 
ATOM     49  C   UNL A   1      43.008  27.377  36.097  1.00  0.00     0.031 C 
ATOM     50  C   UNL A   1      43.373  27.108  29.255  1.00  0.00     0.029 A 
ATOM     51  C   UNL A   1      44.574  26.703  29.982  1.00  0.00     0.049 A 
ATOM     52  H   UNL A   1      44.829  26.641  32.049  1.00  0.00     0.167 HD
ATOM     53  C   UNL A   1      45.375  26.690  36.328  1.00  0.00     0.034 A 
ATOM     54  C   UNL A   1      45.728  26.300  29.412  1.00  0.00     0.034 A 
ATOM     55  C   UNL A   1      46.653  26.288  35.814  1.00  0.00     0.049 A 
ATOM     56  C   UNL A   1      46.928  26.010  30.271  1.00  0.00     0.074 A 
ATOM     57  C   UNL A   1      47.790  25.938  36.523  1.00  0.00     0.029 A 
ATOM     58  N   UNL A   1      46.964  26.161  34.472  1.00  0.00    -0.354 N 
ATOM     59  N   UNL A   1      47.013  25.968  31.578  1.00  0.00    -0.248 NA
ATOM     60  C   UNL A   1      48.195  25.728  29.578  1.00  0.00     0.031 C 
ATOM     61  C   UNL A   1      48.792  25.602  35.608  1.00  0.00     0.029 A 
ATOM     62  C   UNL A   1      48.275  25.739  34.331  1.00  0.00     0.049 A 
ATOM     63  H   UNL A   1      46.345  26.344  33.728  1.00  0.00     0.167 HD
ATOM     64  C   UNL A   1      48.337  25.649  31.862  1.00  0.00     0.074 A 
ATOM     65  C   UNL A   1      49.015  25.487  30.595  1.00  0.00     0.031 C 
ATOM     66  C   UNL A   1      48.937  25.529  33.071  1.00  0.00     0.034 A 
BRANCH  53  67
ATOM     67  C   UNL A   1      45.216  26.723  37.819  1.00  0.00     0.023 A 
ATOM     68  C   UNL A   1      44.986  25.526  38.522  1.00  0.00     0.012 A 
ATOM     69  C   UNL A   1      45.421  27.924  38.525  1.00  0.00     0.148 A 
ATOM     70  C   UNL A   1      44.966  25.525  39.916  1.00  0.00     0.002 A 
ATOM     71  C   UNL A   1      45.431  27.908  39.913  1.00  0.00     0.091 A 
ATOM     72  F   UNL A   1      45.618  29.049  37.824  1.00  0.00    -0.205 F 
ATOM     73  C   UNL A   1      45.202  26.711  40.609  1.00  0.00     0.022 A 
BRANCH  71  74
ATOM     74  S   UNL A   1      45.790  29.369  40.894  1.00  0.00     0.127 S 
ATOM     75  O   UNL A   1      45.875  28.806  42.242  1.00  0.00    -0.237 OA
ATOM     76  O   UNL A   1      47.068  29.808  40.334  1.00  0.00    -0.237 OA
ATOM     77  O   UNL A   1      44.681  30.286  40.675  1.00  0.00    -0.744 OA
ENDBRANCH  71  74
ENDBRANCH  53  67
BRANCH  54  78
ATOM     78  C   UNL A   1      45.814  26.179  27.931  1.00  0.00     0.023 A 
ATOM     79  C   UNL A   1      46.192  27.298  27.168  1.00  0.00     0.012 A 
ATOM     80  C   UNL A   1      45.565  24.953  27.285  1.00  0.00     0.148 A 
ATOM     81  C   UNL A   1      46.320  27.199  25.781  1.00  0.00     0.002 A 
ATOM     82  C   UNL A   1      45.743  24.847  25.912  1.00  0.00     0.091 A 
ATOM     83  F   UNL A   1      45.184  23.908  28.033  1.00  0.00    -0.205 F 
ATOM     84  C   UNL A   1      46.109  25.972  25.157  1.00  0.00     0.022 A 
BRANCH  82  85
ATOM     85  S   UNL A   1      45.609  23.285  25.037  1.00  0.00     0.127 S 
ATOM     86  O   UNL A   1      44.163  23.073  25.024  1.00  0.00    -0.237 OA
ATOM     87  O   UNL A   1      46.195  23.618  23.740  1.00  0.00    -0.237 OA
ATOM     88  O   UNL A   1      46.375  22.325  25.819  1.00  0.00    -0.744 OA
ENDBRANCH  82  85
ENDBRANCH  54  78
BRANCH  66  89
ATOM     89  C   UNL A   1      50.403  25.197  33.113  1.00  0.00     0.023 A 
ATOM     90  C   UNL A   1      51.335  26.236  33.298  1.00  0.00     0.012 A 
ATOM     91  C   UNL A   1      50.845  23.860  33.106  1.00  0.00     0.148 A 
ATOM     92  C   UNL A   1      52.689  25.949  33.471  1.00  0.00     0.002 A 
ATOM     93  C   UNL A   1      52.191  23.579  33.309  1.00  0.00     0.091 A 
ATOM     94  F   UNL A   1      49.937  22.889  32.924  1.00  0.00    -0.205 F 
ATOM     95  C   UNL A   1      53.115  24.623  33.487  1.00  0.00     0.022 A 
BRANCH  93  96
ATOM     96  S   UNL A   1      52.830  21.903  33.418  1.00  0.00     0.127 S 
ATOM     97  O   UNL A   1      52.373  21.328  32.153  1.00  0.00    -0.237 OA
ATOM     98  O   UNL A   1      54.273  22.127  33.500  1.00  0.00    -0.237 OA
ATOM     99  O   UNL A   1      52.235  21.320  34.613  1.00  0.00    -0.744 OA
ENDBRANCH  93  96
ENDBRANCH  66  89
ENDBRANCH  40  41
ENDBRANCH  33  35
ENDBRANCH  32  33
ENDBRANCH  31  32
ENDBRANCH  30  31
ENDBRANCH  29  30
ENDBRANCH  28  29
ENDBRANCH   1  28
TORSDOF 25
ENDMDL
MODEL 2
REMARK VINA RESULT:      -9.3      3.719      6.442
REMARK SMILES CSc1nc(O)nc(C)c1C(=O)N1C[C@@H](O)C[C@@H]1C(=O)OCCOCCOCCOC(=O)c1ccc(-c2c3nc(c(-c4cccc(S(=O)(=O)[O-])c4F)c4ccc([nH]4)c(-c4cccc(S(=O)(=O)[O-])c4F)c4nc(c(-c5cccc(S(=O)(=O)[O-])c5F)c5ccc2[nH]5)C=C4)C=C3)cc1
REMARK SMILES IDX 25 1 24 2 23 3 22 4 21 5 19 6 20 7 18 8 13 9 14 10 15 11
REMARK SMILES IDX 17 12 11 13 12 14 10 15 3 16 4 17 5 18 8 19 7 20 9 21 2 22
REMARK SMILES IDX 1 23 6 24 16 26 26 28 27 29 28 30 29 31 30 32 31 33 32 34
REMARK SMILES IDX 33 35 34 36 95 37 35 38 94 39 36 40 37 41 38 42 88 43 39 44
REMARK SMILES IDX 93 45 87 46 89 47 40 48 92 49 86 50 85 51 41 53 73 54 53 55
REMARK SMILES IDX 72 56 54 57 57 58 71 59 90 60 55 61 56 62 70 64 91 65 58 66
REMARK SMILES IDX 42 67 43 68 51 69 44 70 46 71 52 72 45 73 47 74 48 75 49 76
REMARK SMILES IDX 50 77 74 78 75 79 83 80 76 81 78 82 84 83 77 84 79 85 80 86
REMARK SMILES IDX 81 87 82 88 59 89 60 90 68 91 61 92 63 93 69 94 62 95 64 96
REMARK SMILES IDX 65 97 66 98 67 99
REMARK H PARENT 6 25 16 27 89 52 57 63
REMARK Flexibility Score: inf
ROOT
ATOM      1  C   UNL A   1      31.159  27.708  25.854  1.00  0.00     0.188 C 
ENDROOT
BRANCH   1   2
ATOM      2  O   UNL A   1      30.391  26.583  25.446  1.00  0.00    -0.376 OA
BRANCH   2   3
ATOM      3  C   UNL A   1      30.048  25.611  26.415  1.00  0.00     0.202 C 
BRANCH   3   4
ATOM      4  C   UNL A   1      30.571  24.199  26.159  1.00  0.00     0.261 C 
BRANCH   4   5
ATOM      5  O   UNL A   1      31.997  24.035  26.366  1.00  0.00    -0.462 OA
BRANCH   5   6
ATOM      6  C   UNL A   1      32.384  22.791  26.754  1.00  0.00     0.329 C 
ATOM      7  O   UNL A   1      32.397  22.453  27.935  1.00  0.00    -0.250 OA
BRANCH   6   8
ATOM      8  C   UNL A   1      32.994  21.908  25.615  1.00  0.00     0.198 C 
ATOM      9  N   UNL A   1      32.220  21.314  24.443  1.00  0.00    -0.322 N 
ATOM     10  C   UNL A   1      32.475  19.886  24.482  1.00  0.00     0.152 C 
ATOM     11  C   UNL A   1      32.705  19.534  25.929  1.00  0.00     0.136 C 
ATOM     12  C   UNL A   1      33.610  20.668  26.337  1.00  0.00     0.071 C 
BRANCH   9  13
ATOM     13  C   UNL A   1      32.202  21.900  23.150  1.00  0.00     0.259 C 
ATOM     14  O   UNL A   1      31.913  21.197  22.182  1.00  0.00    -0.269 OA
BRANCH  13  15
ATOM     15  C   UNL A   1      32.689  23.330  22.896  1.00  0.00     0.093 A 
ATOM     16  C   UNL A   1      33.994  23.840  22.853  1.00  0.00     0.116 A 
ATOM     17  N   UNL A   1      34.310  25.080  22.393  1.00  0.00    -0.188 NA
ATOM     18  C   UNL A   1      33.304  25.873  22.078  1.00  0.00     0.315 A 
ATOM     19  C   UNL A   1      31.725  24.332  22.667  1.00  0.00     0.058 A 
ATOM     20  N   UNL A   1      32.021  25.583  22.211  1.00  0.00    -0.200 NA
ATOM     21  C   UNL A   1      30.270  24.197  23.018  1.00  0.00     0.068 C 
BRANCH  16  22
ATOM     22  S   UNL A   1      35.409  23.174  23.717  1.00  0.00    -0.109 SA
ATOM     23  C   UNL A   1      35.448  24.326  25.130  1.00  0.00     0.092 C 
ENDBRANCH  16  22
BRANCH  18  24
ATOM     24  O   UNL A   1      33.592  27.086  21.541  1.00  0.00    -0.479 OA
ATOM     25  H   UNL A   1      32.902  27.687  21.343  1.00  0.00     0.297 HD
ENDBRANCH  18  24
ENDBRANCH  13  15
ENDBRANCH   9  13
BRANCH  11  26
ATOM     26  O   UNL A   1      33.308  18.269  26.113  1.00  0.00    -0.391 OA
ATOM     27  H   UNL A   1      32.628  17.578  26.085  1.00  0.00     0.211 HD
ENDBRANCH  11  26
ENDBRANCH   6   8
ENDBRANCH   5   6
ENDBRANCH   4   5
ENDBRANCH   3   4
ENDBRANCH   2   3
ENDBRANCH   1   2
BRANCH   1  28
ATOM     28  C   UNL A   1      32.025  28.460  24.823  1.00  0.00     0.188 C 
BRANCH  28  29
ATOM     29  O   UNL A   1      32.530  29.705  25.278  1.00  0.00    -0.376 OA
BRANCH  29  30
ATOM     30  C   UNL A   1      31.540  30.616  25.737  1.00  0.00     0.202 C 
BRANCH  30  31
ATOM     31  C   UNL A   1      32.058  31.537  26.839  1.00  0.00     0.261 C 
BRANCH  31  32
ATOM     32  O   UNL A   1      33.470  31.797  26.709  1.00  0.00    -0.460 OA
BRANCH  32  33
ATOM     33  C   UNL A   1      34.033  32.664  27.581  1.00  0.00     0.338 C 
ATOM     34  O   UNL A   1      33.632  33.777  27.869  1.00  0.00    -0.246 OA
BRANCH  33  35
ATOM     35  C   UNL A   1      35.242  32.035  28.166  1.00  0.00     0.060 A 
ATOM     36  C   UNL A   1      35.216  30.711  28.613  1.00  0.00     0.016 A 
ATOM     37  C   UNL A   1      36.390  32.800  28.368  1.00  0.00     0.016 A 
ATOM     38  C   UNL A   1      36.309  30.156  29.269  1.00  0.00     0.010 A 
ATOM     39  C   UNL A   1      37.496  32.236  29.020  1.00  0.00     0.010 A 
ATOM     40  C   UNL A   1      37.454  30.917  29.504  1.00  0.00    -0.014 A 
BRANCH  40  41
ATOM     41  C   UNL A   1      38.541  30.375  30.361  1.00  0.00     0.031 A 
ATOM     42  C   UNL A   1      38.645  30.820  31.793  1.00  0.00     0.074 A 
ATOM     43  C   UNL A   1      39.395  29.433  29.911  1.00  0.00     0.049 A 
ATOM     44  N   UNL A   1      39.620  30.631  32.643  1.00  0.00    -0.248 NA
ATOM     45  C   UNL A   1      37.494  31.554  32.348  1.00  0.00     0.031 C 
ATOM     46  C   UNL A   1      39.346  28.795  28.596  1.00  0.00     0.029 A 
ATOM     47  N   UNL A   1      40.477  28.848  30.526  1.00  0.00    -0.354 N 
ATOM     48  C   UNL A   1      39.238  31.285  33.806  1.00  0.00     0.074 A 
ATOM     49  C   UNL A   1      37.922  31.840  33.570  1.00  0.00     0.031 C 
ATOM     50  C   UNL A   1      40.346  27.902  28.506  1.00  0.00     0.029 A 
ATOM     51  C   UNL A   1      41.159  27.968  29.718  1.00  0.00     0.049 A 
ATOM     52  H   UNL A   1      40.739  29.041  31.455  1.00  0.00     0.167 HD
ATOM     53  C   UNL A   1      39.921  31.411  34.966  1.00  0.00     0.034 A 
ATOM     54  C   UNL A   1      42.333  27.331  29.902  1.00  0.00     0.034 A 
ATOM     55  C   UNL A   1      41.194  30.805  35.238  1.00  0.00     0.049 A 
ATOM     56  C   UNL A   1      43.126  27.565  31.158  1.00  0.00     0.074 A 
ATOM     57  C   UNL A   1      41.963  30.906  36.385  1.00  0.00     0.029 A 
ATOM     58  N   UNL A   1      41.878  29.972  34.370  1.00  0.00    -0.354 N 
ATOM     59  N   UNL A   1      42.789  28.240  32.230  1.00  0.00    -0.248 NA
ATOM     60  C   UNL A   1      44.467  26.963  31.225  1.00  0.00     0.031 C 
ATOM     61  C   UNL A   1      43.116  30.137  36.209  1.00  0.00     0.029 A 
ATOM     62  C   UNL A   1      43.060  29.553  34.954  1.00  0.00     0.049 A 
ATOM     63  H   UNL A   1      41.569  29.717  33.470  1.00  0.00     0.167 HD
ATOM     64  C   UNL A   1      43.871  28.138  33.098  1.00  0.00     0.074 A 
ATOM     65  C   UNL A   1      44.866  27.320  32.441  1.00  0.00     0.031 C 
ATOM     66  C   UNL A   1      44.029  28.699  34.321  1.00  0.00     0.034 A 
BRANCH  53  67
ATOM     67  C   UNL A   1      39.314  32.246  36.054  1.00  0.00     0.023 A 
ATOM     68  C   UNL A   1      38.345  31.685  36.905  1.00  0.00     0.012 A 
ATOM     69  C   UNL A   1      39.801  33.544  36.302  1.00  0.00     0.148 A 
ATOM     70  C   UNL A   1      37.869  32.408  37.998  1.00  0.00     0.002 A 
ATOM     71  C   UNL A   1      39.346  34.244  37.410  1.00  0.00     0.091 A 
ATOM     72  F   UNL A   1      40.710  34.055  35.460  1.00  0.00    -0.205 F 
ATOM     73  C   UNL A   1      38.379  33.679  38.257  1.00  0.00     0.022 A 
BRANCH  71  74
ATOM     74  S   UNL A   1      39.989  35.859  37.866  1.00  0.00     0.127 S 
ATOM     75  O   UNL A   1      39.603  36.667  36.709  1.00  0.00    -0.237 OA
ATOM     76  O   UNL A   1      39.245  36.150  39.091  1.00  0.00    -0.237 OA
ATOM     77  O   UNL A   1      41.423  35.685  38.050  1.00  0.00    -0.744 OA
ENDBRANCH  71  74
ENDBRANCH  53  67
BRANCH  54  78
ATOM     78  C   UNL A   1      42.852  26.425  28.840  1.00  0.00     0.023 A 
ATOM     79  C   UNL A   1      42.338  25.121  28.733  1.00  0.00     0.012 A 
ATOM     80  C   UNL A   1      43.819  26.868  27.916  1.00  0.00     0.148 A 
ATOM     81  C   UNL A   1      42.780  24.268  27.720  1.00  0.00     0.002 A 
ATOM     82  C   UNL A   1      44.217  26.032  26.881  1.00  0.00     0.091 A 
ATOM     83  F   UNL A   1      44.309  28.107  28.056  1.00  0.00    -0.205 F 
ATOM     84  C   UNL A   1      43.708  24.728  26.788  1.00  0.00     0.022 A 
BRANCH  82  85
ATOM     85  S   UNL A   1      45.316  26.575  25.569  1.00  0.00     0.127 S 
ATOM     86  O   UNL A   1      46.548  26.848  26.305  1.00  0.00    -0.237 OA
ATOM     87  O   UNL A   1      45.360  25.394  24.709  1.00  0.00    -0.237 OA
ATOM     88  O   UNL A   1      44.675  27.737  24.969  1.00  0.00    -0.744 OA
ENDBRANCH  82  85
ENDBRANCH  54  78
BRANCH  66  89
ATOM     89  C   UNL A   1      45.317  28.456  35.060  1.00  0.00     0.023 A 
ATOM     90  C   UNL A   1      45.450  27.291  35.839  1.00  0.00     0.012 A 
ATOM     91  C   UNL A   1      46.428  29.301  34.876  1.00  0.00     0.148 A 
ATOM     92  C   UNL A   1      46.672  26.972  36.430  1.00  0.00     0.002 A 
ATOM     93  C   UNL A   1      47.651  28.962  35.443  1.00  0.00     0.091 A 
ATOM     94  F   UNL A   1      46.273  30.407  34.132  1.00  0.00    -0.205 F 
ATOM     95  C   UNL A   1      47.773  27.800  36.224  1.00  0.00     0.022 A 
BRANCH  93  96
ATOM     96  S   UNL A   1      49.147  29.923  35.179  1.00  0.00     0.127 S 
ATOM     97  O   UNL A   1      49.198  29.996  33.720  1.00  0.00    -0.237 OA
ATOM     98  O   UNL A   1      48.823  31.185  35.843  1.00  0.00    -0.237 OA
ATOM     99  O   UNL A   1      50.227  29.168  35.799  1.00  0.00    -0.744 OA
ENDBRANCH  93  96
ENDBRANCH  66  89
ENDBRANCH  40  41
ENDBRANCH  33  35
ENDBRANCH  32  33
ENDBRANCH  31  32
ENDBRANCH  30  31
ENDBRANCH  29  30
ENDBRANCH  28  29
ENDBRANCH   1  28
TORSDOF 25
ENDMDL
MODEL 3
REMARK VINA RESULT:      -9.1      4.699      7.055
REMARK SMILES CSc1nc(O)nc(C)c1C(=O)N1C[C@@H](O)C[C@@H]1C(=O)OCCOCCOCCOC(=O)c1ccc(-c2c3nc(c(-c4cccc(S(=O)(=O)[O-])c4F)c4ccc([nH]4)c(-c4cccc(S(=O)(=O)[O-])c4F)c4nc(c(-c5cccc(S(=O)(=O)[O-])c5F)c5ccc2[nH]5)C=C4)C=C3)cc1
REMARK SMILES IDX 25 1 24 2 23 3 22 4 21 5 19 6 20 7 18 8 13 9 14 10 15 11
REMARK SMILES IDX 17 12 11 13 12 14 10 15 3 16 4 17 5 18 8 19 7 20 9 21 2 22
REMARK SMILES IDX 1 23 6 24 16 26 26 28 27 29 28 30 29 31 30 32 31 33 32 34
REMARK SMILES IDX 33 35 34 36 95 37 35 38 94 39 36 40 37 41 38 42 88 43 39 44
REMARK SMILES IDX 93 45 87 46 89 47 40 48 92 49 86 50 85 51 41 53 73 54 53 55
REMARK SMILES IDX 72 56 54 57 57 58 71 59 90 60 55 61 56 62 70 64 91 65 58 66
REMARK SMILES IDX 42 67 43 68 51 69 44 70 46 71 52 72 45 73 47 74 48 75 49 76
REMARK SMILES IDX 50 77 74 78 75 79 83 80 76 81 78 82 84 83 77 84 79 85 80 86
REMARK SMILES IDX 81 87 82 88 59 89 60 90 68 91 61 92 63 93 69 94 62 95 64 96
REMARK SMILES IDX 65 97 66 98 67 99
REMARK H PARENT 6 25 16 27 89 52 57 63
REMARK Flexibility Score: inf
ROOT
ATOM      1  C   UNL A   1      34.361  30.844  27.807  1.00  0.00     0.188 C 
ENDROOT
BRANCH   1   2
ATOM      2  O   UNL A   1      33.281  29.950  27.573  1.00  0.00    -0.376 OA
BRANCH   2   3
ATOM      3  C   UNL A   1      32.151  30.425  26.866  1.00  0.00     0.202 C 
BRANCH   3   4
ATOM      4  C   UNL A   1      31.999  29.920  25.432  1.00  0.00     0.261 C 
BRANCH   4   5
ATOM      5  O   UNL A   1      32.618  28.634  25.174  1.00  0.00    -0.462 OA
BRANCH   5   6
ATOM      6  C   UNL A   1      32.558  28.213  23.883  1.00  0.00     0.329 C 
ATOM      7  O   UNL A   1      32.543  29.004  22.942  1.00  0.00    -0.250 OA
BRANCH   6   8
ATOM      8  C   UNL A   1      32.308  26.679  23.703  1.00  0.00     0.198 C 
ATOM      9  N   UNL A   1      33.378  25.595  23.759  1.00  0.00    -0.322 N 
ATOM     10  C   UNL A   1      33.269  24.865  22.510  1.00  0.00     0.152 C 
ATOM     11  C   UNL A   1      32.764  25.847  21.485  1.00  0.00     0.136 C 
ATOM     12  C   UNL A   1      31.679  26.526  22.282  1.00  0.00     0.071 C 
BRANCH   9  13
ATOM     13  C   UNL A   1      33.620  24.804  24.913  1.00  0.00     0.259 C 
ATOM     14  O   UNL A   1      33.960  25.362  25.956  1.00  0.00    -0.269 OA
BRANCH  13  15
ATOM     15  C   UNL A   1      33.632  23.273  24.866  1.00  0.00     0.093 A 
ATOM     16  C   UNL A   1      34.692  22.392  24.614  1.00  0.00     0.116 A 
ATOM     17  N   UNL A   1      34.630  21.050  24.824  1.00  0.00    -0.188 NA
ATOM     18  C   UNL A   1      33.460  20.555  25.181  1.00  0.00     0.315 A 
ATOM     19  C   UNL A   1      32.424  22.588  25.102  1.00  0.00     0.058 A 
ATOM     20  N   UNL A   1      32.339  21.243  25.310  1.00  0.00    -0.200 NA
ATOM     21  C   UNL A   1      31.065  23.227  25.023  1.00  0.00     0.068 C 
BRANCH  16  22
ATOM     22  S   UNL A   1      36.143  22.750  23.633  1.00  0.00    -0.109 SA
ATOM     23  C   UNL A   1      37.409  22.013  24.719  1.00  0.00     0.092 C 
ENDBRANCH  16  22
BRANCH  18  24
ATOM     24  O   UNL A   1      33.390  19.232  25.475  1.00  0.00    -0.479 OA
ATOM     25  H   UNL A   1      34.012  18.849  26.060  1.00  0.00     0.297 HD
ENDBRANCH  18  24
ENDBRANCH  13  15
ENDBRANCH   9  13
BRANCH  11  26
ATOM     26  O   UNL A   1      32.269  25.235  20.312  1.00  0.00    -0.391 OA
ATOM     27  H   UNL A   1      32.952  25.255  19.623  1.00  0.00     0.211 HD
ENDBRANCH  11  26
ENDBRANCH   6   8
ENDBRANCH   5   6
ENDBRANCH   4   5
ENDBRANCH   3   4
ENDBRANCH   2   3
ENDBRANCH   1   2
BRANCH   1  28
ATOM     28  C   UNL A   1      34.142  32.364  27.667  1.00  0.00     0.188 C 
BRANCH  28  29
ATOM     29  O   UNL A   1      33.714  33.007  28.858  1.00  0.00    -0.376 OA
BRANCH  29  30
ATOM     30  C   UNL A   1      33.267  34.345  28.685  1.00  0.00     0.202 C 
BRANCH  30  31
ATOM     31  C   UNL A   1      33.796  35.283  29.766  1.00  0.00     0.261 C 
BRANCH  31  32
ATOM     32  O   UNL A   1      32.749  35.746  30.642  1.00  0.00    -0.460 OA
BRANCH  32  33
ATOM     33  C   UNL A   1      32.705  35.238  31.894  1.00  0.00     0.338 C 
ATOM     34  O   UNL A   1      31.747  35.226  32.646  1.00  0.00    -0.246 OA
BRANCH  33  35
ATOM     35  C   UNL A   1      34.033  34.666  32.225  1.00  0.00     0.060 A 
ATOM     36  C   UNL A   1      34.209  33.285  32.340  1.00  0.00     0.016 A 
ATOM     37  C   UNL A   1      35.096  35.517  32.526  1.00  0.00     0.016 A 
ATOM     38  C   UNL A   1      35.420  32.752  32.766  1.00  0.00     0.010 A 
ATOM     39  C   UNL A   1      36.321  34.978  32.945  1.00  0.00     0.010 A 
ATOM     40  C   UNL A   1      36.485  33.591  33.098  1.00  0.00    -0.014 A 
BRANCH  40  41
ATOM     41  C   UNL A   1      37.709  33.022  33.722  1.00  0.00     0.031 A 
ATOM     42  C   UNL A   1      37.888  33.110  35.212  1.00  0.00     0.074 A 
ATOM     43  C   UNL A   1      38.632  32.359  32.996  1.00  0.00     0.049 A 
ATOM     44  N   UNL A   1      38.954  32.865  35.927  1.00  0.00    -0.248 NA
ATOM     45  C   UNL A   1      36.708  33.504  36.003  1.00  0.00     0.031 C 
ATOM     46  C   UNL A   1      38.543  32.066  31.566  1.00  0.00     0.029 A 
ATOM     47  N   UNL A   1      39.834  31.809  33.376  1.00  0.00    -0.354 N 
ATOM     48  C   UNL A   1      38.601  33.147  37.239  1.00  0.00     0.074 A 
ATOM     49  C   UNL A   1      37.209  33.540  37.231  1.00  0.00     0.031 C 
ATOM     50  C   UNL A   1      39.637  31.383  31.192  1.00  0.00     0.029 A 
ATOM     51  C   UNL A   1      40.545  31.268  32.331  1.00  0.00     0.049 A 
ATOM     52  H   UNL A   1      40.155  31.804  34.306  1.00  0.00     0.167 HD
ATOM     53  C   UNL A   1      39.368  33.084  38.351  1.00  0.00     0.034 A 
ATOM     54  C   UNL A   1      41.804  30.788  32.276  1.00  0.00     0.034 A 
ATOM     55  C   UNL A   1      40.729  32.627  38.383  1.00  0.00     0.049 A 
ATOM     56  C   UNL A   1      42.674  30.821  33.502  1.00  0.00     0.074 A 
ATOM     57  C   UNL A   1      41.583  32.556  39.471  1.00  0.00     0.029 A 
ATOM     58  N   UNL A   1      41.431  32.146  37.292  1.00  0.00    -0.354 N 
ATOM     59  N   UNL A   1      42.355  31.153  34.728  1.00  0.00    -0.248 NA
ATOM     60  C   UNL A   1      44.083  30.429  33.333  1.00  0.00     0.031 C 
ATOM     61  C   UNL A   1      42.805  32.035  39.036  1.00  0.00     0.029 A 
ATOM     62  C   UNL A   1      42.708  31.778  37.679  1.00  0.00     0.049 A 
ATOM     63  H   UNL A   1      41.075  32.078  36.376  1.00  0.00     0.167 HD
ATOM     64  C   UNL A   1      43.518  31.003  35.478  1.00  0.00     0.074 A 
ATOM     65  C   UNL A   1      44.545  30.531  34.575  1.00  0.00     0.031 C 
ATOM     66  C   UNL A   1      43.715  31.261  36.793  1.00  0.00     0.034 A 
BRANCH  53  67
ATOM     67  C   UNL A   1      38.763  33.524  39.650  1.00  0.00     0.023 A 
ATOM     68  C   UNL A   1      38.952  34.845  40.095  1.00  0.00     0.012 A 
ATOM     69  C   UNL A   1      37.907  32.660  40.359  1.00  0.00     0.148 A 
ATOM     70  C   UNL A   1      38.290  35.303  41.233  1.00  0.00     0.002 A 
ATOM     71  C   UNL A   1      37.227  33.133  41.472  1.00  0.00     0.091 A 
ATOM     72  F   UNL A   1      37.764  31.402  39.919  1.00  0.00    -0.205 F 
ATOM     73  C   UNL A   1      37.418  34.453  41.912  1.00  0.00     0.022 A 
BRANCH  71  74
ATOM     74  S   UNL A   1      36.034  32.137  42.373  1.00  0.00     0.127 S 
ATOM     75  O   UNL A   1      35.188  31.637  41.290  1.00  0.00    -0.237 OA
ATOM     76  O   UNL A   1      36.887  31.127  42.998  1.00  0.00    -0.237 OA
ATOM     77  O   UNL A   1      35.375  33.041  43.306  1.00  0.00    -0.744 OA
ENDBRANCH  71  74
ENDBRANCH  53  67
BRANCH  54  78
ATOM     78  C   UNL A   1      42.335  30.262  30.988  1.00  0.00     0.023 A 
ATOM     79  C   UNL A   1      42.985  31.137  30.100  1.00  0.00     0.012 A 
ATOM     80  C   UNL A   1      42.234  28.895  30.664  1.00  0.00     0.148 A 
ATOM     81  C   UNL A   1      43.527  30.659  28.906  1.00  0.00     0.002 A 
ATOM     82  C   UNL A   1      42.820  28.416  29.499  1.00  0.00     0.091 A 
ATOM     83  F   UNL A   1      41.589  28.087  31.517  1.00  0.00    -0.205 F 
ATOM     84  C   UNL A   1      43.457  29.299  28.613  1.00  0.00     0.022 A 
BRANCH  82  85
ATOM     85  S   UNL A   1      42.881  26.668  29.095  1.00  0.00     0.127 S 
ATOM     86  O   UNL A   1      43.569  26.117  30.260  1.00  0.00    -0.237 OA
ATOM     87  O   UNL A   1      41.461  26.334  29.002  1.00  0.00    -0.237 OA
ATOM     88  O   UNL A   1      43.609  26.577  27.837  1.00  0.00    -0.744 OA
ENDBRANCH  82  85
ENDBRANCH  54  78
BRANCH  66  89
ATOM     89  C   UNL A   1      45.087  31.040  37.368  1.00  0.00     0.023 A 
ATOM     90  C   UNL A   1      45.994  32.116  37.410  1.00  0.00     0.012 A 
ATOM     91  C   UNL A   1      45.428  29.819  37.982  1.00  0.00     0.148 A 
ATOM     92  C   UNL A   1      47.224  31.979  38.052  1.00  0.00     0.002 A 
ATOM     93  C   UNL A   1      46.643  29.699  38.647  1.00  0.00     0.091 A 
ATOM     94  F   UNL A   1      44.547  28.808  37.924  1.00  0.00    -0.205 F 
ATOM     95  C   UNL A   1      47.544  30.776  38.679  1.00  0.00     0.022 A 
BRANCH  93  96
ATOM     96  S   UNL A   1      47.118  28.217  39.546  1.00  0.00     0.127 S 
ATOM     97  O   UNL A   1      47.022  27.194  38.505  1.00  0.00    -0.237 OA
ATOM     98  O   UNL A   1      48.482  28.534  39.965  1.00  0.00    -0.237 OA
ATOM     99  O   UNL A   1      46.161  28.081  40.636  1.00  0.00    -0.744 OA
ENDBRANCH  93  96
ENDBRANCH  66  89
ENDBRANCH  40  41
ENDBRANCH  33  35
ENDBRANCH  32  33
ENDBRANCH  31  32
ENDBRANCH  30  31
ENDBRANCH  29  30
ENDBRANCH  28  29
ENDBRANCH   1  28
TORSDOF 25
ENDMDL
