MODEL 1
REMARK VINA RESULT:     -10.6      0.000      0.000
REMARK SMILES C[C@@H](C(=O)OCCOCCOCCOC(=O)c1ccc(-c2c3nc(c(-c4cccc(S(=O)(=O)[O-])c4F)c4ccc([nH]4)c(-c4cccc(S(=O)(=O)[O-])c4F)c4nc(c(-c5cccc(S(=O)(=O)[O-])c5F)c5ccc2[nH]5)C=C4)C=C3)cc1)c1ccc(-c2ccn(C(F)F)c(=O)c2)cc1
REMARK SMILES IDX 9 1 8 2 7 3 6 4 5 5 3 6 4 7 2 8 1 9 80 10 81 11 95 12 82 13
REMARK SMILES IDX 94 14 83 15 84 16 85 17 93 18 86 19 91 20 87 21 92 22 88 23
REMARK SMILES IDX 89 24 90 25 10 26 11 27 12 28 13 29 14 30 15 31 16 32 17 33
REMARK SMILES IDX 18 34 79 35 19 36 78 37 20 38 21 39 22 40 72 41 23 42 77 43
REMARK SMILES IDX 71 44 73 45 24 46 76 47 70 48 69 49 25 51 57 52 37 53 56 54
REMARK SMILES IDX 38 55 41 56 55 57 74 58 39 59 40 60 54 62 75 63 42 64 26 65
REMARK SMILES IDX 27 66 35 67 28 68 30 69 36 70 29 71 31 72 32 73 33 74 34 75
REMARK SMILES IDX 58 76 59 77 67 78 60 79 62 80 68 81 61 82 63 83 64 84 65 85
REMARK SMILES IDX 66 86 43 87 44 88 52 89 45 90 47 91 53 92 46 93 48 94 49 95
REMARK SMILES IDX 50 96 51 97
REMARK H PARENT 73 50 41 61
REMARK Flexibility Score: inf
ROOT
ATOM      1  C   UNL A   1      35.260  20.352  25.031  1.00  0.00     0.188 C 
ENDROOT
BRANCH   1   2
ATOM      2  O   UNL A   1      34.111  19.577  24.710  1.00  0.00    -0.376 OA
BRANCH   2   3
ATOM      3  C   UNL A   1      32.856  19.948  25.271  1.00  0.00     0.202 C 
BRANCH   3   4
ATOM      4  C   UNL A   1      32.215  21.284  24.860  1.00  0.00     0.261 C 
BRANCH   4   5
ATOM      5  O   UNL A   1      32.654  22.435  25.617  1.00  0.00    -0.463 OA
BRANCH   5   6
ATOM      6  C   UNL A   1      33.143  23.478  24.890  1.00  0.00     0.313 C 
ATOM      7  O   UNL A   1      34.324  23.592  24.574  1.00  0.00    -0.252 OA
BRANCH   6   8
ATOM      8  C   UNL A   1      32.088  24.525  24.489  1.00  0.00     0.126 C 
ATOM      9  C   UNL A   1      31.705  24.574  23.005  1.00  0.00     0.025 C 
BRANCH   8  10
ATOM     10  C   UNL A   1      32.340  25.877  25.158  1.00  0.00    -0.034 A 
ATOM     11  C   UNL A   1      33.327  26.714  24.615  1.00  0.00     0.005 A 
ATOM     12  C   UNL A   1      31.639  26.354  26.272  1.00  0.00     0.005 A 
ATOM     13  C   UNL A   1      33.600  27.977  25.158  1.00  0.00     0.009 A 
ATOM     14  C   UNL A   1      31.913  27.626  26.811  1.00  0.00     0.009 A 
ATOM     15  C   UNL A   1      32.886  28.469  26.258  1.00  0.00    -0.018 A 
BRANCH  15  16
ATOM     16  C   UNL A   1      33.158  29.823  26.827  1.00  0.00    -0.011 A 
ATOM     17  C   UNL A   1      34.412  30.195  27.470  1.00  0.00     0.027 A 
ATOM     18  C   UNL A   1      32.195  30.765  26.764  1.00  0.00     0.080 A 
ATOM     19  C   UNL A   1      34.601  31.423  27.972  1.00  0.00     0.095 A 
ATOM     20  C   UNL A   1      32.427  32.161  27.225  1.00  0.00     0.255 A 
ATOM     21  N   UNL A   1      33.636  32.401  27.850  1.00  0.00    -0.258 N 
ATOM     22  O   UNL A   1      31.568  33.001  26.979  1.00  0.00    -0.269 OA
BRANCH  21  23
ATOM     23  C   UNL A   1      33.864  33.729  28.366  1.00  0.00     0.451 C 
ATOM     24  F   UNL A   1      34.297  33.675  29.653  1.00  0.00    -0.185 F 
ATOM     25  F   UNL A   1      34.812  34.372  27.650  1.00  0.00    -0.185 F 
ENDBRANCH  21  23
ENDBRANCH  15  16
ENDBRANCH   8  10
ENDBRANCH   6   8
ENDBRANCH   5   6
ENDBRANCH   4   5
ENDBRANCH   3   4
ENDBRANCH   2   3
ENDBRANCH   1   2
BRANCH   1  26
ATOM     26  C   UNL A   1      36.641  19.681  24.925  1.00  0.00     0.188 C 
BRANCH  26  27
ATOM     27  O   UNL A   1      37.703  20.557  24.629  1.00  0.00    -0.376 OA
BRANCH  27  28
ATOM     28  C   UNL A   1      38.293  21.307  25.675  1.00  0.00     0.202 C 
BRANCH  28  29
ATOM     29  C   UNL A   1      39.764  21.133  26.104  1.00  0.00     0.261 C 
BRANCH  29  30
ATOM     30  O   UNL A   1      40.276  19.798  26.225  1.00  0.00    -0.460 OA
BRANCH  30  31
ATOM     31  C   UNL A   1      41.616  19.644  26.165  1.00  0.00     0.338 C 
ATOM     32  O   UNL A   1      42.223  18.639  25.808  1.00  0.00    -0.246 OA
BRANCH  31  33
ATOM     33  C   UNL A   1      42.241  20.965  26.376  1.00  0.00     0.060 A 
ATOM     34  C   UNL A   1      42.432  21.415  27.690  1.00  0.00     0.016 A 
ATOM     35  C   UNL A   1      42.634  21.757  25.295  1.00  0.00     0.016 A 
ATOM     36  C   UNL A   1      43.010  22.663  27.923  1.00  0.00     0.010 A 
ATOM     37  C   UNL A   1      43.192  23.019  25.535  1.00  0.00     0.010 A 
ATOM     38  C   UNL A   1      43.367  23.485  26.851  1.00  0.00    -0.014 A 
BRANCH  38  39
ATOM     39  C   UNL A   1      43.741  24.896  27.114  1.00  0.00     0.031 A 
ATOM     40  C   UNL A   1      45.166  25.311  26.873  1.00  0.00     0.074 A 
ATOM     41  C   UNL A   1      42.835  25.800  27.535  1.00  0.00     0.049 A 
ATOM     42  N   UNL A   1      45.735  26.472  27.054  1.00  0.00    -0.248 NA
ATOM     43  C   UNL A   1      46.066  24.276  26.336  1.00  0.00     0.031 C 
ATOM     44  C   UNL A   1      41.410  25.541  27.728  1.00  0.00     0.029 A 
ATOM     45  N   UNL A   1      42.990  27.116  27.895  1.00  0.00    -0.354 N 
ATOM     46  C   UNL A   1      47.067  26.298  26.705  1.00  0.00     0.074 A 
ATOM     47  C   UNL A   1      47.220  24.925  26.278  1.00  0.00     0.031 C 
ATOM     48  C   UNL A   1      40.828  26.653  28.211  1.00  0.00     0.029 A 
ATOM     49  C   UNL A   1      41.841  27.690  28.395  1.00  0.00     0.049 A 
ATOM     50  H   UNL A   1      43.841  27.604  27.805  1.00  0.00     0.167 HD
ATOM     51  C   UNL A   1      48.077  27.199  26.739  1.00  0.00     0.034 A 
ATOM     52  C   UNL A   1      41.642  28.903  28.954  1.00  0.00     0.034 A 
ATOM     53  C   UNL A   1      47.924  28.563  27.164  1.00  0.00     0.049 A 
ATOM     54  C   UNL A   1      42.803  29.872  29.017  1.00  0.00     0.074 A 
ATOM     55  C   UNL A   1      48.882  29.559  27.214  1.00  0.00     0.029 A 
ATOM     56  N   UNL A   1      46.745  29.117  27.640  1.00  0.00    -0.354 N 
ATOM     57  N   UNL A   1      44.035  29.725  28.582  1.00  0.00    -0.248 NA
ATOM     58  C   UNL A   1      42.535  31.194  29.604  1.00  0.00     0.031 C 
ATOM     59  C   UNL A   1      48.291  30.705  27.756  1.00  0.00     0.029 A 
ATOM     60  C   UNL A   1      46.953  30.437  27.997  1.00  0.00     0.049 A 
ATOM     61  H   UNL A   1      45.887  28.640  27.713  1.00  0.00     0.167 HD
ATOM     62  C   UNL A   1      44.663  30.953  28.787  1.00  0.00     0.074 A 
ATOM     63  C   UNL A   1      43.673  31.834  29.370  1.00  0.00     0.031 C 
ATOM     64  C   UNL A   1      45.943  31.319  28.527  1.00  0.00     0.034 A 
BRANCH  51  65
ATOM     65  C   UNL A   1      49.445  26.725  26.328  1.00  0.00     0.023 A 
ATOM     66  C   UNL A   1      50.172  25.848  27.158  1.00  0.00     0.012 A 
ATOM     67  C   UNL A   1      49.997  27.131  25.097  1.00  0.00     0.148 A 
ATOM     68  C   UNL A   1      51.442  25.411  26.786  1.00  0.00     0.002 A 
ATOM     69  C   UNL A   1      51.243  26.654  24.712  1.00  0.00     0.091 A 
ATOM     70  F   UNL A   1      49.300  27.985  24.335  1.00  0.00    -0.205 F 
ATOM     71  C   UNL A   1      51.972  25.806  25.560  1.00  0.00     0.022 A 
BRANCH  69  72
ATOM     72  S   UNL A   1      51.979  27.045  23.121  1.00  0.00     0.127 S 
ATOM     73  O   UNL A   1      50.853  26.829  22.214  1.00  0.00    -0.237 OA
ATOM     74  O   UNL A   1      52.361  28.446  23.298  1.00  0.00    -0.237 OA
ATOM     75  O   UNL A   1      53.097  26.126  22.958  1.00  0.00    -0.744 OA
ENDBRANCH  69  72
ENDBRANCH  51  65
BRANCH  52  76
ATOM     76  C   UNL A   1      40.280  29.312  29.425  1.00  0.00     0.023 A 
ATOM     77  C   UNL A   1      39.387  29.924  28.523  1.00  0.00     0.012 A 
ATOM     78  C   UNL A   1      39.847  29.091  30.746  1.00  0.00     0.148 A 
ATOM     79  C   UNL A   1      38.106  30.311  28.915  1.00  0.00     0.002 A 
ATOM     80  C   UNL A   1      38.551  29.439  31.123  1.00  0.00     0.091 A 
ATOM     81  F   UNL A   1      40.706  28.534  31.612  1.00  0.00    -0.205 F 
ATOM     82  C   UNL A   1      37.682  30.059  30.212  1.00  0.00     0.022 A 
BRANCH  80  83
ATOM     83  S   UNL A   1      37.878  29.066  32.746  1.00  0.00     0.127 S 
ATOM     84  O   UNL A   1      36.569  29.713  32.686  1.00  0.00    -0.237 OA
ATOM     85  O   UNL A   1      37.842  27.603  32.732  1.00  0.00    -0.237 OA
ATOM     86  O   UNL A   1      38.816  29.636  33.705  1.00  0.00    -0.744 OA
ENDBRANCH  80  83
ENDBRANCH  52  76
BRANCH  64  87
ATOM     87  C   UNL A   1      46.351  32.741  28.829  1.00  0.00     0.023 A 
ATOM     88  C   UNL A   1      46.941  33.059  30.069  1.00  0.00     0.012 A 
ATOM     89  C   UNL A   1      46.225  33.748  27.849  1.00  0.00     0.148 A 
ATOM     90  C   UNL A   1      47.359  34.361  30.345  1.00  0.00     0.002 A 
ATOM     91  C   UNL A   1      46.698  35.029  28.109  1.00  0.00     0.091 A 
ATOM     92  F   UNL A   1      45.650  33.433  26.679  1.00  0.00    -0.205 F 
ATOM     93  C   UNL A   1      47.251  35.341  29.362  1.00  0.00     0.022 A 
BRANCH  91  94
ATOM     94  S   UNL A   1      46.706  36.327  26.867  1.00  0.00     0.127 S 
ATOM     95  O   UNL A   1      47.093  35.589  25.665  1.00  0.00    -0.237 OA
ATOM     96  O   UNL A   1      45.313  36.778  26.883  1.00  0.00    -0.237 OA
ATOM     97  O   UNL A   1      47.669  37.319  27.325  1.00  0.00    -0.744 OA
ENDBRANCH  91  94
ENDBRANCH  64  87
ENDBRANCH  38  39
ENDBRANCH  31  33
ENDBRANCH  30  31
ENDBRANCH  29  30
ENDBRANCH  28  29
ENDBRANCH  27  28
ENDBRANCH  26  27
ENDBRANCH   1  26
TORSDOF 23
ENDMDL
MODEL 2
REMARK VINA RESULT:     -10.3      4.549     10.519
REMARK SMILES C[C@@H](C(=O)OCCOCCOCCOC(=O)c1ccc(-c2c3nc(c(-c4cccc(S(=O)(=O)[O-])c4F)c4ccc([nH]4)c(-c4cccc(S(=O)(=O)[O-])c4F)c4nc(c(-c5cccc(S(=O)(=O)[O-])c5F)c5ccc2[nH]5)C=C4)C=C3)cc1)c1ccc(-c2ccn(C(F)F)c(=O)c2)cc1
REMARK SMILES IDX 9 1 8 2 7 3 6 4 5 5 3 6 4 7 2 8 1 9 80 10 81 11 95 12 82 13
REMARK SMILES IDX 94 14 83 15 84 16 85 17 93 18 86 19 91 20 87 21 92 22 88 23
REMARK SMILES IDX 89 24 90 25 10 26 11 27 12 28 13 29 14 30 15 31 16 32 17 33
REMARK SMILES IDX 18 34 79 35 19 36 78 37 20 38 21 39 22 40 72 41 23 42 77 43
REMARK SMILES IDX 71 44 73 45 24 46 76 47 70 48 69 49 25 51 57 52 37 53 56 54
REMARK SMILES IDX 38 55 41 56 55 57 74 58 39 59 40 60 54 62 75 63 42 64 26 65
REMARK SMILES IDX 27 66 35 67 28 68 30 69 36 70 29 71 31 72 32 73 33 74 34 75
REMARK SMILES IDX 58 76 59 77 67 78 60 79 62 80 68 81 61 82 63 83 64 84 65 85
REMARK SMILES IDX 66 86 43 87 44 88 52 89 45 90 47 91 53 92 46 93 48 94 49 95
REMARK SMILES IDX 50 96 51 97
REMARK H PARENT 73 50 41 61
REMARK Flexibility Score: inf
ROOT
ATOM      1  C   UNL A   1      33.543  36.126  32.970  1.00  0.00     0.188 C 
ENDROOT
BRANCH   1   2
ATOM      2  O   UNL A   1      33.694  36.563  31.624  1.00  0.00    -0.376 OA
BRANCH   2   3
ATOM      3  C   UNL A   1      32.700  36.199  30.671  1.00  0.00     0.202 C 
BRANCH   3   4
ATOM      4  C   UNL A   1      33.136  35.669  29.295  1.00  0.00     0.261 C 
BRANCH   4   5
ATOM      5  O   UNL A   1      33.632  34.311  29.289  1.00  0.00    -0.463 OA
BRANCH   5   6
ATOM      6  C   UNL A   1      34.593  34.029  28.367  1.00  0.00     0.313 C 
ATOM      7  O   UNL A   1      34.750  34.670  27.331  1.00  0.00    -0.252 OA
BRANCH   6   8
ATOM      8  C   UNL A   1      35.485  32.826  28.722  1.00  0.00     0.126 C 
ATOM      9  C   UNL A   1      36.999  33.055  28.658  1.00  0.00     0.025 C 
BRANCH   8  10
ATOM     10  C   UNL A   1      34.978  31.530  28.086  1.00  0.00    -0.034 A 
ATOM     11  C   UNL A   1      33.686  31.521  27.537  1.00  0.00     0.005 A 
ATOM     12  C   UNL A   1      35.720  30.347  27.993  1.00  0.00     0.005 A 
ATOM     13  C   UNL A   1      33.159  30.380  26.916  1.00  0.00     0.009 A 
ATOM     14  C   UNL A   1      35.189  29.205  27.364  1.00  0.00     0.009 A 
ATOM     15  C   UNL A   1      33.907  29.202  26.800  1.00  0.00    -0.018 A 
BRANCH  15  16
ATOM     16  C   UNL A   1      33.359  27.989  26.120  1.00  0.00    -0.011 A 
ATOM     17  C   UNL A   1      33.760  27.557  24.786  1.00  0.00     0.027 A 
ATOM     18  C   UNL A   1      32.428  27.248  26.754  1.00  0.00     0.080 A 
ATOM     19  C   UNL A   1      33.228  26.465  24.218  1.00  0.00     0.095 A 
ATOM     20  C   UNL A   1      31.906  25.978  26.179  1.00  0.00     0.255 A 
ATOM     21  N   UNL A   1      32.323  25.676  24.897  1.00  0.00    -0.258 N 
ATOM     22  O   UNL A   1      31.194  25.273  26.886  1.00  0.00    -0.269 OA
BRANCH  21  23
ATOM     23  C   UNL A   1      31.783  24.484  24.287  1.00  0.00     0.451 C 
ATOM     24  F   UNL A   1      31.150  24.786  23.123  1.00  0.00    -0.185 F 
ATOM     25  F   UNL A   1      32.764  23.603  23.993  1.00  0.00    -0.185 F 
ENDBRANCH  21  23
ENDBRANCH  15  16
ENDBRANCH   8  10
ENDBRANCH   6   8
ENDBRANCH   5   6
ENDBRANCH   4   5
ENDBRANCH   3   4
ENDBRANCH   2   3
ENDBRANCH   1   2
BRANCH   1  26
ATOM     26  C   UNL A   1      34.474  35.013  33.480  1.00  0.00     0.188 C 
BRANCH  26  27
ATOM     27  O   UNL A   1      34.986  34.164  32.479  1.00  0.00    -0.376 OA
BRANCH  27  28
ATOM     28  C   UNL A   1      34.719  32.776  32.546  1.00  0.00     0.202 C 
BRANCH  28  29
ATOM     29  C   UNL A   1      35.691  31.709  32.002  1.00  0.00     0.261 C 
BRANCH  29  30
ATOM     30  O   UNL A   1      36.522  31.015  32.943  1.00  0.00    -0.460 OA
BRANCH  30  31
ATOM     31  C   UNL A   1      37.312  30.033  32.460  1.00  0.00     0.338 C 
ATOM     32  O   UNL A   1      37.014  28.849  32.328  1.00  0.00    -0.246 OA
BRANCH  31  33
ATOM     33  C   UNL A   1      38.525  30.655  31.892  1.00  0.00     0.060 A 
ATOM     34  C   UNL A   1      38.775  30.511  30.521  1.00  0.00     0.016 A 
ATOM     35  C   UNL A   1      39.412  31.370  32.699  1.00  0.00     0.016 A 
ATOM     36  C   UNL A   1      39.917  31.077  29.956  1.00  0.00     0.010 A 
ATOM     37  C   UNL A   1      40.570  31.917  32.132  1.00  0.00     0.010 A 
ATOM     38  C   UNL A   1      40.837  31.758  30.759  1.00  0.00    -0.014 A 
BRANCH  38  39
ATOM     39  C   UNL A   1      42.157  32.129  30.194  1.00  0.00     0.031 A 
ATOM     40  C   UNL A   1      42.412  33.576  29.874  1.00  0.00     0.074 A 
ATOM     41  C   UNL A   1      43.120  31.210  29.987  1.00  0.00     0.049 A 
ATOM     42  N   UNL A   1      43.469  34.138  29.352  1.00  0.00    -0.248 NA
ATOM     43  C   UNL A   1      41.331  34.520  30.208  1.00  0.00     0.031 C 
ATOM     44  C   UNL A   1      43.024  29.793  30.328  1.00  0.00     0.029 A 
ATOM     45  N   UNL A   1      44.364  31.336  29.418  1.00  0.00    -0.354 N 
ATOM     46  C   UNL A   1      43.165  35.488  29.247  1.00  0.00     0.074 A 
ATOM     47  C   UNL A   1      41.833  35.668  29.780  1.00  0.00     0.031 C 
ATOM     48  C   UNL A   1      44.146  29.171  29.925  1.00  0.00     0.029 A 
ATOM     49  C   UNL A   1      45.024  30.136  29.266  1.00  0.00     0.049 A 
ATOM     50  H   UNL A   1      44.748  32.200  29.144  1.00  0.00     0.167 HD
ATOM     51  C   UNL A   1      43.924  36.491  28.746  1.00  0.00     0.034 A 
ATOM     52  C   UNL A   1      46.191  29.852  28.647  1.00  0.00     0.034 A 
ATOM     53  C   UNL A   1      45.248  36.310  28.216  1.00  0.00     0.049 A 
ATOM     54  C   UNL A   1      46.996  30.992  28.060  1.00  0.00     0.074 A 
ATOM     55  C   UNL A   1      46.106  37.267  27.706  1.00  0.00     0.029 A 
ATOM     56  N   UNL A   1      45.894  35.090  28.099  1.00  0.00    -0.354 N 
ATOM     57  N   UNL A   1      46.740  32.281  28.064  1.00  0.00    -0.248 NA
ATOM     58  C   UNL A   1      48.275  30.643  27.423  1.00  0.00     0.031 C 
ATOM     59  C   UNL A   1      47.257  36.620  27.246  1.00  0.00     0.029 A 
ATOM     60  C   UNL A   1      47.136  35.266  27.515  1.00  0.00     0.049 A 
ATOM     61  H   UNL A   1      45.524  34.225  28.390  1.00  0.00     0.167 HD
ATOM     62  C   UNL A   1      47.852  32.895  27.491  1.00  0.00     0.074 A 
ATOM     63  C   UNL A   1      48.788  31.839  27.166  1.00  0.00     0.031 C 
ATOM     64  C   UNL A   1      48.080  34.210  27.246  1.00  0.00     0.034 A 
BRANCH  51  65
ATOM     65  C   UNL A   1      43.327  37.872  28.728  1.00  0.00     0.023 A 
ATOM     66  C   UNL A   1      42.535  38.288  27.638  1.00  0.00     0.012 A 
ATOM     67  C   UNL A   1      43.529  38.749  29.812  1.00  0.00     0.148 A 
ATOM     68  C   UNL A   1      41.985  39.569  27.611  1.00  0.00     0.002 A 
ATOM     69  C   UNL A   1      42.938  40.005  29.799  1.00  0.00     0.091 A 
ATOM     70  F   UNL A   1      44.305  38.342  30.826  1.00  0.00    -0.205 F 
ATOM     71  C   UNL A   1      42.178  40.422  28.695  1.00  0.00     0.022 A 
BRANCH  69  72
ATOM     72  S   UNL A   1      43.066  41.148  31.178  1.00  0.00     0.127 S 
ATOM     73  O   UNL A   1      44.479  41.520  31.122  1.00  0.00    -0.237 OA
ATOM     74  O   UNL A   1      42.139  42.209  30.783  1.00  0.00    -0.237 OA
ATOM     75  O   UNL A   1      42.665  40.399  32.361  1.00  0.00    -0.744 OA
ENDBRANCH  69  72
ENDBRANCH  51  65
BRANCH  52  76
ATOM     76  C   UNL A   1      46.718  28.451  28.618  1.00  0.00     0.023 A 
ATOM     77  C   UNL A   1      47.529  27.990  29.674  1.00  0.00     0.012 A 
ATOM     78  C   UNL A   1      46.417  27.559  27.570  1.00  0.00     0.148 A 
ATOM     79  C   UNL A   1      48.033  26.690  29.693  1.00  0.00     0.002 A 
ATOM     80  C   UNL A   1      46.885  26.247  27.615  1.00  0.00     0.091 A 
ATOM     81  F   UNL A   1      45.668  28.005  26.552  1.00  0.00    -0.205 F 
ATOM     82  C   UNL A   1      47.702  25.814  28.670  1.00  0.00     0.022 A 
BRANCH  80  83
ATOM     83  S   UNL A   1      46.433  25.013  26.390  1.00  0.00     0.127 S 
ATOM     84  O   UNL A   1      47.178  23.844  26.851  1.00  0.00    -0.237 OA
ATOM     85  O   UNL A   1      44.983  24.927  26.566  1.00  0.00    -0.237 OA
ATOM     86  O   UNL A   1      46.852  25.556  25.104  1.00  0.00    -0.744 OA
ENDBRANCH  80  83
ENDBRANCH  52  76
BRANCH  64  87
ATOM     87  C   UNL A   1      49.402  34.600  26.630  1.00  0.00     0.023 A 
ATOM     88  C   UNL A   1      49.516  34.746  25.233  1.00  0.00     0.012 A 
ATOM     89  C   UNL A   1      50.512  34.904  27.446  1.00  0.00     0.148 A 
ATOM     90  C   UNL A   1      50.722  35.145  24.655  1.00  0.00     0.002 A 
ATOM     91  C   UNL A   1      51.692  35.359  26.868  1.00  0.00     0.091 A 
ATOM     92  F   UNL A   1      50.392  34.749  28.773  1.00  0.00    -0.205 F 
ATOM     93  C   UNL A   1      51.803  35.464  25.472  1.00  0.00     0.022 A 
BRANCH  91  94
ATOM     94  S   UNL A   1      53.100  35.902  27.843  1.00  0.00     0.127 S 
ATOM     95  O   UNL A   1      54.056  36.281  26.803  1.00  0.00    -0.237 OA
ATOM     96  O   UNL A   1      52.539  37.026  28.594  1.00  0.00    -0.237 OA
ATOM     97  O   UNL A   1      53.490  34.761  28.659  1.00  0.00    -0.744 OA
ENDBRANCH  91  94
ENDBRANCH  64  87
ENDBRANCH  38  39
ENDBRANCH  31  33
ENDBRANCH  30  31
ENDBRANCH  29  30
ENDBRANCH  28  29
ENDBRANCH  27  28
ENDBRANCH  26  27
ENDBRANCH   1  26
TORSDOF 23
ENDMDL
MODEL 3
REMARK VINA RESULT:     -10.2      4.765     10.430
REMARK SMILES C[C@@H](C(=O)OCCOCCOCCOC(=O)c1ccc(-c2c3nc(c(-c4cccc(S(=O)(=O)[O-])c4F)c4ccc([nH]4)c(-c4cccc(S(=O)(=O)[O-])c4F)c4nc(c(-c5cccc(S(=O)(=O)[O-])c5F)c5ccc2[nH]5)C=C4)C=C3)cc1)c1ccc(-c2ccn(C(F)F)c(=O)c2)cc1
REMARK SMILES IDX 9 1 8 2 7 3 6 4 5 5 3 6 4 7 2 8 1 9 80 10 81 11 95 12 82 13
REMARK SMILES IDX 94 14 83 15 84 16 85 17 93 18 86 19 91 20 87 21 92 22 88 23
REMARK SMILES IDX 89 24 90 25 10 26 11 27 12 28 13 29 14 30 15 31 16 32 17 33
REMARK SMILES IDX 18 34 79 35 19 36 78 37 20 38 21 39 22 40 72 41 23 42 77 43
REMARK SMILES IDX 71 44 73 45 24 46 76 47 70 48 69 49 25 51 57 52 37 53 56 54
REMARK SMILES IDX 38 55 41 56 55 57 74 58 39 59 40 60 54 62 75 63 42 64 26 65
REMARK SMILES IDX 27 66 35 67 28 68 30 69 36 70 29 71 31 72 32 73 33 74 34 75
REMARK SMILES IDX 58 76 59 77 67 78 60 79 62 80 68 81 61 82 63 83 64 84 65 85
REMARK SMILES IDX 66 86 43 87 44 88 52 89 45 90 47 91 53 92 46 93 48 94 49 95
REMARK SMILES IDX 50 96 51 97
REMARK H PARENT 73 50 41 61
REMARK Flexibility Score: inf
ROOT
ATOM      1  C   UNL A   1      33.014  36.021  30.071  1.00  0.00     0.188 C 
ENDROOT
BRANCH   1   2
ATOM      2  O   UNL A   1      32.484  35.287  28.974  1.00  0.00    -0.376 OA
BRANCH   2   3
ATOM      3  C   UNL A   1      33.268  34.244  28.406  1.00  0.00     0.202 C 
BRANCH   3   4
ATOM      4  C   UNL A   1      34.554  34.600  27.642  1.00  0.00     0.261 C 
BRANCH   4   5
ATOM      5  O   UNL A   1      35.579  33.580  27.654  1.00  0.00    -0.463 OA
BRANCH   5   6
ATOM      6  C   UNL A   1      36.183  33.354  28.853  1.00  0.00     0.313 C 
ATOM      7  O   UNL A   1      36.896  34.177  29.421  1.00  0.00    -0.252 OA
BRANCH   6   8
ATOM      8  C   UNL A   1      35.906  31.965  29.455  1.00  0.00     0.126 C 
ATOM      9  C   UNL A   1      35.443  31.933  30.916  1.00  0.00     0.025 C 
BRANCH   8  10
ATOM     10  C   UNL A   1      36.987  30.951  29.075  1.00  0.00    -0.034 A 
ATOM     11  C   UNL A   1      38.331  31.340  29.184  1.00  0.00     0.005 A 
ATOM     12  C   UNL A   1      36.733  29.644  28.641  1.00  0.00     0.005 A 
ATOM     13  C   UNL A   1      39.378  30.461  28.877  1.00  0.00     0.009 A 
ATOM     14  C   UNL A   1      37.788  28.762  28.339  1.00  0.00     0.009 A 
ATOM     15  C   UNL A   1      39.130  29.145  28.465  1.00  0.00    -0.018 A 
BRANCH  15  16
ATOM     16  C   UNL A   1      40.243  28.197  28.158  1.00  0.00    -0.011 A 
ATOM     17  C   UNL A   1      41.555  28.615  27.679  1.00  0.00     0.027 A 
ATOM     18  C   UNL A   1      40.036  26.873  28.311  1.00  0.00     0.080 A 
ATOM     19  C   UNL A   1      42.516  27.721  27.409  1.00  0.00     0.095 A 
ATOM     20  C   UNL A   1      41.125  25.878  28.115  1.00  0.00     0.255 A 
ATOM     21  N   UNL A   1      42.319  26.373  27.628  1.00  0.00    -0.258 N 
ATOM     22  O   UNL A   1      40.910  24.714  28.438  1.00  0.00    -0.269 OA
BRANCH  21  23
ATOM     23  C   UNL A   1      43.374  25.423  27.365  1.00  0.00     0.451 C 
ATOM     24  F   UNL A   1      43.027  24.591  26.348  1.00  0.00    -0.185 F 
ATOM     25  F   UNL A   1      44.512  26.052  26.999  1.00  0.00    -0.185 F 
ENDBRANCH  21  23
ENDBRANCH  15  16
ENDBRANCH   8  10
ENDBRANCH   6   8
ENDBRANCH   5   6
ENDBRANCH   4   5
ENDBRANCH   3   4
ENDBRANCH   2   3
ENDBRANCH   1   2
BRANCH   1  26
ATOM     26  C   UNL A   1      33.944  35.287  31.053  1.00  0.00     0.188 C 
BRANCH  26  27
ATOM     27  O   UNL A   1      33.322  34.838  32.234  1.00  0.00    -0.376 OA
BRANCH  27  28
ATOM     28  C   UNL A   1      34.003  34.967  33.467  1.00  0.00     0.202 C 
BRANCH  28  29
ATOM     29  C   UNL A   1      34.834  33.825  34.089  1.00  0.00     0.261 C 
BRANCH  29  30
ATOM     30  O   UNL A   1      36.255  33.845  33.896  1.00  0.00    -0.460 OA
BRANCH  30  31
ATOM     31  C   UNL A   1      37.013  33.241  34.835  1.00  0.00     0.338 C 
ATOM     32  O   UNL A   1      36.723  33.074  36.017  1.00  0.00    -0.246 OA
BRANCH  31  33
ATOM     33  C   UNL A   1      38.159  32.599  34.160  1.00  0.00     0.060 A 
ATOM     34  C   UNL A   1      39.455  32.911  34.593  1.00  0.00     0.016 A 
ATOM     35  C   UNL A   1      37.963  31.703  33.108  1.00  0.00     0.016 A 
ATOM     36  C   UNL A   1      40.558  32.330  33.969  1.00  0.00     0.010 A 
ATOM     37  C   UNL A   1      39.075  31.141  32.469  1.00  0.00     0.010 A 
ATOM     38  C   UNL A   1      40.380  31.465  32.886  1.00  0.00    -0.014 A 
BRANCH  38  39
ATOM     39  C   UNL A   1      41.558  31.061  32.081  1.00  0.00     0.031 A 
ATOM     40  C   UNL A   1      42.101  32.038  31.075  1.00  0.00     0.074 A 
ATOM     41  C   UNL A   1      42.150  29.863  32.249  1.00  0.00     0.049 A 
ATOM     42  N   UNL A   1      43.098  31.905  30.242  1.00  0.00    -0.248 NA
ATOM     43  C   UNL A   1      41.439  33.353  31.018  1.00  0.00     0.031 C 
ATOM     44  C   UNL A   1      41.768  28.863  33.242  1.00  0.00     0.029 A 
ATOM     45  N   UNL A   1      43.191  29.280  31.567  1.00  0.00    -0.354 N 
ATOM     46  C   UNL A   1      43.153  33.094  29.527  1.00  0.00     0.074 A 
ATOM     47  C   UNL A   1      42.103  33.948  30.038  1.00  0.00     0.031 C 
ATOM     48  C   UNL A   1      42.537  27.771  33.079  1.00  0.00     0.029 A 
ATOM     49  C   UNL A   1      43.441  27.980  31.950  1.00  0.00     0.049 A 
ATOM     50  H   UNL A   1      43.709  29.745  30.871  1.00  0.00     0.167 HD
ATOM     51  C   UNL A   1      43.997  33.443  28.529  1.00  0.00     0.034 A 
ATOM     52  C   UNL A   1      44.286  27.063  31.431  1.00  0.00     0.034 A 
ATOM     53  C   UNL A   1      45.039  32.593  28.021  1.00  0.00     0.049 A 
ATOM     54  C   UNL A   1      45.188  27.474  30.287  1.00  0.00     0.074 A 
ATOM     55  C   UNL A   1      45.961  32.865  27.026  1.00  0.00     0.029 A 
ATOM     56  N   UNL A   1      45.280  31.296  28.446  1.00  0.00    -0.354 N 
ATOM     57  N   UNL A   1      45.299  28.640  29.691  1.00  0.00    -0.248 NA
ATOM     58  C   UNL A   1      46.115  26.455  29.773  1.00  0.00     0.031 C 
ATOM     59  C   UNL A   1      46.735  31.719  26.824  1.00  0.00     0.029 A 
ATOM     60  C   UNL A   1      46.328  30.749  27.727  1.00  0.00     0.049 A 
ATOM     61  H   UNL A   1      44.778  30.832  29.155  1.00  0.00     0.167 HD
ATOM     62  C   UNL A   1      46.347  28.508  28.782  1.00  0.00     0.074 A 
ATOM     63  C   UNL A   1      46.847  27.156  28.917  1.00  0.00     0.031 C 
ATOM     64  C   UNL A   1      46.849  29.418  27.909  1.00  0.00     0.034 A 
BRANCH  51  65
ATOM     65  C   UNL A   1      43.810  34.799  27.904  1.00  0.00     0.023 A 
ATOM     66  C   UNL A   1      42.776  35.014  26.970  1.00  0.00     0.012 A 
ATOM     67  C   UNL A   1      44.648  35.872  28.268  1.00  0.00     0.148 A 
ATOM     68  C   UNL A   1      42.601  36.266  26.382  1.00  0.00     0.002 A 
ATOM     69  C   UNL A   1      44.438  37.127  27.713  1.00  0.00     0.091 A 
ATOM     70  F   UNL A   1      45.640  35.640  29.138  1.00  0.00    -0.205 F 
ATOM     71  C   UNL A   1      43.425  37.323  26.761  1.00  0.00     0.022 A 
BRANCH  69  72
ATOM     72  S   UNL A   1      45.397  38.569  28.191  1.00  0.00     0.127 S 
ATOM     73  O   UNL A   1      45.083  39.502  27.110  1.00  0.00    -0.237 OA
ATOM     74  O   UNL A   1      44.808  38.912  29.485  1.00  0.00    -0.237 OA
ATOM     75  O   UNL A   1      46.783  38.127  28.251  1.00  0.00    -0.744 OA
ENDBRANCH  69  72
ENDBRANCH  51  65
BRANCH  52  76
ATOM     76  C   UNL A   1      44.390  25.695  32.032  1.00  0.00     0.023 A 
ATOM     77  C   UNL A   1      43.842  24.592  31.348  1.00  0.00     0.012 A 
ATOM     78  C   UNL A   1      45.036  25.463  33.261  1.00  0.00     0.148 A 
ATOM     79  C   UNL A   1      43.925  23.299  31.863  1.00  0.00     0.002 A 
ATOM     80  C   UNL A   1      45.156  24.164  33.753  1.00  0.00     0.091 A 
ATOM     81  F   UNL A   1      45.533  26.516  33.926  1.00  0.00    -0.205 F 
ATOM     82  C   UNL A   1      44.591  23.082  33.061  1.00  0.00     0.022 A 
BRANCH  80  83
ATOM     83  S   UNL A   1      46.082  23.771  35.241  1.00  0.00     0.127 S 
ATOM     84  O   UNL A   1      47.405  24.305  34.922  1.00  0.00    -0.237 OA
ATOM     85  O   UNL A   1      45.348  24.518  36.263  1.00  0.00    -0.237 OA
ATOM     86  O   UNL A   1      46.009  22.323  35.384  1.00  0.00    -0.744 OA
ENDBRANCH  80  83
ENDBRANCH  52  76
BRANCH  64  87
ATOM     87  C   UNL A   1      48.022  29.007  27.051  1.00  0.00     0.023 A 
ATOM     88  C   UNL A   1      49.338  29.177  27.524  1.00  0.00     0.012 A 
ATOM     89  C   UNL A   1      47.815  28.372  25.808  1.00  0.00     0.148 A 
ATOM     90  C   UNL A   1      50.429  28.764  26.758  1.00  0.00     0.002 A 
ATOM     91  C   UNL A   1      48.903  27.909  25.078  1.00  0.00     0.091 A 
ATOM     92  F   UNL A   1      46.557  28.228  25.366  1.00  0.00    -0.205 F 
ATOM     93  C   UNL A   1      50.211  28.119  25.544  1.00  0.00     0.022 A 
BRANCH  91  94
ATOM     94  S   UNL A   1      48.718  26.967  23.559  1.00  0.00     0.127 S 
ATOM     95  O   UNL A   1      50.112  26.760  23.165  1.00  0.00    -0.237 OA
ATOM     96  O   UNL A   1      48.032  25.762  24.026  1.00  0.00    -0.237 OA
ATOM     97  O   UNL A   1      47.935  27.801  22.660  1.00  0.00    -0.744 OA
ENDBRANCH  91  94
ENDBRANCH  64  87
ENDBRANCH  38  39
ENDBRANCH  31  33
ENDBRANCH  30  31
ENDBRANCH  29  30
ENDBRANCH  28  29
ENDBRANCH  27  28
ENDBRANCH  26  27
ENDBRANCH   1  26
TORSDOF 23
ENDMDL
