MODEL 1
REMARK VINA RESULT:     -10.1      0.000      0.000
REMARK SMILES COc1ccc(/C=C/c2cc(OC)cc(OC)c2/C=C/C(=O)OCCOCCOCCOC(=O)c2ccc(-c3c4nc(c(-c5cccc(S(=O)(=O)[O-])c5F)c5ccc([nH]5)c(-c5cccc(S(=O)(=O)[O-])c5F)c5nc(c(-c6cccc(S(=O)(=O)[O-])c6F)c6ccc3[nH]6)C=C5)C=C4)cc2)cc1
REMARK SMILES IDX 27 1 26 2 25 3 24 4 23 5 21 6 22 7 20 8 19 9 18 10 9 11
REMARK SMILES IDX 10 12 11 13 15 14 14 15 8 16 7 17 6 18 3 19 4 20 99 21 5 22
REMARK SMILES IDX 98 23 2 24 1 25 12 26 13 27 16 28 17 29 28 30 29 31 30 32
REMARK SMILES IDX 31 33 32 34 33 35 34 36 35 37 36 38 97 39 37 40 96 41 38 42
REMARK SMILES IDX 39 43 40 44 90 45 41 46 95 47 89 48 91 49 42 50 94 51 88 52
REMARK SMILES IDX 87 53 43 55 75 56 55 57 74 58 56 59 59 60 73 61 92 62 57 63
REMARK SMILES IDX 58 64 72 66 93 67 60 68 44 69 45 70 53 71 46 72 48 73 54 74
REMARK SMILES IDX 47 75 49 76 50 77 51 78 52 79 76 80 77 81 85 82 78 83 80 84
REMARK SMILES IDX 86 85 79 86 81 87 82 88 83 89 84 90 61 91 62 92 70 93 63 94
REMARK SMILES IDX 65 95 71 96 64 97 66 98 67 99 68 100 69 101
REMARK H PARENT 91 54 59 65
REMARK Flexibility Score: inf
ROOT
ATOM      1  C   UNL A   1      31.658  28.087  22.611  1.00  0.00     0.188 C 
ENDROOT
BRANCH   1   2
ATOM      2  O   UNL A   1      31.358  26.735  22.361  1.00  0.00    -0.376 OA
BRANCH   2   3
ATOM      3  C   UNL A   1      30.788  25.925  23.376  1.00  0.00     0.202 C 
BRANCH   3   4
ATOM      4  C   UNL A   1      31.120  24.443  23.651  1.00  0.00     0.261 C 
BRANCH   4   5
ATOM      5  O   UNL A   1      30.285  23.735  24.571  1.00  0.00    -0.460 OA
BRANCH   5   6
ATOM      6  C   UNL A   1      30.906  22.817  25.354  1.00  0.00     0.330 C 
ATOM      7  O   UNL A   1      30.425  21.771  25.761  1.00  0.00    -0.247 OA
BRANCH   6   8
ATOM      8  C   UNL A   1      32.307  23.183  25.656  1.00  0.00     0.094 C 
ATOM      9  C   UNL A   1      33.381  22.587  25.120  1.00  0.00     0.020 C 
BRANCH   9  10
ATOM     10  C   UNL A   1      34.772  23.012  25.377  1.00  0.00     0.024 A 
ATOM     11  C   UNL A   1      35.786  22.013  25.329  1.00  0.00    -0.011 A 
ATOM     12  C   UNL A   1      37.130  22.364  25.523  1.00  0.00     0.055 A 
ATOM     13  C   UNL A   1      37.499  23.682  25.782  1.00  0.00     0.123 A 
ATOM     14  C   UNL A   1      35.152  24.338  25.664  1.00  0.00     0.130 A 
ATOM     15  C   UNL A   1      36.509  24.659  25.852  1.00  0.00     0.093 A 
BRANCH  11  16
ATOM     16  C   UNL A   1      35.493  20.577  25.125  1.00  0.00     0.009 C 
ATOM     17  C   UNL A   1      34.244  20.118  24.942  1.00  0.00     0.009 C 
BRANCH  17  18
ATOM     18  C   UNL A   1      33.852  18.702  24.944  1.00  0.00    -0.025 A 
ATOM     19  C   UNL A   1      33.245  15.958  24.900  1.00  0.00     0.118 A 
ATOM     20  C   UNL A   1      32.419  16.849  25.581  1.00  0.00     0.047 A 
ATOM     21  C   UNL A   1      34.350  16.436  24.200  1.00  0.00     0.047 A 
ATOM     22  C   UNL A   1      32.728  18.212  25.618  1.00  0.00     0.012 A 
ATOM     23  C   UNL A   1      34.654  17.799  24.230  1.00  0.00     0.012 A 
BRANCH  19  24
ATOM     24  O   UNL A   1      32.879  14.640  24.930  1.00  0.00    -0.497 OA
ATOM     25  C   UNL A   1      32.306  14.248  26.176  1.00  0.00     0.278 C 
ENDBRANCH  19  24
ENDBRANCH  17  18
ENDBRANCH  11  16
BRANCH  13  26
ATOM     26  O   UNL A   1      38.844  23.883  25.934  1.00  0.00    -0.497 OA
ATOM     27  C   UNL A   1      39.243  24.811  26.936  1.00  0.00     0.278 C 
ENDBRANCH  13  26
BRANCH  14  28
ATOM     28  O   UNL A   1      34.343  25.446  25.699  1.00  0.00    -0.496 OA
ATOM     29  C   UNL A   1      34.199  26.206  24.506  1.00  0.00     0.278 C 
ENDBRANCH  14  28
ENDBRANCH   9  10
ENDBRANCH   6   8
ENDBRANCH   5   6
ENDBRANCH   4   5
ENDBRANCH   3   4
ENDBRANCH   2   3
ENDBRANCH   1   2
BRANCH   1  30
ATOM     30  C   UNL A   1      30.456  28.991  22.934  1.00  0.00     0.188 C 
BRANCH  30  31
ATOM     31  O   UNL A   1      30.420  29.746  24.131  1.00  0.00    -0.376 OA
BRANCH  31  32
ATOM     32  C   UNL A   1      31.479  29.598  25.072  1.00  0.00     0.202 C 
BRANCH  32  33
ATOM     33  C   UNL A   1      31.769  30.640  26.167  1.00  0.00     0.261 C 
BRANCH  33  34
ATOM     34  O   UNL A   1      32.969  30.442  26.926  1.00  0.00    -0.460 OA
BRANCH  34  35
ATOM     35  C   UNL A   1      33.559  31.582  27.370  1.00  0.00     0.338 C 
ATOM     36  O   UNL A   1      33.038  32.669  27.534  1.00  0.00    -0.246 OA
BRANCH  35  37
ATOM     37  C   UNL A   1      34.924  31.270  27.831  1.00  0.00     0.060 A 
ATOM     38  C   UNL A   1      35.229  29.947  28.187  1.00  0.00     0.016 A 
ATOM     39  C   UNL A   1      35.865  32.287  27.979  1.00  0.00     0.016 A 
ATOM     40  C   UNL A   1      36.482  29.638  28.713  1.00  0.00     0.010 A 
ATOM     41  C   UNL A   1      37.107  31.980  28.533  1.00  0.00     0.010 A 
ATOM     42  C   UNL A   1      37.409  30.663  28.930  1.00  0.00    -0.014 A 
BRANCH  42  43
ATOM     43  C   UNL A   1      38.617  30.421  29.749  1.00  0.00     0.031 A 
ATOM     44  C   UNL A   1      39.653  29.471  29.217  1.00  0.00     0.074 A 
ATOM     45  C   UNL A   1      38.756  30.978  30.964  1.00  0.00     0.049 A 
ATOM     46  N   UNL A   1      40.705  28.977  29.811  1.00  0.00    -0.248 NA
ATOM     47  C   UNL A   1      39.467  29.007  27.831  1.00  0.00     0.031 C 
ATOM     48  C   UNL A   1      37.825  31.927  31.571  1.00  0.00     0.029 A 
ATOM     49  N   UNL A   1      39.717  30.783  31.924  1.00  0.00    -0.354 N 
ATOM     50  C   UNL A   1      41.283  28.111  28.890  1.00  0.00     0.074 A 
ATOM     51  C   UNL A   1      40.468  28.152  27.696  1.00  0.00     0.031 C 
ATOM     52  C   UNL A   1      38.237  32.197  32.823  1.00  0.00     0.029 A 
ATOM     53  C   UNL A   1      39.436  31.413  33.114  1.00  0.00     0.049 A 
ATOM     54  H   UNL A   1      40.529  30.247  31.774  1.00  0.00     0.167 HD
ATOM     55  C   UNL A   1      42.394  27.353  29.028  1.00  0.00     0.034 A 
ATOM     56  C   UNL A   1      40.053  31.328  34.309  1.00  0.00     0.034 A 
ATOM     57  C   UNL A   1      43.206  27.328  30.212  1.00  0.00     0.049 A 
ATOM     58  C   UNL A   1      41.273  30.451  34.445  1.00  0.00     0.074 A 
ATOM     59  C   UNL A   1      44.374  26.622  30.439  1.00  0.00     0.029 A 
ATOM     60  N   UNL A   1      42.927  28.028  31.374  1.00  0.00    -0.354 N 
ATOM     61  N   UNL A   1      41.870  29.716  33.537  1.00  0.00    -0.248 NA
ATOM     62  C   UNL A   1      41.921  30.410  35.765  1.00  0.00     0.031 C 
ATOM     63  C   UNL A   1      44.788  26.878  31.749  1.00  0.00     0.029 A 
ATOM     64  C   UNL A   1      43.896  27.768  32.326  1.00  0.00     0.049 A 
ATOM     65  H   UNL A   1      42.153  28.624  31.503  1.00  0.00     0.167 HD
ATOM     66  C   UNL A   1      42.986  29.167  34.161  1.00  0.00     0.074 A 
ATOM     67  C   UNL A   1      42.987  29.657  35.523  1.00  0.00     0.031 C 
ATOM     68  C   UNL A   1      43.921  28.324  33.654  1.00  0.00     0.034 A 
BRANCH  55  69
ATOM     69  C   UNL A   1      42.805  26.498  27.860  1.00  0.00     0.023 A 
ATOM     70  C   UNL A   1      43.475  27.082  26.767  1.00  0.00     0.012 A 
ATOM     71  C   UNL A   1      42.574  25.108  27.868  1.00  0.00     0.148 A 
ATOM     72  C   UNL A   1      43.881  26.303  25.685  1.00  0.00     0.002 A 
ATOM     73  C   UNL A   1      43.021  24.331  26.808  1.00  0.00     0.091 A 
ATOM     74  F   UNL A   1      41.913  24.576  28.906  1.00  0.00    -0.205 F 
ATOM     75  C   UNL A   1      43.665  24.927  25.710  1.00  0.00     0.022 A 
BRANCH  73  76
ATOM     76  S   UNL A   1      42.859  22.542  26.783  1.00  0.00     0.127 S 
ATOM     77  O   UNL A   1      41.662  22.366  25.963  1.00  0.00    -0.237 OA
ATOM     78  O   UNL A   1      44.106  22.129  26.138  1.00  0.00    -0.237 OA
ATOM     79  O   UNL A   1      42.730  22.132  28.174  1.00  0.00    -0.744 OA
ENDBRANCH  73  76
ENDBRANCH  55  69
BRANCH  56  80
ATOM     80  C   UNL A   1      39.545  32.110  35.471  1.00  0.00     0.023 A 
ATOM     81  C   UNL A   1      38.636  31.511  36.363  1.00  0.00     0.012 A 
ATOM     82  C   UNL A   1      39.961  33.436  35.701  1.00  0.00     0.148 A 
ATOM     83  C   UNL A   1      38.125  32.228  37.446  1.00  0.00     0.002 A 
ATOM     84  C   UNL A   1      39.489  34.127  36.811  1.00  0.00     0.091 A 
ATOM     85  F   UNL A   1      40.814  33.995  34.831  1.00  0.00    -0.205 F 
ATOM     86  C   UNL A   1      38.557  33.531  37.676  1.00  0.00     0.022 A 
BRANCH  84  87
ATOM     87  S   UNL A   1      40.081  35.764  37.253  1.00  0.00     0.127 S 
ATOM     88  O   UNL A   1      39.677  36.551  36.091  1.00  0.00    -0.237 OA
ATOM     89  O   UNL A   1      39.325  36.039  38.476  1.00  0.00    -0.237 OA
ATOM     90  O   UNL A   1      41.517  35.622  37.453  1.00  0.00    -0.744 OA
ENDBRANCH  84  87
ENDBRANCH  56  80
BRANCH  68  91
ATOM     91  C   UNL A   1      45.070  27.922  34.540  1.00  0.00     0.023 A 
ATOM     92  C   UNL A   1      46.223  28.727  34.611  1.00  0.00     0.012 A 
ATOM     93  C   UNL A   1      44.950  26.805  35.393  1.00  0.00     0.148 A 
ATOM     94  C   UNL A   1      47.247  28.417  35.505  1.00  0.00     0.002 A 
ATOM     95  C   UNL A   1      45.951  26.531  36.315  1.00  0.00     0.091 A 
ATOM     96  F   UNL A   1      43.850  26.045  35.296  1.00  0.00    -0.205 F 
ATOM     97  C   UNL A   1      47.106  27.330  36.366  1.00  0.00     0.022 A 
BRANCH  95  98
ATOM     98  S   UNL A   1      45.811  25.216  37.530  1.00  0.00     0.127 S 
ATOM     99  O   UNL A   1      47.120  25.267  38.177  1.00  0.00    -0.237 OA
ATOM    100  O   UNL A   1      44.700  25.681  38.362  1.00  0.00    -0.237 OA
ATOM    101  O   UNL A   1      45.535  24.000  36.778  1.00  0.00    -0.744 OA
ENDBRANCH  95  98
ENDBRANCH  68  91
ENDBRANCH  42  43
ENDBRANCH  35  37
ENDBRANCH  34  35
ENDBRANCH  33  34
ENDBRANCH  32  33
ENDBRANCH  31  32
ENDBRANCH  30  31
ENDBRANCH   1  30
TORSDOF 26
ENDMDL
MODEL 2
REMARK VINA RESULT:     -10.0      1.429      7.328
REMARK SMILES COc1ccc(/C=C/c2cc(OC)cc(OC)c2/C=C/C(=O)OCCOCCOCCOC(=O)c2ccc(-c3c4nc(c(-c5cccc(S(=O)(=O)[O-])c5F)c5ccc([nH]5)c(-c5cccc(S(=O)(=O)[O-])c5F)c5nc(c(-c6cccc(S(=O)(=O)[O-])c6F)c6ccc3[nH]6)C=C5)C=C4)cc2)cc1
REMARK SMILES IDX 27 1 26 2 25 3 24 4 23 5 21 6 22 7 20 8 19 9 18 10 9 11
REMARK SMILES IDX 10 12 11 13 15 14 14 15 8 16 7 17 6 18 3 19 4 20 99 21 5 22
REMARK SMILES IDX 98 23 2 24 1 25 12 26 13 27 16 28 17 29 28 30 29 31 30 32
REMARK SMILES IDX 31 33 32 34 33 35 34 36 35 37 36 38 97 39 37 40 96 41 38 42
REMARK SMILES IDX 39 43 40 44 90 45 41 46 95 47 89 48 91 49 42 50 94 51 88 52
REMARK SMILES IDX 87 53 43 55 75 56 55 57 74 58 56 59 59 60 73 61 92 62 57 63
REMARK SMILES IDX 58 64 72 66 93 67 60 68 44 69 45 70 53 71 46 72 48 73 54 74
REMARK SMILES IDX 47 75 49 76 50 77 51 78 52 79 76 80 77 81 85 82 78 83 80 84
REMARK SMILES IDX 86 85 79 86 81 87 82 88 83 89 84 90 61 91 62 92 70 93 63 94
REMARK SMILES IDX 65 95 71 96 64 97 66 98 67 99 68 100 69 101
REMARK H PARENT 91 54 59 65
REMARK Flexibility Score: inf
ROOT
ATOM      1  C   UNL A   1      30.335  28.517  23.162  1.00  0.00     0.188 C 
ENDROOT
BRANCH   1   2
ATOM      2  O   UNL A   1      29.668  27.335  23.532  1.00  0.00    -0.376 OA
BRANCH   2   3
ATOM      3  C   UNL A   1      29.934  26.719  24.782  1.00  0.00     0.202 C 
BRANCH   3   4
ATOM      4  C   UNL A   1      29.932  25.202  25.067  1.00  0.00     0.261 C 
BRANCH   4   5
ATOM      5  O   UNL A   1      29.529  24.773  26.371  1.00  0.00    -0.460 OA
BRANCH   5   6
ATOM      6  C   UNL A   1      30.159  23.674  26.856  1.00  0.00     0.330 C 
ATOM      7  O   UNL A   1      29.623  22.650  27.254  1.00  0.00    -0.247 OA
BRANCH   6   8
ATOM      8  C   UNL A   1      31.631  23.802  26.825  1.00  0.00     0.094 C 
ATOM      9  C   UNL A   1      32.416  23.325  25.848  1.00  0.00     0.020 C 
BRANCH   9  10
ATOM     10  C   UNL A   1      33.878  23.525  25.795  1.00  0.00     0.024 A 
ATOM     11  C   UNL A   1      34.701  22.364  25.753  1.00  0.00    -0.011 A 
ATOM     12  C   UNL A   1      36.095  22.491  25.658  1.00  0.00     0.055 A 
ATOM     13  C   UNL A   1      36.701  23.745  25.622  1.00  0.00     0.123 A 
ATOM     14  C   UNL A   1      34.502  24.789  25.782  1.00  0.00     0.130 A 
ATOM     15  C   UNL A   1      35.902  24.884  25.686  1.00  0.00     0.093 A 
BRANCH  11  16
ATOM     16  C   UNL A   1      34.161  20.990  25.850  1.00  0.00     0.009 C 
ATOM     17  C   UNL A   1      34.692  19.961  25.170  1.00  0.00     0.009 C 
BRANCH  17  18
ATOM     18  C   UNL A   1      34.093  18.625  25.047  1.00  0.00    -0.025 A 
ATOM     19  C   UNL A   1      33.083  16.018  24.760  1.00  0.00     0.118 A 
ATOM     20  C   UNL A   1      32.394  16.958  25.525  1.00  0.00     0.047 A 
ATOM     21  C   UNL A   1      34.251  16.386  24.098  1.00  0.00     0.047 A 
ATOM     22  C   UNL A   1      32.903  18.250  25.681  1.00  0.00     0.012 A 
ATOM     23  C   UNL A   1      34.756  17.681  24.249  1.00  0.00     0.012 A 
BRANCH  19  24
ATOM     24  O   UNL A   1      32.523  14.772  24.673  1.00  0.00    -0.497 OA
ATOM     25  C   UNL A   1      32.900  13.915  25.750  1.00  0.00     0.278 C 
ENDBRANCH  19  24
ENDBRANCH  17  18
ENDBRANCH  11  16
BRANCH  13  26
ATOM     26  O   UNL A   1      38.065  23.721  25.514  1.00  0.00    -0.497 OA
ATOM     27  C   UNL A   1      38.708  22.483  25.796  1.00  0.00     0.278 C 
ENDBRANCH  13  26
BRANCH  14  28
ATOM     28  O   UNL A   1      33.892  26.018  25.759  1.00  0.00    -0.496 OA
ATOM     29  C   UNL A   1      33.888  26.739  24.534  1.00  0.00     0.278 C 
ENDBRANCH  14  28
ENDBRANCH   9  10
ENDBRANCH   6   8
ENDBRANCH   5   6
ENDBRANCH   4   5
ENDBRANCH   3   4
ENDBRANCH   2   3
ENDBRANCH   1   2
BRANCH   1  30
ATOM     30  C   UNL A   1      29.552  29.824  23.379  1.00  0.00     0.188 C 
BRANCH  30  31
ATOM     31  O   UNL A   1      30.023  30.808  24.282  1.00  0.00    -0.376 OA
BRANCH  31  32
ATOM     32  C   UNL A   1      31.025  30.452  25.229  1.00  0.00     0.202 C 
BRANCH  32  33
ATOM     33  C   UNL A   1      31.482  31.401  26.352  1.00  0.00     0.261 C 
BRANCH  33  34
ATOM     34  O   UNL A   1      32.621  30.978  27.112  1.00  0.00    -0.460 OA
BRANCH  34  35
ATOM     35  C   UNL A   1      33.467  31.976  27.477  1.00  0.00     0.338 C 
ATOM     36  O   UNL A   1      33.201  33.155  27.625  1.00  0.00    -0.246 OA
BRANCH  35  37
ATOM     37  C   UNL A   1      34.759  31.391  27.877  1.00  0.00     0.060 A 
ATOM     38  C   UNL A   1      34.842  30.001  28.056  1.00  0.00     0.016 A 
ATOM     39  C   UNL A   1      35.851  32.214  28.143  1.00  0.00     0.016 A 
ATOM     40  C   UNL A   1      36.025  29.428  28.522  1.00  0.00     0.010 A 
ATOM     41  C   UNL A   1      37.023  31.641  28.636  1.00  0.00     0.010 A 
ATOM     42  C   UNL A   1      37.104  30.253  28.857  1.00  0.00    -0.014 A 
BRANCH  42  43
ATOM     43  C   UNL A   1      38.249  29.715  29.622  1.00  0.00     0.031 A 
ATOM     44  C   UNL A   1      38.504  30.268  30.996  1.00  0.00     0.074 A 
ATOM     45  C   UNL A   1      39.082  28.808  29.083  1.00  0.00     0.049 A 
ATOM     46  N   UNL A   1      39.524  30.079  31.788  1.00  0.00    -0.248 NA
ATOM     47  C   UNL A   1      37.471  31.166  31.542  1.00  0.00     0.031 C 
ATOM     48  C   UNL A   1      38.923  28.189  27.768  1.00  0.00     0.029 A 
ATOM     49  N   UNL A   1      40.258  28.288  29.563  1.00  0.00    -0.354 N 
ATOM     50  C   UNL A   1      39.280  30.867  32.907  1.00  0.00     0.074 A 
ATOM     51  C   UNL A   1      38.013  31.531  32.694  1.00  0.00     0.031 C 
ATOM     52  C   UNL A   1      39.989  27.407  27.525  1.00  0.00     0.029 A 
ATOM     53  C   UNL A   1      40.918  27.499  28.650  1.00  0.00     0.049 A 
ATOM     54  H   UNL A   1      40.594  28.461  30.472  1.00  0.00     0.167 HD
ATOM     55  C   UNL A   1      40.043  31.020  34.013  1.00  0.00     0.034 A 
ATOM     56  C   UNL A   1      42.150  26.954  28.703  1.00  0.00     0.034 A 
ATOM     57  C   UNL A   1      41.294  30.347  34.224  1.00  0.00     0.049 A 
ATOM     58  C   UNL A   1      42.995  27.165  29.935  1.00  0.00     0.074 A 
ATOM     59  C   UNL A   1      42.125  30.404  35.328  1.00  0.00     0.029 A 
ATOM     60  N   UNL A   1      41.900  29.505  33.306  1.00  0.00    -0.354 N 
ATOM     61  N   UNL A   1      42.709  27.828  31.031  1.00  0.00    -0.248 NA
ATOM     62  C   UNL A   1      44.322  26.531  29.951  1.00  0.00     0.031 C 
ATOM     63  C   UNL A   1      43.248  29.614  35.066  1.00  0.00     0.029 A 
ATOM     64  C   UNL A   1      43.100  29.040  33.813  1.00  0.00     0.049 A 
ATOM     65  H   UNL A   1      41.531  29.272  32.423  1.00  0.00     0.167 HD
ATOM     66  C   UNL A   1      43.797  27.652  31.880  1.00  0.00     0.074 A 
ATOM     67  C   UNL A   1      44.745  26.814  31.176  1.00  0.00     0.031 C 
ATOM     68  C   UNL A   1      43.997  28.146  33.128  1.00  0.00     0.034 A 
BRANCH  55  69
ATOM     69  C   UNL A   1      39.536  31.942  35.089  1.00  0.00     0.023 A 
ATOM     70  C   UNL A   1      39.744  33.331  34.974  1.00  0.00     0.012 A 
ATOM     71  C   UNL A   1      38.811  31.438  36.187  1.00  0.00     0.148 A 
ATOM     72  C   UNL A   1      39.265  34.203  35.951  1.00  0.00     0.002 A 
ATOM     73  C   UNL A   1      38.298  32.316  37.132  1.00  0.00     0.091 A 
ATOM     74  F   UNL A   1      38.647  30.112  36.290  1.00  0.00    -0.205 F 
ATOM     75  C   UNL A   1      38.533  33.697  37.023  1.00  0.00     0.022 A 
BRANCH  73  76
ATOM     76  S   UNL A   1      37.278  31.770  38.506  1.00  0.00     0.127 S 
ATOM     77  O   UNL A   1      37.028  30.374  38.151  1.00  0.00    -0.237 OA
ATOM     78  O   UNL A   1      38.174  31.957  39.648  1.00  0.00    -0.237 OA
ATOM     79  O   UNL A   1      36.107  32.636  38.505  1.00  0.00    -0.744 OA
ENDBRANCH  73  76
ENDBRANCH  55  69
BRANCH  56  80
ATOM     80  C   UNL A   1      42.656  26.136  27.565  1.00  0.00     0.023 A 
ATOM     81  C   UNL A   1      43.318  26.771  26.498  1.00  0.00     0.012 A 
ATOM     82  C   UNL A   1      42.494  24.737  27.538  1.00  0.00     0.148 A 
ATOM     83  C   UNL A   1      43.781  26.034  25.407  1.00  0.00     0.002 A 
ATOM     84  C   UNL A   1      43.004  24.002  26.474  1.00  0.00     0.091 A 
ATOM     85  F   UNL A   1      41.846  24.153  28.556  1.00  0.00    -0.205 F 
ATOM     86  C   UNL A   1      43.633  24.649  25.399  1.00  0.00     0.022 A 
BRANCH  84  87
ATOM     87  S   UNL A   1      42.965  22.206  26.436  1.00  0.00     0.127 S 
ATOM     88  O   UNL A   1      42.505  21.889  27.785  1.00  0.00    -0.237 OA
ATOM     89  O   UNL A   1      41.989  21.948  25.376  1.00  0.00    -0.237 OA
ATOM     90  O   UNL A   1      44.324  21.790  26.116  1.00  0.00    -0.744 OA
ENDBRANCH  84  87
ENDBRANCH  56  80
BRANCH  68  91
ATOM     91  C   UNL A   1      45.253  27.750  33.856  1.00  0.00     0.023 A 
ATOM     92  C   UNL A   1      46.422  28.524  33.721  1.00  0.00     0.012 A 
ATOM     93  C   UNL A   1      45.235  26.677  34.770  1.00  0.00     0.148 A 
ATOM     94  C   UNL A   1      47.559  28.225  34.471  1.00  0.00     0.002 A 
ATOM     95  C   UNL A   1      46.354  26.415  35.549  1.00  0.00     0.091 A 
ATOM     96  F   UNL A   1      44.115  25.945  34.871  1.00  0.00    -0.205 F 
ATOM     97  C   UNL A   1      47.520  27.182  35.394  1.00  0.00     0.022 A 
BRANCH  95  98
ATOM     98  S   UNL A   1      46.363  25.159  36.834  1.00  0.00     0.127 S 
ATOM     99  O   UNL A   1      44.934  24.968  37.075  1.00  0.00    -0.237 OA
ATOM    100  O   UNL A   1      47.025  24.037  36.166  1.00  0.00    -0.237 OA
ATOM    101  O   UNL A   1      47.111  25.727  37.947  1.00  0.00    -0.744 OA
ENDBRANCH  95  98
ENDBRANCH  68  91
ENDBRANCH  42  43
ENDBRANCH  35  37
ENDBRANCH  34  35
ENDBRANCH  33  34
ENDBRANCH  32  33
ENDBRANCH  31  32
ENDBRANCH  30  31
ENDBRANCH   1  30
TORSDOF 26
ENDMDL
MODEL 3
REMARK VINA RESULT:      -9.5      2.552      8.986
REMARK SMILES COc1ccc(/C=C/c2cc(OC)cc(OC)c2/C=C/C(=O)OCCOCCOCCOC(=O)c2ccc(-c3c4nc(c(-c5cccc(S(=O)(=O)[O-])c5F)c5ccc([nH]5)c(-c5cccc(S(=O)(=O)[O-])c5F)c5nc(c(-c6cccc(S(=O)(=O)[O-])c6F)c6ccc3[nH]6)C=C5)C=C4)cc2)cc1
REMARK SMILES IDX 27 1 26 2 25 3 24 4 23 5 21 6 22 7 20 8 19 9 18 10 9 11
REMARK SMILES IDX 10 12 11 13 15 14 14 15 8 16 7 17 6 18 3 19 4 20 99 21 5 22
REMARK SMILES IDX 98 23 2 24 1 25 12 26 13 27 16 28 17 29 28 30 29 31 30 32
REMARK SMILES IDX 31 33 32 34 33 35 34 36 35 37 36 38 97 39 37 40 96 41 38 42
REMARK SMILES IDX 39 43 40 44 90 45 41 46 95 47 89 48 91 49 42 50 94 51 88 52
REMARK SMILES IDX 87 53 43 55 75 56 55 57 74 58 56 59 59 60 73 61 92 62 57 63
REMARK SMILES IDX 58 64 72 66 93 67 60 68 44 69 45 70 53 71 46 72 48 73 54 74
REMARK SMILES IDX 47 75 49 76 50 77 51 78 52 79 76 80 77 81 85 82 78 83 80 84
REMARK SMILES IDX 86 85 79 86 81 87 82 88 83 89 84 90 61 91 62 92 70 93 63 94
REMARK SMILES IDX 65 95 71 96 64 97 66 98 67 99 68 100 69 101
REMARK H PARENT 91 54 59 65
REMARK Flexibility Score: inf
ROOT
ATOM      1  C   UNL A   1      32.407  31.594  26.617  1.00  0.00     0.188 C 
ENDROOT
BRANCH   1   2
ATOM      2  O   UNL A   1      31.587  30.456  26.506  1.00  0.00    -0.376 OA
BRANCH   2   3
ATOM      3  C   UNL A   1      31.689  29.601  25.380  1.00  0.00     0.202 C 
BRANCH   3   4
ATOM      4  C   UNL A   1      32.975  28.914  24.873  1.00  0.00     0.261 C 
BRANCH   4   5
ATOM      5  O   UNL A   1      33.442  29.261  23.566  1.00  0.00    -0.460 OA
BRANCH   5   6
ATOM      6  C   UNL A   1      33.931  28.240  22.819  1.00  0.00     0.330 C 
ATOM      7  O   UNL A   1      34.567  28.344  21.781  1.00  0.00    -0.247 OA
BRANCH   6   8
ATOM      8  C   UNL A   1      33.657  26.916  23.417  1.00  0.00     0.094 C 
ATOM      9  C   UNL A   1      33.444  25.794  22.715  1.00  0.00     0.020 C 
BRANCH   9  10
ATOM     10  C   UNL A   1      33.243  24.465  23.327  1.00  0.00     0.024 A 
ATOM     11  C   UNL A   1      31.984  24.203  23.937  1.00  0.00    -0.011 A 
ATOM     12  C   UNL A   1      31.720  22.944  24.497  1.00  0.00     0.055 A 
ATOM     13  C   UNL A   1      32.682  21.937  24.485  1.00  0.00     0.123 A 
ATOM     14  C   UNL A   1      34.218  23.447  23.342  1.00  0.00     0.130 A 
ATOM     15  C   UNL A   1      33.923  22.195  23.910  1.00  0.00     0.093 A 
BRANCH  11  16
ATOM     16  C   UNL A   1      30.920  25.224  24.059  1.00  0.00     0.009 C 
ATOM     17  C   UNL A   1      30.435  25.886  22.995  1.00  0.00     0.009 C 
BRANCH  17  18
ATOM     18  C   UNL A   1      29.541  27.050  23.056  1.00  0.00    -0.025 A 
ATOM     19  C   UNL A   1      27.744  29.200  23.277  1.00  0.00     0.118 A 
ATOM     20  C   UNL A   1      28.987  29.382  22.673  1.00  0.00     0.047 A 
ATOM     21  C   UNL A   1      27.374  27.937  23.730  1.00  0.00     0.047 A 
ATOM     22  C   UNL A   1      29.888  28.317  22.576  1.00  0.00     0.012 A 
ATOM     23  C   UNL A   1      28.271  26.871  23.627  1.00  0.00     0.012 A 
BRANCH  19  24
ATOM     24  O   UNL A   1      26.931  30.299  23.345  1.00  0.00    -0.497 OA
ATOM     25  C   UNL A   1      27.654  31.518  23.515  1.00  0.00     0.278 C 
ENDBRANCH  19  24
ENDBRANCH  17  18
ENDBRANCH  11  16
BRANCH  13  26
ATOM     26  O   UNL A   1      32.285  20.756  25.052  1.00  0.00    -0.497 OA
ATOM     27  C   UNL A   1      33.250  20.066  25.837  1.00  0.00     0.278 C 
ENDBRANCH  13  26
BRANCH  14  28
ATOM     28  O   UNL A   1      35.462  23.479  22.763  1.00  0.00    -0.496 OA
ATOM     29  C   UNL A   1      36.499  22.714  23.364  1.00  0.00     0.278 C 
ENDBRANCH  14  28
ENDBRANCH   9  10
ENDBRANCH   6   8
ENDBRANCH   5   6
ENDBRANCH   4   5
ENDBRANCH   3   4
ENDBRANCH   2   3
ENDBRANCH   1   2
BRANCH   1  30
ATOM     30  C   UNL A   1      31.798  32.789  27.371  1.00  0.00     0.188 C 
BRANCH  30  31
ATOM     31  O   UNL A   1      32.514  34.003  27.502  1.00  0.00    -0.376 OA
BRANCH  31  32
ATOM     32  C   UNL A   1      33.034  34.364  28.777  1.00  0.00     0.202 C 
BRANCH  32  33
ATOM     33  C   UNL A   1      34.472  34.029  29.214  1.00  0.00     0.261 C 
BRANCH  33  34
ATOM     34  O   UNL A   1      34.712  32.673  29.612  1.00  0.00    -0.460 OA
BRANCH  34  35
ATOM     35  C   UNL A   1      35.462  31.947  28.744  1.00  0.00     0.338 C 
ATOM     36  O   UNL A   1      35.329  31.868  27.537  1.00  0.00    -0.246 OA
BRANCH  35  37
ATOM     37  C   UNL A   1      36.628  31.395  29.458  1.00  0.00     0.060 A 
ATOM     38  C   UNL A   1      37.895  31.944  29.204  1.00  0.00     0.016 A 
ATOM     39  C   UNL A   1      36.478  30.302  30.308  1.00  0.00     0.016 A 
ATOM     40  C   UNL A   1      39.028  31.385  29.793  1.00  0.00     0.010 A 
ATOM     41  C   UNL A   1      37.616  29.726  30.873  1.00  0.00     0.010 A 
ATOM     42  C   UNL A   1      38.895  30.245  30.594  1.00  0.00    -0.014 A 
BRANCH  42  43
ATOM     43  C   UNL A   1      40.087  29.462  30.986  1.00  0.00     0.031 A 
ATOM     44  C   UNL A   1      40.871  29.920  32.184  1.00  0.00     0.074 A 
ATOM     45  C   UNL A   1      40.500  28.412  30.256  1.00  0.00     0.049 A 
ATOM     46  N   UNL A   1      42.027  29.503  32.624  1.00  0.00    -0.248 NA
ATOM     47  C   UNL A   1      40.272  31.003  32.984  1.00  0.00     0.031 C 
ATOM     48  C   UNL A   1      39.809  27.869  29.088  1.00  0.00     0.029 A 
ATOM     49  N   UNL A   1      41.633  27.646  30.367  1.00  0.00    -0.354 N 
ATOM     50  C   UNL A   1      42.317  30.301  33.726  1.00  0.00     0.074 A 
ATOM     51  C   UNL A   1      41.214  31.221  33.889  1.00  0.00     0.031 C 
ATOM     52  C   UNL A   1      40.559  26.885  28.560  1.00  0.00     0.029 A 
ATOM     53  C   UNL A   1      41.794  26.755  29.331  1.00  0.00     0.049 A 
ATOM     54  H   UNL A   1      42.267  27.725  31.116  1.00  0.00     0.167 HD
ATOM     55  C   UNL A   1      43.405  30.266  34.529  1.00  0.00     0.034 A 
ATOM     56  C   UNL A   1      42.839  25.963  29.022  1.00  0.00     0.034 A 
ATOM     57  C   UNL A   1      44.491  29.340  34.368  1.00  0.00     0.049 A 
ATOM     58  C   UNL A   1      44.054  25.964  29.916  1.00  0.00     0.074 A 
ATOM     59  C   UNL A   1      45.621  29.198  35.151  1.00  0.00     0.029 A 
ATOM     60  N   UNL A   1      44.588  28.409  33.347  1.00  0.00    -0.354 N 
ATOM     61  N   UNL A   1      44.272  26.649  31.013  1.00  0.00    -0.248 NA
ATOM     62  C   UNL A   1      45.157  25.065  29.544  1.00  0.00     0.031 C 
ATOM     63  C   UNL A   1      46.416  28.195  34.588  1.00  0.00     0.029 A 
ATOM     64  C   UNL A   1      45.763  27.691  33.474  1.00  0.00     0.049 A 
ATOM     65  H   UNL A   1      43.920  28.278  32.636  1.00  0.00     0.167 HD
ATOM     66  C   UNL A   1      45.512  26.230  31.486  1.00  0.00     0.074 A 
ATOM     67  C   UNL A   1      45.995  25.227  30.561  1.00  0.00     0.031 C 
ATOM     68  C   UNL A   1      46.193  26.644  32.584  1.00  0.00     0.034 A 
BRANCH  55  69
ATOM     69  C   UNL A   1      43.466  31.251  35.664  1.00  0.00     0.023 A 
ATOM     70  C   UNL A   1      43.024  30.868  36.946  1.00  0.00     0.012 A 
ATOM     71  C   UNL A   1      44.007  32.537  35.474  1.00  0.00     0.148 A 
ATOM     72  C   UNL A   1      43.091  31.760  38.016  1.00  0.00     0.002 A 
ATOM     73  C   UNL A   1      44.113  33.405  36.553  1.00  0.00     0.091 A 
ATOM     74  F   UNL A   1      44.398  32.890  34.241  1.00  0.00    -0.205 F 
ATOM     75  C   UNL A   1      43.646  33.023  37.822  1.00  0.00     0.022 A 
BRANCH  73  76
ATOM     76  S   UNL A   1      44.882  35.023  36.421  1.00  0.00     0.127 S 
ATOM     77  O   UNL A   1      43.970  35.710  35.508  1.00  0.00    -0.237 OA
ATOM     78  O   UNL A   1      44.834  35.500  37.804  1.00  0.00    -0.237 OA
ATOM     79  O   UNL A   1      46.224  34.789  35.906  1.00  0.00    -0.744 OA
ENDBRANCH  73  76
ENDBRANCH  55  69
BRANCH  56  80
ATOM     80  C   UNL A   1      42.779  25.081  27.822  1.00  0.00     0.023 A 
ATOM     81  C   UNL A   1      43.333  25.527  26.607  1.00  0.00     0.012 A 
ATOM     82  C   UNL A   1      42.186  23.804  27.879  1.00  0.00     0.148 A 
ATOM     83  C   UNL A   1      43.269  24.733  25.461  1.00  0.00     0.002 A 
ATOM     84  C   UNL A   1      42.173  22.996  26.747  1.00  0.00     0.091 A 
ATOM     85  F   UNL A   1      41.650  23.403  29.040  1.00  0.00    -0.205 F 
ATOM     86  C   UNL A   1      42.699  23.465  25.533  1.00  0.00     0.022 A 
BRANCH  84  87
ATOM     87  S   UNL A   1      41.569  21.305  26.776  1.00  0.00     0.127 S 
ATOM     88  O   UNL A   1      40.493  21.389  27.760  1.00  0.00    -0.237 OA
ATOM     89  O   UNL A   1      41.125  21.120  25.393  1.00  0.00    -0.237 OA
ATOM     90  O   UNL A   1      42.711  20.485  27.155  1.00  0.00    -0.744 OA
ENDBRANCH  84  87
ENDBRANCH  56  80
BRANCH  68  91
ATOM     91  C   UNL A   1      47.505  25.977  32.900  1.00  0.00     0.023 A 
ATOM     92  C   UNL A   1      48.714  26.555  32.465  1.00  0.00     0.012 A 
ATOM     93  C   UNL A   1      47.540  24.840  33.732  1.00  0.00     0.148 A 
ATOM     94  C   UNL A   1      49.937  26.000  32.840  1.00  0.00     0.002 A 
ATOM     95  C   UNL A   1      48.762  24.322  34.142  1.00  0.00     0.091 A 
ATOM     96  F   UNL A   1      46.376  24.298  34.120  1.00  0.00    -0.205 F 
ATOM     97  C   UNL A   1      49.962  24.895  33.689  1.00  0.00     0.022 A 
BRANCH  95  98
ATOM     98  S   UNL A   1      48.892  22.966  35.314  1.00  0.00     0.127 S 
ATOM     99  O   UNL A   1      50.340  22.801  35.419  1.00  0.00    -0.237 OA
ATOM    100  O   UNL A   1      48.252  23.525  36.506  1.00  0.00    -0.237 OA
ATOM    101  O   UNL A   1      48.179  21.846  34.714  1.00  0.00    -0.744 OA
ENDBRANCH  95  98
ENDBRANCH  68  91
ENDBRANCH  42  43
ENDBRANCH  35  37
ENDBRANCH  34  35
ENDBRANCH  33  34
ENDBRANCH  32  33
ENDBRANCH  31  32
ENDBRANCH  30  31
ENDBRANCH   1  30
TORSDOF 26
ENDMDL
