MODEL 1
REMARK VINA RESULT:      -7.4      0.000      0.000
REMARK SMILES CS(=O)(=O)c1ccc(/C=C(/C(=O)OCCOCCOCCOC(=O)c2ccc(-c3c4nc(c(-c5cccc(S(=O)(=O)[O-])c5F)c5ccc([nH]5)c(-c5cccc(S(=O)(=O)[O-])c5F)c5nc(c(-c6cccc(S(=O)(=O)[O-])c6F)c6ccc3[nH]6)C=C5)C=C4)cc2)c2ccccc2)cc1
REMARK SMILES IDX 18 1 17 2 16 3 15 4 14 5 13 6 11 7 12 8 10 9 9 10 8 11 5 12
REMARK SMILES IDX 6 13 95 14 7 15 94 16 2 17 1 18 3 19 4 20 88 21 89 22 93 23
REMARK SMILES IDX 90 24 92 25 91 26 19 27 20 28 21 29 22 30 23 31 24 32 25 33
REMARK SMILES IDX 26 34 87 35 27 36 86 37 28 38 29 39 30 40 80 41 31 42 85 43
REMARK SMILES IDX 79 44 81 45 32 46 84 47 78 48 77 49 33 51 65 52 45 53 64 54
REMARK SMILES IDX 46 55 49 56 63 57 82 58 47 59 48 60 62 62 83 63 50 64 34 65
REMARK SMILES IDX 35 66 43 67 36 68 38 69 44 70 37 71 39 72 40 73 41 74 42 75
REMARK SMILES IDX 66 76 67 77 75 78 68 79 70 80 76 81 69 82 71 83 72 84 73 85
REMARK SMILES IDX 74 86 51 87 52 88 60 89 53 90 55 91 61 92 54 93 56 94 57 95
REMARK SMILES IDX 58 96 59 97
REMARK H PARENT 81 50 49 61
REMARK Flexibility Score: inf
ROOT
ATOM      1  C   UNL A   1      46.456  44.280  35.328  1.00  0.00     0.188 C 
ENDROOT
BRANCH   1   2
ATOM      2  C   UNL A   1      45.934  44.175  33.880  1.00  0.00     0.188 C 
BRANCH   2   3
ATOM      3  O   UNL A   1      44.526  44.308  33.766  1.00  0.00    -0.376 OA
BRANCH   3   4
ATOM      4  C   UNL A   1      43.943  43.707  32.617  1.00  0.00     0.202 C 
BRANCH   4   5
ATOM      5  C   UNL A   1      44.146  42.190  32.539  1.00  0.00     0.261 C 
BRANCH   5   6
ATOM      6  O   UNL A   1      44.062  41.644  31.211  1.00  0.00    -0.460 OA
BRANCH   6   7
ATOM      7  C   UNL A   1      42.911  41.013  30.870  1.00  0.00     0.338 C 
ATOM      8  O   UNL A   1      41.814  41.250  31.350  1.00  0.00    -0.246 OA
BRANCH   7   9
ATOM      9  C   UNL A   1      43.157  40.026  29.761  1.00  0.00     0.067 C 
ATOM     10  C   UNL A   1      43.722  38.829  30.057  1.00  0.00     0.024 C 
BRANCH  10  11
ATOM     11  C   UNL A   1      43.931  37.662  29.168  1.00  0.00    -0.025 A 
ATOM     12  C   UNL A   1      44.009  35.571  27.295  1.00  0.00     0.067 A 
ATOM     13  C   UNL A   1      45.055  36.489  27.349  1.00  0.00     0.021 A 
ATOM     14  C   UNL A   1      42.980  35.620  28.236  1.00  0.00     0.021 A 
ATOM     15  C   UNL A   1      45.023  37.513  28.302  1.00  0.00     0.009 A 
ATOM     16  C   UNL A   1      42.947  36.660  29.170  1.00  0.00     0.009 A 
BRANCH  12  17
ATOM     17  S   UNL A   1      43.933  34.382  25.977  1.00  0.00     0.175 S 
ATOM     18  C   UNL A   1      45.412  34.651  25.031  1.00  0.00     0.163 C 
ATOM     19  O   UNL A   1      42.816  34.754  25.124  1.00  0.00    -0.224 OA
ATOM     20  O   UNL A   1      43.999  33.068  26.583  1.00  0.00    -0.224 OA
ENDBRANCH  12  17
ENDBRANCH  10  11
BRANCH   9  21
ATOM     21  C   UNL A   1      42.748  40.394  28.392  1.00  0.00    -0.011 A 
ATOM     22  C   UNL A   1      43.675  41.007  27.533  1.00  0.00     0.009 A 
ATOM     23  C   UNL A   1      41.492  40.031  27.889  1.00  0.00     0.009 A 
ATOM     24  C   UNL A   1      43.364  41.221  26.190  1.00  0.00     0.001 A 
ATOM     25  C   UNL A   1      41.185  40.246  26.544  1.00  0.00     0.001 A 
ATOM     26  C   UNL A   1      42.122  40.833  25.695  1.00  0.00     0.000 A 
ENDBRANCH   9  21
ENDBRANCH   7   9
ENDBRANCH   6   7
ENDBRANCH   5   6
ENDBRANCH   4   5
ENDBRANCH   3   4
ENDBRANCH   2   3
ENDBRANCH   1   2
BRANCH   1  27
ATOM     27  O   UNL A   1      45.717  43.728  36.412  1.00  0.00    -0.376 OA
BRANCH  27  28
ATOM     28  C   UNL A   1      45.587  42.319  36.520  1.00  0.00     0.202 C 
BRANCH  28  29
ATOM     29  C   UNL A   1      44.208  41.693  36.282  1.00  0.00     0.261 C 
BRANCH  29  30
ATOM     30  O   UNL A   1      44.208  40.533  35.437  1.00  0.00    -0.460 OA
BRANCH  30  31
ATOM     31  C   UNL A   1      44.339  39.349  36.087  1.00  0.00     0.338 C 
ATOM     32  O   UNL A   1      44.251  39.154  37.286  1.00  0.00    -0.246 OA
BRANCH  31  33
ATOM     33  C   UNL A   1      44.440  38.247  35.106  1.00  0.00     0.060 A 
ATOM     34  C   UNL A   1      43.821  38.422  33.861  1.00  0.00     0.016 A 
ATOM     35  C   UNL A   1      45.070  37.041  35.418  1.00  0.00     0.016 A 
ATOM     36  C   UNL A   1      43.806  37.381  32.932  1.00  0.00     0.010 A 
ATOM     37  C   UNL A   1      45.032  35.988  34.495  1.00  0.00     0.010 A 
ATOM     38  C   UNL A   1      44.375  36.144  33.262  1.00  0.00    -0.014 A 
BRANCH  38  39
ATOM     39  C   UNL A   1      44.125  34.973  32.388  1.00  0.00     0.031 A 
ATOM     40  C   UNL A   1      45.211  34.529  31.446  1.00  0.00     0.074 A 
ATOM     41  C   UNL A   1      42.957  34.309  32.430  1.00  0.00     0.049 A 
ATOM     42  N   UNL A   1      45.219  33.530  30.604  1.00  0.00    -0.248 NA
ATOM     43  C   UNL A   1      46.454  35.319  31.458  1.00  0.00     0.031 C 
ATOM     44  C   UNL A   1      41.826  34.639  33.295  1.00  0.00     0.029 A 
ATOM     45  N   UNL A   1      42.523  33.225  31.707  1.00  0.00    -0.354 N 
ATOM     46  C   UNL A   1      46.455  33.579  29.972  1.00  0.00     0.074 A 
ATOM     47  C   UNL A   1      47.169  34.710  30.522  1.00  0.00     0.031 C 
ATOM     48  C   UNL A   1      40.816  33.791  33.035  1.00  0.00     0.029 A 
ATOM     49  C   UNL A   1      41.220  32.873  31.970  1.00  0.00     0.049 A 
ATOM     50  H   UNL A   1      43.091  32.746  31.061  1.00  0.00     0.167 HD
ATOM     51  C   UNL A   1      46.958  32.752  29.026  1.00  0.00     0.034 A 
ATOM     52  C   UNL A   1      40.441  31.932  31.400  1.00  0.00     0.034 A 
ATOM     53  C   UNL A   1      46.252  31.629  28.472  1.00  0.00     0.049 A 
ATOM     54  C   UNL A   1      41.013  31.047  30.320  1.00  0.00     0.074 A 
ATOM     55  C   UNL A   1      46.694  30.714  27.534  1.00  0.00     0.029 A 
ATOM     56  N   UNL A   1      44.949  31.281  28.789  1.00  0.00    -0.354 N 
ATOM     57  N   UNL A   1      42.230  31.017  29.834  1.00  0.00    -0.248 NA
ATOM     58  C   UNL A   1      40.110  30.044  29.733  1.00  0.00     0.031 C 
ATOM     59  C   UNL A   1      45.648  29.825  27.265  1.00  0.00     0.029 A 
ATOM     60  C   UNL A   1      44.564  30.172  28.056  1.00  0.00     0.049 A 
ATOM     61  H   UNL A   1      44.380  31.753  29.440  1.00  0.00     0.167 HD
ATOM     62  C   UNL A   1      42.250  29.974  28.914  1.00  0.00     0.074 A 
ATOM     63  C   UNL A   1      40.928  29.382  28.924  1.00  0.00     0.031 C 
ATOM     64  C   UNL A   1      43.265  29.552  28.120  1.00  0.00     0.034 A 
BRANCH  51  65
ATOM     65  C   UNL A   1      48.358  33.020  28.544  1.00  0.00     0.023 A 
ATOM     66  C   UNL A   1      49.430  32.277  29.078  1.00  0.00     0.012 A 
ATOM     67  C   UNL A   1      48.607  33.969  27.535  1.00  0.00     0.148 A 
ATOM     68  C   UNL A   1      50.733  32.494  28.635  1.00  0.00     0.002 A 
ATOM     69  C   UNL A   1      49.904  34.153  27.070  1.00  0.00     0.091 A 
ATOM     70  F   UNL A   1      47.576  34.684  27.059  1.00  0.00    -0.205 F 
ATOM     71  C   UNL A   1      50.968  33.424  27.625  1.00  0.00     0.022 A 
BRANCH  69  72
ATOM     72  S   UNL A   1      50.298  35.277  25.726  1.00  0.00     0.127 S 
ATOM     73  O   UNL A   1      49.245  34.962  24.761  1.00  0.00    -0.237 OA
ATOM     74  O   UNL A   1      50.166  36.586  26.368  1.00  0.00    -0.237 OA
ATOM     75  O   UNL A   1      51.652  34.942  25.308  1.00  0.00    -0.744 OA
ENDBRANCH  69  72
ENDBRANCH  51  65
BRANCH  52  76
ATOM     76  C   UNL A   1      39.033  31.749  31.858  1.00  0.00     0.023 A 
ATOM     77  C   UNL A   1      38.758  30.860  32.915  1.00  0.00     0.012 A 
ATOM     78  C   UNL A   1      37.971  32.445  31.250  1.00  0.00     0.148 A 
ATOM     79  C   UNL A   1      37.445  30.644  33.338  1.00  0.00     0.002 A 
ATOM     80  C   UNL A   1      36.672  32.265  31.711  1.00  0.00     0.091 A 
ATOM     81  F   UNL A   1      38.252  33.270  30.231  1.00  0.00    -0.205 F 
ATOM     82  C   UNL A   1      36.405  31.353  32.744  1.00  0.00     0.022 A 
BRANCH  80  83
ATOM     83  S   UNL A   1      35.287  33.220  31.081  1.00  0.00     0.127 S 
ATOM     84  O   UNL A   1      34.154  32.567  31.733  1.00  0.00    -0.237 OA
ATOM     85  O   UNL A   1      35.594  34.561  31.576  1.00  0.00    -0.237 OA
ATOM     86  O   UNL A   1      35.347  33.086  29.631  1.00  0.00    -0.744 OA
ENDBRANCH  80  83
ENDBRANCH  52  76
BRANCH  64  87
ATOM     87  C   UNL A   1      43.016  28.368  27.222  1.00  0.00     0.023 A 
ATOM     88  C   UNL A   1      42.568  28.571  25.902  1.00  0.00     0.012 A 
ATOM     89  C   UNL A   1      43.312  27.060  27.656  1.00  0.00     0.148 A 
ATOM     90  C   UNL A   1      42.392  27.491  25.037  1.00  0.00     0.002 A 
ATOM     91  C   UNL A   1      43.179  25.993  26.775  1.00  0.00     0.091 A 
ATOM     92  F   UNL A   1      43.719  26.883  28.922  1.00  0.00    -0.205 F 
ATOM     93  C   UNL A   1      42.710  26.204  25.469  1.00  0.00     0.022 A 
BRANCH  91  94
ATOM     94  S   UNL A   1      43.658  24.318  27.217  1.00  0.00     0.127 S 
ATOM     95  O   UNL A   1      45.117  24.415  27.213  1.00  0.00    -0.237 OA
ATOM     96  O   UNL A   1      43.060  24.161  28.543  1.00  0.00    -0.237 OA
ATOM     97  O   UNL A   1      43.085  23.456  26.192  1.00  0.00    -0.744 OA
ENDBRANCH  91  94
ENDBRANCH  64  87
ENDBRANCH  38  39
ENDBRANCH  31  33
ENDBRANCH  30  31
ENDBRANCH  29  30
ENDBRANCH  28  29
ENDBRANCH  27  28
ENDBRANCH   1  27
TORSDOF 23
ENDMDL
MODEL 2
REMARK VINA RESULT:      -7.0      7.999     13.688
REMARK SMILES CS(=O)(=O)c1ccc(/C=C(/C(=O)OCCOCCOCCOC(=O)c2ccc(-c3c4nc(c(-c5cccc(S(=O)(=O)[O-])c5F)c5ccc([nH]5)c(-c5cccc(S(=O)(=O)[O-])c5F)c5nc(c(-c6cccc(S(=O)(=O)[O-])c6F)c6ccc3[nH]6)C=C5)C=C4)cc2)c2ccccc2)cc1
REMARK SMILES IDX 18 1 17 2 16 3 15 4 14 5 13 6 11 7 12 8 10 9 9 10 8 11 5 12
REMARK SMILES IDX 6 13 95 14 7 15 94 16 2 17 1 18 3 19 4 20 88 21 89 22 93 23
REMARK SMILES IDX 90 24 92 25 91 26 19 27 20 28 21 29 22 30 23 31 24 32 25 33
REMARK SMILES IDX 26 34 87 35 27 36 86 37 28 38 29 39 30 40 80 41 31 42 85 43
REMARK SMILES IDX 79 44 81 45 32 46 84 47 78 48 77 49 33 51 65 52 45 53 64 54
REMARK SMILES IDX 46 55 49 56 63 57 82 58 47 59 48 60 62 62 83 63 50 64 34 65
REMARK SMILES IDX 35 66 43 67 36 68 38 69 44 70 37 71 39 72 40 73 41 74 42 75
REMARK SMILES IDX 66 76 67 77 75 78 68 79 70 80 76 81 69 82 71 83 72 84 73 85
REMARK SMILES IDX 74 86 51 87 52 88 60 89 53 90 55 91 61 92 54 93 56 94 57 95
REMARK SMILES IDX 58 96 59 97
REMARK H PARENT 81 50 49 61
REMARK Flexibility Score: inf
ROOT
ATOM      1  C   UNL A   1      36.178  29.436  28.387  1.00  0.00     0.188 C 
ENDROOT
BRANCH   1   2
ATOM      2  C   UNL A   1      35.964  30.406  27.206  1.00  0.00     0.188 C 
BRANCH   2   3
ATOM      3  O   UNL A   1      34.708  31.067  27.227  1.00  0.00    -0.376 OA
BRANCH   3   4
ATOM      4  C   UNL A   1      33.586  30.244  27.521  1.00  0.00     0.202 C 
BRANCH   4   5
ATOM      5  C   UNL A   1      33.125  29.380  26.343  1.00  0.00     0.261 C 
BRANCH   5   6
ATOM      6  O   UNL A   1      33.329  27.967  26.523  1.00  0.00    -0.460 OA
BRANCH   6   7
ATOM      7  C   UNL A   1      32.224  27.186  26.615  1.00  0.00     0.338 C 
ATOM      8  O   UNL A   1      31.215  27.472  27.237  1.00  0.00    -0.246 OA
BRANCH   7   9
ATOM      9  C   UNL A   1      32.384  25.944  25.780  1.00  0.00     0.067 C 
ATOM     10  C   UNL A   1      32.511  24.744  26.400  1.00  0.00     0.024 C 
BRANCH  10  11
ATOM     11  C   UNL A   1      32.541  23.392  25.795  1.00  0.00    -0.025 A 
ATOM     12  C   UNL A   1      32.847  20.736  24.933  1.00  0.00     0.067 A 
ATOM     13  C   UNL A   1      31.598  21.185  25.359  1.00  0.00     0.021 A 
ATOM     14  C   UNL A   1      33.916  21.627  24.830  1.00  0.00     0.021 A 
ATOM     15  C   UNL A   1      31.447  22.516  25.762  1.00  0.00     0.009 A 
ATOM     16  C   UNL A   1      33.758  22.948  25.256  1.00  0.00     0.009 A 
BRANCH  12  17
ATOM     17  S   UNL A   1      33.107  19.011  24.599  1.00  0.00     0.175 S 
ATOM     18  C   UNL A   1      32.416  18.747  22.985  1.00  0.00     0.163 C 
ATOM     19  O   UNL A   1      32.286  18.262  25.536  1.00  0.00    -0.224 OA
ATOM     20  O   UNL A   1      34.539  18.800  24.534  1.00  0.00    -0.224 OA
ENDBRANCH  12  17
ENDBRANCH  10  11
BRANCH   9  21
ATOM     21  C   UNL A   1      32.371  26.081  24.310  1.00  0.00    -0.011 A 
ATOM     22  C   UNL A   1      33.565  26.372  23.631  1.00  0.00     0.009 A 
ATOM     23  C   UNL A   1      31.216  25.804  23.568  1.00  0.00     0.009 A 
ATOM     24  C   UNL A   1      33.612  26.351  22.237  1.00  0.00     0.001 A 
ATOM     25  C   UNL A   1      31.267  25.783  22.172  1.00  0.00     0.001 A 
ATOM     26  C   UNL A   1      32.464  26.049  21.509  1.00  0.00     0.000 A 
ENDBRANCH   9  21
ENDBRANCH   7   9
ENDBRANCH   6   7
ENDBRANCH   5   6
ENDBRANCH   4   5
ENDBRANCH   3   4
ENDBRANCH   2   3
ENDBRANCH   1   2
BRANCH   1  27
ATOM     27  O   UNL A   1      37.461  29.284  28.983  1.00  0.00    -0.376 OA
BRANCH  27  28
ATOM     28  C   UNL A   1      38.128  30.424  29.501  1.00  0.00     0.202 C 
BRANCH  28  29
ATOM     29  C   UNL A   1      37.378  31.319  30.494  1.00  0.00     0.261 C 
BRANCH  29  30
ATOM     30  O   UNL A   1      36.795  30.628  31.610  1.00  0.00    -0.460 OA
BRANCH  30  31
ATOM     31  C   UNL A   1      37.285  30.985  32.825  1.00  0.00     0.338 C 
ATOM     32  O   UNL A   1      36.761  31.719  33.643  1.00  0.00    -0.246 OA
BRANCH  31  33
ATOM     33  C   UNL A   1      38.508  30.207  33.120  1.00  0.00     0.060 A 
ATOM     34  C   UNL A   1      39.589  30.885  33.701  1.00  0.00     0.016 A 
ATOM     35  C   UNL A   1      38.621  28.858  32.779  1.00  0.00     0.016 A 
ATOM     36  C   UNL A   1      40.797  30.223  33.918  1.00  0.00     0.010 A 
ATOM     37  C   UNL A   1      39.843  28.202  32.973  1.00  0.00     0.010 A 
ATOM     38  C   UNL A   1      40.943  28.889  33.515  1.00  0.00    -0.014 A 
BRANCH  38  39
ATOM     39  C   UNL A   1      42.294  28.277  33.503  1.00  0.00     0.031 A 
ATOM     40  C   UNL A   1      42.990  28.037  34.814  1.00  0.00     0.074 A 
ATOM     41  C   UNL A   1      42.893  27.936  32.348  1.00  0.00     0.049 A 
ATOM     42  N   UNL A   1      44.162  27.505  35.044  1.00  0.00    -0.248 NA
ATOM     43  C   UNL A   1      42.266  28.450  36.029  1.00  0.00     0.031 C 
ATOM     44  C   UNL A   1      42.327  28.119  31.014  1.00  0.00     0.029 A 
ATOM     45  N   UNL A   1      44.127  27.379  32.118  1.00  0.00    -0.354 N 
ATOM     46  C   UNL A   1      44.327  27.536  36.423  1.00  0.00     0.074 A 
ATOM     47  C   UNL A   1      43.138  28.143  36.979  1.00  0.00     0.031 C 
ATOM     48  C   UNL A   1      43.222  27.706  30.100  1.00  0.00     0.029 A 
ATOM     49  C   UNL A   1      44.433  27.251  30.784  1.00  0.00     0.049 A 
ATOM     50  H   UNL A   1      44.736  27.100  32.839  1.00  0.00     0.167 HD
ATOM     51  C   UNL A   1      45.368  27.089  37.163  1.00  0.00     0.034 A 
ATOM     52  C   UNL A   1      45.567  26.833  30.186  1.00  0.00     0.034 A 
ATOM     53  C   UNL A   1      46.553  26.488  36.617  1.00  0.00     0.049 A 
ATOM     54  C   UNL A   1      46.728  26.376  31.034  1.00  0.00     0.074 A 
ATOM     55  C   UNL A   1      47.646  25.974  37.290  1.00  0.00     0.029 A 
ATOM     56  N   UNL A   1      46.812  26.341  35.263  1.00  0.00    -0.354 N 
ATOM     57  N   UNL A   1      46.813  26.281  32.339  1.00  0.00    -0.248 NA
ATOM     58  C   UNL A   1      47.941  25.939  30.324  1.00  0.00     0.031 C 
ATOM     59  C   UNL A   1      48.578  25.537  36.343  1.00  0.00     0.029 A 
ATOM     60  C   UNL A   1      48.053  25.755  35.080  1.00  0.00     0.049 A 
ATOM     61  H   UNL A   1      46.203  26.612  34.539  1.00  0.00     0.167 HD
ATOM     62  C   UNL A   1      48.067  25.740  32.604  1.00  0.00     0.074 A 
ATOM     63  C   UNL A   1      48.702  25.510  31.322  1.00  0.00     0.031 C 
ATOM     64  C   UNL A   1      48.649  25.472  33.799  1.00  0.00     0.034 A 
BRANCH  51  65
ATOM     65  C   UNL A   1      45.258  27.213  38.659  1.00  0.00     0.023 A 
ATOM     66  C   UNL A   1      44.631  26.189  39.396  1.00  0.00     0.012 A 
ATOM     67  C   UNL A   1      45.814  28.315  39.337  1.00  0.00     0.148 A 
ATOM     68  C   UNL A   1      44.534  26.272  40.784  1.00  0.00     0.002 A 
ATOM     69  C   UNL A   1      45.747  28.372  40.724  1.00  0.00     0.091 A 
ATOM     70  F   UNL A   1      46.382  29.291  38.614  1.00  0.00    -0.205 F 
ATOM     71  C   UNL A   1      45.099  27.358  41.447  1.00  0.00     0.022 A 
BRANCH  69  72
ATOM     72  S   UNL A   1      46.506  29.695  41.673  1.00  0.00     0.127 S 
ATOM     73  O   UNL A   1      46.259  29.252  43.044  1.00  0.00    -0.237 OA
ATOM     74  O   UNL A   1      47.904  29.618  41.247  1.00  0.00    -0.237 OA
ATOM     75  O   UNL A   1      45.819  30.917  41.276  1.00  0.00    -0.744 OA
ENDBRANCH  69  72
ENDBRANCH  51  65
BRANCH  52  76
ATOM     76  C   UNL A   1      45.659  26.796  28.698  1.00  0.00     0.023 A 
ATOM     77  C   UNL A   1      45.251  25.639  28.007  1.00  0.00     0.012 A 
ATOM     78  C   UNL A   1      46.152  27.895  27.969  1.00  0.00     0.148 A 
ATOM     79  C   UNL A   1      45.361  25.566  26.618  1.00  0.00     0.002 A 
ATOM     80  C   UNL A   1      46.209  27.835  26.582  1.00  0.00     0.091 A 
ATOM     81  F   UNL A   1      46.555  28.979  28.647  1.00  0.00    -0.205 F 
ATOM     82  C   UNL A   1      45.830  26.665  25.905  1.00  0.00     0.022 A 
BRANCH  80  83
ATOM     83  S   UNL A   1      46.692  29.244  25.577  1.00  0.00     0.127 S 
ATOM     84  O   UNL A   1      45.677  30.230  25.939  1.00  0.00    -0.237 OA
ATOM     85  O   UNL A   1      48.035  29.528  26.081  1.00  0.00    -0.237 OA
ATOM     86  O   UNL A   1      46.654  28.772  24.199  1.00  0.00    -0.744 OA
ENDBRANCH  80  83
ENDBRANCH  52  76
BRANCH  64  87
ATOM     87  C   UNL A   1      50.026  24.860  33.794  1.00  0.00     0.023 A 
ATOM     88  C   UNL A   1      51.163  25.690  33.833  1.00  0.00     0.012 A 
ATOM     89  C   UNL A   1      50.190  23.461  33.843  1.00  0.00     0.148 A 
ATOM     90  C   UNL A   1      52.443  25.138  33.892  1.00  0.00     0.002 A 
ATOM     91  C   UNL A   1      51.466  22.919  33.949  1.00  0.00     0.091 A 
ATOM     92  F   UNL A   1      49.098  22.686  33.786  1.00  0.00    -0.205 F 
ATOM     93  C   UNL A   1      52.594  23.755  33.964  1.00  0.00     0.022 A 
BRANCH  91  94
ATOM     94  S   UNL A   1      51.747  21.155  34.144  1.00  0.00     0.127 S 
ATOM     95  O   UNL A   1      51.025  20.873  35.384  1.00  0.00    -0.237 OA
ATOM     96  O   UNL A   1      51.128  20.604  32.939  1.00  0.00    -0.237 OA
ATOM     97  O   UNL A   1      53.193  20.985  34.209  1.00  0.00    -0.744 OA
ENDBRANCH  91  94
ENDBRANCH  64  87
ENDBRANCH  38  39
ENDBRANCH  31  33
ENDBRANCH  30  31
ENDBRANCH  29  30
ENDBRANCH  28  29
ENDBRANCH  27  28
ENDBRANCH   1  27
TORSDOF 23
ENDMDL
MODEL 3
REMARK VINA RESULT:      -6.8      7.861     15.931
REMARK SMILES CS(=O)(=O)c1ccc(/C=C(/C(=O)OCCOCCOCCOC(=O)c2ccc(-c3c4nc(c(-c5cccc(S(=O)(=O)[O-])c5F)c5ccc([nH]5)c(-c5cccc(S(=O)(=O)[O-])c5F)c5nc(c(-c6cccc(S(=O)(=O)[O-])c6F)c6ccc3[nH]6)C=C5)C=C4)cc2)c2ccccc2)cc1
REMARK SMILES IDX 18 1 17 2 16 3 15 4 14 5 13 6 11 7 12 8 10 9 9 10 8 11 5 12
REMARK SMILES IDX 6 13 95 14 7 15 94 16 2 17 1 18 3 19 4 20 88 21 89 22 93 23
REMARK SMILES IDX 90 24 92 25 91 26 19 27 20 28 21 29 22 30 23 31 24 32 25 33
REMARK SMILES IDX 26 34 87 35 27 36 86 37 28 38 29 39 30 40 80 41 31 42 85 43
REMARK SMILES IDX 79 44 81 45 32 46 84 47 78 48 77 49 33 51 65 52 45 53 64 54
REMARK SMILES IDX 46 55 49 56 63 57 82 58 47 59 48 60 62 62 83 63 50 64 34 65
REMARK SMILES IDX 35 66 43 67 36 68 38 69 44 70 37 71 39 72 40 73 41 74 42 75
REMARK SMILES IDX 66 76 67 77 75 78 68 79 70 80 76 81 69 82 71 83 72 84 73 85
REMARK SMILES IDX 74 86 51 87 52 88 60 89 53 90 55 91 61 92 54 93 56 94 57 95
REMARK SMILES IDX 58 96 59 97
REMARK H PARENT 81 50 49 61
REMARK Flexibility Score: inf
ROOT
ATOM      1  C   UNL A   1      35.729  29.727  28.640  1.00  0.00     0.188 C 
ENDROOT
BRANCH   1   2
ATOM      2  C   UNL A   1      35.409  30.359  27.270  1.00  0.00     0.188 C 
BRANCH   2   3
ATOM      3  O   UNL A   1      34.161  31.034  27.227  1.00  0.00    -0.376 OA
BRANCH   3   4
ATOM      4  C   UNL A   1      33.012  30.199  27.215  1.00  0.00     0.202 C 
BRANCH   4   5
ATOM      5  C   UNL A   1      33.027  29.137  26.111  1.00  0.00     0.261 C 
BRANCH   5   6
ATOM      6  O   UNL A   1      33.275  27.797  26.573  1.00  0.00    -0.460 OA
BRANCH   6   7
ATOM      7  C   UNL A   1      32.211  26.961  26.655  1.00  0.00     0.338 C 
ATOM      8  O   UNL A   1      31.196  27.180  27.297  1.00  0.00    -0.246 OA
BRANCH   7   9
ATOM      9  C   UNL A   1      32.420  25.752  25.784  1.00  0.00     0.067 C 
ATOM     10  C   UNL A   1      32.615  24.543  26.369  1.00  0.00     0.024 C 
BRANCH  10  11
ATOM     11  C   UNL A   1      32.703  23.211  25.726  1.00  0.00    -0.025 A 
ATOM     12  C   UNL A   1      33.112  20.592  24.798  1.00  0.00     0.067 A 
ATOM     13  C   UNL A   1      31.838  20.994  25.192  1.00  0.00     0.021 A 
ATOM     14  C   UNL A   1      34.160  21.513  24.758  1.00  0.00     0.021 A 
ATOM     15  C   UNL A   1      31.636  22.307  25.628  1.00  0.00     0.009 A 
ATOM     16  C   UNL A   1      33.951  22.817  25.217  1.00  0.00     0.009 A 
BRANCH  12  17
ATOM     17  S   UNL A   1      33.432  18.885  24.423  1.00  0.00     0.175 S 
ATOM     18  C   UNL A   1      32.662  17.974  25.737  1.00  0.00     0.163 C 
ATOM     19  O   UNL A   1      34.866  18.677  24.551  1.00  0.00    -0.224 OA
ATOM     20  O   UNL A   1      32.748  18.585  23.182  1.00  0.00    -0.224 OA
ENDBRANCH  12  17
ENDBRANCH  10  11
BRANCH   9  21
ATOM     21  C   UNL A   1      32.380  25.928  24.319  1.00  0.00    -0.011 A 
ATOM     22  C   UNL A   1      33.581  26.090  23.608  1.00  0.00     0.009 A 
ATOM     23  C   UNL A   1      31.179  25.812  23.609  1.00  0.00     0.009 A 
ATOM     24  C   UNL A   1      33.583  26.101  22.213  1.00  0.00     0.001 A 
ATOM     25  C   UNL A   1      31.185  25.822  22.212  1.00  0.00     0.001 A 
ATOM     26  C   UNL A   1      32.386  25.959  21.516  1.00  0.00     0.000 A 
ENDBRANCH   9  21
ENDBRANCH   7   9
ENDBRANCH   6   7
ENDBRANCH   5   6
ENDBRANCH   4   5
ENDBRANCH   3   4
ENDBRANCH   2   3
ENDBRANCH   1   2
BRANCH   1  27
ATOM     27  O   UNL A   1      37.028  29.840  29.211  1.00  0.00    -0.376 OA
BRANCH  27  28
ATOM     28  C   UNL A   1      37.480  31.105  29.665  1.00  0.00     0.202 C 
BRANCH  28  29
ATOM     29  C   UNL A   1      36.447  32.092  30.222  1.00  0.00     0.261 C 
BRANCH  29  30
ATOM     30  O   UNL A   1      35.546  31.541  31.193  1.00  0.00    -0.460 OA
BRANCH  30  31
ATOM     31  C   UNL A   1      35.035  32.437  32.077  1.00  0.00     0.338 C 
ATOM     32  O   UNL A   1      33.937  32.962  32.040  1.00  0.00    -0.246 OA
BRANCH  31  33
ATOM     33  C   UNL A   1      35.948  32.579  33.231  1.00  0.00     0.060 A 
ATOM     34  C   UNL A   1      35.904  33.778  33.956  1.00  0.00     0.016 A 
ATOM     35  C   UNL A   1      36.874  31.588  33.562  1.00  0.00     0.016 A 
ATOM     36  C   UNL A   1      36.804  34.002  34.998  1.00  0.00     0.010 A 
ATOM     37  C   UNL A   1      37.795  31.825  34.591  1.00  0.00     0.010 A 
ATOM     38  C   UNL A   1      37.782  33.043  35.292  1.00  0.00    -0.014 A 
BRANCH  38  39
ATOM     39  C   UNL A   1      38.892  33.395  36.211  1.00  0.00     0.031 A 
ATOM     40  C   UNL A   1      38.743  33.087  37.675  1.00  0.00     0.074 A 
ATOM     41  C   UNL A   1      40.016  33.974  35.754  1.00  0.00     0.049 A 
ATOM     42  N   UNL A   1      39.584  33.293  38.654  1.00  0.00    -0.248 NA
ATOM     43  C   UNL A   1      37.475  32.461  38.090  1.00  0.00     0.031 C 
ATOM     44  C   UNL A   1      40.282  34.326  34.361  1.00  0.00     0.029 A 
ATOM     45  N   UNL A   1      41.139  34.387  36.427  1.00  0.00    -0.354 N 
ATOM     46  C   UNL A   1      38.945  32.841  39.802  1.00  0.00     0.074 A 
ATOM     47  C   UNL A   1      37.643  32.356  39.400  1.00  0.00     0.031 C 
ATOM     48  C   UNL A   1      41.483  34.926  34.285  1.00  0.00     0.029 A 
ATOM     49  C   UNL A   1      42.059  35.022  35.626  1.00  0.00     0.049 A 
ATOM     50  H   UNL A   1      41.273  34.244  37.392  1.00  0.00     0.167 HD
ATOM     51  C   UNL A   1      39.402  32.821  41.076  1.00  0.00     0.034 A 
ATOM     52  C   UNL A   1      43.222  35.627  35.945  1.00  0.00     0.034 A 
ATOM     53  C   UNL A   1      40.693  33.306  41.482  1.00  0.00     0.049 A 
ATOM     54  C   UNL A   1      43.691  35.625  37.379  1.00  0.00     0.074 A 
ATOM     55  C   UNL A   1      41.257  33.295  42.745  1.00  0.00     0.029 A 
ATOM     56  N   UNL A   1      41.612  33.908  40.637  1.00  0.00    -0.354 N 
ATOM     57  N   UNL A   1      43.138  35.069  38.429  1.00  0.00    -0.248 NA
ATOM     58  C   UNL A   1      44.964  36.307  37.664  1.00  0.00     0.031 C 
ATOM     59  C   UNL A   1      42.509  33.913  42.669  1.00  0.00     0.029 A 
ATOM     60  C   UNL A   1      42.735  34.285  41.353  1.00  0.00     0.049 A 
ATOM     61  H   UNL A   1      41.485  34.046  39.671  1.00  0.00     0.167 HD
ATOM     62  C   UNL A   1      44.009  35.302  39.490  1.00  0.00     0.074 A 
ATOM     63  C   UNL A   1      45.138  36.033  38.950  1.00  0.00     0.031 C 
ATOM     64  C   UNL A   1      43.881  34.956  40.794  1.00  0.00     0.034 A 
BRANCH  51  65
ATOM     65  C   UNL A   1      38.501  32.230  42.126  1.00  0.00     0.023 A 
ATOM     66  C   UNL A   1      38.607  30.860  42.441  1.00  0.00     0.012 A 
ATOM     67  C   UNL A   1      37.586  33.035  42.832  1.00  0.00     0.148 A 
ATOM     68  C   UNL A   1      37.798  30.294  43.423  1.00  0.00     0.002 A 
ATOM     69  C   UNL A   1      36.809  32.471  43.836  1.00  0.00     0.091 A 
ATOM     70  F   UNL A   1      37.482  34.330  42.497  1.00  0.00    -0.205 F 
ATOM     71  C   UNL A   1      36.906  31.101  44.126  1.00  0.00     0.022 A 
BRANCH  69  72
ATOM     72  S   UNL A   1      35.682  33.441  44.844  1.00  0.00     0.127 S 
ATOM     73  O   UNL A   1      35.102  34.345  43.851  1.00  0.00    -0.237 OA
ATOM     74  O   UNL A   1      34.764  32.420  45.351  1.00  0.00    -0.237 OA
ATOM     75  O   UNL A   1      36.505  34.076  45.865  1.00  0.00    -0.744 OA
ENDBRANCH  69  72
ENDBRANCH  51  65
BRANCH  52  76
ATOM     76  C   UNL A   1      44.048  36.266  34.882  1.00  0.00     0.023 A 
ATOM     77  C   UNL A   1      45.046  35.513  34.233  1.00  0.00     0.012 A 
ATOM     78  C   UNL A   1      43.855  37.612  34.515  1.00  0.00     0.148 A 
ATOM     79  C   UNL A   1      45.857  36.098  33.259  1.00  0.00     0.002 A 
ATOM     80  C   UNL A   1      44.631  38.173  33.508  1.00  0.00     0.091 A 
ATOM     81  F   UNL A   1      42.914  38.317  35.160  1.00  0.00    -0.205 F 
ATOM     82  C   UNL A   1      45.644  37.423  32.890  1.00  0.00     0.022 A 
BRANCH  80  83
ATOM     83  S   UNL A   1      44.349  39.836  32.890  1.00  0.00     0.127 S 
ATOM     84  O   UNL A   1      45.320  39.918  31.802  1.00  0.00    -0.237 OA
ATOM     85  O   UNL A   1      42.952  39.768  32.465  1.00  0.00    -0.237 OA
ATOM     86  O   UNL A   1      44.591  40.720  34.023  1.00  0.00    -0.744 OA
ENDBRANCH  80  83
ENDBRANCH  52  76
BRANCH  64  87
ATOM     87  C   UNL A   1      45.000  35.319  41.736  1.00  0.00     0.023 A 
ATOM     88  C   UNL A   1      46.079  34.432  41.919  1.00  0.00     0.012 A 
ATOM     89  C   UNL A   1      45.027  36.578  42.369  1.00  0.00     0.148 A 
ATOM     90  C   UNL A   1      47.153  34.779  42.738  1.00  0.00     0.002 A 
ATOM     91  C   UNL A   1      46.122  36.936  43.147  1.00  0.00     0.091 A 
ATOM     92  F   UNL A   1      43.983  37.402  42.199  1.00  0.00    -0.205 F 
ATOM     93  C   UNL A   1      47.181  36.036  43.342  1.00  0.00     0.022 A 
BRANCH  91  94
ATOM     94  S   UNL A   1      46.286  38.569  43.881  1.00  0.00     0.127 S 
ATOM     95  O   UNL A   1      47.552  38.445  44.601  1.00  0.00    -0.237 OA
ATOM     96  O   UNL A   1      46.335  39.437  42.705  1.00  0.00    -0.237 OA
ATOM     97  O   UNL A   1      45.105  38.752  44.715  1.00  0.00    -0.744 OA
ENDBRANCH  91  94
ENDBRANCH  64  87
ENDBRANCH  38  39
ENDBRANCH  31  33
ENDBRANCH  30  31
ENDBRANCH  29  30
ENDBRANCH  28  29
ENDBRANCH  27  28
ENDBRANCH   1  27
TORSDOF 23
ENDMDL
