MODEL 1
REMARK VINA RESULT:      -9.3      0.000      0.000
REMARK SMILES Cc1nnc(SCCC(=O)OCCOCCOCCOC(=O)c2ccc(-c3c4nc(c(-c5cccc(S(=O)(=O)[O-])c5F)c5ccc([nH]5)c(-c5cccc(S(=O)(=O)[O-])c5F)c5nc(c(-c6cccc(S(=O)(=O)[O-])c6F)c6ccc3[nH]6)C=C5)C=C4)cc2)s1
REMARK SMILES IDX 15 1 14 2 13 3 12 4 11 5 9 6 10 7 8 8 7 9 6 10 5 11 1 12
REMARK SMILES IDX 2 13 3 14 86 15 4 16 16 17 17 18 18 19 19 20 20 21 21 22
REMARK SMILES IDX 22 23 23 24 24 25 85 26 25 27 84 28 26 29 27 30 28 31 78 32
REMARK SMILES IDX 29 33 83 34 77 35 79 36 30 37 82 38 76 39 75 40 31 42 63 43
REMARK SMILES IDX 43 44 62 45 44 46 47 47 61 48 80 49 45 50 46 51 60 53 81 54
REMARK SMILES IDX 48 55 32 56 33 57 41 58 34 59 36 60 42 61 35 62 37 63 38 64
REMARK SMILES IDX 39 65 40 66 64 67 65 68 73 69 66 70 68 71 74 72 67 73 69 74
REMARK SMILES IDX 70 75 71 76 72 77 49 78 50 79 58 80 51 81 53 82 59 83 52 84
REMARK SMILES IDX 54 85 55 86 56 87 57 88
REMARK H PARENT 79 41 47 52
REMARK Flexibility Score: inf
ROOT
ATOM      1  C   UNL A   1      32.329  28.458  25.498  1.00  0.00     0.188 C 
ENDROOT
BRANCH   1   2
ATOM      2  O   UNL A   1      31.493  27.479  26.099  1.00  0.00    -0.376 OA
BRANCH   2   3
ATOM      3  C   UNL A   1      30.600  26.844  25.180  1.00  0.00     0.202 C 
BRANCH   3   4
ATOM      4  C   UNL A   1      29.893  25.569  25.686  1.00  0.00     0.261 C 
BRANCH   4   5
ATOM      5  O   UNL A   1      30.578  24.935  26.798  1.00  0.00    -0.463 OA
BRANCH   5   6
ATOM      6  C   UNL A   1      30.509  23.582  26.859  1.00  0.00     0.306 C 
ATOM      7  O   UNL A   1      29.628  22.961  27.443  1.00  0.00    -0.252 OA
BRANCH   6   8
ATOM      8  C   UNL A   1      31.645  22.861  26.163  1.00  0.00     0.134 C 
BRANCH   8   9
ATOM      9  C   UNL A   1      31.911  23.112  24.681  1.00  0.00     0.089 C 
BRANCH   9  10
ATOM     10  S   UNL A   1      33.336  24.210  24.365  1.00  0.00    -0.093 SA
BRANCH  10  11
ATOM     11  C   UNL A   1      34.697  23.150  24.633  1.00  0.00     0.174 A 
ATOM     12  C   UNL A   1      38.066  21.656  25.696  1.00  0.00     0.081 C 
ATOM     13  C   UNL A   1      36.732  22.070  25.202  1.00  0.00     0.115 A 
ATOM     14  N   UNL A   1      36.079  21.432  24.262  1.00  0.00    -0.143 NA
ATOM     15  S   UNL A   1      35.911  23.450  25.811  1.00  0.00    -0.091 S 
ATOM     16  N   UNL A   1      34.897  22.055  23.940  1.00  0.00    -0.132 NA
ENDBRANCH  10  11
ENDBRANCH   9  10
ENDBRANCH   8   9
ENDBRANCH   6   8
ENDBRANCH   5   6
ENDBRANCH   4   5
ENDBRANCH   3   4
ENDBRANCH   2   3
ENDBRANCH   1   2
BRANCH   1  17
ATOM     17  C   UNL A   1      31.645  29.789  25.283  1.00  0.00     0.188 C 
BRANCH  17  18
ATOM     18  O   UNL A   1      31.754  30.644  26.427  1.00  0.00    -0.376 OA
BRANCH  18  19
ATOM     19  C   UNL A   1      31.055  31.879  26.300  1.00  0.00     0.202 C 
BRANCH  19  20
ATOM     20  C   UNL A   1      31.670  32.974  27.180  1.00  0.00     0.261 C 
BRANCH  20  21
ATOM     21  O   UNL A   1      33.094  33.026  27.010  1.00  0.00    -0.460 OA
BRANCH  21  22
ATOM     22  C   UNL A   1      33.763  33.710  27.980  1.00  0.00     0.338 C 
ATOM     23  O   UNL A   1      33.390  34.703  28.570  1.00  0.00    -0.246 OA
BRANCH  22  24
ATOM     24  C   UNL A   1      34.956  32.919  28.375  1.00  0.00     0.060 A 
ATOM     25  C   UNL A   1      34.774  31.557  28.664  1.00  0.00     0.016 A 
ATOM     26  C   UNL A   1      36.238  33.476  28.390  1.00  0.00     0.016 A 
ATOM     27  C   UNL A   1      35.866  30.754  28.989  1.00  0.00     0.010 A 
ATOM     28  C   UNL A   1      37.328  32.680  28.743  1.00  0.00     0.010 A 
ATOM     29  C   UNL A   1      37.138  31.327  29.079  1.00  0.00    -0.014 A 
BRANCH  29  30
ATOM     30  C   UNL A   1      38.215  30.605  29.792  1.00  0.00     0.031 A 
ATOM     31  C   UNL A   1      38.433  30.959  31.238  1.00  0.00     0.074 A 
ATOM     32  C   UNL A   1      38.990  29.693  29.182  1.00  0.00     0.049 A 
ATOM     33  N   UNL A   1      39.355  30.548  32.065  1.00  0.00    -0.248 NA
ATOM     34  C   UNL A   1      37.483  31.922  31.827  1.00  0.00     0.031 C 
ATOM     35  C   UNL A   1      38.862  29.262  27.791  1.00  0.00     0.029 A 
ATOM     36  N   UNL A   1      40.067  28.987  29.657  1.00  0.00    -0.354 N 
ATOM     37  C   UNL A   1      39.119  31.225  33.255  1.00  0.00     0.074 A 
ATOM     38  C   UNL A   1      37.973  32.079  33.045  1.00  0.00     0.031 C 
ATOM     39  C   UNL A   1      39.851  28.392  27.513  1.00  0.00     0.029 A 
ATOM     40  C   UNL A   1      40.693  28.228  28.698  1.00  0.00     0.049 A 
ATOM     41  H   UNL A   1      40.363  29.023  30.595  1.00  0.00     0.167 HD
ATOM     42  C   UNL A   1      39.791  31.137  34.425  1.00  0.00     0.034 A 
ATOM     43  C   UNL A   1      41.832  27.508  28.768  1.00  0.00     0.034 A 
ATOM     44  C   UNL A   1      40.921  30.276  34.632  1.00  0.00     0.049 A 
ATOM     45  C   UNL A   1      42.576  27.442  30.080  1.00  0.00     0.074 A 
ATOM     46  C   UNL A   1      41.650  30.080  35.789  1.00  0.00     0.029 A 
ATOM     47  N   UNL A   1      41.492  29.478  33.654  1.00  0.00    -0.354 N 
ATOM     48  N   UNL A   1      42.279  27.999  31.231  1.00  0.00    -0.248 NA
ATOM     49  C   UNL A   1      43.797  26.623  30.113  1.00  0.00     0.031 C 
ATOM     50  C   UNL A   1      42.682  29.181  35.503  1.00  0.00     0.029 A 
ATOM     51  C   UNL A   1      42.572  28.792  34.177  1.00  0.00     0.049 A 
ATOM     52  H   UNL A   1      41.175  29.409  32.724  1.00  0.00     0.167 HD
ATOM     53  C   UNL A   1      43.248  27.565  32.129  1.00  0.00     0.074 A 
ATOM     54  C   UNL A   1      44.133  26.687  31.394  1.00  0.00     0.031 C 
ATOM     55  C   UNL A   1      43.402  27.874  33.441  1.00  0.00     0.034 A 
BRANCH  42  56
ATOM     56  C   UNL A   1      39.309  31.983  35.570  1.00  0.00     0.023 A 
ATOM     57  C   UNL A   1      38.407  31.443  36.509  1.00  0.00     0.012 A 
ATOM     58  C   UNL A   1      39.782  33.299  35.740  1.00  0.00     0.148 A 
ATOM     59  C   UNL A   1      37.960  32.208  37.585  1.00  0.00     0.002 A 
ATOM     60  C   UNL A   1      39.368  34.039  36.840  1.00  0.00     0.091 A 
ATOM     61  F   UNL A   1      40.615  33.803  34.820  1.00  0.00    -0.205 F 
ATOM     62  C   UNL A   1      38.449  33.500  37.757  1.00  0.00     0.022 A 
BRANCH  60  63
ATOM     63  S   UNL A   1      39.997  35.684  37.193  1.00  0.00     0.127 S 
ATOM     64  O   UNL A   1      39.289  36.012  38.429  1.00  0.00    -0.237 OA
ATOM     65  O   UNL A   1      41.429  35.434  37.359  1.00  0.00    -0.237 OA
ATOM     66  O   UNL A   1      39.651  36.504  36.041  1.00  0.00    -0.744 OA
ENDBRANCH  60  63
ENDBRANCH  42  56
BRANCH  43  67
ATOM     67  C   UNL A   1      42.331  26.768  27.574  1.00  0.00     0.023 A 
ATOM     68  C   UNL A   1      43.023  27.465  26.563  1.00  0.00     0.012 A 
ATOM     69  C   UNL A   1      42.120  25.383  27.428  1.00  0.00     0.148 A 
ATOM     70  C   UNL A   1      43.463  26.805  25.415  1.00  0.00     0.002 A 
ATOM     71  C   UNL A   1      42.607  24.721  26.306  1.00  0.00     0.091 A 
ATOM     72  F   UNL A   1      41.440  24.740  28.387  1.00  0.00    -0.205 F 
ATOM     73  C   UNL A   1      43.264  25.433  25.290  1.00  0.00     0.022 A 
BRANCH  71  74
ATOM     74  S   UNL A   1      42.495  22.938  26.113  1.00  0.00     0.127 S 
ATOM     75  O   UNL A   1      41.057  22.713  26.233  1.00  0.00    -0.237 OA
ATOM     76  O   UNL A   1      43.039  22.744  24.768  1.00  0.00    -0.237 OA
ATOM     77  O   UNL A   1      43.314  22.375  27.179  1.00  0.00    -0.744 OA
ENDBRANCH  71  74
ENDBRANCH  43  67
BRANCH  55  78
ATOM     78  C   UNL A   1      44.536  27.223  34.190  1.00  0.00     0.023 A 
ATOM     79  C   UNL A   1      45.802  27.841  34.228  1.00  0.00     0.012 A 
ATOM     80  C   UNL A   1      44.317  26.046  34.934  1.00  0.00     0.148 A 
ATOM     81  C   UNL A   1      46.841  27.279  34.969  1.00  0.00     0.002 A 
ATOM     82  C   UNL A   1      45.342  25.520  35.711  1.00  0.00     0.091 A 
ATOM     83  F   UNL A   1      43.109  25.467  34.873  1.00  0.00    -0.205 F 
ATOM     84  C   UNL A   1      46.607  26.128  35.720  1.00  0.00     0.022 A 
BRANCH  82  85
ATOM     85  S   UNL A   1      45.102  24.103  36.788  1.00  0.00     0.127 S 
ATOM     86  O   UNL A   1      44.691  23.072  35.837  1.00  0.00    -0.237 OA
ATOM     87  O   UNL A   1      46.439  23.913  37.353  1.00  0.00    -0.237 OA
ATOM     88  O   UNL A   1      44.090  24.500  37.757  1.00  0.00    -0.744 OA
ENDBRANCH  82  85
ENDBRANCH  55  78
ENDBRANCH  29  30
ENDBRANCH  22  24
ENDBRANCH  21  22
ENDBRANCH  20  21
ENDBRANCH  19  20
ENDBRANCH  18  19
ENDBRANCH  17  18
ENDBRANCH   1  17
TORSDOF 23
ENDMDL
MODEL 2
REMARK VINA RESULT:      -9.2      5.262     10.651
REMARK SMILES Cc1nnc(SCCC(=O)OCCOCCOCCOC(=O)c2ccc(-c3c4nc(c(-c5cccc(S(=O)(=O)[O-])c5F)c5ccc([nH]5)c(-c5cccc(S(=O)(=O)[O-])c5F)c5nc(c(-c6cccc(S(=O)(=O)[O-])c6F)c6ccc3[nH]6)C=C5)C=C4)cc2)s1
REMARK SMILES IDX 15 1 14 2 13 3 12 4 11 5 9 6 10 7 8 8 7 9 6 10 5 11 1 12
REMARK SMILES IDX 2 13 3 14 86 15 4 16 16 17 17 18 18 19 19 20 20 21 21 22
REMARK SMILES IDX 22 23 23 24 24 25 85 26 25 27 84 28 26 29 27 30 28 31 78 32
REMARK SMILES IDX 29 33 83 34 77 35 79 36 30 37 82 38 76 39 75 40 31 42 63 43
REMARK SMILES IDX 43 44 62 45 44 46 47 47 61 48 80 49 45 50 46 51 60 53 81 54
REMARK SMILES IDX 48 55 32 56 33 57 41 58 34 59 36 60 42 61 35 62 37 63 38 64
REMARK SMILES IDX 39 65 40 66 64 67 65 68 73 69 66 70 68 71 74 72 67 73 69 74
REMARK SMILES IDX 70 75 71 76 72 77 49 78 50 79 58 80 51 81 53 82 59 83 52 84
REMARK SMILES IDX 54 85 55 86 56 87 57 88
REMARK H PARENT 79 41 47 52
REMARK Flexibility Score: inf
ROOT
ATOM      1  C   UNL A   1      34.603  23.154  26.301  1.00  0.00     0.188 C 
ENDROOT
BRANCH   1   2
ATOM      2  O   UNL A   1      34.539  23.516  24.928  1.00  0.00    -0.376 OA
BRANCH   2   3
ATOM      3  C   UNL A   1      33.871  24.757  24.691  1.00  0.00     0.202 C 
BRANCH   3   4
ATOM      4  C   UNL A   1      33.200  25.417  25.914  1.00  0.00     0.261 C 
BRANCH   4   5
ATOM      5  O   UNL A   1      31.797  25.071  26.054  1.00  0.00    -0.463 OA
BRANCH   5   6
ATOM      6  C   UNL A   1      30.924  26.105  26.140  1.00  0.00     0.306 C 
ATOM      7  O   UNL A   1      31.052  27.056  26.903  1.00  0.00    -0.252 OA
BRANCH   6   8
ATOM      8  C   UNL A   1      29.723  25.992  25.223  1.00  0.00     0.134 C 
BRANCH   8   9
ATOM      9  C   UNL A   1      29.926  25.838  23.718  1.00  0.00     0.089 C 
BRANCH   9  10
ATOM     10  S   UNL A   1      31.027  27.100  22.990  1.00  0.00    -0.093 SA
BRANCH  10  11
ATOM     11  C   UNL A   1      30.167  28.584  23.316  1.00  0.00     0.174 A 
ATOM     12  C   UNL A   1      27.730  31.545  23.209  1.00  0.00     0.081 C 
ATOM     13  C   UNL A   1      28.753  30.489  23.393  1.00  0.00     0.115 A 
ATOM     14  N   UNL A   1      29.848  30.656  24.094  1.00  0.00    -0.143 NA
ATOM     15  S   UNL A   1      28.608  28.931  22.684  1.00  0.00    -0.091 S 
ATOM     16  N   UNL A   1      30.661  29.549  24.054  1.00  0.00    -0.132 NA
ENDBRANCH  10  11
ENDBRANCH   9  10
ENDBRANCH   8   9
ENDBRANCH   6   8
ENDBRANCH   5   6
ENDBRANCH   4   5
ENDBRANCH   3   4
ENDBRANCH   2   3
ENDBRANCH   1   2
BRANCH   1  17
ATOM     17  C   UNL A   1      35.282  21.825  26.545  1.00  0.00     0.188 C 
BRANCH  17  18
ATOM     18  O   UNL A   1      35.212  20.965  25.402  1.00  0.00    -0.376 OA
BRANCH  18  19
ATOM     19  C   UNL A   1      36.400  20.944  24.616  1.00  0.00     0.202 C 
BRANCH  19  20
ATOM     20  C   UNL A   1      37.622  20.519  25.441  1.00  0.00     0.261 C 
BRANCH  20  21
ATOM     21  O   UNL A   1      38.679  21.482  25.323  1.00  0.00    -0.460 OA
BRANCH  21  22
ATOM     22  C   UNL A   1      39.707  21.315  26.199  1.00  0.00     0.338 C 
ATOM     23  O   UNL A   1      40.369  20.313  26.376  1.00  0.00    -0.246 OA
BRANCH  22  24
ATOM     24  C   UNL A   1      40.054  22.639  26.774  1.00  0.00     0.060 A 
ATOM     25  C   UNL A   1      39.300  23.750  26.364  1.00  0.00     0.016 A 
ATOM     26  C   UNL A   1      41.045  22.783  27.750  1.00  0.00     0.016 A 
ATOM     27  C   UNL A   1      39.546  25.009  26.910  1.00  0.00     0.010 A 
ATOM     28  C   UNL A   1      41.312  24.047  28.276  1.00  0.00     0.010 A 
ATOM     29  C   UNL A   1      40.588  25.168  27.830  1.00  0.00    -0.014 A 
BRANCH  29  30
ATOM     30  C   UNL A   1      41.113  26.522  28.111  1.00  0.00     0.031 A 
ATOM     31  C   UNL A   1      42.534  26.802  27.702  1.00  0.00     0.074 A 
ATOM     32  C   UNL A   1      40.377  27.461  28.728  1.00  0.00     0.049 A 
ATOM     33  N   UNL A   1      43.265  27.864  27.906  1.00  0.00    -0.248 NA
ATOM     34  C   UNL A   1      43.229  25.726  26.970  1.00  0.00     0.031 C 
ATOM     35  C   UNL A   1      38.989  27.307  29.157  1.00  0.00     0.029 A 
ATOM     36  N   UNL A   1      40.717  28.729  29.130  1.00  0.00    -0.354 N 
ATOM     37  C   UNL A   1      44.510  27.571  27.363  1.00  0.00     0.074 A 
ATOM     38  C   UNL A   1      44.442  26.233  26.826  1.00  0.00     0.031 C 
ATOM     39  C   UNL A   1      38.606  28.426  29.800  1.00  0.00     0.029 A 
ATOM     40  C   UNL A   1      39.729  29.361  29.848  1.00  0.00     0.049 A 
ATOM     41  H   UNL A   1      41.584  29.145  28.925  1.00  0.00     0.167 HD
ATOM     42  C   UNL A   1      45.611  28.353  27.307  1.00  0.00     0.034 A 
ATOM     43  C   UNL A   1      39.749  30.546  30.492  1.00  0.00     0.034 A 
ATOM     44  C   UNL A   1      45.669  29.688  27.830  1.00  0.00     0.049 A 
ATOM     45  C   UNL A   1      40.998  31.391  30.432  1.00  0.00     0.074 A 
ATOM     46  C   UNL A   1      46.723  30.581  27.790  1.00  0.00     0.029 A 
ATOM     47  N   UNL A   1      44.631  30.316  28.500  1.00  0.00    -0.354 N 
ATOM     48  N   UNL A   1      42.133  31.151  29.819  1.00  0.00    -0.248 NA
ATOM     49  C   UNL A   1      40.961  32.686  31.129  1.00  0.00     0.031 C 
ATOM     50  C   UNL A   1      46.331  31.743  28.462  1.00  0.00     0.029 A 
ATOM     51  C   UNL A   1      45.021  31.584  28.888  1.00  0.00     0.049 A 
ATOM     52  H   UNL A   1      43.748  29.918  28.674  1.00  0.00     0.167 HD
ATOM     53  C   UNL A   1      42.925  32.277  30.020  1.00  0.00     0.074 A 
ATOM     54  C   UNL A   1      42.135  33.207  30.798  1.00  0.00     0.031 C 
ATOM     55  C   UNL A   1      44.195  32.518  29.609  1.00  0.00     0.034 A 
BRANCH  42  56
ATOM     56  C   UNL A   1      46.835  27.784  26.643  1.00  0.00     0.023 A 
ATOM     57  C   UNL A   1      47.753  27.027  27.398  1.00  0.00     0.012 A 
ATOM     58  C   UNL A   1      47.054  27.966  25.264  1.00  0.00     0.148 A 
ATOM     59  C   UNL A   1      48.886  26.481  26.798  1.00  0.00     0.002 A 
ATOM     60  C   UNL A   1      48.161  27.379  24.663  1.00  0.00     0.091 A 
ATOM     61  F   UNL A   1      46.186  28.714  24.571  1.00  0.00    -0.205 F 
ATOM     62  C   UNL A   1      49.084  26.647  25.429  1.00  0.00     0.022 A 
BRANCH  60  63
ATOM     63  S   UNL A   1      48.465  27.469  22.895  1.00  0.00     0.127 S 
ATOM     64  O   UNL A   1      49.836  27.977  22.857  1.00  0.00    -0.237 OA
ATOM     65  O   UNL A   1      48.320  26.071  22.489  1.00  0.00    -0.237 OA
ATOM     66  O   UNL A   1      47.454  28.368  22.358  1.00  0.00    -0.744 OA
ENDBRANCH  60  63
ENDBRANCH  42  56
BRANCH  43  67
ATOM     67  C   UNL A   1      38.543  31.023  31.229  1.00  0.00     0.023 A 
ATOM     68  C   UNL A   1      38.475  30.864  32.628  1.00  0.00     0.012 A 
ATOM     69  C   UNL A   1      37.462  31.625  30.555  1.00  0.00     0.148 A 
ATOM     70  C   UNL A   1      37.340  31.263  33.336  1.00  0.00     0.002 A 
ATOM     71  C   UNL A   1      36.357  32.069  31.274  1.00  0.00     0.091 A 
ATOM     72  F   UNL A   1      37.534  31.748  29.223  1.00  0.00    -0.205 F 
ATOM     73  C   UNL A   1      36.286  31.873  32.661  1.00  0.00     0.022 A 
BRANCH  71  74
ATOM     74  S   UNL A   1      35.003  32.965  30.505  1.00  0.00     0.127 S 
ATOM     75  O   UNL A   1      34.065  33.102  31.616  1.00  0.00    -0.237 OA
ATOM     76  O   UNL A   1      35.658  34.208  30.094  1.00  0.00    -0.237 OA
ATOM     77  O   UNL A   1      34.555  32.128  29.399  1.00  0.00    -0.744 OA
ENDBRANCH  71  74
ENDBRANCH  43  67
BRANCH  55  78
ATOM     78  C   UNL A   1      44.802  33.856  29.943  1.00  0.00     0.023 A 
ATOM     79  C   UNL A   1      45.538  34.019  31.132  1.00  0.00     0.012 A 
ATOM     80  C   UNL A   1      44.719  34.924  29.027  1.00  0.00     0.148 A 
ATOM     81  C   UNL A   1      46.156  35.236  31.421  1.00  0.00     0.002 A 
ATOM     82  C   UNL A   1      45.380  36.117  29.296  1.00  0.00     0.091 A 
ATOM     83  F   UNL A   1      44.001  34.753  27.907  1.00  0.00    -0.205 F 
ATOM     84  C   UNL A   1      46.087  36.278  30.498  1.00  0.00     0.022 A 
BRANCH  82  85
ATOM     85  S   UNL A   1      45.432  37.474  28.122  1.00  0.00     0.127 S 
ATOM     86  O   UNL A   1      44.019  37.835  28.020  1.00  0.00    -0.237 OA
ATOM     87  O   UNL A   1      46.263  38.456  28.820  1.00  0.00    -0.237 OA
ATOM     88  O   UNL A   1      46.029  36.934  26.908  1.00  0.00    -0.744 OA
ENDBRANCH  82  85
ENDBRANCH  55  78
ENDBRANCH  29  30
ENDBRANCH  22  24
ENDBRANCH  21  22
ENDBRANCH  20  21
ENDBRANCH  19  20
ENDBRANCH  18  19
ENDBRANCH  17  18
ENDBRANCH   1  17
TORSDOF 23
ENDMDL
MODEL 3
REMARK VINA RESULT:      -9.1      5.221     10.780
REMARK SMILES Cc1nnc(SCCC(=O)OCCOCCOCCOC(=O)c2ccc(-c3c4nc(c(-c5cccc(S(=O)(=O)[O-])c5F)c5ccc([nH]5)c(-c5cccc(S(=O)(=O)[O-])c5F)c5nc(c(-c6cccc(S(=O)(=O)[O-])c6F)c6ccc3[nH]6)C=C5)C=C4)cc2)s1
REMARK SMILES IDX 15 1 14 2 13 3 12 4 11 5 9 6 10 7 8 8 7 9 6 10 5 11 1 12
REMARK SMILES IDX 2 13 3 14 86 15 4 16 16 17 17 18 18 19 19 20 20 21 21 22
REMARK SMILES IDX 22 23 23 24 24 25 85 26 25 27 84 28 26 29 27 30 28 31 78 32
REMARK SMILES IDX 29 33 83 34 77 35 79 36 30 37 82 38 76 39 75 40 31 42 63 43
REMARK SMILES IDX 43 44 62 45 44 46 47 47 61 48 80 49 45 50 46 51 60 53 81 54
REMARK SMILES IDX 48 55 32 56 33 57 41 58 34 59 36 60 42 61 35 62 37 63 38 64
REMARK SMILES IDX 39 65 40 66 64 67 65 68 73 69 66 70 68 71 74 72 67 73 69 74
REMARK SMILES IDX 70 75 71 76 72 77 49 78 50 79 58 80 51 81 53 82 59 83 52 84
REMARK SMILES IDX 54 85 55 86 56 87 57 88
REMARK H PARENT 79 41 47 52
REMARK Flexibility Score: inf
ROOT
ATOM      1  C   UNL A   1      35.175  23.011  26.015  1.00  0.00     0.188 C 
ENDROOT
BRANCH   1   2
ATOM      2  O   UNL A   1      35.330  23.546  24.709  1.00  0.00    -0.376 OA
BRANCH   2   3
ATOM      3  C   UNL A   1      34.274  24.429  24.319  1.00  0.00     0.202 C 
BRANCH   3   4
ATOM      4  C   UNL A   1      33.261  23.872  23.298  1.00  0.00     0.261 C 
BRANCH   4   5
ATOM      5  O   UNL A   1      33.549  24.263  21.930  1.00  0.00    -0.463 OA
BRANCH   5   6
ATOM      6  C   UNL A   1      32.901  25.359  21.464  1.00  0.00     0.306 C 
ATOM      7  O   UNL A   1      33.360  26.131  20.630  1.00  0.00    -0.252 OA
BRANCH   6   8
ATOM      8  C   UNL A   1      31.539  25.594  22.084  1.00  0.00     0.134 C 
BRANCH   8   9
ATOM      9  C   UNL A   1      31.303  26.821  22.962  1.00  0.00     0.089 C 
BRANCH   9  10
ATOM     10  S   UNL A   1      30.335  26.470  24.470  1.00  0.00    -0.093 SA
BRANCH  10  11
ATOM     11  C   UNL A   1      31.070  27.531  25.646  1.00  0.00     0.174 A 
ATOM     12  C   UNL A   1      32.987  30.364  27.382  1.00  0.00     0.081 C 
ATOM     13  C   UNL A   1      32.219  29.200  26.882  1.00  0.00     0.115 A 
ATOM     14  N   UNL A   1      31.965  28.136  27.604  1.00  0.00    -0.143 NA
ATOM     15  S   UNL A   1      31.591  29.127  25.285  1.00  0.00    -0.091 S 
ATOM     16  N   UNL A   1      31.293  27.175  26.888  1.00  0.00    -0.132 NA
ENDBRANCH  10  11
ENDBRANCH   9  10
ENDBRANCH   8   9
ENDBRANCH   6   8
ENDBRANCH   5   6
ENDBRANCH   4   5
ENDBRANCH   3   4
ENDBRANCH   2   3
ENDBRANCH   1   2
BRANCH   1  17
ATOM     17  C   UNL A   1      35.611  21.568  26.133  1.00  0.00     0.188 C 
BRANCH  17  18
ATOM     18  O   UNL A   1      35.924  20.992  24.860  1.00  0.00    -0.376 OA
BRANCH  18  19
ATOM     19  C   UNL A   1      37.305  21.058  24.514  1.00  0.00     0.202 C 
BRANCH  19  20
ATOM     20  C   UNL A   1      38.171  20.228  25.471  1.00  0.00     0.261 C 
BRANCH  20  21
ATOM     21  O   UNL A   1      39.548  20.621  25.384  1.00  0.00    -0.460 OA
BRANCH  21  22
ATOM     22  C   UNL A   1      40.241  20.545  26.554  1.00  0.00     0.338 C 
ATOM     23  O   UNL A   1      40.722  19.553  27.061  1.00  0.00    -0.246 OA
BRANCH  22  24
ATOM     24  C   UNL A   1      40.517  21.926  27.026  1.00  0.00     0.060 A 
ATOM     25  C   UNL A   1      39.754  22.971  26.482  1.00  0.00     0.016 A 
ATOM     26  C   UNL A   1      41.449  22.187  28.035  1.00  0.00     0.016 A 
ATOM     27  C   UNL A   1      39.933  24.280  26.926  1.00  0.00     0.010 A 
ATOM     28  C   UNL A   1      41.650  23.500  28.460  1.00  0.00     0.010 A 
ATOM     29  C   UNL A   1      40.919  24.553  27.881  1.00  0.00    -0.014 A 
BRANCH  29  30
ATOM     30  C   UNL A   1      41.388  25.943  28.067  1.00  0.00     0.031 A 
ATOM     31  C   UNL A   1      42.765  26.274  27.557  1.00  0.00     0.074 A 
ATOM     32  C   UNL A   1      40.643  26.872  28.689  1.00  0.00     0.049 A 
ATOM     33  N   UNL A   1      43.450  27.379  27.667  1.00  0.00    -0.248 NA
ATOM     34  C   UNL A   1      43.468  25.200  26.830  1.00  0.00     0.031 C 
ATOM     35  C   UNL A   1      39.294  26.670  29.212  1.00  0.00     0.029 A 
ATOM     36  N   UNL A   1      40.940  28.174  29.012  1.00  0.00    -0.354 N 
ATOM     37  C   UNL A   1      44.673  27.123  27.059  1.00  0.00     0.074 A 
ATOM     38  C   UNL A   1      44.642  25.759  26.587  1.00  0.00     0.031 C 
ATOM     39  C   UNL A   1      38.893  27.797  29.828  1.00  0.00     0.029 A 
ATOM     40  C   UNL A   1      39.966  28.788  29.763  1.00  0.00     0.049 A 
ATOM     41  H   UNL A   1      41.770  28.622  28.733  1.00  0.00     0.167 HD
ATOM     42  C   UNL A   1      45.726  27.955  26.898  1.00  0.00     0.034 A 
ATOM     43  C   UNL A   1      39.962  30.002  30.352  1.00  0.00     0.034 A 
ATOM     44  C   UNL A   1      45.745  29.315  27.358  1.00  0.00     0.049 A 
ATOM     45  C   UNL A   1      41.160  30.904  30.175  1.00  0.00     0.074 A 
ATOM     46  C   UNL A   1      46.746  30.256  27.211  1.00  0.00     0.029 A 
ATOM     47  N   UNL A   1      44.719  29.921  28.064  1.00  0.00    -0.354 N 
ATOM     48  N   UNL A   1      42.266  30.692  29.502  1.00  0.00    -0.248 NA
ATOM     49  C   UNL A   1      41.097  32.227  30.815  1.00  0.00     0.031 C 
ATOM     50  C   UNL A   1      46.336  31.428  27.854  1.00  0.00     0.029 A 
ATOM     51  C   UNL A   1      45.064  31.225  28.371  1.00  0.00     0.049 A 
ATOM     52  H   UNL A   1      43.870  29.489  28.311  1.00  0.00     0.167 HD
ATOM     53  C   UNL A   1      43.008  31.865  29.602  1.00  0.00     0.074 A 
ATOM     54  C   UNL A   1      42.219  32.790  30.387  1.00  0.00     0.031 C 
ATOM     55  C   UNL A   1      44.236  32.149  29.101  1.00  0.00     0.034 A 
BRANCH  42  56
ATOM     56  C   UNL A   1      46.935  27.418  26.184  1.00  0.00     0.023 A 
ATOM     57  C   UNL A   1      47.798  26.521  26.845  1.00  0.00     0.012 A 
ATOM     58  C   UNL A   1      47.193  27.769  24.844  1.00  0.00     0.148 A 
ATOM     59  C   UNL A   1      48.916  26.002  26.194  1.00  0.00     0.002 A 
ATOM     60  C   UNL A   1      48.283  27.211  24.188  1.00  0.00     0.091 A 
ATOM     61  F   UNL A   1      46.377  28.647  24.245  1.00  0.00    -0.205 F 
ATOM     62  C   UNL A   1      49.152  26.337  24.864  1.00  0.00     0.022 A 
BRANCH  60  63
ATOM     63  S   UNL A   1      48.630  27.519  22.453  1.00  0.00     0.127 S 
ATOM     64  O   UNL A   1      48.794  26.161  21.939  1.00  0.00    -0.237 OA
ATOM     65  O   UNL A   1      47.409  28.196  22.013  1.00  0.00    -0.237 OA
ATOM     66  O   UNL A   1      49.829  28.345  22.423  1.00  0.00    -0.744 OA
ENDBRANCH  60  63
ENDBRANCH  42  56
BRANCH  43  67
ATOM     67  C   UNL A   1      38.782  30.453  31.142  1.00  0.00     0.023 A 
ATOM     68  C   UNL A   1      38.663  30.073  32.494  1.00  0.00     0.012 A 
ATOM     69  C   UNL A   1      37.772  31.248  30.564  1.00  0.00     0.148 A 
ATOM     70  C   UNL A   1      37.546  30.445  33.244  1.00  0.00     0.002 A 
ATOM     71  C   UNL A   1      36.688  31.660  31.332  1.00  0.00     0.091 A 
ATOM     72  F   UNL A   1      37.890  31.582  29.271  1.00  0.00    -0.205 F 
ATOM     73  C   UNL A   1      36.565  31.246  32.667  1.00  0.00     0.022 A 
BRANCH  71  74
ATOM     74  S   UNL A   1      35.434  32.784  30.705  1.00  0.00     0.127 S 
ATOM     75  O   UNL A   1      36.216  33.989  30.442  1.00  0.00    -0.237 OA
ATOM     76  O   UNL A   1      34.967  32.079  29.511  1.00  0.00    -0.237 OA
ATOM     77  O   UNL A   1      34.440  32.894  31.765  1.00  0.00    -0.744 OA
ENDBRANCH  71  74
ENDBRANCH  43  67
BRANCH  55  78
ATOM     78  C   UNL A   1      44.791  33.530  29.336  1.00  0.00     0.023 A 
ATOM     79  C   UNL A   1      45.618  33.777  30.449  1.00  0.00     0.012 A 
ATOM     80  C   UNL A   1      44.567  34.557  28.397  1.00  0.00     0.148 A 
ATOM     81  C   UNL A   1      46.187  35.036  30.641  1.00  0.00     0.002 A 
ATOM     82  C   UNL A   1      45.178  35.793  28.568  1.00  0.00     0.091 A 
ATOM     83  F   UNL A   1      43.765  34.305  27.352  1.00  0.00    -0.205 F 
ATOM     84  C   UNL A   1      45.978  36.038  29.695  1.00  0.00     0.022 A 
BRANCH  82  85
ATOM     85  S   UNL A   1      45.048  37.107  27.351  1.00  0.00     0.127 S 
ATOM     86  O   UNL A   1      46.055  36.706  26.370  1.00  0.00    -0.237 OA
ATOM     87  O   UNL A   1      43.664  36.972  26.894  1.00  0.00    -0.237 OA
ATOM     88  O   UNL A   1      45.329  38.346  28.064  1.00  0.00    -0.744 OA
ENDBRANCH  82  85
ENDBRANCH  55  78
ENDBRANCH  29  30
ENDBRANCH  22  24
ENDBRANCH  21  22
ENDBRANCH  20  21
ENDBRANCH  19  20
ENDBRANCH  18  19
ENDBRANCH  17  18
ENDBRANCH   1  17
TORSDOF 23
ENDMDL
