MODEL 1
REMARK VINA RESULT:     -10.2      0.000      0.000
REMARK SMILES COc1cc(/C=C/C(=O)OCCOCCOCCOC(=O)c2ccc(-c3c4nc(c(-c5cccc(S(=O)(=O)[O-])c5F)c5ccc([nH]5)c(-c5cccc(S(=O)(=O)[O-])c5F)c5nc(c(-c6cccc(S(=O)(=O)[O-])c6F)c6ccc3[nH]6)C=C5)C=C4)cc2)cc(OC)c1O
REMARK SMILES IDX 15 1 14 2 13 3 12 4 11 5 10 6 8 7 9 8 7 9 6 10 5 11 3 12
REMARK SMILES IDX 4 13 89 14 86 15 85 16 2 17 1 18 90 19 87 21 88 22 16 23
REMARK SMILES IDX 17 24 18 25 19 26 20 27 21 28 22 29 23 30 84 31 24 32 83 33
REMARK SMILES IDX 25 34 26 35 27 36 77 37 28 38 82 39 76 40 78 41 29 42 81 43
REMARK SMILES IDX 75 44 74 45 30 47 62 48 42 49 61 50 43 51 46 52 60 53 79 54
REMARK SMILES IDX 44 55 45 56 59 58 80 59 47 60 31 61 32 62 40 63 33 64 35 65
REMARK SMILES IDX 41 66 34 67 36 68 37 69 38 70 39 71 63 72 64 73 72 74 65 75
REMARK SMILES IDX 67 76 73 77 66 78 68 79 69 80 70 81 71 82 48 83 49 84 57 85
REMARK SMILES IDX 50 86 52 87 58 88 51 89 53 90 54 91 55 92 56 93
REMARK H PARENT 90 20 78 46 46 57
REMARK Flexibility Score: inf
ROOT
ATOM      1  C   UNL A   1      30.268  29.483  23.687  1.00  0.00     0.188 C 
ENDROOT
BRANCH   1   2
ATOM      2  C   UNL A   1      30.763  28.327  22.796  1.00  0.00     0.188 C 
BRANCH   2   3
ATOM      3  O   UNL A   1      30.477  27.007  23.196  1.00  0.00    -0.376 OA
BRANCH   3   4
ATOM      4  C   UNL A   1      31.044  26.462  24.374  1.00  0.00     0.202 C 
BRANCH   4   5
ATOM      5  C   UNL A   1      30.257  25.953  25.594  1.00  0.00     0.261 C 
BRANCH   5   6
ATOM      6  O   UNL A   1      31.006  25.444  26.702  1.00  0.00    -0.460 OA
BRANCH   6   7
ATOM      7  C   UNL A   1      30.984  24.094  26.833  1.00  0.00     0.330 C 
ATOM      8  O   UNL A   1      30.059  23.424  27.268  1.00  0.00    -0.247 OA
BRANCH   7   9
ATOM      9  C   UNL A   1      32.200  23.447  26.298  1.00  0.00     0.094 C 
ATOM     10  C   UNL A   1      32.829  22.390  26.836  1.00  0.00     0.016 C 
BRANCH  10  11
ATOM     11  C   UNL A   1      34.019  21.774  26.224  1.00  0.00    -0.018 A 
ATOM     12  C   UNL A   1      36.404  21.738  25.707  1.00  0.00     0.165 A 
ATOM     13  C   UNL A   1      35.291  22.355  26.296  1.00  0.00     0.058 A 
ATOM     14  C   UNL A   1      36.255  20.497  25.069  1.00  0.00     0.200 A 
ATOM     15  C   UNL A   1      34.990  19.899  24.983  1.00  0.00     0.165 A 
ATOM     16  C   UNL A   1      33.891  20.538  25.579  1.00  0.00     0.058 A 
BRANCH  12  17
ATOM     17  O   UNL A   1      37.592  22.391  25.911  1.00  0.00    -0.493 OA
ATOM     18  C   UNL A   1      37.553  23.816  25.931  1.00  0.00     0.278 C 
ENDBRANCH  12  17
BRANCH  14  19
ATOM     19  O   UNL A   1      37.362  19.831  24.618  1.00  0.00    -0.502 OA
ATOM     20  H   UNL A   1      37.492  18.931  24.845  1.00  0.00     0.293 HD
ENDBRANCH  14  19
BRANCH  15  21
ATOM     21  O   UNL A   1      34.660  18.692  24.423  1.00  0.00    -0.493 OA
ATOM     22  C   UNL A   1      33.327  18.225  24.577  1.00  0.00     0.278 C 
ENDBRANCH  15  21
ENDBRANCH  10  11
ENDBRANCH   7   9
ENDBRANCH   6   7
ENDBRANCH   5   6
ENDBRANCH   4   5
ENDBRANCH   3   4
ENDBRANCH   2   3
ENDBRANCH   1   2
BRANCH   1  23
ATOM     23  O   UNL A   1      31.008  29.896  24.818  1.00  0.00    -0.376 OA
BRANCH  23  24
ATOM     24  C   UNL A   1      30.822  31.193  25.360  1.00  0.00     0.202 C 
BRANCH  24  25
ATOM     25  C   UNL A   1      31.448  31.673  26.680  1.00  0.00     0.261 C 
BRANCH  25  26
ATOM     26  O   UNL A   1      32.813  31.322  26.910  1.00  0.00    -0.460 OA
BRANCH  26  27
ATOM     27  C   UNL A   1      33.555  32.269  27.525  1.00  0.00     0.338 C 
ATOM     28  O   UNL A   1      33.201  33.406  27.836  1.00  0.00    -0.246 OA
BRANCH  27  29
ATOM     29  C   UNL A   1      34.838  31.690  27.941  1.00  0.00     0.060 A 
ATOM     30  C   UNL A   1      34.901  30.311  28.187  1.00  0.00     0.016 A 
ATOM     31  C   UNL A   1      35.954  32.503  28.135  1.00  0.00     0.016 A 
ATOM     32  C   UNL A   1      36.085  29.742  28.649  1.00  0.00     0.010 A 
ATOM     33  C   UNL A   1      37.134  31.934  28.619  1.00  0.00     0.010 A 
ATOM     34  C   UNL A   1      37.195  30.557  28.904  1.00  0.00    -0.014 A 
BRANCH  34  35
ATOM     35  C   UNL A   1      38.366  30.000  29.619  1.00  0.00     0.031 A 
ATOM     36  C   UNL A   1      38.662  30.488  31.009  1.00  0.00     0.074 A 
ATOM     37  C   UNL A   1      39.162  29.090  29.034  1.00  0.00     0.049 A 
ATOM     38  N   UNL A   1      39.650  30.174  31.804  1.00  0.00    -0.248 NA
ATOM     39  C   UNL A   1      37.717  31.465  31.577  1.00  0.00     0.031 C 
ATOM     40  C   UNL A   1      38.977  28.542  27.692  1.00  0.00     0.029 A 
ATOM     41  N   UNL A   1      40.309  28.490  29.490  1.00  0.00    -0.354 N 
ATOM     42  C   UNL A   1      39.467  30.935  32.951  1.00  0.00     0.074 A 
ATOM     43  C   UNL A   1      38.277  31.733  32.746  1.00  0.00     0.031 C 
ATOM     44  C   UNL A   1      39.997  27.710  27.418  1.00  0.00     0.029 A 
ATOM     45  C   UNL A   1      40.916  27.686  28.554  1.00  0.00     0.049 A 
ATOM     46  H   UNL A   1      40.663  28.621  30.399  1.00  0.00     0.167 HD
ATOM     47  C   UNL A   1      40.216  30.960  34.080  1.00  0.00     0.034 A 
ATOM     48  C   UNL A   1      42.092  27.030  28.602  1.00  0.00     0.034 A 
ATOM     49  C   UNL A   1      41.391  30.158  34.284  1.00  0.00     0.049 A 
ATOM     50  C   UNL A   1      42.921  27.092  29.860  1.00  0.00     0.074 A 
ATOM     51  C   UNL A   1      42.187  30.071  35.413  1.00  0.00     0.029 A 
ATOM     52  N   UNL A   1      41.953  29.321  33.333  1.00  0.00    -0.354 N 
ATOM     53  N   UNL A   1      42.670  27.714  30.987  1.00  0.00    -0.248 NA
ATOM     54  C   UNL A   1      44.181  26.333  29.864  1.00  0.00     0.031 C 
ATOM     55  C   UNL A   1      43.248  29.204  35.131  1.00  0.00     0.029 A 
ATOM     56  C   UNL A   1      43.094  28.725  33.840  1.00  0.00     0.049 A 
ATOM     57  H   UNL A   1      41.592  29.172  32.429  1.00  0.00     0.167 HD
ATOM     58  C   UNL A   1      43.718  27.393  31.844  1.00  0.00     0.074 A 
ATOM     59  C   UNL A   1      44.599  26.509  31.111  1.00  0.00     0.031 C 
ATOM     60  C   UNL A   1      43.937  27.805  33.118  1.00  0.00     0.034 A 
BRANCH  47  61
ATOM     61  C   UNL A   1      39.770  31.878  35.187  1.00  0.00     0.023 A 
ATOM     62  C   UNL A   1      40.174  33.228  35.183  1.00  0.00     0.012 A 
ATOM     63  C   UNL A   1      38.921  31.413  36.210  1.00  0.00     0.148 A 
ATOM     64  C   UNL A   1      39.773  34.092  36.200  1.00  0.00     0.002 A 
ATOM     65  C   UNL A   1      38.488  32.291  37.196  1.00  0.00     0.091 A 
ATOM     66  F   UNL A   1      38.568  30.120  36.211  1.00  0.00    -0.205 F 
ATOM     67  C   UNL A   1      38.922  33.627  37.200  1.00  0.00     0.022 A 
BRANCH  65  68
ATOM     68  S   UNL A   1      37.330  31.806  38.480  1.00  0.00     0.127 S 
ATOM     69  O   UNL A   1      38.104  32.074  39.691  1.00  0.00    -0.237 OA
ATOM     70  O   UNL A   1      36.214  32.726  38.254  1.00  0.00    -0.237 OA
ATOM     71  O   UNL A   1      37.019  30.406  38.230  1.00  0.00    -0.744 OA
ENDBRANCH  65  68
ENDBRANCH  47  61
BRANCH  48  72
ATOM     72  C   UNL A   1      42.542  26.229  27.430  1.00  0.00     0.023 A 
ATOM     73  C   UNL A   1      43.364  26.826  26.455  1.00  0.00     0.012 A 
ATOM     74  C   UNL A   1      42.180  24.875  27.290  1.00  0.00     0.148 A 
ATOM     75  C   UNL A   1      43.796  26.097  25.347  1.00  0.00     0.002 A 
ATOM     76  C   UNL A   1      42.656  24.139  26.211  1.00  0.00     0.091 A 
ATOM     77  F   UNL A   1      41.384  24.331  28.221  1.00  0.00    -0.205 F 
ATOM     78  C   UNL A   1      43.452  24.752  25.230  1.00  0.00     0.022 A 
BRANCH  76  79
ATOM     79  S   UNL A   1      42.365  22.376  26.039  1.00  0.00     0.127 S 
ATOM     80  O   UNL A   1      43.065  22.077  24.792  1.00  0.00    -0.237 OA
ATOM     81  O   UNL A   1      43.002  21.847  27.245  1.00  0.00    -0.237 OA
ATOM     82  O   UNL A   1      40.918  22.216  26.003  1.00  0.00    -0.744 OA
ENDBRANCH  76  79
ENDBRANCH  48  72
BRANCH  60  83
ATOM     83  C   UNL A   1      45.158  27.277  33.828  1.00  0.00     0.023 A 
ATOM     84  C   UNL A   1      46.367  27.997  33.779  1.00  0.00     0.012 A 
ATOM     85  C   UNL A   1      45.081  26.108  34.612  1.00  0.00     0.148 A 
ATOM     86  C   UNL A   1      47.490  27.546  34.473  1.00  0.00     0.002 A 
ATOM     87  C   UNL A   1      46.189  25.692  35.341  1.00  0.00     0.091 A 
ATOM     88  F   UNL A   1      43.927  25.426  34.634  1.00  0.00    -0.205 F 
ATOM     89  C   UNL A   1      47.398  26.402  35.262  1.00  0.00     0.022 A 
BRANCH  87  90
ATOM     90  S   UNL A   1      46.135  24.288  36.461  1.00  0.00     0.127 S 
ATOM     91  O   UNL A   1      46.128  23.162  35.528  1.00  0.00    -0.237 OA
ATOM     92  O   UNL A   1      47.377  24.445  37.219  1.00  0.00    -0.237 OA
ATOM     93  O   UNL A   1      44.922  24.451  37.251  1.00  0.00    -0.744 OA
ENDBRANCH  87  90
ENDBRANCH  60  83
ENDBRANCH  34  35
ENDBRANCH  27  29
ENDBRANCH  26  27
ENDBRANCH  25  26
ENDBRANCH  24  25
ENDBRANCH  23  24
ENDBRANCH   1  23
TORSDOF 24
ENDMDL
MODEL 2
REMARK VINA RESULT:      -9.3      2.351      2.924
REMARK SMILES COc1cc(/C=C/C(=O)OCCOCCOCCOC(=O)c2ccc(-c3c4nc(c(-c5cccc(S(=O)(=O)[O-])c5F)c5ccc([nH]5)c(-c5cccc(S(=O)(=O)[O-])c5F)c5nc(c(-c6cccc(S(=O)(=O)[O-])c6F)c6ccc3[nH]6)C=C5)C=C4)cc2)cc(OC)c1O
REMARK SMILES IDX 15 1 14 2 13 3 12 4 11 5 10 6 8 7 9 8 7 9 6 10 5 11 3 12
REMARK SMILES IDX 4 13 89 14 86 15 85 16 2 17 1 18 90 19 87 21 88 22 16 23
REMARK SMILES IDX 17 24 18 25 19 26 20 27 21 28 22 29 23 30 84 31 24 32 83 33
REMARK SMILES IDX 25 34 26 35 27 36 77 37 28 38 82 39 76 40 78 41 29 42 81 43
REMARK SMILES IDX 75 44 74 45 30 47 62 48 42 49 61 50 43 51 46 52 60 53 79 54
REMARK SMILES IDX 44 55 45 56 59 58 80 59 47 60 31 61 32 62 40 63 33 64 35 65
REMARK SMILES IDX 41 66 34 67 36 68 37 69 38 70 39 71 63 72 64 73 72 74 65 75
REMARK SMILES IDX 67 76 73 77 66 78 68 79 69 80 70 81 71 82 48 83 49 84 57 85
REMARK SMILES IDX 50 86 52 87 58 88 51 89 53 90 54 91 55 92 56 93
REMARK H PARENT 90 20 78 46 46 57
REMARK Flexibility Score: inf
ROOT
ATOM      1  C   UNL A   1      32.384  28.445  24.264  1.00  0.00     0.188 C 
ENDROOT
BRANCH   1   2
ATOM      2  C   UNL A   1      32.674  27.011  24.746  1.00  0.00     0.188 C 
BRANCH   2   3
ATOM      3  O   UNL A   1      31.589  26.217  25.168  1.00  0.00    -0.376 OA
BRANCH   3   4
ATOM      4  C   UNL A   1      30.449  26.041  24.347  1.00  0.00     0.202 C 
BRANCH   4   5
ATOM      5  C   UNL A   1      30.440  25.382  22.957  1.00  0.00     0.261 C 
BRANCH   5   6
ATOM      6  O   UNL A   1      31.417  25.821  22.007  1.00  0.00    -0.460 OA
BRANCH   6   7
ATOM      7  C   UNL A   1      32.402  24.925  21.746  1.00  0.00     0.330 C 
ATOM      8  O   UNL A   1      33.269  25.032  20.892  1.00  0.00    -0.247 OA
BRANCH   7   9
ATOM      9  C   UNL A   1      32.400  23.784  22.685  1.00  0.00     0.094 C 
ATOM     10  C   UNL A   1      33.403  22.910  22.859  1.00  0.00     0.016 C 
BRANCH  10  11
ATOM     11  C   UNL A   1      33.346  21.815  23.844  1.00  0.00    -0.018 A 
ATOM     12  C   UNL A   1      33.690  20.911  26.084  1.00  0.00     0.165 A 
ATOM     13  C   UNL A   1      33.764  21.972  25.171  1.00  0.00     0.058 A 
ATOM     14  C   UNL A   1      33.151  19.680  25.679  1.00  0.00     0.200 A 
ATOM     15  C   UNL A   1      32.729  19.501  24.355  1.00  0.00     0.165 A 
ATOM     16  C   UNL A   1      32.815  20.579  23.459  1.00  0.00     0.058 A 
BRANCH  12  17
ATOM     17  O   UNL A   1      34.078  21.229  27.360  1.00  0.00    -0.493 OA
ATOM     18  C   UNL A   1      33.326  22.236  28.034  1.00  0.00     0.278 C 
ENDBRANCH  12  17
BRANCH  14  19
ATOM     19  O   UNL A   1      32.950  18.693  26.604  1.00  0.00    -0.502 OA
ATOM     20  H   UNL A   1      33.385  17.868  26.510  1.00  0.00     0.293 HD
ENDBRANCH  14  19
BRANCH  15  21
ATOM     21  O   UNL A   1      32.161  18.388  23.790  1.00  0.00    -0.493 OA
ATOM     22  C   UNL A   1      33.025  17.395  23.255  1.00  0.00     0.278 C 
ENDBRANCH  15  21
ENDBRANCH  10  11
ENDBRANCH   7   9
ENDBRANCH   6   7
ENDBRANCH   5   6
ENDBRANCH   4   5
ENDBRANCH   3   4
ENDBRANCH   2   3
ENDBRANCH   1   2
BRANCH   1  23
ATOM     23  O   UNL A   1      31.564  29.313  25.022  1.00  0.00    -0.376 OA
BRANCH  23  24
ATOM     24  C   UNL A   1      32.129  30.429  25.690  1.00  0.00     0.202 C 
BRANCH  24  25
ATOM     25  C   UNL A   1      33.320  30.340  26.660  1.00  0.00     0.261 C 
BRANCH  25  26
ATOM     26  O   UNL A   1      33.311  31.234  27.773  1.00  0.00    -0.460 OA
BRANCH  26  27
ATOM     27  C   UNL A   1      34.308  32.146  27.786  1.00  0.00     0.338 C 
ATOM     28  O   UNL A   1      34.224  33.344  27.518  1.00  0.00    -0.246 OA
BRANCH  27  29
ATOM     29  C   UNL A   1      35.520  31.535  28.344  1.00  0.00     0.060 A 
ATOM     30  C   UNL A   1      35.413  30.286  28.971  1.00  0.00     0.016 A 
ATOM     31  C   UNL A   1      36.742  32.208  28.294  1.00  0.00     0.016 A 
ATOM     32  C   UNL A   1      36.530  29.712  29.571  1.00  0.00     0.010 A 
ATOM     33  C   UNL A   1      37.856  31.640  28.915  1.00  0.00     0.010 A 
ATOM     34  C   UNL A   1      37.748  30.404  29.579  1.00  0.00    -0.014 A 
BRANCH  34  35
ATOM     35  C   UNL A   1      38.865  29.914  30.418  1.00  0.00     0.031 A 
ATOM     36  C   UNL A   1      39.044  30.493  31.793  1.00  0.00     0.074 A 
ATOM     37  C   UNL A   1      39.717  28.982  29.956  1.00  0.00     0.049 A 
ATOM     38  N   UNL A   1      39.970  30.247  32.681  1.00  0.00    -0.248 NA
ATOM     39  C   UNL A   1      38.045  31.487  32.221  1.00  0.00     0.031 C 
ATOM     40  C   UNL A   1      39.645  28.348  28.642  1.00  0.00     0.029 A 
ATOM     41  N   UNL A   1      40.831  28.432  30.539  1.00  0.00    -0.354 N 
ATOM     42  C   UNL A   1      39.687  31.075  33.759  1.00  0.00     0.074 A 
ATOM     43  C   UNL A   1      38.508  31.838  33.411  1.00  0.00     0.031 C 
ATOM     44  C   UNL A   1      40.694  27.518  28.503  1.00  0.00     0.029 A 
ATOM     45  C   UNL A   1      41.520  27.582  29.707  1.00  0.00     0.049 A 
ATOM     46  H   UNL A   1      41.110  28.626  31.463  1.00  0.00     0.167 HD
ATOM     47  C   UNL A   1      40.344  31.184  34.939  1.00  0.00     0.034 A 
ATOM     48  C   UNL A   1      42.697  26.950  29.889  1.00  0.00     0.034 A 
ATOM     49  C   UNL A   1      41.509  30.418  35.286  1.00  0.00     0.049 A 
ATOM     50  C   UNL A   1      43.423  27.106  31.201  1.00  0.00     0.074 A 
ATOM     51  C   UNL A   1      42.213  30.415  36.477  1.00  0.00     0.029 A 
ATOM     52  N   UNL A   1      42.155  29.532  34.437  1.00  0.00    -0.354 N 
ATOM     53  N   UNL A   1      43.075  27.793  32.263  1.00  0.00    -0.248 NA
ATOM     54  C   UNL A   1      44.688  26.371  31.353  1.00  0.00     0.031 C 
ATOM     55  C   UNL A   1      43.305  29.551  36.336  1.00  0.00     0.029 A 
ATOM     56  C   UNL A   1      43.259  28.989  35.069  1.00  0.00     0.049 A 
ATOM     57  H   UNL A   1      41.868  29.320  33.519  1.00  0.00     0.167 HD
ATOM     58  C   UNL A   1      44.056  27.546  33.218  1.00  0.00     0.074 A 
ATOM     59  C   UNL A   1      45.004  26.632  32.614  1.00  0.00     0.031 C 
ATOM     60  C   UNL A   1      44.169  28.041  34.476  1.00  0.00     0.034 A 
BRANCH  47  61
ATOM     61  C   UNL A   1      39.800  32.162  35.947  1.00  0.00     0.023 A 
ATOM     62  C   UNL A   1      38.826  31.742  36.875  1.00  0.00     0.012 A 
ATOM     63  C   UNL A   1      40.278  33.486  35.998  1.00  0.00     0.148 A 
ATOM     64  C   UNL A   1      38.309  32.633  37.815  1.00  0.00     0.002 A 
ATOM     65  C   UNL A   1      39.792  34.356  36.965  1.00  0.00     0.091 A 
ATOM     66  F   UNL A   1      41.185  33.874  35.089  1.00  0.00    -0.205 F 
ATOM     67  C   UNL A   1      38.800  33.936  37.866  1.00  0.00     0.022 A 
BRANCH  65  68
ATOM     68  S   UNL A   1      40.416  36.028  37.162  1.00  0.00     0.127 S 
ATOM     69  O   UNL A   1      41.843  35.843  36.901  1.00  0.00    -0.237 OA
ATOM     70  O   UNL A   1      39.694  36.753  36.116  1.00  0.00    -0.237 OA
ATOM     71  O   UNL A   1      40.073  36.425  38.520  1.00  0.00    -0.744 OA
ENDBRANCH  65  68
ENDBRANCH  47  61
BRANCH  48  72
ATOM     72  C   UNL A   1      43.249  26.085  28.809  1.00  0.00     0.023 A 
ATOM     73  C   UNL A   1      42.814  24.751  28.698  1.00  0.00     0.012 A 
ATOM     74  C   UNL A   1      44.181  26.585  27.880  1.00  0.00     0.148 A 
ATOM     75  C   UNL A   1      43.318  23.920  27.697  1.00  0.00     0.002 A 
ATOM     76  C   UNL A   1      44.639  25.769  26.852  1.00  0.00     0.091 A 
ATOM     77  F   UNL A   1      44.593  27.854  28.014  1.00  0.00    -0.205 F 
ATOM     78  C   UNL A   1      44.221  24.431  26.768  1.00  0.00     0.022 A 
BRANCH  76  79
ATOM     79  S   UNL A   1      45.711  26.371  25.543  1.00  0.00     0.127 S 
ATOM     80  O   UNL A   1      47.012  26.390  26.207  1.00  0.00    -0.237 OA
ATOM     81  O   UNL A   1      45.553  25.332  24.525  1.00  0.00    -0.237 OA
ATOM     82  O   UNL A   1      45.178  27.672  25.163  1.00  0.00    -0.744 OA
ENDBRANCH  76  79
ENDBRANCH  48  72
BRANCH  60  83
ATOM     83  C   UNL A   1      45.336  27.580  35.312  1.00  0.00     0.023 A 
ATOM     84  C   UNL A   1      46.532  28.322  35.320  1.00  0.00     0.012 A 
ATOM     85  C   UNL A   1      45.215  26.455  36.154  1.00  0.00     0.148 A 
ATOM     86  C   UNL A   1      47.602  27.935  36.127  1.00  0.00     0.002 A 
ATOM     87  C   UNL A   1      46.266  26.105  36.993  1.00  0.00     0.091 A 
ATOM     88  F   UNL A   1      44.074  25.750  36.121  1.00  0.00    -0.205 F 
ATOM     89  C   UNL A   1      47.465  26.835  36.971  1.00  0.00     0.022 A 
BRANCH  87  90
ATOM     90  S   UNL A   1      46.143  24.764  38.183  1.00  0.00     0.127 S 
ATOM     91  O   UNL A   1      47.451  24.824  38.835  1.00  0.00    -0.237 OA
ATOM     92  O   UNL A   1      45.023  25.194  39.021  1.00  0.00    -0.237 OA
ATOM     93  O   UNL A   1      45.887  23.559  37.406  1.00  0.00    -0.744 OA
ENDBRANCH  87  90
ENDBRANCH  60  83
ENDBRANCH  34  35
ENDBRANCH  27  29
ENDBRANCH  26  27
ENDBRANCH  25  26
ENDBRANCH  24  25
ENDBRANCH  23  24
ENDBRANCH   1  23
TORSDOF 24
ENDMDL
MODEL 3
REMARK VINA RESULT:      -8.6      1.969      2.487
REMARK SMILES COc1cc(/C=C/C(=O)OCCOCCOCCOC(=O)c2ccc(-c3c4nc(c(-c5cccc(S(=O)(=O)[O-])c5F)c5ccc([nH]5)c(-c5cccc(S(=O)(=O)[O-])c5F)c5nc(c(-c6cccc(S(=O)(=O)[O-])c6F)c6ccc3[nH]6)C=C5)C=C4)cc2)cc(OC)c1O
REMARK SMILES IDX 15 1 14 2 13 3 12 4 11 5 10 6 8 7 9 8 7 9 6 10 5 11 3 12
REMARK SMILES IDX 4 13 89 14 86 15 85 16 2 17 1 18 90 19 87 21 88 22 16 23
REMARK SMILES IDX 17 24 18 25 19 26 20 27 21 28 22 29 23 30 84 31 24 32 83 33
REMARK SMILES IDX 25 34 26 35 27 36 77 37 28 38 82 39 76 40 78 41 29 42 81 43
REMARK SMILES IDX 75 44 74 45 30 47 62 48 42 49 61 50 43 51 46 52 60 53 79 54
REMARK SMILES IDX 44 55 45 56 59 58 80 59 47 60 31 61 32 62 40 63 33 64 35 65
REMARK SMILES IDX 41 66 34 67 36 68 37 69 38 70 39 71 63 72 64 73 72 74 65 75
REMARK SMILES IDX 67 76 73 77 66 78 68 79 69 80 70 81 71 82 48 83 49 84 57 85
REMARK SMILES IDX 50 86 52 87 58 88 51 89 53 90 54 91 55 92 56 93
REMARK H PARENT 90 20 78 46 46 57
REMARK Flexibility Score: inf
ROOT
ATOM      1  C   UNL A   1      30.895  27.536  23.753  1.00  0.00     0.188 C 
ENDROOT
BRANCH   1   2
ATOM      2  C   UNL A   1      30.710  26.160  23.085  1.00  0.00     0.188 C 
BRANCH   2   3
ATOM      3  O   UNL A   1      31.728  25.199  23.245  1.00  0.00    -0.376 OA
BRANCH   3   4
ATOM      4  C   UNL A   1      31.429  23.884  23.675  1.00  0.00     0.202 C 
BRANCH   4   5
ATOM      5  C   UNL A   1      30.776  23.507  25.016  1.00  0.00     0.261 C 
BRANCH   5   6
ATOM      6  O   UNL A   1      31.640  23.249  26.127  1.00  0.00    -0.460 OA
BRANCH   6   7
ATOM      7  C   UNL A   1      32.638  24.153  26.296  1.00  0.00     0.330 C 
ATOM      8  O   UNL A   1      32.503  25.354  26.472  1.00  0.00    -0.247 OA
BRANCH   7   9
ATOM      9  C   UNL A   1      33.975  23.527  26.341  1.00  0.00     0.094 C 
ATOM     10  C   UNL A   1      34.991  23.784  25.503  1.00  0.00     0.016 C 
BRANCH  10  11
ATOM     11  C   UNL A   1      36.314  23.147  25.633  1.00  0.00    -0.018 A 
ATOM     12  C   UNL A   1      38.642  23.143  26.365  1.00  0.00     0.165 A 
ATOM     13  C   UNL A   1      37.398  23.780  26.253  1.00  0.00     0.058 A 
ATOM     14  C   UNL A   1      38.798  21.832  25.887  1.00  0.00     0.200 A 
ATOM     15  C   UNL A   1      37.726  21.182  25.261  1.00  0.00     0.165 A 
ATOM     16  C   UNL A   1      36.491  21.842  25.159  1.00  0.00     0.058 A 
BRANCH  12  17
ATOM     17  O   UNL A   1      39.590  23.860  27.048  1.00  0.00    -0.493 OA
ATOM     18  C   UNL A   1      39.265  25.205  27.389  1.00  0.00     0.278 C 
ENDBRANCH  12  17
BRANCH  14  19
ATOM     19  O   UNL A   1      39.967  21.162  26.121  1.00  0.00    -0.502 OA
ATOM     20  H   UNL A   1      40.320  20.593  25.465  1.00  0.00     0.293 HD
ENDBRANCH  14  19
BRANCH  15  21
ATOM     21  O   UNL A   1      37.686  19.907  24.757  1.00  0.00    -0.493 OA
ATOM     22  C   UNL A   1      36.442  19.220  24.772  1.00  0.00     0.278 C 
ENDBRANCH  15  21
ENDBRANCH  10  11
ENDBRANCH   7   9
ENDBRANCH   6   7
ENDBRANCH   5   6
ENDBRANCH   4   5
ENDBRANCH   3   4
ENDBRANCH   2   3
ENDBRANCH   1   2
BRANCH   1  23
ATOM     23  O   UNL A   1      32.028  28.333  23.473  1.00  0.00    -0.376 OA
BRANCH  23  24
ATOM     24  C   UNL A   1      33.110  28.386  24.388  1.00  0.00     0.202 C 
BRANCH  24  25
ATOM     25  C   UNL A   1      33.576  29.669  25.097  1.00  0.00     0.261 C 
BRANCH  25  26
ATOM     26  O   UNL A   1      33.272  29.782  26.488  1.00  0.00    -0.460 OA
BRANCH  26  27
ATOM     27  C   UNL A   1      33.598  30.965  27.054  1.00  0.00     0.338 C 
ATOM     28  O   UNL A   1      32.961  32.017  26.997  1.00  0.00    -0.246 OA
BRANCH  27  29
ATOM     29  C   UNL A   1      34.772  30.787  27.916  1.00  0.00     0.060 A 
ATOM     30  C   UNL A   1      35.756  31.785  27.923  1.00  0.00     0.016 A 
ATOM     31  C   UNL A   1      34.927  29.624  28.672  1.00  0.00     0.016 A 
ATOM     32  C   UNL A   1      36.913  31.614  28.677  1.00  0.00     0.010 A 
ATOM     33  C   UNL A   1      36.098  29.445  29.411  1.00  0.00     0.010 A 
ATOM     34  C   UNL A   1      37.107  30.426  29.394  1.00  0.00    -0.014 A 
BRANCH  34  35
ATOM     35  C   UNL A   1      38.429  30.139  29.995  1.00  0.00     0.031 A 
ATOM     36  C   UNL A   1      38.748  30.711  31.347  1.00  0.00     0.074 A 
ATOM     37  C   UNL A   1      39.338  29.396  29.340  1.00  0.00     0.049 A 
ATOM     38  N   UNL A   1      39.850  30.626  32.044  1.00  0.00    -0.248 NA
ATOM     39  C   UNL A   1      37.680  31.488  31.999  1.00  0.00     0.031 C 
ATOM     40  C   UNL A   1      39.144  28.789  28.025  1.00  0.00     0.029 A 
ATOM     41  N   UNL A   1      40.621  29.054  29.686  1.00  0.00    -0.354 N 
ATOM     42  C   UNL A   1      39.622  31.361  33.200  1.00  0.00     0.074 A 
ATOM     43  C   UNL A   1      38.280  31.894  33.107  1.00  0.00     0.031 C 
ATOM     44  C   UNL A   1      40.283  28.176  27.657  1.00  0.00     0.029 A 
ATOM     45  C   UNL A   1      41.290  28.369  28.700  1.00  0.00     0.049 A 
ATOM     46  H   UNL A   1      41.024  29.277  30.556  1.00  0.00     0.167 HD
ATOM     47  C   UNL A   1      40.452  31.567  34.250  1.00  0.00     0.034 A 
ATOM     48  C   UNL A   1      42.575  27.968  28.637  1.00  0.00     0.034 A 
ATOM     49  C   UNL A   1      41.782  31.028  34.344  1.00  0.00     0.049 A 
ATOM     50  C   UNL A   1      43.488  28.230  29.808  1.00  0.00     0.074 A 
ATOM     51  C   UNL A   1      42.680  31.133  35.390  1.00  0.00     0.029 A 
ATOM     52  N   UNL A   1      42.412  30.299  33.346  1.00  0.00    -0.354 N 
ATOM     53  N   UNL A   1      43.221  28.815  30.950  1.00  0.00    -0.248 NA
ATOM     54  C   UNL A   1      44.872  27.745  29.693  1.00  0.00     0.031 C 
ATOM     55  C   UNL A   1      43.867  30.495  35.012  1.00  0.00     0.029 A 
ATOM     56  C   UNL A   1      43.693  29.962  33.744  1.00  0.00     0.049 A 
ATOM     57  H   UNL A   1      42.006  30.057  32.483  1.00  0.00     0.167 HD
ATOM     58  C   UNL A   1      44.388  28.737  31.704  1.00  0.00     0.074 A 
ATOM     59  C   UNL A   1      45.360  28.033  30.893  1.00  0.00     0.031 C 
ATOM     60  C   UNL A   1      44.637  29.217  32.948  1.00  0.00     0.034 A 
BRANCH  47  61
ATOM     61  C   UNL A   1      39.933  32.401  35.391  1.00  0.00     0.023 A 
ATOM     62  C   UNL A   1      39.125  31.808  36.381  1.00  0.00     0.012 A 
ATOM     63  C   UNL A   1      40.274  33.763  35.502  1.00  0.00     0.148 A 
ATOM     64  C   UNL A   1      38.632  32.564  37.444  1.00  0.00     0.002 A 
ATOM     65  C   UNL A   1      39.819  34.500  36.587  1.00  0.00     0.091 A 
ATOM     66  F   UNL A   1      41.023  34.316  34.536  1.00  0.00    -0.205 F 
ATOM     67  C   UNL A   1      38.988  33.906  37.552  1.00  0.00     0.022 A 
BRANCH  65  68
ATOM     68  S   UNL A   1      40.285  36.213  36.856  1.00  0.00     0.127 S 
ATOM     69  O   UNL A   1      39.536  36.536  38.069  1.00  0.00    -0.237 OA
ATOM     70  O   UNL A   1      41.733  36.114  37.042  1.00  0.00    -0.237 OA
ATOM     71  O   UNL A   1      39.877  36.931  35.656  1.00  0.00    -0.744 OA
ENDBRANCH  65  68
ENDBRANCH  47  61
BRANCH  48  72
ATOM     72  C   UNL A   1      43.069  27.247  27.430  1.00  0.00     0.023 A 
ATOM     73  C   UNL A   1      43.550  27.982  26.330  1.00  0.00     0.012 A 
ATOM     74  C   UNL A   1      43.084  25.840  27.377  1.00  0.00     0.148 A 
ATOM     75  C   UNL A   1      44.015  27.330  25.188  1.00  0.00     0.002 A 
ATOM     76  C   UNL A   1      43.597  25.195  26.258  1.00  0.00     0.091 A 
ATOM     77  F   UNL A   1      42.605  25.160  28.429  1.00  0.00    -0.205 F 
ATOM     78  C   UNL A   1      44.049  25.938  25.156  1.00  0.00     0.022 A 
BRANCH  76  79
ATOM     79  S   UNL A   1      43.789  23.412  26.173  1.00  0.00     0.127 S 
ATOM     80  O   UNL A   1      44.517  23.130  27.408  1.00  0.00    -0.237 OA
ATOM     81  O   UNL A   1      42.397  22.960  26.162  1.00  0.00    -0.237 OA
ATOM     82  O   UNL A   1      44.517  23.151  24.939  1.00  0.00    -0.744 OA
ENDBRANCH  76  79
ENDBRANCH  48  72
BRANCH  60  83
ATOM     83  C   UNL A   1      46.001  28.967  33.539  1.00  0.00     0.023 A 
ATOM     84  C   UNL A   1      47.025  29.919  33.372  1.00  0.00     0.012 A 
ATOM     85  C   UNL A   1      46.241  27.826  34.331  1.00  0.00     0.148 A 
ATOM     86  C   UNL A   1      48.277  29.724  33.955  1.00  0.00     0.002 A 
ATOM     87  C   UNL A   1      47.475  27.663  34.951  1.00  0.00     0.091 A 
ATOM     88  F   UNL A   1      45.260  26.921  34.465  1.00  0.00    -0.205 F 
ATOM     89  C   UNL A   1      48.498  28.604  34.754  1.00  0.00     0.022 A 
BRANCH  87  90
ATOM     90  S   UNL A   1      47.817  26.303  36.075  1.00  0.00     0.127 S 
ATOM     91  O   UNL A   1      47.326  25.156  35.313  1.00  0.00    -0.237 OA
ATOM     92  O   UNL A   1      49.272  26.369  36.210  1.00  0.00    -0.237 OA
ATOM     93  O   UNL A   1      47.084  26.600  37.299  1.00  0.00    -0.744 OA
ENDBRANCH  87  90
ENDBRANCH  60  83
ENDBRANCH  34  35
ENDBRANCH  27  29
ENDBRANCH  26  27
ENDBRANCH  25  26
ENDBRANCH  24  25
ENDBRANCH  23  24
ENDBRANCH   1  23
TORSDOF 24
ENDMDL
