MODEL 1
REMARK VINA RESULT:     -12.2      0.000      0.000
REMARK SMILES O=C(OCCOCCOCCOC(=O)c1ccc(-c2c3nc(c(-c4cccc(S(=O)(=O)[O-])c4F)c4ccc([nH]4)c(-c4cccc(S(=O)(=O)[O-])c4F)c4nc(c(-c5cccc(S(=O)(=O)[O-])c5F)c5ccc2[nH]5)C=C4)C=C3)cc1)C1=Cc2cc(Cl)c(Cl)c(Cl)c2O[C@@H]1C(F)(F)F
REMARK SMILES IDX 8 1 7 2 6 3 5 4 4 5 3 6 2 7 1 8 78 9 79 10 90 11 80 12 89 13
REMARK SMILES IDX 81 14 88 15 82 16 86 17 83 18 84 19 87 20 85 21 91 22 92 23
REMARK SMILES IDX 93 24 94 25 9 26 10 27 11 28 12 29 13 30 14 31 15 32 16 33
REMARK SMILES IDX 77 34 17 35 76 36 18 37 19 38 20 39 70 40 21 41 75 42 69 43
REMARK SMILES IDX 71 44 22 45 74 46 68 47 67 48 23 50 55 51 35 52 54 53 36 54
REMARK SMILES IDX 39 55 53 56 72 57 37 58 38 59 52 61 73 62 40 63 24 64 25 65
REMARK SMILES IDX 33 66 26 67 28 68 34 69 27 70 29 71 30 72 31 73 32 74 56 75
REMARK SMILES IDX 57 76 65 77 58 78 60 79 66 80 59 81 61 82 62 83 63 84 64 85
REMARK SMILES IDX 41 86 42 87 50 88 43 89 45 90 51 91 44 92 46 93 47 94 48 95
REMARK SMILES IDX 49 96
REMARK H PARENT 71 49 39 60
REMARK Flexibility Score: inf
ROOT
ATOM      1  C   UNL A   1      31.802  30.456  25.645  1.00  0.00     0.188 C 
ENDROOT
BRANCH   1   2
ATOM      2  C   UNL A   1      33.122  29.819  26.112  1.00  0.00     0.188 C 
BRANCH   2   3
ATOM      3  O   UNL A   1      33.903  28.906  25.243  1.00  0.00    -0.376 OA
BRANCH   3   4
ATOM      4  C   UNL A   1      33.771  28.679  23.551  1.00  0.00     0.202 C 
BRANCH   4   5
ATOM      5  C   UNL A   1      31.980  28.004  22.522  1.00  0.00     0.261 C 
BRANCH   5   6
ATOM      6  O   UNL A   1      31.427  26.594  22.506  1.00  0.00    -0.460 OA
BRANCH   6   7
ATOM      7  C   UNL A   1      32.401  25.678  22.613  1.00  0.00     0.338 C 
ATOM      8  O   UNL A   1      33.274  25.447  21.813  1.00  0.00    -0.246 OA
BRANCH   7   9
ATOM      9  C   UNL A   1      31.730  24.819  23.583  1.00  0.00     0.087 C 
ATOM     10  C   UNL A   1      31.407  23.463  23.148  1.00  0.00     0.027 C 
ATOM     11  C   UNL A   1      32.996  25.249  24.958  1.00  0.00     0.316 C 
ATOM     12  C   UNL A   1      32.356  22.001  23.599  1.00  0.00     0.020 A 
ATOM     13  O   UNL A   1      34.164  23.731  25.322  1.00  0.00    -0.474 OA
ATOM     14  C   UNL A   1      31.996  20.787  23.087  1.00  0.00     0.034 A 
ATOM     15  C   UNL A   1      33.759  22.088  24.609  1.00  0.00     0.148 A 
ATOM     16  C   UNL A   1      32.812  19.702  23.471  1.00  0.00     0.062 A 
ATOM     17  C   UNL A   1      34.535  20.990  24.893  1.00  0.00     0.103 A 
ATOM     18  Cl  UNL A   1      32.283  18.167  22.823  1.00  0.00    -0.083 Cl
ATOM     19  C   UNL A   1      34.017  19.787  24.321  1.00  0.00     0.082 A 
ATOM     20  Cl  UNL A   1      36.013  21.083  25.739  1.00  0.00    -0.079 Cl
ATOM     21  Cl  UNL A   1      34.870  18.287  24.638  1.00  0.00    -0.081 Cl
BRANCH  11  22
ATOM     22  C   UNL A   1      31.843  26.034  25.907  1.00  0.00     0.430 C 
ATOM     23  F   UNL A   1      31.053  26.975  25.387  1.00  0.00    -0.167 F 
ATOM     24  F   UNL A   1      31.041  25.111  26.488  1.00  0.00    -0.167 F 
ATOM     25  F   UNL A   1      32.444  26.688  26.949  1.00  0.00    -0.167 F 
ENDBRANCH  11  22
ENDBRANCH   7   9
ENDBRANCH   6   7
ENDBRANCH   5   6
ENDBRANCH   4   5
ENDBRANCH   3   4
ENDBRANCH   2   3
ENDBRANCH   1   2
BRANCH   1  26
ATOM     26  O   UNL A   1      31.077  31.285  26.517  1.00  0.00    -0.376 OA
BRANCH  26  27
ATOM     27  C   UNL A   1      31.407  32.665  26.495  1.00  0.00     0.202 C 
BRANCH  27  28
ATOM     28  C   UNL A   1      32.312  33.207  27.608  1.00  0.00     0.261 C 
BRANCH  28  29
ATOM     29  O   UNL A   1      33.631  33.578  27.165  1.00  0.00    -0.460 OA
BRANCH  29  30
ATOM     30  C   UNL A   1      34.466  34.133  28.078  1.00  0.00     0.338 C 
ATOM     31  O   UNL A   1      34.373  35.229  28.602  1.00  0.00    -0.246 OA
BRANCH  30  32
ATOM     32  C   UNL A   1      35.479  33.130  28.453  1.00  0.00     0.060 A 
ATOM     33  C   UNL A   1      35.101  31.804  28.722  1.00  0.00     0.016 A 
ATOM     34  C   UNL A   1      36.810  33.526  28.561  1.00  0.00     0.016 A 
ATOM     35  C   UNL A   1      36.070  30.858  29.066  1.00  0.00     0.010 A 
ATOM     36  C   UNL A   1      37.767  32.596  28.952  1.00  0.00     0.010 A 
ATOM     37  C   UNL A   1      37.400  31.265  29.222  1.00  0.00    -0.014 A 
BRANCH  37  38
ATOM     38  C   UNL A   1      38.374  30.411  29.936  1.00  0.00     0.031 A 
ATOM     39  C   UNL A   1      38.641  30.741  31.375  1.00  0.00     0.074 A 
ATOM     40  C   UNL A   1      39.090  29.469  29.302  1.00  0.00     0.049 A 
ATOM     41  N   UNL A   1      39.571  30.294  32.172  1.00  0.00    -0.248 NA
ATOM     42  C   UNL A   1      37.747  31.741  31.984  1.00  0.00     0.031 C 
ATOM     43  C   UNL A   1      38.913  29.070  27.909  1.00  0.00     0.029 A 
ATOM     44  N   UNL A   1      40.154  28.721  29.742  1.00  0.00    -0.354 N 
ATOM     45  C   UNL A   1      39.408  30.994  33.359  1.00  0.00     0.074 A 
ATOM     46  C   UNL A   1      38.292  31.894  33.178  1.00  0.00     0.031 C 
ATOM     47  C   UNL A   1      39.874  28.185  27.590  1.00  0.00     0.029 A 
ATOM     48  C   UNL A   1      40.756  27.995  28.743  1.00  0.00     0.049 A 
ATOM     49  H   UNL A   1      40.455  28.706  30.680  1.00  0.00     0.167 HD
ATOM     50  C   UNL A   1      40.136  30.907  34.497  1.00  0.00     0.034 A 
ATOM     51  C   UNL A   1      41.914  27.305  28.745  1.00  0.00     0.034 A 
ATOM     52  C   UNL A   1      41.267  30.039  34.650  1.00  0.00     0.049 A 
ATOM     53  C   UNL A   1      42.733  27.239  30.009  1.00  0.00     0.074 A 
ATOM     54  C   UNL A   1      42.043  29.828  35.773  1.00  0.00     0.029 A 
ATOM     55  N   UNL A   1      41.813  29.270  33.632  1.00  0.00    -0.354 N 
ATOM     56  N   UNL A   1      42.513  27.820  31.164  1.00  0.00    -0.248 NA
ATOM     57  C   UNL A   1      43.944  26.405  29.981  1.00  0.00     0.031 C 
ATOM     58  C   UNL A   1      43.103  28.990  35.415  1.00  0.00     0.029 A 
ATOM     59  C   UNL A   1      42.936  28.607  34.092  1.00  0.00     0.049 A 
ATOM     60  H   UNL A   1      41.455  29.206  32.718  1.00  0.00     0.167 HD
ATOM     61  C   UNL A   1      43.529  27.390  32.012  1.00  0.00     0.074 A 
ATOM     62  C   UNL A   1      44.368  26.501  31.235  1.00  0.00     0.031 C 
ATOM     63  C   UNL A   1      43.742  27.699  33.315  1.00  0.00     0.034 A 
BRANCH  50  64
ATOM     64  C   UNL A   1      39.750  31.820  35.630  1.00  0.00     0.023 A 
ATOM     65  C   UNL A   1      40.345  33.093  35.758  1.00  0.00     0.012 A 
ATOM     66  C   UNL A   1      38.805  31.402  36.587  1.00  0.00     0.148 A 
ATOM     67  C   UNL A   1      40.055  33.905  36.854  1.00  0.00     0.002 A 
ATOM     68  C   UNL A   1      38.475  32.242  37.641  1.00  0.00     0.091 A 
ATOM     69  F   UNL A   1      38.266  30.180  36.464  1.00  0.00    -0.205 F 
ATOM     70  C   UNL A   1      39.114  33.484  37.790  1.00  0.00     0.022 A 
BRANCH  68  71
ATOM     71  S   UNL A   1      37.212  31.825  38.846  1.00  0.00     0.127 S 
ATOM     72  O   UNL A   1      36.184  32.824  38.555  1.00  0.00    -0.237 OA
ATOM     73  O   UNL A   1      36.860  30.458  38.459  1.00  0.00    -0.237 OA
ATOM     74  O   UNL A   1      37.846  31.944  40.152  1.00  0.00    -0.744 OA
ENDBRANCH  68  71
ENDBRANCH  50  64
BRANCH  51  75
ATOM     75  C   UNL A   1      42.367  26.629  27.496  1.00  0.00     0.023 A 
ATOM     76  C   UNL A   1      43.067  27.356  26.516  1.00  0.00     0.012 A 
ATOM     77  C   UNL A   1      42.152  25.249  27.309  1.00  0.00     0.148 A 
ATOM     78  C   UNL A   1      43.535  26.723  25.363  1.00  0.00     0.002 A 
ATOM     79  C   UNL A   1      42.670  24.614  26.188  1.00  0.00     0.091 A 
ATOM     80  F   UNL A   1      41.470  24.581  28.250  1.00  0.00    -0.205 F 
ATOM     81  C   UNL A   1      43.348  25.351  25.205  1.00  0.00     0.022 A 
BRANCH  79  82
ATOM     82  S   UNL A   1      42.591  22.833  25.963  1.00  0.00     0.127 S 
ATOM     83  O   UNL A   1      43.020  22.686  24.574  1.00  0.00    -0.237 OA
ATOM     84  O   UNL A   1      43.553  22.364  26.959  1.00  0.00    -0.237 OA
ATOM     85  O   UNL A   1      41.210  22.456  26.231  1.00  0.00    -0.744 OA
ENDBRANCH  79  82
ENDBRANCH  51  75
BRANCH  63  86
ATOM     86  C   UNL A   1      44.880  27.019  34.032  1.00  0.00     0.023 A 
ATOM     87  C   UNL A   1      46.169  27.585  34.040  1.00  0.00     0.012 A 
ATOM     88  C   UNL A   1      44.626  25.865  34.803  1.00  0.00     0.148 A 
ATOM     89  C   UNL A   1      47.193  27.000  34.786  1.00  0.00     0.002 A 
ATOM     90  C   UNL A   1      45.632  25.323  35.588  1.00  0.00     0.091 A 
ATOM     91  F   UNL A   1      43.395  25.337  34.770  1.00  0.00    -0.205 F 
ATOM     92  C   UNL A   1      46.921  25.880  35.572  1.00  0.00     0.022 A 
BRANCH  90  93
ATOM     93  S   UNL A   1      45.345  23.950  36.710  1.00  0.00     0.127 S 
ATOM     94  O   UNL A   1      44.510  24.574  37.735  1.00  0.00    -0.237 OA
ATOM     95  O   UNL A   1      44.648  22.993  35.852  1.00  0.00    -0.237 OA
ATOM     96  O   UNL A   1      46.660  23.515  37.165  1.00  0.00    -0.744 OA
ENDBRANCH  90  93
ENDBRANCH  63  86
ENDBRANCH  37  38
ENDBRANCH  30  32
ENDBRANCH  29  30
ENDBRANCH  28  29
ENDBRANCH  27  28
ENDBRANCH  26  27
ENDBRANCH   1  26
TORSDOF 21
ENDMDL
MODEL 2
REMARK VINA RESULT:     -12.2      1.692      2.205
REMARK SMILES O=C(OCCOCCOCCOC(=O)c1ccc(-c2c3nc(c(-c4cccc(S(=O)(=O)[O-])c4F)c4ccc([nH]4)c(-c4cccc(S(=O)(=O)[O-])c4F)c4nc(c(-c5cccc(S(=O)(=O)[O-])c5F)c5ccc2[nH]5)C=C4)C=C3)cc1)C1=Cc2cc(Cl)c(Cl)c(Cl)c2O[C@@H]1C(F)(F)F
REMARK SMILES IDX 8 1 7 2 6 3 5 4 4 5 3 6 2 7 1 8 78 9 79 10 90 11 80 12 89 13
REMARK SMILES IDX 81 14 88 15 82 16 86 17 83 18 84 19 87 20 85 21 91 22 92 23
REMARK SMILES IDX 93 24 94 25 9 26 10 27 11 28 12 29 13 30 14 31 15 32 16 33
REMARK SMILES IDX 77 34 17 35 76 36 18 37 19 38 20 39 70 40 21 41 75 42 69 43
REMARK SMILES IDX 71 44 22 45 74 46 68 47 67 48 23 50 55 51 35 52 54 53 36 54
REMARK SMILES IDX 39 55 53 56 72 57 37 58 38 59 52 61 73 62 40 63 24 64 25 65
REMARK SMILES IDX 33 66 26 67 28 68 34 69 27 70 29 71 30 72 31 73 32 74 56 75
REMARK SMILES IDX 57 76 65 77 58 78 60 79 66 80 59 81 61 82 62 83 63 84 64 85
REMARK SMILES IDX 41 86 42 87 50 88 43 89 45 90 51 91 44 92 46 93 47 94 48 95
REMARK SMILES IDX 49 96
REMARK H PARENT 71 49 39 60
REMARK Flexibility Score: inf
ROOT
ATOM      1  C   UNL A   1      31.873  29.858  25.497  1.00  0.00     0.188 C 
ENDROOT
BRANCH   1   2
ATOM      2  C   UNL A   1      33.155  29.309  24.848  1.00  0.00     0.188 C 
BRANCH   2   3
ATOM      3  O   UNL A   1      33.114  28.392  23.683  1.00  0.00    -0.376 OA
BRANCH   3   4
ATOM      4  C   UNL A   1      31.770  27.972  22.710  1.00  0.00     0.202 C 
BRANCH   4   5
ATOM      5  C   UNL A   1      31.009  25.953  22.443  1.00  0.00     0.261 C 
BRANCH   5   6
ATOM      6  O   UNL A   1      31.810  24.671  22.519  1.00  0.00    -0.460 OA
BRANCH   6   7
ATOM      7  C   UNL A   1      33.075  24.898  22.907  1.00  0.00     0.338 C 
ATOM      8  O   UNL A   1      33.992  25.264  22.216  1.00  0.00    -0.246 OA
BRANCH   7   9
ATOM      9  C   UNL A   1      33.042  24.071  24.109  1.00  0.00     0.087 C 
ATOM     10  C   UNL A   1      33.701  22.771  24.030  1.00  0.00     0.027 C 
ATOM     11  C   UNL A   1      33.624  25.522  25.219  1.00  0.00     0.316 C 
ATOM     12  C   UNL A   1      35.331  22.419  24.711  1.00  0.00     0.020 A 
ATOM     13  O   UNL A   1      35.463  25.250  25.807  1.00  0.00    -0.474 OA
ATOM     14  C   UNL A   1      35.877  21.180  24.530  1.00  0.00     0.034 A 
ATOM     15  C   UNL A   1      36.267  23.621  25.534  1.00  0.00     0.148 A 
ATOM     16  C   UNL A   1      37.168  21.003  25.072  1.00  0.00     0.062 A 
ATOM     17  C   UNL A   1      37.542  23.384  25.986  1.00  0.00     0.103 A 
ATOM     18  Cl  UNL A   1      37.802  19.389  24.849  1.00  0.00    -0.083 Cl
ATOM     19  C   UNL A   1      37.966  22.039  25.759  1.00  0.00     0.082 A 
ATOM     20  Cl  UNL A   1      38.543  24.600  26.640  1.00  0.00    -0.079 Cl
ATOM     21  Cl  UNL A   1      39.556  21.564  26.328  1.00  0.00    -0.081 Cl
BRANCH  11  22
ATOM     22  C   UNL A   1      32.168  25.583  26.069  1.00  0.00     0.430 C 
ATOM     23  F   UNL A   1      31.000  25.624  25.426  1.00  0.00    -0.167 F 
ATOM     24  F   UNL A   1      32.115  24.542  26.935  1.00  0.00    -0.167 F 
ATOM     25  F   UNL A   1      32.118  26.702  26.857  1.00  0.00    -0.167 F 
ENDBRANCH  11  22
ENDBRANCH   7   9
ENDBRANCH   6   7
ENDBRANCH   5   6
ENDBRANCH   4   5
ENDBRANCH   3   4
ENDBRANCH   2   3
ENDBRANCH   1   2
BRANCH   1  26
ATOM     26  O   UNL A   1      31.960  30.690  26.625  1.00  0.00    -0.376 OA
BRANCH  26  27
ATOM     27  C   UNL A   1      31.259  31.923  26.553  1.00  0.00     0.202 C 
BRANCH  27  28
ATOM     28  C   UNL A   1      31.921  33.164  27.164  1.00  0.00     0.261 C 
BRANCH  28  29
ATOM     29  O   UNL A   1      33.348  33.220  26.979  1.00  0.00    -0.460 OA
BRANCH  29  30
ATOM     30  C   UNL A   1      34.082  33.822  27.947  1.00  0.00     0.338 C 
ATOM     31  O   UNL A   1      33.868  34.895  28.484  1.00  0.00    -0.246 OA
BRANCH  30  32
ATOM     32  C   UNL A   1      35.155  32.900  28.359  1.00  0.00     0.060 A 
ATOM     33  C   UNL A   1      34.883  31.538  28.565  1.00  0.00     0.016 A 
ATOM     34  C   UNL A   1      36.436  33.409  28.566  1.00  0.00     0.016 A 
ATOM     35  C   UNL A   1      35.910  30.670  28.945  1.00  0.00     0.010 A 
ATOM     36  C   UNL A   1      37.447  32.554  28.993  1.00  0.00     0.010 A 
ATOM     37  C   UNL A   1      37.184  31.187  29.201  1.00  0.00    -0.014 A 
BRANCH  37  38
ATOM     38  C   UNL A   1      38.185  30.399  29.953  1.00  0.00     0.031 A 
ATOM     39  C   UNL A   1      38.399  30.768  31.391  1.00  0.00     0.074 A 
ATOM     40  C   UNL A   1      38.964  29.485  29.353  1.00  0.00     0.049 A 
ATOM     41  N   UNL A   1      39.331  30.384  32.218  1.00  0.00    -0.248 NA
ATOM     42  C   UNL A   1      37.439  31.729  31.960  1.00  0.00     0.031 C 
ATOM     43  C   UNL A   1      38.843  29.053  27.964  1.00  0.00     0.029 A 
ATOM     44  N   UNL A   1      40.055  28.802  29.832  1.00  0.00    -0.354 N 
ATOM     45  C   UNL A   1      39.104  31.095  33.388  1.00  0.00     0.074 A 
ATOM     46  C   UNL A   1      37.946  31.931  33.164  1.00  0.00     0.031 C 
ATOM     47  C   UNL A   1      39.856  28.214  27.684  1.00  0.00     0.029 A 
ATOM     48  C   UNL A   1      40.719  28.092  28.860  1.00  0.00     0.049 A 
ATOM     49  H   UNL A   1      40.334  28.820  30.776  1.00  0.00     0.167 HD
ATOM     50  C   UNL A   1      39.807  31.067  34.544  1.00  0.00     0.034 A 
ATOM     51  C   UNL A   1      41.911  27.464  28.902  1.00  0.00     0.034 A 
ATOM     52  C   UNL A   1      40.978  30.262  34.739  1.00  0.00     0.049 A 
ATOM     53  C   UNL A   1      42.701  27.464  30.186  1.00  0.00     0.074 A 
ATOM     54  C   UNL A   1      41.737  30.113  35.883  1.00  0.00     0.029 A 
ATOM     55  N   UNL A   1      41.588  29.506  33.748  1.00  0.00    -0.354 N 
ATOM     56  N   UNL A   1      42.423  28.053  31.325  1.00  0.00    -0.248 NA
ATOM     57  C   UNL A   1      43.955  26.695  30.202  1.00  0.00     0.031 C 
ATOM     58  C   UNL A   1      42.848  29.326  35.566  1.00  0.00     0.029 A 
ATOM     59  C   UNL A   1      42.733  28.912  34.247  1.00  0.00     0.049 A 
ATOM     60  H   UNL A   1      41.257  29.408  32.827  1.00  0.00     0.167 HD
ATOM     61  C   UNL A   1      43.439  27.692  32.204  1.00  0.00     0.074 A 
ATOM     62  C   UNL A   1      44.343  26.835  31.464  1.00  0.00     0.031 C 
ATOM     63  C   UNL A   1      43.605  28.034  33.506  1.00  0.00     0.034 A 
BRANCH  50  64
ATOM     64  C   UNL A   1      39.346  31.978  35.650  1.00  0.00     0.023 A 
ATOM     65  C   UNL A   1      38.387  31.539  36.586  1.00  0.00     0.012 A 
ATOM     66  C   UNL A   1      39.856  33.287  35.748  1.00  0.00     0.148 A 
ATOM     67  C   UNL A   1      37.894  32.408  37.558  1.00  0.00     0.002 A 
ATOM     68  C   UNL A   1      39.406  34.126  36.757  1.00  0.00     0.091 A 
ATOM     69  F   UNL A   1      40.749  33.697  34.837  1.00  0.00    -0.205 F 
ATOM     70  C   UNL A   1      38.409  33.698  37.650  1.00  0.00     0.022 A 
BRANCH  68  71
ATOM     71  S   UNL A   1      40.073  35.773  37.010  1.00  0.00     0.127 S 
ATOM     72  O   UNL A   1      39.418  36.169  38.256  1.00  0.00    -0.237 OA
ATOM     73  O   UNL A   1      41.506  35.507  37.133  1.00  0.00    -0.237 OA
ATOM     74  O   UNL A   1      39.696  36.546  35.834  1.00  0.00    -0.744 OA
ENDBRANCH  68  71
ENDBRANCH  50  64
BRANCH  51  75
ATOM     75  C   UNL A   1      42.429  26.792  27.677  1.00  0.00     0.023 A 
ATOM     76  C   UNL A   1      42.984  27.557  26.635  1.00  0.00     0.012 A 
ATOM     77  C   UNL A   1      42.422  25.386  27.573  1.00  0.00     0.148 A 
ATOM     78  C   UNL A   1      43.513  26.934  25.502  1.00  0.00     0.002 A 
ATOM     79  C   UNL A   1      43.002  24.771  26.471  1.00  0.00     0.091 A 
ATOM     80  F   UNL A   1      41.876  24.680  28.573  1.00  0.00    -0.205 F 
ATOM     81  C   UNL A   1      43.534  25.543  25.426  1.00  0.00     0.022 A 
BRANCH  79  82
ATOM     82  S   UNL A   1      43.190  22.989  26.347  1.00  0.00     0.127 S 
ATOM     83  O   UNL A   1      44.643  22.844  26.290  1.00  0.00    -0.237 OA
ATOM     84  O   UNL A   1      42.574  22.536  27.593  1.00  0.00    -0.237 OA
ATOM     85  O   UNL A   1      42.476  22.594  25.140  1.00  0.00    -0.744 OA
ENDBRANCH  79  82
ENDBRANCH  51  75
BRANCH  63  86
ATOM     86  C   UNL A   1      44.759  27.429  34.262  1.00  0.00     0.023 A 
ATOM     87  C   UNL A   1      45.984  28.113  34.379  1.00  0.00     0.012 A 
ATOM     88  C   UNL A   1      44.574  26.216  34.959  1.00  0.00     0.148 A 
ATOM     89  C   UNL A   1      47.013  27.588  35.161  1.00  0.00     0.002 A 
ATOM     90  C   UNL A   1      45.580  25.731  35.781  1.00  0.00     0.091 A 
ATOM     91  F   UNL A   1      43.404  25.576  34.822  1.00  0.00    -0.205 F 
ATOM     92  C   UNL A   1      46.807  26.407  35.874  1.00  0.00     0.022 A 
BRANCH  90  93
ATOM     93  S   UNL A   1      45.363  24.279  36.816  1.00  0.00     0.127 S 
ATOM     94  O   UNL A   1      44.925  23.282  35.841  1.00  0.00    -0.237 OA
ATOM     95  O   UNL A   1      46.712  24.070  37.340  1.00  0.00    -0.237 OA
ATOM     96  O   UNL A   1      44.369  24.640  37.819  1.00  0.00    -0.744 OA
ENDBRANCH  90  93
ENDBRANCH  63  86
ENDBRANCH  37  38
ENDBRANCH  30  32
ENDBRANCH  29  30
ENDBRANCH  28  29
ENDBRANCH  27  28
ENDBRANCH  26  27
ENDBRANCH   1  26
TORSDOF 21
ENDMDL
MODEL 3
REMARK VINA RESULT:     -11.8      5.902     11.848
REMARK SMILES O=C(OCCOCCOCCOC(=O)c1ccc(-c2c3nc(c(-c4cccc(S(=O)(=O)[O-])c4F)c4ccc([nH]4)c(-c4cccc(S(=O)(=O)[O-])c4F)c4nc(c(-c5cccc(S(=O)(=O)[O-])c5F)c5ccc2[nH]5)C=C4)C=C3)cc1)C1=Cc2cc(Cl)c(Cl)c(Cl)c2O[C@@H]1C(F)(F)F
REMARK SMILES IDX 8 1 7 2 6 3 5 4 4 5 3 6 2 7 1 8 78 9 79 10 90 11 80 12 89 13
REMARK SMILES IDX 81 14 88 15 82 16 86 17 83 18 84 19 87 20 85 21 91 22 92 23
REMARK SMILES IDX 93 24 94 25 9 26 10 27 11 28 12 29 13 30 14 31 15 32 16 33
REMARK SMILES IDX 77 34 17 35 76 36 18 37 19 38 20 39 70 40 21 41 75 42 69 43
REMARK SMILES IDX 71 44 22 45 74 46 68 47 67 48 23 50 55 51 35 52 54 53 36 54
REMARK SMILES IDX 39 55 53 56 72 57 37 58 38 59 52 61 73 62 40 63 24 64 25 65
REMARK SMILES IDX 33 66 26 67 28 68 34 69 27 70 29 71 30 72 31 73 32 74 56 75
REMARK SMILES IDX 57 76 65 77 58 78 60 79 66 80 59 81 61 82 62 83 63 84 64 85
REMARK SMILES IDX 41 86 42 87 50 88 43 89 45 90 51 91 44 92 46 93 47 94 48 95
REMARK SMILES IDX 49 96
REMARK H PARENT 71 49 39 60
REMARK Flexibility Score: inf
ROOT
ATOM      1  C   UNL A   1      41.181  19.939  27.424  1.00  0.00     0.188 C 
ENDROOT
BRANCH   1   2
ATOM      2  C   UNL A   1      41.171  21.477  27.477  1.00  0.00     0.188 C 
BRANCH   2   3
ATOM      3  O   UNL A   1      39.939  22.262  27.219  1.00  0.00    -0.376 OA
BRANCH   3   4
ATOM      4  C   UNL A   1      38.915  22.211  25.848  1.00  0.00     0.202 C 
BRANCH   4   5
ATOM      5  C   UNL A   1      37.132  23.424  25.581  1.00  0.00     0.261 C 
BRANCH   5   6
ATOM      6  O   UNL A   1      35.796  23.225  26.265  1.00  0.00    -0.460 OA
BRANCH   6   7
ATOM      7  C   UNL A   1      35.301  21.998  26.041  1.00  0.00     0.338 C 
ATOM      8  O   UNL A   1      35.865  21.072  25.513  1.00  0.00    -0.246 OA
BRANCH   7   9
ATOM      9  C   UNL A   1      33.890  22.364  26.096  1.00  0.00     0.087 C 
ATOM     10  C   UNL A   1      33.577  23.706  26.579  1.00  0.00     0.027 C 
ATOM     11  C   UNL A   1      33.579  21.751  24.306  1.00  0.00     0.316 C 
ATOM     12  C   UNL A   1      33.146  25.092  25.513  1.00  0.00     0.020 A 
ATOM     13  O   UNL A   1      33.304  23.256  23.097  1.00  0.00    -0.474 OA
ATOM     14  C   UNL A   1      32.929  26.320  26.069  1.00  0.00     0.034 A 
ATOM     15  C   UNL A   1      33.065  24.940  23.790  1.00  0.00     0.148 A 
ATOM     16  C   UNL A   1      32.624  27.352  25.157  1.00  0.00     0.062 A 
ATOM     17  C   UNL A   1      32.816  26.009  22.965  1.00  0.00     0.103 A 
ATOM     18  Cl  UNL A   1      32.314  28.892  25.923  1.00  0.00    -0.083 Cl
ATOM     19  C   UNL A   1      32.572  27.217  23.687  1.00  0.00     0.082 A 
ATOM     20  Cl  UNL A   1      32.903  25.917  21.263  1.00  0.00    -0.079 Cl
ATOM     21  Cl  UNL A   1      32.186  28.664  22.772  1.00  0.00    -0.081 Cl
BRANCH  11  22
ATOM     22  C   UNL A   1      32.554  20.508  24.807  1.00  0.00     0.430 C 
ATOM     23  F   UNL A   1      32.969  19.586  25.677  1.00  0.00    -0.167 F 
ATOM     24  F   UNL A   1      31.413  21.045  25.303  1.00  0.00    -0.167 F 
ATOM     25  F   UNL A   1      32.155  19.754  23.737  1.00  0.00    -0.167 F 
ENDBRANCH  11  22
ENDBRANCH   7   9
ENDBRANCH   6   7
ENDBRANCH   5   6
ENDBRANCH   4   5
ENDBRANCH   3   4
ENDBRANCH   2   3
ENDBRANCH   1   2
BRANCH   1  26
ATOM     26  O   UNL A   1      42.371  19.238  27.679  1.00  0.00    -0.376 OA
BRANCH  26  27
ATOM     27  C   UNL A   1      42.671  18.166  26.799  1.00  0.00     0.202 C 
BRANCH  27  28
ATOM     28  C   UNL A   1      43.131  18.508  25.377  1.00  0.00     0.261 C 
BRANCH  28  29
ATOM     29  O   UNL A   1      44.553  18.407  25.179  1.00  0.00    -0.460 OA
BRANCH  29  30
ATOM     30  C   UNL A   1      45.110  19.187  24.220  1.00  0.00     0.338 C 
ATOM     31  O   UNL A   1      45.651  18.827  23.189  1.00  0.00    -0.246 OA
BRANCH  30  32
ATOM     32  C   UNL A   1      44.849  20.598  24.557  1.00  0.00     0.060 A 
ATOM     33  C   UNL A   1      44.495  21.515  23.554  1.00  0.00     0.016 A 
ATOM     34  C   UNL A   1      44.986  21.009  25.882  1.00  0.00     0.016 A 
ATOM     35  C   UNL A   1      44.238  22.848  23.886  1.00  0.00     0.010 A 
ATOM     36  C   UNL A   1      44.781  22.347  26.204  1.00  0.00     0.010 A 
ATOM     37  C   UNL A   1      44.424  23.273  25.207  1.00  0.00    -0.014 A 
BRANCH  37  38
ATOM     38  C   UNL A   1      44.534  24.712  25.531  1.00  0.00     0.031 A 
ATOM     39  C   UNL A   1      45.881  25.348  25.354  1.00  0.00     0.074 A 
ATOM     40  C   UNL A   1      43.518  25.395  26.084  1.00  0.00     0.049 A 
ATOM     41  N   UNL A   1      46.305  26.519  25.739  1.00  0.00    -0.248 NA
ATOM     42  C   UNL A   1      46.896  24.526  24.672  1.00  0.00     0.031 C 
ATOM     43  C   UNL A   1      42.172  24.876  26.300  1.00  0.00     0.029 A 
ATOM     44  N   UNL A   1      43.490  26.659  26.618  1.00  0.00    -0.354 N 
ATOM     45  C   UNL A   1      47.650  26.557  25.396  1.00  0.00     0.074 A 
ATOM     46  C   UNL A   1      47.969  25.293  24.770  1.00  0.00     0.031 C 
ATOM     47  C   UNL A   1      41.459  25.796  26.973  1.00  0.00     0.029 A 
ATOM     48  C   UNL A   1      42.315  26.945  27.272  1.00  0.00     0.049 A 
ATOM     49  H   UNL A   1      44.236  27.298  26.541  1.00  0.00     0.167 HD
ATOM     50  C   UNL A   1      48.545  27.551  25.597  1.00  0.00     0.034 A 
ATOM     51  C   UNL A   1      41.991  27.986  28.064  1.00  0.00     0.034 A 
ATOM     52  C   UNL A   1      48.224  28.785  26.255  1.00  0.00     0.049 A 
ATOM     53  C   UNL A   1      43.006  29.074  28.307  1.00  0.00     0.074 A 
ATOM     54  C   UNL A   1      49.035  29.883  26.465  1.00  0.00     0.029 A 
ATOM     55  N   UNL A   1      47.003  29.064  26.852  1.00  0.00    -0.354 N 
ATOM     56  N   UNL A   1      44.246  29.153  27.886  1.00  0.00    -0.248 NA
ATOM     57  C   UNL A   1      42.573  30.227  29.111  1.00  0.00     0.031 C 
ATOM     58  C   UNL A   1      48.330  30.797  27.253  1.00  0.00     0.029 A 
ATOM     59  C   UNL A   1      47.049  30.307  27.458  1.00  0.00     0.049 A 
ATOM     60  H   UNL A   1      46.221  28.468  26.846  1.00  0.00     0.167 HD
ATOM     61  C   UNL A   1      44.727  30.379  28.334  1.00  0.00     0.074 A 
ATOM     62  C   UNL A   1      43.645  31.008  29.063  1.00  0.00     0.031 C 
ATOM     63  C   UNL A   1      45.952  30.934  28.152  1.00  0.00     0.034 A 
BRANCH  50  64
ATOM     64  C   UNL A   1      49.959  27.304  25.145  1.00  0.00     0.023 A 
ATOM     65  C   UNL A   1      50.954  26.937  26.075  1.00  0.00     0.012 A 
ATOM     66  C   UNL A   1      50.307  27.457  23.789  1.00  0.00     0.148 A 
ATOM     67  C   UNL A   1      52.282  26.793  25.675  1.00  0.00     0.002 A 
ATOM     68  C   UNL A   1      51.619  27.250  23.387  1.00  0.00     0.091 A 
ATOM     69  F   UNL A   1      49.355  27.829  22.921  1.00  0.00    -0.205 F 
ATOM     70  C   UNL A   1      52.613  26.941  24.331  1.00  0.00     0.022 A 
BRANCH  68  71
ATOM     71  S   UNL A   1      52.124  27.331  21.667  1.00  0.00     0.127 S 
ATOM     72  O   UNL A   1      51.178  26.411  21.037  1.00  0.00    -0.237 OA
ATOM     73  O   UNL A   1      51.905  28.743  21.351  1.00  0.00    -0.237 OA
ATOM     74  O   UNL A   1      53.519  26.910  21.636  1.00  0.00    -0.744 OA
ENDBRANCH  68  71
ENDBRANCH  50  64
BRANCH  51  75
ATOM     75  C   UNL A   1      40.641  28.036  28.692  1.00  0.00     0.023 A 
ATOM     76  C   UNL A   1      40.387  27.317  29.875  1.00  0.00     0.012 A 
ATOM     77  C   UNL A   1      39.625  28.845  28.146  1.00  0.00     0.148 A 
ATOM     78  C   UNL A   1      39.138  27.392  30.496  1.00  0.00     0.002 A 
ATOM     79  C   UNL A   1      38.405  28.961  28.800  1.00  0.00     0.091 A 
ATOM     80  F   UNL A   1      39.887  29.510  27.012  1.00  0.00    -0.205 F 
ATOM     81  C   UNL A   1      38.153  28.223  29.967  1.00  0.00     0.022 A 
BRANCH  79  82
ATOM     82  S   UNL A   1      37.126  30.104  28.265  1.00  0.00     0.127 S 
ATOM     83  O   UNL A   1      36.927  29.702  26.875  1.00  0.00    -0.237 OA
ATOM     84  O   UNL A   1      36.027  29.766  29.169  1.00  0.00    -0.237 OA
ATOM     85  O   UNL A   1      37.677  31.439  28.455  1.00  0.00    -0.744 OA
ENDBRANCH  79  82
ENDBRANCH  51  75
BRANCH  63  86
ATOM     86  C   UNL A   1      46.188  32.328  28.675  1.00  0.00     0.023 A 
ATOM     87  C   UNL A   1      46.763  32.536  29.943  1.00  0.00     0.012 A 
ATOM     88  C   UNL A   1      45.938  33.435  27.837  1.00  0.00     0.148 A 
ATOM     89  C   UNL A   1      47.067  33.827  30.376  1.00  0.00     0.002 A 
ATOM     90  C   UNL A   1      46.296  34.709  28.251  1.00  0.00     0.091 A 
ATOM     91  F   UNL A   1      45.377  33.213  26.640  1.00  0.00    -0.205 F 
ATOM     92  C   UNL A   1      46.849  34.911  29.526  1.00  0.00     0.022 A 
BRANCH  90  93
ATOM     93  S   UNL A   1      46.151  36.146  27.183  1.00  0.00     0.127 S 
ATOM     94  O   UNL A   1      46.976  35.753  26.043  1.00  0.00    -0.237 OA
ATOM     95  O   UNL A   1      44.714  36.185  26.914  1.00  0.00    -0.237 OA
ATOM     96  O   UNL A   1      46.657  37.276  27.952  1.00  0.00    -0.744 OA
ENDBRANCH  90  93
ENDBRANCH  63  86
ENDBRANCH  37  38
ENDBRANCH  30  32
ENDBRANCH  29  30
ENDBRANCH  28  29
ENDBRANCH  27  28
ENDBRANCH  26  27
ENDBRANCH   1  26
TORSDOF 21
ENDMDL
