MODEL 1
REMARK VINA RESULT:     -10.3      0.000      0.000
REMARK SMILES Cc1cc(Oc2ccnc(C(=O)OCCOCCOCCOC(=O)c3ccc(-c4c5nc(c(-c6cccc(S(=O)(=O)[O-])c6F)c6ccc([nH]6)c(-c6cccc(S(=O)(=O)[O-])c6F)c6nc(c(-c7cccc(S(=O)(=O)[O-])c7F)c7ccc4[nH]7)C=C6)C=C5)cc3)c2)cc(C)c1Cl
REMARK SMILES IDX 18 1 17 2 16 3 15 4 14 5 13 6 11 7 12 8 10 9 6 10 7 11 88 12
REMARK SMILES IDX 8 13 9 14 5 15 4 16 1 17 2 18 3 19 92 20 90 21 93 22 89 23
REMARK SMILES IDX 91 24 19 25 20 26 21 27 22 28 23 29 24 30 25 31 26 32 87 33
REMARK SMILES IDX 27 34 86 35 28 36 29 37 30 38 80 39 31 40 85 41 79 42 81 43
REMARK SMILES IDX 32 44 84 45 78 46 77 47 33 49 65 50 45 51 64 52 46 53 49 54
REMARK SMILES IDX 63 55 82 56 47 57 48 58 62 60 83 61 50 62 34 63 35 64 43 65
REMARK SMILES IDX 36 66 38 67 44 68 37 69 39 70 40 71 41 72 42 73 66 74 67 75
REMARK SMILES IDX 75 76 68 77 70 78 76 79 69 80 71 81 72 82 73 83 74 84 51 85
REMARK SMILES IDX 52 86 60 87 53 88 55 89 61 90 54 91 56 92 57 93 58 94 59 95
REMARK H PARENT 81 48 49 59
REMARK Flexibility Score: inf
ROOT
ATOM      1  C   UNL A   1      45.738  41.602  28.115  1.00  0.00     0.188 C 
ENDROOT
BRANCH   1   2
ATOM      2  C   UNL A   1      45.723  42.951  27.369  1.00  0.00     0.188 C 
BRANCH   2   3
ATOM      3  O   UNL A   1      44.547  43.256  26.653  1.00  0.00    -0.376 OA
BRANCH   3   4
ATOM      4  C   UNL A   1      44.264  42.617  25.421  1.00  0.00     0.202 C 
BRANCH   4   5
ATOM      5  C   UNL A   1      42.873  42.154  24.938  1.00  0.00     0.261 C 
BRANCH   5   6
ATOM      6  O   UNL A   1      42.780  41.619  23.615  1.00  0.00    -0.459 OA
BRANCH   6   7
ATOM      7  C   UNL A   1      41.987  42.321  22.756  1.00  0.00     0.357 C 
ATOM      8  O   UNL A   1      40.822  42.632  22.938  1.00  0.00    -0.244 OA
BRANCH   7   9
ATOM      9  C   UNL A   1      42.802  42.765  21.590  1.00  0.00     0.152 A 
ATOM     10  C   UNL A   1      43.024  43.687  19.406  1.00  0.00     0.131 A 
ATOM     11  C   UNL A   1      44.407  43.588  19.533  1.00  0.00     0.067 A 
ATOM     12  C   UNL A   1      42.201  43.286  20.457  1.00  0.00     0.083 A 
ATOM     13  C   UNL A   1      44.913  43.016  20.688  1.00  0.00     0.116 A 
ATOM     14  N   UNL A   1      44.146  42.603  21.715  1.00  0.00    -0.249 NA
BRANCH  10  15
ATOM     15  O   UNL A   1      42.381  44.287  18.353  1.00  0.00    -0.457 OA
BRANCH  15  16
ATOM     16  C   UNL A   1      42.663  45.573  17.952  1.00  0.00     0.128 A 
ATOM     17  C   UNL A   1      41.447  48.499  15.853  1.00  0.00     0.046 C 
ATOM     18  C   UNL A   1      42.283  47.688  16.807  1.00  0.00    -0.028 A 
ATOM     19  C   UNL A   1      41.886  46.372  17.114  1.00  0.00     0.052 A 
ATOM     20  C   UNL A   1      43.438  48.218  17.414  1.00  0.00     0.047 A 
ATOM     21  C   UNL A   1      44.206  47.436  18.295  1.00  0.00    -0.028 A 
ATOM     22  Cl  UNL A   1      43.912  49.857  17.091  1.00  0.00    -0.084 Cl
ATOM     23  C   UNL A   1      43.811  46.112  18.539  1.00  0.00     0.052 A 
ATOM     24  C   UNL A   1      45.419  47.978  18.999  1.00  0.00     0.046 C 
ENDBRANCH  15  16
ENDBRANCH  10  15
ENDBRANCH   7   9
ENDBRANCH   6   7
ENDBRANCH   5   6
ENDBRANCH   4   5
ENDBRANCH   3   4
ENDBRANCH   2   3
ENDBRANCH   1   2
BRANCH   1  25
ATOM     25  O   UNL A   1      44.521  40.951  28.421  1.00  0.00    -0.376 OA
BRANCH  25  26
ATOM     26  C   UNL A   1      44.306  40.428  29.723  1.00  0.00     0.202 C 
BRANCH  26  27
ATOM     27  C   UNL A   1      44.346  38.930  30.094  1.00  0.00     0.261 C 
BRANCH  27  28
ATOM     28  O   UNL A   1      44.897  38.017  29.142  1.00  0.00    -0.460 OA
BRANCH  28  29
ATOM     29  C   UNL A   1      45.892  37.224  29.603  1.00  0.00     0.338 C 
ATOM     30  O   UNL A   1      46.844  37.557  30.296  1.00  0.00    -0.246 OA
BRANCH  29  31
ATOM     31  C   UNL A   1      45.565  35.819  29.304  1.00  0.00     0.060 A 
ATOM     32  C   UNL A   1      44.812  35.534  28.157  1.00  0.00     0.016 A 
ATOM     33  C   UNL A   1      45.958  34.796  30.167  1.00  0.00     0.016 A 
ATOM     34  C   UNL A   1      44.438  34.222  27.874  1.00  0.00     0.010 A 
ATOM     35  C   UNL A   1      45.562  33.484  29.895  1.00  0.00     0.010 A 
ATOM     36  C   UNL A   1      44.777  33.196  28.762  1.00  0.00    -0.014 A 
BRANCH  36  37
ATOM     37  C   UNL A   1      44.178  31.850  28.590  1.00  0.00     0.031 A 
ATOM     38  C   UNL A   1      44.895  30.843  27.734  1.00  0.00     0.074 A 
ATOM     39  C   UNL A   1      43.018  31.527  29.188  1.00  0.00     0.049 A 
ATOM     40  N   UNL A   1      44.540  29.627  27.412  1.00  0.00    -0.248 NA
ATOM     41  C   UNL A   1      46.185  31.266  27.161  1.00  0.00     0.031 C 
ATOM     42  C   UNL A   1      42.238  32.410  30.054  1.00  0.00     0.029 A 
ATOM     43  N   UNL A   1      42.281  30.370  29.134  1.00  0.00    -0.354 N 
ATOM     44  C   UNL A   1      45.542  29.150  26.575  1.00  0.00     0.074 A 
ATOM     45  C   UNL A   1      46.514  30.210  26.431  1.00  0.00     0.031 C 
ATOM     46  C   UNL A   1      41.112  31.773  30.424  1.00  0.00     0.029 A 
ATOM     47  C   UNL A   1      41.081  30.452  29.800  1.00  0.00     0.049 A 
ATOM     48  H   UNL A   1      42.583  29.560  28.663  1.00  0.00     0.167 HD
ATOM     49  C   UNL A   1      45.648  27.935  25.989  1.00  0.00     0.034 A 
ATOM     50  C   UNL A   1      40.062  29.571  29.870  1.00  0.00     0.034 A 
ATOM     51  C   UNL A   1      44.683  26.879  26.140  1.00  0.00     0.049 A 
ATOM     52  C   UNL A   1      40.188  28.240  29.174  1.00  0.00     0.074 A 
ATOM     53  C   UNL A   1      44.725  25.597  25.621  1.00  0.00     0.029 A 
ATOM     54  N   UNL A   1      43.496  26.986  26.847  1.00  0.00    -0.354 N 
ATOM     55  N   UNL A   1      41.192  27.760  28.479  1.00  0.00    -0.248 NA
ATOM     56  C   UNL A   1      39.051  27.315  29.299  1.00  0.00     0.031 C 
ATOM     57  C   UNL A   1      43.542  24.942  25.980  1.00  0.00     0.029 A 
ATOM     58  C   UNL A   1      42.787  25.800  26.764  1.00  0.00     0.049 A 
ATOM     59  H   UNL A   1      43.200  27.788  27.335  1.00  0.00     0.167 HD
ATOM     60  C   UNL A   1      40.825  26.467  28.121  1.00  0.00     0.074 A 
ATOM     61  C   UNL A   1      39.515  26.231  28.692  1.00  0.00     0.031 C 
ATOM     62  C   UNL A   1      41.507  25.558  27.378  1.00  0.00     0.034 A 
BRANCH  49  63
ATOM     63  C   UNL A   1      46.860  27.676  25.132  1.00  0.00     0.023 A 
ATOM     64  C   UNL A   1      46.811  27.944  23.749  1.00  0.00     0.012 A 
ATOM     65  C   UNL A   1      48.064  27.223  25.707  1.00  0.00     0.148 A 
ATOM     66  C   UNL A   1      47.930  27.728  22.944  1.00  0.00     0.002 A 
ATOM     67  C   UNL A   1      49.188  27.057  24.907  1.00  0.00     0.091 A 
ATOM     68  F   UNL A   1      48.084  26.955  27.020  1.00  0.00    -0.205 F 
ATOM     69  C   UNL A   1      49.120  27.296  23.526  1.00  0.00     0.022 A 
BRANCH  67  70
ATOM     70  S   UNL A   1      50.788  26.583  25.571  1.00  0.00     0.127 S 
ATOM     71  O   UNL A   1      51.600  26.509  24.356  1.00  0.00    -0.237 OA
ATOM     72  O   UNL A   1      51.103  27.711  26.446  1.00  0.00    -0.237 OA
ATOM     73  O   UNL A   1      50.582  25.316  26.259  1.00  0.00    -0.744 OA
ENDBRANCH  67  70
ENDBRANCH  49  63
BRANCH  50  74
ATOM     74  C   UNL A   1      38.835  29.907  30.648  1.00  0.00     0.023 A 
ATOM     75  C   UNL A   1      38.657  29.366  31.936  1.00  0.00     0.012 A 
ATOM     76  C   UNL A   1      37.841  30.750  30.113  1.00  0.00     0.148 A 
ATOM     77  C   UNL A   1      37.496  29.630  32.664  1.00  0.00     0.002 A 
ATOM     78  C   UNL A   1      36.713  31.053  30.865  1.00  0.00     0.091 A 
ATOM     79  F   UNL A   1      38.021  31.240  28.879  1.00  0.00    -0.205 F 
ATOM     80  C   UNL A   1      36.529  30.480  32.133  1.00  0.00     0.022 A 
BRANCH  78  81
ATOM     81  S   UNL A   1      35.469  32.225  30.312  1.00  0.00     0.127 S 
ATOM     82  O   UNL A   1      36.274  33.416  30.055  1.00  0.00    -0.237 OA
ATOM     83  O   UNL A   1      34.946  31.565  29.116  1.00  0.00    -0.237 OA
ATOM     84  O   UNL A   1      34.514  32.334  31.407  1.00  0.00    -0.744 OA
ENDBRANCH  78  81
ENDBRANCH  50  74
BRANCH  62  85
ATOM     85  C   UNL A   1      40.882  24.201  27.176  1.00  0.00     0.023 A 
ATOM     86  C   UNL A   1      41.470  23.057  27.750  1.00  0.00     0.012 A 
ATOM     87  C   UNL A   1      39.665  24.072  26.475  1.00  0.00     0.148 A 
ATOM     88  C   UNL A   1      40.879  21.803  27.598  1.00  0.00     0.002 A 
ATOM     89  C   UNL A   1      39.053  22.829  26.374  1.00  0.00     0.091 A 
ATOM     90  F   UNL A   1      39.127  25.170  25.923  1.00  0.00    -0.205 F 
ATOM     91  C   UNL A   1      39.666  21.691  26.922  1.00  0.00     0.022 A 
BRANCH  89  92
ATOM     92  S   UNL A   1      37.443  22.605  25.609  1.00  0.00     0.127 S 
ATOM     93  O   UNL A   1      36.607  23.504  26.403  1.00  0.00    -0.237 OA
ATOM     94  O   UNL A   1      37.688  23.052  24.238  1.00  0.00    -0.237 OA
ATOM     95  O   UNL A   1      37.129  21.188  25.736  1.00  0.00    -0.744 OA
ENDBRANCH  89  92
ENDBRANCH  62  85
ENDBRANCH  36  37
ENDBRANCH  29  31
ENDBRANCH  28  29
ENDBRANCH  27  28
ENDBRANCH  26  27
ENDBRANCH  25  26
ENDBRANCH   1  25
TORSDOF 22
ENDMDL
MODEL 2
REMARK VINA RESULT:     -10.2      7.050     14.247
REMARK SMILES Cc1cc(Oc2ccnc(C(=O)OCCOCCOCCOC(=O)c3ccc(-c4c5nc(c(-c6cccc(S(=O)(=O)[O-])c6F)c6ccc([nH]6)c(-c6cccc(S(=O)(=O)[O-])c6F)c6nc(c(-c7cccc(S(=O)(=O)[O-])c7F)c7ccc4[nH]7)C=C6)C=C5)cc3)c2)cc(C)c1Cl
REMARK SMILES IDX 18 1 17 2 16 3 15 4 14 5 13 6 11 7 12 8 10 9 6 10 7 11 88 12
REMARK SMILES IDX 8 13 9 14 5 15 4 16 1 17 2 18 3 19 92 20 90 21 93 22 89 23
REMARK SMILES IDX 91 24 19 25 20 26 21 27 22 28 23 29 24 30 25 31 26 32 87 33
REMARK SMILES IDX 27 34 86 35 28 36 29 37 30 38 80 39 31 40 85 41 79 42 81 43
REMARK SMILES IDX 32 44 84 45 78 46 77 47 33 49 65 50 45 51 64 52 46 53 49 54
REMARK SMILES IDX 63 55 82 56 47 57 48 58 62 60 83 61 50 62 34 63 35 64 43 65
REMARK SMILES IDX 36 66 38 67 44 68 37 69 39 70 40 71 41 72 42 73 66 74 67 75
REMARK SMILES IDX 75 76 68 77 70 78 76 79 69 80 71 81 72 82 73 83 74 84 51 85
REMARK SMILES IDX 52 86 60 87 53 88 55 89 61 90 54 91 56 92 57 93 58 94 59 95
REMARK H PARENT 81 48 49 59
REMARK Flexibility Score: inf
ROOT
ATOM      1  C   UNL A   1      40.295  22.137  26.893  1.00  0.00     0.188 C 
ENDROOT
BRANCH   1   2
ATOM      2  C   UNL A   1      39.251  21.806  25.807  1.00  0.00     0.188 C 
BRANCH   2   3
ATOM      3  O   UNL A   1      37.968  22.361  25.985  1.00  0.00    -0.376 OA
BRANCH   3   4
ATOM      4  C   UNL A   1      36.805  21.594  25.727  1.00  0.00     0.202 C 
BRANCH   4   5
ATOM      5  C   UNL A   1      35.746  21.889  24.645  1.00  0.00     0.261 C 
BRANCH   5   6
ATOM      6  O   UNL A   1      34.453  21.300  24.810  1.00  0.00    -0.459 OA
BRANCH   6   7
ATOM      7  C   UNL A   1      33.440  21.915  24.136  1.00  0.00     0.357 C 
ATOM      8  O   UNL A   1      32.860  21.485  23.152  1.00  0.00    -0.244 OA
BRANCH   7   9
ATOM      9  C   UNL A   1      33.053  23.157  24.862  1.00  0.00     0.152 A 
ATOM     10  C   UNL A   1      33.092  25.519  25.159  1.00  0.00     0.131 A 
ATOM     11  C   UNL A   1      32.240  25.369  26.250  1.00  0.00     0.067 A 
ATOM     12  C   UNL A   1      33.497  24.398  24.437  1.00  0.00     0.083 A 
ATOM     13  C   UNL A   1      31.884  24.085  26.624  1.00  0.00     0.116 A 
ATOM     14  N   UNL A   1      32.270  22.979  25.958  1.00  0.00    -0.249 NA
BRANCH  10  15
ATOM     15  O   UNL A   1      33.478  26.727  24.635  1.00  0.00    -0.457 OA
BRANCH  15  16
ATOM     16  C   UNL A   1      32.977  27.924  25.091  1.00  0.00     0.128 A 
ATOM     17  C   UNL A   1      33.559  30.809  27.496  1.00  0.00     0.046 C 
ATOM     18  C   UNL A   1      32.939  29.971  26.410  1.00  0.00    -0.028 A 
ATOM     19  C   UNL A   1      33.550  28.752  26.056  1.00  0.00     0.052 A 
ATOM     20  C   UNL A   1      31.779  30.383  25.727  1.00  0.00     0.047 A 
ATOM     21  C   UNL A   1      31.217  29.577  24.721  1.00  0.00    -0.028 A 
ATOM     22  Cl  UNL A   1      31.044  31.909  26.111  1.00  0.00    -0.084 Cl
ATOM     23  C   UNL A   1      31.821  28.345  24.429  1.00  0.00     0.052 A 
ATOM     24  C   UNL A   1      30.006  30.002  23.936  1.00  0.00     0.046 C 
ENDBRANCH  15  16
ENDBRANCH  10  15
ENDBRANCH   7   9
ENDBRANCH   6   7
ENDBRANCH   5   6
ENDBRANCH   4   5
ENDBRANCH   3   4
ENDBRANCH   2   3
ENDBRANCH   1   2
BRANCH   1  25
ATOM     25  O   UNL A   1      40.924  21.093  27.609  1.00  0.00    -0.376 OA
BRANCH  25  26
ATOM     26  C   UNL A   1      40.904  19.770  27.096  1.00  0.00     0.202 C 
BRANCH  26  27
ATOM     27  C   UNL A   1      42.069  19.094  26.341  1.00  0.00     0.261 C 
BRANCH  27  28
ATOM     28  O   UNL A   1      42.490  19.670  25.103  1.00  0.00    -0.460 OA
BRANCH  28  29
ATOM     29  C   UNL A   1      43.829  19.755  24.925  1.00  0.00     0.338 C 
ATOM     30  O   UNL A   1      44.570  18.900  24.460  1.00  0.00    -0.246 OA
BRANCH  29  31
ATOM     31  C   UNL A   1      44.264  21.134  25.206  1.00  0.00     0.060 A 
ATOM     32  C   UNL A   1      44.675  21.458  26.506  1.00  0.00     0.016 A 
ATOM     33  C   UNL A   1      44.227  22.110  24.210  1.00  0.00     0.016 A 
ATOM     34  C   UNL A   1      45.040  22.766  26.818  1.00  0.00     0.010 A 
ATOM     35  C   UNL A   1      44.570  23.426  24.531  1.00  0.00     0.010 A 
ATOM     36  C   UNL A   1      44.952  23.764  25.843  1.00  0.00    -0.014 A 
BRANCH  36  37
ATOM     37  C   UNL A   1      45.105  25.187  26.233  1.00  0.00     0.031 A 
ATOM     38  C   UNL A   1      46.479  25.797  26.219  1.00  0.00     0.074 A 
ATOM     39  C   UNL A   1      44.039  25.925  26.592  1.00  0.00     0.049 A 
ATOM     40  N   UNL A   1      46.854  27.002  26.558  1.00  0.00    -0.248 NA
ATOM     41  C   UNL A   1      47.579  24.930  25.763  1.00  0.00     0.031 C 
ATOM     42  C   UNL A   1      42.657  25.452  26.630  1.00  0.00     0.029 A 
ATOM     43  N   UNL A   1      43.963  27.227  27.018  1.00  0.00    -0.354 N 
ATOM     44  C   UNL A   1      48.233  27.030  26.390  1.00  0.00     0.074 A 
ATOM     45  C   UNL A   1      48.630  25.720  25.926  1.00  0.00     0.031 C 
ATOM     46  C   UNL A   1      41.871  26.442  27.090  1.00  0.00     0.029 A 
ATOM     47  C   UNL A   1      42.698  27.606  27.403  1.00  0.00     0.049 A 
ATOM     48  H   UNL A   1      44.739  27.832  27.046  1.00  0.00     0.167 HD
ATOM     49  C   UNL A   1      49.090  28.058  26.591  1.00  0.00     0.034 A 
ATOM     50  C   UNL A   1      42.266  28.750  27.970  1.00  0.00     0.034 A 
ATOM     51  C   UNL A   1      48.692  29.364  27.044  1.00  0.00     0.049 A 
ATOM     52  C   UNL A   1      43.248  29.866  28.222  1.00  0.00     0.074 A 
ATOM     53  C   UNL A   1      49.480  30.485  27.236  1.00  0.00     0.029 A 
ATOM     54  N   UNL A   1      47.398  29.721  27.394  1.00  0.00    -0.354 N 
ATOM     55  N   UNL A   1      44.531  29.917  27.952  1.00  0.00    -0.248 NA
ATOM     56  C   UNL A   1      42.716  31.095  28.829  1.00  0.00     0.031 C 
ATOM     57  C   UNL A   1      48.671  31.507  27.742  1.00  0.00     0.029 A 
ATOM     58  C   UNL A   1      47.369  31.038  27.818  1.00  0.00     0.049 A 
ATOM     59  H   UNL A   1      46.617  29.124  27.348  1.00  0.00     0.167 HD
ATOM     60  C   UNL A   1      44.948  31.193  28.317  1.00  0.00     0.074 A 
ATOM     61  C   UNL A   1      43.777  31.890  28.809  1.00  0.00     0.031 C 
ATOM     62  C   UNL A   1      46.190  31.738  28.258  1.00  0.00     0.034 A 
BRANCH  49  63
ATOM     63  C   UNL A   1      50.551  27.815  26.313  1.00  0.00     0.023 A 
ATOM     64  C   UNL A   1      51.408  27.419  27.359  1.00  0.00     0.012 A 
ATOM     65  C   UNL A   1      51.062  27.924  25.004  1.00  0.00     0.148 A 
ATOM     66  C   UNL A   1      52.759  27.171  27.116  1.00  0.00     0.002 A 
ATOM     67  C   UNL A   1      52.397  27.629  24.761  1.00  0.00     0.091 A 
ATOM     68  F   UNL A   1      50.235  28.323  24.027  1.00  0.00    -0.205 F 
ATOM     69  C   UNL A   1      53.249  27.265  25.815  1.00  0.00     0.022 A 
BRANCH  67  70
ATOM     70  S   UNL A   1      53.108  27.641  23.111  1.00  0.00     0.127 S 
ATOM     71  O   UNL A   1      52.206  26.737  22.396  1.00  0.00    -0.237 OA
ATOM     72  O   UNL A   1      52.984  29.048  22.734  1.00  0.00    -0.237 OA
ATOM     73  O   UNL A   1      54.477  27.167  23.257  1.00  0.00    -0.744 OA
ENDBRANCH  67  70
ENDBRANCH  49  63
BRANCH  50  74
ATOM     74  C   UNL A   1      40.827  28.914  28.324  1.00  0.00     0.023 A 
ATOM     75  C   UNL A   1      39.885  29.172  27.309  1.00  0.00     0.012 A 
ATOM     76  C   UNL A   1      40.389  28.823  29.660  1.00  0.00     0.148 A 
ATOM     77  C   UNL A   1      38.540  29.373  27.621  1.00  0.00     0.002 A 
ATOM     78  C   UNL A   1      39.040  28.970  29.958  1.00  0.00     0.091 A 
ATOM     79  F   UNL A   1      41.303  28.594  30.612  1.00  0.00    -0.205 F 
ATOM     80  C   UNL A   1      38.116  29.263  28.942  1.00  0.00     0.022 A 
BRANCH  78  81
ATOM     81  S   UNL A   1      38.385  28.734  31.613  1.00  0.00     0.127 S 
ATOM     82  O   UNL A   1      36.955  28.944  31.401  1.00  0.00    -0.237 OA
ATOM     83  O   UNL A   1      38.769  27.351  31.894  1.00  0.00    -0.237 OA
ATOM     84  O   UNL A   1      39.050  29.727  32.447  1.00  0.00    -0.744 OA
ENDBRANCH  78  81
ENDBRANCH  50  74
BRANCH  62  85
ATOM     85  C   UNL A   1      46.350  33.175  28.687  1.00  0.00     0.023 A 
ATOM     86  C   UNL A   1      46.842  33.481  29.971  1.00  0.00     0.012 A 
ATOM     87  C   UNL A   1      46.080  34.224  27.784  1.00  0.00     0.148 A 
ATOM     88  C   UNL A   1      47.027  34.806  30.363  1.00  0.00     0.002 A 
ATOM     89  C   UNL A   1      46.319  35.540  28.161  1.00  0.00     0.091 A 
ATOM     90  F   UNL A   1      45.599  33.915  26.571  1.00  0.00    -0.205 F 
ATOM     91  C   UNL A   1      46.778  35.834  29.455  1.00  0.00     0.022 A 
BRANCH  89  92
ATOM     92  S   UNL A   1      46.122  36.920  27.028  1.00  0.00     0.127 S 
ATOM     93  O   UNL A   1      47.039  36.554  25.950  1.00  0.00    -0.237 OA
ATOM     94  O   UNL A   1      44.703  36.832  26.679  1.00  0.00    -0.237 OA
ATOM     95  O   UNL A   1      46.486  38.114  27.779  1.00  0.00    -0.744 OA
ENDBRANCH  89  92
ENDBRANCH  62  85
ENDBRANCH  36  37
ENDBRANCH  29  31
ENDBRANCH  28  29
ENDBRANCH  27  28
ENDBRANCH  26  27
ENDBRANCH  25  26
ENDBRANCH   1  25
TORSDOF 22
ENDMDL
MODEL 3
REMARK VINA RESULT:      -9.8      7.199     14.919
REMARK SMILES Cc1cc(Oc2ccnc(C(=O)OCCOCCOCCOC(=O)c3ccc(-c4c5nc(c(-c6cccc(S(=O)(=O)[O-])c6F)c6ccc([nH]6)c(-c6cccc(S(=O)(=O)[O-])c6F)c6nc(c(-c7cccc(S(=O)(=O)[O-])c7F)c7ccc4[nH]7)C=C6)C=C5)cc3)c2)cc(C)c1Cl
REMARK SMILES IDX 18 1 17 2 16 3 15 4 14 5 13 6 11 7 12 8 10 9 6 10 7 11 88 12
REMARK SMILES IDX 8 13 9 14 5 15 4 16 1 17 2 18 3 19 92 20 90 21 93 22 89 23
REMARK SMILES IDX 91 24 19 25 20 26 21 27 22 28 23 29 24 30 25 31 26 32 87 33
REMARK SMILES IDX 27 34 86 35 28 36 29 37 30 38 80 39 31 40 85 41 79 42 81 43
REMARK SMILES IDX 32 44 84 45 78 46 77 47 33 49 65 50 45 51 64 52 46 53 49 54
REMARK SMILES IDX 63 55 82 56 47 57 48 58 62 60 83 61 50 62 34 63 35 64 43 65
REMARK SMILES IDX 36 66 38 67 44 68 37 69 39 70 40 71 41 72 42 73 66 74 67 75
REMARK SMILES IDX 75 76 68 77 70 78 76 79 69 80 71 81 72 82 73 83 74 84 51 85
REMARK SMILES IDX 52 86 60 87 53 88 55 89 61 90 54 91 56 92 57 93 58 94 59 95
REMARK H PARENT 81 48 49 59
REMARK Flexibility Score: inf
ROOT
ATOM      1  C   UNL A   1      39.815  21.664  26.479  1.00  0.00     0.188 C 
ENDROOT
BRANCH   1   2
ATOM      2  C   UNL A   1      39.019  20.604  25.691  1.00  0.00     0.188 C 
BRANCH   2   3
ATOM      3  O   UNL A   1      37.952  21.083  24.904  1.00  0.00    -0.376 OA
BRANCH   3   4
ATOM      4  C   UNL A   1      36.678  21.319  25.476  1.00  0.00     0.202 C 
BRANCH   4   5
ATOM      5  C   UNL A   1      35.360  20.625  25.072  1.00  0.00     0.261 C 
BRANCH   5   6
ATOM      6  O   UNL A   1      34.277  20.673  26.006  1.00  0.00    -0.459 OA
BRANCH   6   7
ATOM      7  C   UNL A   1      33.078  20.228  25.533  1.00  0.00     0.357 C 
ATOM      8  O   UNL A   1      32.573  19.141  25.754  1.00  0.00    -0.244 OA
BRANCH   7   9
ATOM      9  C   UNL A   1      32.405  21.332  24.791  1.00  0.00     0.152 A 
ATOM     10  C   UNL A   1      31.068  23.300  24.705  1.00  0.00     0.131 A 
ATOM     11  C   UNL A   1      31.254  23.334  23.326  1.00  0.00     0.067 A 
ATOM     12  C   UNL A   1      31.666  22.293  25.461  1.00  0.00     0.083 A 
ATOM     13  C   UNL A   1      31.975  22.306  22.742  1.00  0.00     0.116 A 
ATOM     14  N   UNL A   1      32.552  21.309  23.441  1.00  0.00    -0.249 NA
BRANCH  10  15
ATOM     15  O   UNL A   1      30.434  24.278  25.428  1.00  0.00    -0.457 OA
BRANCH  15  16
ATOM     16  C   UNL A   1      30.693  25.617  25.245  1.00  0.00     0.128 A 
ATOM     17  C   UNL A   1      29.690  28.728  23.305  1.00  0.00     0.046 C 
ATOM     18  C   UNL A   1      30.386  27.842  24.303  1.00  0.00    -0.028 A 
ATOM     19  C   UNL A   1      30.034  26.479  24.369  1.00  0.00     0.052 A 
ATOM     20  C   UNL A   1      31.364  28.343  25.185  1.00  0.00     0.047 A 
ATOM     21  C   UNL A   1      32.004  27.492  26.102  1.00  0.00    -0.028 A 
ATOM     22  Cl  UNL A   1      31.770  30.032  25.156  1.00  0.00    -0.084 Cl
ATOM     23  C   UNL A   1      31.666  26.130  26.106  1.00  0.00     0.052 A 
ATOM     24  C   UNL A   1      33.018  27.996  27.091  1.00  0.00     0.046 C 
ENDBRANCH  15  16
ENDBRANCH  10  15
ENDBRANCH   7   9
ENDBRANCH   6   7
ENDBRANCH   5   6
ENDBRANCH   4   5
ENDBRANCH   3   4
ENDBRANCH   2   3
ENDBRANCH   1   2
BRANCH   1  25
ATOM     25  O   UNL A   1      40.791  21.259  27.418  1.00  0.00    -0.376 OA
BRANCH  25  26
ATOM     26  C   UNL A   1      41.172  19.894  27.501  1.00  0.00     0.202 C 
BRANCH  26  27
ATOM     27  C   UNL A   1      42.298  19.238  26.675  1.00  0.00     0.261 C 
BRANCH  27  28
ATOM     28  O   UNL A   1      42.520  19.713  25.345  1.00  0.00    -0.460 OA
BRANCH  28  29
ATOM     29  C   UNL A   1      43.817  19.872  24.991  1.00  0.00     0.338 C 
ATOM     30  O   UNL A   1      44.529  19.067  24.407  1.00  0.00    -0.246 OA
BRANCH  29  31
ATOM     31  C   UNL A   1      44.217  21.267  25.248  1.00  0.00     0.060 A 
ATOM     32  C   UNL A   1      44.950  21.553  26.408  1.00  0.00     0.016 A 
ATOM     33  C   UNL A   1      43.839  22.288  24.377  1.00  0.00     0.016 A 
ATOM     34  C   UNL A   1      45.297  22.868  26.709  1.00  0.00     0.010 A 
ATOM     35  C   UNL A   1      44.167  23.610  24.693  1.00  0.00     0.010 A 
ATOM     36  C   UNL A   1      44.873  23.907  25.874  1.00  0.00    -0.014 A 
BRANCH  36  37
ATOM     37  C   UNL A   1      45.032  25.314  26.316  1.00  0.00     0.031 A 
ATOM     38  C   UNL A   1      46.389  25.954  26.222  1.00  0.00     0.074 A 
ATOM     39  C   UNL A   1      43.985  26.012  26.791  1.00  0.00     0.049 A 
ATOM     40  N   UNL A   1      46.768  27.150  26.586  1.00  0.00    -0.248 NA
ATOM     41  C   UNL A   1      47.465  25.132  25.641  1.00  0.00     0.031 C 
ATOM     42  C   UNL A   1      42.618  25.509  26.916  1.00  0.00     0.029 A 
ATOM     43  N   UNL A   1      43.919  27.292  27.281  1.00  0.00    -0.354 N 
ATOM     44  C   UNL A   1      48.128  27.216  26.311  1.00  0.00     0.074 A 
ATOM     45  C   UNL A   1      48.511  25.936  25.758  1.00  0.00     0.031 C 
ATOM     46  C   UNL A   1      41.854  26.460  27.481  1.00  0.00     0.029 A 
ATOM     47  C   UNL A   1      42.682  27.626  27.781  1.00  0.00     0.049 A 
ATOM     48  H   UNL A   1      44.684  27.912  27.276  1.00  0.00     0.167 HD
ATOM     49  C   UNL A   1      48.980  28.252  26.491  1.00  0.00     0.034 A 
ATOM     50  C   UNL A   1      42.276  28.734  28.433  1.00  0.00     0.034 A 
ATOM     51  C   UNL A   1      48.596  29.527  27.034  1.00  0.00     0.049 A 
ATOM     52  C   UNL A   1      43.255  29.859  28.658  1.00  0.00     0.074 A 
ATOM     53  C   UNL A   1      49.376  30.655  27.214  1.00  0.00     0.029 A 
ATOM     54  N   UNL A   1      47.328  29.840  27.500  1.00  0.00    -0.354 N 
ATOM     55  N   UNL A   1      44.511  29.950  28.290  1.00  0.00    -0.248 NA
ATOM     56  C   UNL A   1      42.751  31.048  29.360  1.00  0.00     0.031 C 
ATOM     57  C   UNL A   1      48.592  31.637  27.828  1.00  0.00     0.029 A 
ATOM     58  C   UNL A   1      47.308  31.137  27.985  1.00  0.00     0.049 A 
ATOM     59  H   UNL A   1      46.556  29.230  27.488  1.00  0.00     0.167 HD
ATOM     60  C   UNL A   1      44.933  31.217  28.679  1.00  0.00     0.074 A 
ATOM     61  C   UNL A   1      43.792  31.866  29.294  1.00  0.00     0.031 C 
ATOM     62  C   UNL A   1      46.155  31.791  28.548  1.00  0.00     0.034 A 
BRANCH  49  63
ATOM     63  C   UNL A   1      50.418  28.053  26.088  1.00  0.00     0.023 A 
ATOM     64  C   UNL A   1      50.823  28.336  24.768  1.00  0.00     0.012 A 
ATOM     65  C   UNL A   1      51.379  27.640  27.032  1.00  0.00     0.148 A 
ATOM     66  C   UNL A   1      52.154  28.176  24.383  1.00  0.00     0.002 A 
ATOM     67  C   UNL A   1      52.711  27.529  26.654  1.00  0.00     0.091 A 
ATOM     68  F   UNL A   1      50.971  27.356  28.276  1.00  0.00    -0.205 F 
ATOM     69  C   UNL A   1      53.098  27.784  25.329  1.00  0.00     0.022 A 
BRANCH  67  70
ATOM     70  S   UNL A   1      54.017  27.111  27.814  1.00  0.00     0.127 S 
ATOM     71  O   UNL A   1      54.760  26.096  27.067  1.00  0.00    -0.237 OA
ATOM     72  O   UNL A   1      54.714  28.388  27.964  1.00  0.00    -0.237 OA
ATOM     73  O   UNL A   1      53.351  26.634  29.018  1.00  0.00    -0.744 OA
ENDBRANCH  67  70
ENDBRANCH  49  63
BRANCH  50  74
ATOM     74  C   UNL A   1      40.867  28.851  28.905  1.00  0.00     0.023 A 
ATOM     75  C   UNL A   1      39.846  29.155  27.984  1.00  0.00     0.012 A 
ATOM     76  C   UNL A   1      40.536  28.671  30.263  1.00  0.00     0.148 A 
ATOM     77  C   UNL A   1      38.526  29.313  28.410  1.00  0.00     0.002 A 
ATOM     78  C   UNL A   1      39.212  28.776  30.672  1.00  0.00     0.091 A 
ATOM     79  F   UNL A   1      41.524  28.400  31.126  1.00  0.00    -0.205 F 
ATOM     80  C   UNL A   1      38.208  29.114  29.751  1.00  0.00     0.022 A 
BRANCH  78  81
ATOM     81  S   UNL A   1      38.691  28.428  32.356  1.00  0.00     0.127 S 
ATOM     82  O   UNL A   1      38.184  27.063  32.236  1.00  0.00    -0.237 OA
ATOM     83  O   UNL A   1      39.948  28.556  33.092  1.00  0.00    -0.237 OA
ATOM     84  O   UNL A   1      37.696  29.442  32.679  1.00  0.00    -0.744 OA
ENDBRANCH  78  81
ENDBRANCH  50  74
BRANCH  62  85
ATOM     85  C   UNL A   1      46.324  33.210  29.028  1.00  0.00     0.023 A 
ATOM     86  C   UNL A   1      46.767  33.467  30.340  1.00  0.00     0.012 A 
ATOM     87  C   UNL A   1      46.110  34.292  28.149  1.00  0.00     0.148 A 
ATOM     88  C   UNL A   1      46.960  34.776  30.781  1.00  0.00     0.002 A 
ATOM     89  C   UNL A   1      46.356  35.591  28.577  1.00  0.00     0.091 A 
ATOM     90  F   UNL A   1      45.674  34.030  26.908  1.00  0.00    -0.205 F 
ATOM     91  C   UNL A   1      46.767  35.836  29.898  1.00  0.00     0.022 A 
BRANCH  89  92
ATOM     92  S   UNL A   1      46.231  37.009  27.482  1.00  0.00     0.127 S 
ATOM     93  O   UNL A   1      44.785  37.220  27.433  1.00  0.00    -0.237 OA
ATOM     94  O   UNL A   1      46.972  38.034  28.217  1.00  0.00    -0.237 OA
ATOM     95  O   UNL A   1      46.844  36.603  26.224  1.00  0.00    -0.744 OA
ENDBRANCH  89  92
ENDBRANCH  62  85
ENDBRANCH  36  37
ENDBRANCH  29  31
ENDBRANCH  28  29
ENDBRANCH  27  28
ENDBRANCH  26  27
ENDBRANCH  25  26
ENDBRANCH   1  25
TORSDOF 22
ENDMDL
