MODEL 1
REMARK VINA RESULT:      -9.8      0.000      0.000
REMARK SMILES CC[C@@H]1SC[C@H](C(=O)OCCOCCOCCOC(=O)c2ccc(-c3c4nc(c(-c5cccc(S(=O)(=O)[O-])c5F)c5ccc([nH]5)c(-c5cccc(S(=O)(=O)[O-])c5F)c5nc(c(-c6cccc(S(=O)(=O)[O-])c6F)c6ccc3[nH]6)C=C5)C=C4)cc2)N1C(=O)c1ccc(C)cc1F
REMARK SMILES IDX 14 1 13 2 12 3 11 4 10 5 9 6 7 7 8 8 6 9 3 10 4 11 84 12
REMARK SMILES IDX 5 13 2 14 1 15 85 16 86 17 87 18 88 19 93 20 89 21 92 22
REMARK SMILES IDX 94 23 90 24 91 25 15 26 16 27 17 28 18 29 19 30 20 31 21 32
REMARK SMILES IDX 22 33 83 34 23 35 82 36 24 37 25 38 26 39 76 40 27 41 81 42
REMARK SMILES IDX 75 43 77 44 28 45 80 46 74 47 73 48 29 50 61 51 41 52 60 53
REMARK SMILES IDX 42 54 45 55 59 56 78 57 43 58 44 59 58 61 79 62 46 63 30 64
REMARK SMILES IDX 31 65 39 66 32 67 34 68 40 69 33 70 35 71 36 72 37 73 38 74
REMARK SMILES IDX 62 75 63 76 71 77 64 78 66 79 72 80 65 81 67 82 68 83 69 84
REMARK SMILES IDX 70 85 47 86 48 87 56 88 49 89 51 90 57 91 50 92 52 93 53 94
REMARK SMILES IDX 54 95 55 96
REMARK H PARENT 77 49 45 60
REMARK Flexibility Score: inf
ROOT
ATOM      1  C   UNL A   1      37.179  22.218  25.793  1.00  0.00     0.188 C 
ENDROOT
BRANCH   1   2
ATOM      2  C   UNL A   1      35.889  21.958  24.995  1.00  0.00     0.188 C 
BRANCH   2   3
ATOM      3  O   UNL A   1      34.712  21.475  25.635  1.00  0.00    -0.376 OA
BRANCH   3   4
ATOM      4  C   UNL A   1      34.380  21.898  26.941  1.00  0.00     0.202 C 
BRANCH   4   5
ATOM      5  C   UNL A   1      33.566  23.186  27.086  1.00  0.00     0.261 C 
BRANCH   5   6
ATOM      6  O   UNL A   1      33.743  24.192  26.079  1.00  0.00    -0.462 OA
BRANCH   6   7
ATOM      7  C   UNL A   1      32.639  24.451  25.323  1.00  0.00     0.329 C 
ATOM      8  O   UNL A   1      31.574  23.849  25.409  1.00  0.00    -0.250 OA
BRANCH   7   9
ATOM      9  C   UNL A   1      32.817  25.660  24.394  1.00  0.00     0.206 C 
ATOM     10  C   UNL A   1      31.443  27.204  23.060  1.00  0.00     0.144 C 
ATOM     11  S   UNL A   1      31.913  25.897  21.882  1.00  0.00    -0.134 SA
ATOM     12  N   UNL A   1      31.705  26.634  24.384  1.00  0.00    -0.312 N 
ATOM     13  C   UNL A   1      33.168  25.207  22.978  1.00  0.00     0.109 C 
BRANCH  10  14
ATOM     14  C   UNL A   1      30.070  27.782  22.689  1.00  0.00     0.033 C 
ATOM     15  C   UNL A   1      30.012  29.261  22.328  1.00  0.00     0.007 C 
ENDBRANCH  10  14
BRANCH  12  16
ATOM     16  C   UNL A   1      31.485  27.210  25.637  1.00  0.00     0.258 C 
ATOM     17  O   UNL A   1      30.650  26.779  26.433  1.00  0.00    -0.269 OA
BRANCH  16  18
ATOM     18  C   UNL A   1      32.280  28.322  26.129  1.00  0.00     0.075 A 
ATOM     19  C   UNL A   1      33.356  28.040  26.974  1.00  0.00     0.017 A 
ATOM     20  C   UNL A   1      31.887  29.634  25.904  1.00  0.00     0.136 A 
ATOM     21  C   UNL A   1      34.104  29.088  27.502  1.00  0.00     0.004 A 
ATOM     22  C   UNL A   1      32.651  30.684  26.401  1.00  0.00     0.043 A 
ATOM     23  F   UNL A   1      30.789  29.915  25.192  1.00  0.00    -0.206 F 
ATOM     24  C   UNL A   1      33.785  30.417  27.180  1.00  0.00    -0.048 A 
ATOM     25  C   UNL A   1      34.617  31.539  27.722  1.00  0.00     0.044 C 
ENDBRANCH  16  18
ENDBRANCH  12  16
ENDBRANCH   7   9
ENDBRANCH   6   7
ENDBRANCH   5   6
ENDBRANCH   4   5
ENDBRANCH   3   4
ENDBRANCH   2   3
ENDBRANCH   1   2
BRANCH   1  26
ATOM     26  O   UNL A   1      38.315  21.574  25.234  1.00  0.00    -0.376 OA
BRANCH  26  27
ATOM     27  C   UNL A   1      38.170  20.199  24.935  1.00  0.00     0.202 C 
BRANCH  27  28
ATOM     28  C   UNL A   1      39.365  19.327  25.337  1.00  0.00     0.261 C 
BRANCH  28  29
ATOM     29  O   UNL A   1      40.149  19.809  26.441  1.00  0.00    -0.460 OA
BRANCH  29  30
ATOM     30  C   UNL A   1      41.468  20.007  26.230  1.00  0.00     0.338 C 
ATOM     31  O   UNL A   1      42.236  19.241  25.669  1.00  0.00    -0.246 OA
BRANCH  30  32
ATOM     32  C   UNL A   1      41.803  21.397  26.625  1.00  0.00     0.060 A 
ATOM     33  C   UNL A   1      41.713  22.414  25.665  1.00  0.00     0.016 A 
ATOM     34  C   UNL A   1      42.202  21.701  27.930  1.00  0.00     0.016 A 
ATOM     35  C   UNL A   1      42.068  23.726  25.996  1.00  0.00     0.010 A 
ATOM     36  C   UNL A   1      42.568  23.012  28.256  1.00  0.00     0.010 A 
ATOM     37  C   UNL A   1      42.542  24.027  27.281  1.00  0.00    -0.014 A 
BRANCH  37  38
ATOM     38  C   UNL A   1      43.185  25.341  27.551  1.00  0.00     0.031 A 
ATOM     39  C   UNL A   1      42.345  26.452  28.123  1.00  0.00     0.074 A 
ATOM     40  C   UNL A   1      44.484  25.569  27.279  1.00  0.00     0.049 A 
ATOM     41  N   UNL A   1      42.680  27.681  28.420  1.00  0.00    -0.248 NA
ATOM     42  C   UNL A   1      40.933  26.134  28.387  1.00  0.00     0.031 C 
ATOM     43  C   UNL A   1      45.411  24.600  26.704  1.00  0.00     0.029 A 
ATOM     44  N   UNL A   1      45.234  26.713  27.423  1.00  0.00    -0.354 N 
ATOM     45  C   UNL A   1      41.515  28.294  28.867  1.00  0.00     0.074 A 
ATOM     46  C   UNL A   1      40.463  27.303  28.792  1.00  0.00     0.031 C 
ATOM     47  C   UNL A   1      46.598  25.201  26.505  1.00  0.00     0.029 A 
ATOM     48  C   UNL A   1      46.509  26.601  26.921  1.00  0.00     0.049 A 
ATOM     49  H   UNL A   1      44.891  27.534  27.847  1.00  0.00     0.167 HD
ATOM     50  C   UNL A   1      41.332  29.561  29.311  1.00  0.00     0.034 A 
ATOM     51  C   UNL A   1      47.483  27.525  26.785  1.00  0.00     0.034 A 
ATOM     52  C   UNL A   1      42.373  30.547  29.403  1.00  0.00     0.049 A 
ATOM     53  C   UNL A   1      47.264  28.931  27.285  1.00  0.00     0.074 A 
ATOM     54  C   UNL A   1      42.299  31.830  29.920  1.00  0.00     0.029 A 
ATOM     55  N   UNL A   1      43.670  30.378  28.942  1.00  0.00    -0.354 N 
ATOM     56  N   UNL A   1      46.202  29.450  27.852  1.00  0.00    -0.248 NA
ATOM     57  C   UNL A   1      48.392  29.869  27.161  1.00  0.00     0.031 C 
ATOM     58  C   UNL A   1      43.538  32.451  29.730  1.00  0.00     0.029 A 
ATOM     59  C   UNL A   1      44.399  31.540  29.138  1.00  0.00     0.049 A 
ATOM     60  H   UNL A   1      44.020  29.553  28.535  1.00  0.00     0.167 HD
ATOM     61  C   UNL A   1      46.541  30.761  28.178  1.00  0.00     0.074 A 
ATOM     62  C   UNL A   1      47.915  30.951  27.761  1.00  0.00     0.031 C 
ATOM     63  C   UNL A   1      45.779  31.719  28.762  1.00  0.00     0.034 A 
BRANCH  50  64
ATOM     64  C   UNL A   1      39.939  29.949  29.736  1.00  0.00     0.023 A 
ATOM     65  C   UNL A   1      38.997  30.364  28.773  1.00  0.00     0.012 A 
ATOM     66  C   UNL A   1      39.558  29.881  31.091  1.00  0.00     0.148 A 
ATOM     67  C   UNL A   1      37.714  30.753  29.156  1.00  0.00     0.002 A 
ATOM     68  C   UNL A   1      38.263  30.221  31.458  1.00  0.00     0.091 A 
ATOM     69  F   UNL A   1      40.473  29.507  31.997  1.00  0.00    -0.205 F 
ATOM     70  C   UNL A   1      37.344  30.672  30.496  1.00  0.00     0.022 A 
BRANCH  68  71
ATOM     71  S   UNL A   1      37.670  30.068  33.147  1.00  0.00     0.127 S 
ATOM     72  O   UNL A   1      36.513  30.962  33.135  1.00  0.00    -0.237 OA
ATOM     73  O   UNL A   1      37.339  28.644  33.230  1.00  0.00    -0.237 OA
ATOM     74  O   UNL A   1      38.777  30.481  33.997  1.00  0.00    -0.744 OA
ENDBRANCH  68  71
ENDBRANCH  50  64
BRANCH  51  75
ATOM     75  C   UNL A   1      48.778  27.135  26.156  1.00  0.00     0.023 A 
ATOM     76  C   UNL A   1      49.723  26.397  26.893  1.00  0.00     0.012 A 
ATOM     77  C   UNL A   1      49.054  27.465  24.815  1.00  0.00     0.148 A 
ATOM     78  C   UNL A   1      50.930  26.008  26.309  1.00  0.00     0.002 A 
ATOM     79  C   UNL A   1      50.232  27.028  24.224  1.00  0.00     0.091 A 
ATOM     80  F   UNL A   1      48.147  28.184  24.139  1.00  0.00    -0.205 F 
ATOM     81  C   UNL A   1      51.179  26.312  24.973  1.00  0.00     0.022 A 
BRANCH  79  82
ATOM     82  S   UNL A   1      50.589  27.266  22.479  1.00  0.00     0.127 S 
ATOM     83  O   UNL A   1      51.878  26.594  22.343  1.00  0.00    -0.237 OA
ATOM     84  O   UNL A   1      49.464  26.575  21.850  1.00  0.00    -0.237 OA
ATOM     85  O   UNL A   1      50.609  28.707  22.271  1.00  0.00    -0.744 OA
ENDBRANCH  79  82
ENDBRANCH  51  75
BRANCH  63  86
ATOM     86  C   UNL A   1      46.408  33.064  29.032  1.00  0.00     0.023 A 
ATOM     87  C   UNL A   1      47.050  33.310  30.262  1.00  0.00     0.012 A 
ATOM     88  C   UNL A   1      46.439  34.056  28.030  1.00  0.00     0.148 A 
ATOM     89  C   UNL A   1      47.683  34.531  30.503  1.00  0.00     0.002 A 
ATOM     90  C   UNL A   1      47.115  35.250  28.257  1.00  0.00     0.091 A 
ATOM     91  F   UNL A   1      45.810  33.813  26.871  1.00  0.00    -0.205 F 
ATOM     92  C   UNL A   1      47.726  35.494  29.497  1.00  0.00     0.022 A 
BRANCH  90  93
ATOM     93  S   UNL A   1      47.307  36.507  26.988  1.00  0.00     0.127 S 
ATOM     94  O   UNL A   1      48.589  37.106  27.353  1.00  0.00    -0.237 OA
ATOM     95  O   UNL A   1      47.336  35.708  25.761  1.00  0.00    -0.237 OA
ATOM     96  O   UNL A   1      46.151  37.384  27.110  1.00  0.00    -0.744 OA
ENDBRANCH  90  93
ENDBRANCH  63  86
ENDBRANCH  37  38
ENDBRANCH  30  32
ENDBRANCH  29  30
ENDBRANCH  28  29
ENDBRANCH  27  28
ENDBRANCH  26  27
ENDBRANCH   1  26
TORSDOF 23
ENDMDL
MODEL 2
REMARK VINA RESULT:      -9.6      2.024      7.731
REMARK SMILES CC[C@@H]1SC[C@H](C(=O)OCCOCCOCCOC(=O)c2ccc(-c3c4nc(c(-c5cccc(S(=O)(=O)[O-])c5F)c5ccc([nH]5)c(-c5cccc(S(=O)(=O)[O-])c5F)c5nc(c(-c6cccc(S(=O)(=O)[O-])c6F)c6ccc3[nH]6)C=C5)C=C4)cc2)N1C(=O)c1ccc(C)cc1F
REMARK SMILES IDX 14 1 13 2 12 3 11 4 10 5 9 6 7 7 8 8 6 9 3 10 4 11 84 12
REMARK SMILES IDX 5 13 2 14 1 15 85 16 86 17 87 18 88 19 93 20 89 21 92 22
REMARK SMILES IDX 94 23 90 24 91 25 15 26 16 27 17 28 18 29 19 30 20 31 21 32
REMARK SMILES IDX 22 33 83 34 23 35 82 36 24 37 25 38 26 39 76 40 27 41 81 42
REMARK SMILES IDX 75 43 77 44 28 45 80 46 74 47 73 48 29 50 61 51 41 52 60 53
REMARK SMILES IDX 42 54 45 55 59 56 78 57 43 58 44 59 58 61 79 62 46 63 30 64
REMARK SMILES IDX 31 65 39 66 32 67 34 68 40 69 33 70 35 71 36 72 37 73 38 74
REMARK SMILES IDX 62 75 63 76 71 77 64 78 66 79 72 80 65 81 67 82 68 83 69 84
REMARK SMILES IDX 70 85 47 86 48 87 56 88 49 89 51 90 57 91 50 92 52 93 53 94
REMARK SMILES IDX 54 95 55 96
REMARK H PARENT 77 49 45 60
REMARK Flexibility Score: inf
ROOT
ATOM      1  C   UNL A   1      36.309  21.568  25.560  1.00  0.00     0.188 C 
ENDROOT
BRANCH   1   2
ATOM      2  C   UNL A   1      35.105  20.789  24.999  1.00  0.00     0.188 C 
BRANCH   2   3
ATOM      3  O   UNL A   1      33.912  20.631  25.761  1.00  0.00    -0.376 OA
BRANCH   3   4
ATOM      4  C   UNL A   1      33.672  21.435  26.896  1.00  0.00     0.202 C 
BRANCH   4   5
ATOM      5  C   UNL A   1      32.705  22.612  26.743  1.00  0.00     0.261 C 
BRANCH   5   6
ATOM      6  O   UNL A   1      33.104  23.681  25.874  1.00  0.00    -0.462 OA
BRANCH   6   7
ATOM      7  C   UNL A   1      32.292  23.883  24.799  1.00  0.00     0.329 C 
ATOM      8  O   UNL A   1      31.366  23.149  24.473  1.00  0.00    -0.250 OA
BRANCH   7   9
ATOM      9  C   UNL A   1      32.583  25.199  24.065  1.00  0.00     0.206 C 
ATOM     10  C   UNL A   1      31.362  27.088  23.069  1.00  0.00     0.144 C 
ATOM     11  S   UNL A   1      31.628  25.947  21.675  1.00  0.00    -0.134 SA
ATOM     12  N   UNL A   1      31.599  26.283  24.269  1.00  0.00    -0.312 N 
ATOM     13  C   UNL A   1      32.827  24.947  22.578  1.00  0.00     0.109 C 
BRANCH  10  14
ATOM     14  C   UNL A   1      30.058  27.873  22.869  1.00  0.00     0.033 C 
ATOM     15  C   UNL A   1      30.112  29.380  23.085  1.00  0.00     0.007 C 
ENDBRANCH  10  14
BRANCH  12  16
ATOM     16  C   UNL A   1      31.495  26.667  25.608  1.00  0.00     0.258 C 
ATOM     17  O   UNL A   1      30.828  26.042  26.433  1.00  0.00    -0.269 OA
BRANCH  16  18
ATOM     18  C   UNL A   1      32.228  27.800  26.148  1.00  0.00     0.075 A 
ATOM     19  C   UNL A   1      31.560  29.021  26.268  1.00  0.00     0.017 A 
ATOM     20  C   UNL A   1      33.594  27.719  26.382  1.00  0.00     0.136 A 
ATOM     21  C   UNL A   1      32.251  30.136  26.734  1.00  0.00     0.004 A 
ATOM     22  C   UNL A   1      34.280  28.820  26.879  1.00  0.00     0.043 A 
ATOM     23  F   UNL A   1      34.268  26.584  26.158  1.00  0.00    -0.206 F 
ATOM     24  C   UNL A   1      33.605  30.030  27.088  1.00  0.00    -0.048 A 
ATOM     25  C   UNL A   1      34.334  31.226  27.623  1.00  0.00     0.044 C 
ENDBRANCH  16  18
ENDBRANCH  12  16
ENDBRANCH   7   9
ENDBRANCH   6   7
ENDBRANCH   5   6
ENDBRANCH   4   5
ENDBRANCH   3   4
ENDBRANCH   2   3
ENDBRANCH   1   2
BRANCH   1  26
ATOM     26  O   UNL A   1      37.531  21.234  24.918  1.00  0.00    -0.376 OA
BRANCH  26  27
ATOM     27  C   UNL A   1      37.784  19.855  24.731  1.00  0.00     0.202 C 
BRANCH  27  28
ATOM     28  C   UNL A   1      39.046  19.335  25.430  1.00  0.00     0.261 C 
BRANCH  28  29
ATOM     29  O   UNL A   1      39.519  20.122  26.536  1.00  0.00    -0.460 OA
BRANCH  29  30
ATOM     30  C   UNL A   1      40.840  20.398  26.584  1.00  0.00     0.338 C 
ATOM     31  O   UNL A   1      41.745  19.687  26.178  1.00  0.00    -0.246 OA
BRANCH  30  32
ATOM     32  C   UNL A   1      41.010  21.799  27.044  1.00  0.00     0.060 A 
ATOM     33  C   UNL A   1      40.315  22.818  26.380  1.00  0.00     0.016 A 
ATOM     34  C   UNL A   1      41.846  22.108  28.122  1.00  0.00     0.016 A 
ATOM     35  C   UNL A   1      40.493  24.153  26.761  1.00  0.00     0.010 A 
ATOM     36  C   UNL A   1      42.031  23.445  28.494  1.00  0.00     0.010 A 
ATOM     37  C   UNL A   1      41.387  24.480  27.791  1.00  0.00    -0.014 A 
BRANCH  37  38
ATOM     38  C   UNL A   1      41.794  25.895  28.004  1.00  0.00     0.031 A 
ATOM     39  C   UNL A   1      43.162  26.330  27.548  1.00  0.00     0.074 A 
ATOM     40  C   UNL A   1      40.987  26.787  28.610  1.00  0.00     0.049 A 
ATOM     41  N   UNL A   1      43.740  27.499  27.646  1.00  0.00    -0.248 NA
ATOM     42  C   UNL A   1      43.993  25.301  26.903  1.00  0.00     0.031 C 
ATOM     43  C   UNL A   1      39.651  26.505  29.124  1.00  0.00     0.029 A 
ATOM     44  N   UNL A   1      41.201  28.109  28.925  1.00  0.00    -0.354 N 
ATOM     45  C   UNL A   1      45.013  27.338  27.112  1.00  0.00     0.074 A 
ATOM     46  C   UNL A   1      45.125  25.955  26.702  1.00  0.00     0.031 C 
ATOM     47  C   UNL A   1      39.176  27.611  29.727  1.00  0.00     0.029 A 
ATOM     48  C   UNL A   1      40.183  28.671  29.659  1.00  0.00     0.049 A 
ATOM     49  H   UNL A   1      42.006  28.605  28.650  1.00  0.00     0.167 HD
ATOM     50  C   UNL A   1      46.000  28.255  26.964  1.00  0.00     0.034 A 
ATOM     51  C   UNL A   1      40.083  29.887  30.234  1.00  0.00     0.034 A 
ATOM     52  C   UNL A   1      45.893  29.634  27.354  1.00  0.00     0.049 A 
ATOM     53  C   UNL A   1      41.190  30.896  30.058  1.00  0.00     0.074 A 
ATOM     54  C   UNL A   1      46.809  30.654  27.166  1.00  0.00     0.029 A 
ATOM     55  N   UNL A   1      44.820  30.183  28.040  1.00  0.00    -0.354 N 
ATOM     56  N   UNL A   1      42.325  30.775  29.412  1.00  0.00    -0.248 NA
ATOM     57  C   UNL A   1      40.987  32.224  30.661  1.00  0.00     0.031 C 
ATOM     58  C   UNL A   1      46.310  31.809  27.777  1.00  0.00     0.029 A 
ATOM     59  C   UNL A   1      45.062  31.521  28.306  1.00  0.00     0.049 A 
ATOM     60  H   UNL A   1      44.007  29.693  28.301  1.00  0.00     0.167 HD
ATOM     61  C   UNL A   1      42.955  32.014  29.503  1.00  0.00     0.074 A 
ATOM     62  C   UNL A   1      42.066  32.878  30.253  1.00  0.00     0.031 C 
ATOM     63  C   UNL A   1      44.162  32.395  29.016  1.00  0.00     0.034 A 
BRANCH  50  64
ATOM     64  C   UNL A   1      47.291  27.785  26.343  1.00  0.00     0.023 A 
ATOM     65  C   UNL A   1      48.321  27.273  27.160  1.00  0.00     0.012 A 
ATOM     66  C   UNL A   1      47.474  27.832  24.947  1.00  0.00     0.148 A 
ATOM     67  C   UNL A   1      49.530  26.862  26.601  1.00  0.00     0.002 A 
ATOM     68  C   UNL A   1      48.663  27.373  24.395  1.00  0.00     0.091 A 
ATOM     69  F   UNL A   1      46.495  28.344  24.188  1.00  0.00    -0.205 F 
ATOM     70  C   UNL A   1      49.698  26.903  25.219  1.00  0.00     0.022 A 
BRANCH  68  71
ATOM     71  S   UNL A   1      48.937  27.308  22.621  1.00  0.00     0.127 S 
ATOM     72  O   UNL A   1      50.396  27.277  22.549  1.00  0.00    -0.237 OA
ATOM     73  O   UNL A   1      48.282  26.051  22.253  1.00  0.00    -0.237 OA
ATOM     74  O   UNL A   1      48.304  28.500  22.075  1.00  0.00    -0.744 OA
ENDBRANCH  68  71
ENDBRANCH  50  64
BRANCH  51  75
ATOM     75  C   UNL A   1      38.864  30.225  31.024  1.00  0.00     0.023 A 
ATOM     76  C   UNL A   1      38.631  29.593  32.259  1.00  0.00     0.012 A 
ATOM     77  C   UNL A   1      37.957  31.200  30.565  1.00  0.00     0.148 A 
ATOM     78  C   UNL A   1      37.505  29.915  33.019  1.00  0.00     0.002 A 
ATOM     79  C   UNL A   1      36.869  31.555  31.351  1.00  0.00     0.091 A 
ATOM     80  F   UNL A   1      38.191  31.774  29.377  1.00  0.00    -0.205 F 
ATOM     81  C   UNL A   1      36.632  30.903  32.572  1.00  0.00     0.022 A 
BRANCH  79  82
ATOM     82  S   UNL A   1      35.757  32.898  30.918  1.00  0.00     0.127 S 
ATOM     83  O   UNL A   1      34.689  32.730  31.899  1.00  0.00    -0.237 OA
ATOM     84  O   UNL A   1      36.609  34.068  31.128  1.00  0.00    -0.237 OA
ATOM     85  O   UNL A   1      35.376  32.666  29.532  1.00  0.00    -0.744 OA
ENDBRANCH  79  82
ENDBRANCH  51  75
BRANCH  63  86
ATOM     86  C   UNL A   1      44.600  33.822  29.233  1.00  0.00     0.023 A 
ATOM     87  C   UNL A   1      44.468  34.768  28.198  1.00  0.00     0.012 A 
ATOM     88  C   UNL A   1      45.061  34.246  30.497  1.00  0.00     0.148 A 
ATOM     89  C   UNL A   1      44.819  36.104  28.405  1.00  0.00     0.002 A 
ATOM     90  C   UNL A   1      45.361  35.588  30.712  1.00  0.00     0.091 A 
ATOM     91  F   UNL A   1      45.196  33.332  31.468  1.00  0.00    -0.205 F 
ATOM     92  C   UNL A   1      45.252  36.515  29.663  1.00  0.00     0.022 A 
BRANCH  90  93
ATOM     93  S   UNL A   1      45.831  36.226  32.324  1.00  0.00     0.127 S 
ATOM     94  O   UNL A   1      46.519  37.465  31.965  1.00  0.00    -0.237 OA
ATOM     95  O   UNL A   1      44.534  36.415  32.974  1.00  0.00    -0.237 OA
ATOM     96  O   UNL A   1      46.668  35.202  32.934  1.00  0.00    -0.744 OA
ENDBRANCH  90  93
ENDBRANCH  63  86
ENDBRANCH  37  38
ENDBRANCH  30  32
ENDBRANCH  29  30
ENDBRANCH  28  29
ENDBRANCH  27  28
ENDBRANCH  26  27
ENDBRANCH   1  26
TORSDOF 23
ENDMDL
MODEL 3
REMARK VINA RESULT:      -9.5      5.776     10.494
REMARK SMILES CC[C@@H]1SC[C@H](C(=O)OCCOCCOCCOC(=O)c2ccc(-c3c4nc(c(-c5cccc(S(=O)(=O)[O-])c5F)c5ccc([nH]5)c(-c5cccc(S(=O)(=O)[O-])c5F)c5nc(c(-c6cccc(S(=O)(=O)[O-])c6F)c6ccc3[nH]6)C=C5)C=C4)cc2)N1C(=O)c1ccc(C)cc1F
REMARK SMILES IDX 14 1 13 2 12 3 11 4 10 5 9 6 7 7 8 8 6 9 3 10 4 11 84 12
REMARK SMILES IDX 5 13 2 14 1 15 85 16 86 17 87 18 88 19 93 20 89 21 92 22
REMARK SMILES IDX 94 23 90 24 91 25 15 26 16 27 17 28 18 29 19 30 20 31 21 32
REMARK SMILES IDX 22 33 83 34 23 35 82 36 24 37 25 38 26 39 76 40 27 41 81 42
REMARK SMILES IDX 75 43 77 44 28 45 80 46 74 47 73 48 29 50 61 51 41 52 60 53
REMARK SMILES IDX 42 54 45 55 59 56 78 57 43 58 44 59 58 61 79 62 46 63 30 64
REMARK SMILES IDX 31 65 39 66 32 67 34 68 40 69 33 70 35 71 36 72 37 73 38 74
REMARK SMILES IDX 62 75 63 76 71 77 64 78 66 79 72 80 65 81 67 82 68 83 69 84
REMARK SMILES IDX 70 85 47 86 48 87 56 88 49 89 51 90 57 91 50 92 52 93 53 94
REMARK SMILES IDX 54 95 55 96
REMARK H PARENT 77 49 45 60
REMARK Flexibility Score: inf
ROOT
ATOM      1  C   UNL A   1      34.209  33.945  28.872  1.00  0.00     0.188 C 
ENDROOT
BRANCH   1   2
ATOM      2  C   UNL A   1      34.379  32.419  28.751  1.00  0.00     0.188 C 
BRANCH   2   3
ATOM      3  O   UNL A   1      34.848  31.824  27.546  1.00  0.00    -0.376 OA
BRANCH   3   4
ATOM      4  C   UNL A   1      34.810  30.423  27.373  1.00  0.00     0.202 C 
BRANCH   4   5
ATOM      5  C   UNL A   1      33.467  29.718  27.577  1.00  0.00     0.261 C 
BRANCH   5   6
ATOM      6  O   UNL A   1      33.116  28.690  26.640  1.00  0.00    -0.462 OA
BRANCH   6   7
ATOM      7  C   UNL A   1      31.887  28.131  26.831  1.00  0.00     0.329 C 
ATOM      8  O   UNL A   1      31.407  27.855  27.925  1.00  0.00    -0.250 OA
BRANCH   7   9
ATOM      9  C   UNL A   1      31.095  27.962  25.528  1.00  0.00     0.206 C 
ATOM     10  C   UNL A   1      31.324  26.872  23.335  1.00  0.00     0.144 C 
ATOM     11  S   UNL A   1      31.930  28.566  23.054  1.00  0.00    -0.134 SA
ATOM     12  N   UNL A   1      31.329  26.703  24.790  1.00  0.00    -0.312 N 
ATOM     13  C   UNL A   1      31.279  29.177  24.621  1.00  0.00     0.109 C 
BRANCH  10  14
ATOM     14  C   UNL A   1      32.050  25.889  22.406  1.00  0.00     0.033 C 
ATOM     15  C   UNL A   1      33.558  25.753  22.578  1.00  0.00     0.007 C 
ENDBRANCH  10  14
BRANCH  12  16
ATOM     16  C   UNL A   1      30.986  25.573  25.535  1.00  0.00     0.258 C 
ATOM     17  O   UNL A   1      29.964  25.509  26.219  1.00  0.00    -0.269 OA
BRANCH  16  18
ATOM     18  C   UNL A   1      31.775  24.353  25.500  1.00  0.00     0.075 A 
ATOM     19  C   UNL A   1      31.138  23.166  25.131  1.00  0.00     0.017 A 
ATOM     20  C   UNL A   1      33.079  24.334  25.977  1.00  0.00     0.136 A 
ATOM     21  C   UNL A   1      31.856  21.973  25.140  1.00  0.00     0.004 A 
ATOM     22  C   UNL A   1      33.809  23.151  25.954  1.00  0.00     0.043 A 
ATOM     23  F   UNL A   1      33.661  25.445  26.444  1.00  0.00    -0.206 F 
ATOM     24  C   UNL A   1      33.211  21.966  25.506  1.00  0.00    -0.048 A 
ATOM     25  C   UNL A   1      33.987  20.685  25.476  1.00  0.00     0.044 C 
ENDBRANCH  16  18
ENDBRANCH  12  16
ENDBRANCH   7   9
ENDBRANCH   6   7
ENDBRANCH   5   6
ENDBRANCH   4   5
ENDBRANCH   3   4
ENDBRANCH   2   3
ENDBRANCH   1   2
BRANCH   1  26
ATOM     26  O   UNL A   1      32.894  34.381  28.563  1.00  0.00    -0.376 OA
BRANCH  26  27
ATOM     27  C   UNL A   1      32.575  35.712  28.921  1.00  0.00     0.202 C 
BRANCH  27  28
ATOM     28  C   UNL A   1      33.461  36.309  30.020  1.00  0.00     0.261 C 
BRANCH  28  29
ATOM     29  O   UNL A   1      32.788  36.682  31.234  1.00  0.00    -0.460 OA
BRANCH  29  30
ATOM     30  C   UNL A   1      32.575  35.713  32.151  1.00  0.00     0.338 C 
ATOM     31  O   UNL A   1      31.513  35.446  32.690  1.00  0.00    -0.246 OA
BRANCH  30  32
ATOM     32  C   UNL A   1      33.807  34.895  32.265  1.00  0.00     0.060 A 
ATOM     33  C   UNL A   1      33.687  33.522  32.521  1.00  0.00     0.016 A 
ATOM     34  C   UNL A   1      35.072  35.471  32.120  1.00  0.00     0.016 A 
ATOM     35  C   UNL A   1      34.832  32.734  32.681  1.00  0.00     0.010 A 
ATOM     36  C   UNL A   1      36.217  34.683  32.291  1.00  0.00     0.010 A 
ATOM     37  C   UNL A   1      36.105  33.317  32.612  1.00  0.00    -0.014 A 
BRANCH  37  38
ATOM     38  C   UNL A   1      37.301  32.554  33.061  1.00  0.00     0.031 A 
ATOM     39  C   UNL A   1      38.009  32.994  34.316  1.00  0.00     0.074 A 
ATOM     40  C   UNL A   1      37.778  31.502  32.370  1.00  0.00     0.049 A 
ATOM     41  N   UNL A   1      39.077  32.500  34.886  1.00  0.00    -0.248 NA
ATOM     42  C   UNL A   1      37.438  34.157  35.014  1.00  0.00     0.031 C 
ATOM     43  C   UNL A   1      37.213  30.978  31.130  1.00  0.00     0.029 A 
ATOM     44  N   UNL A   1      38.876  30.708  32.605  1.00  0.00    -0.354 N 
ATOM     45  C   UNL A   1      39.329  33.312  35.986  1.00  0.00     0.074 A 
ATOM     46  C   UNL A   1      38.308  34.336  35.995  1.00  0.00     0.031 C 
ATOM     47  C   UNL A   1      37.991  29.974  30.690  1.00  0.00     0.029 A 
ATOM     48  C   UNL A   1      39.120  29.796  31.605  1.00  0.00     0.049 A 
ATOM     49  H   UNL A   1      39.434  30.785  33.413  1.00  0.00     0.167 HD
ATOM     50  C   UNL A   1      40.312  33.213  36.914  1.00  0.00     0.034 A 
ATOM     51  C   UNL A   1      40.146  28.938  31.430  1.00  0.00     0.034 A 
ATOM     52  C   UNL A   1      41.322  32.190  36.921  1.00  0.00     0.049 A 
ATOM     53  C   UNL A   1      41.231  28.840  32.473  1.00  0.00     0.074 A 
ATOM     54  C   UNL A   1      42.306  31.961  37.867  1.00  0.00     0.029 A 
ATOM     55  N   UNL A   1      41.501  31.244  35.923  1.00  0.00    -0.354 N 
ATOM     56  N   UNL A   1      41.368  29.511  33.590  1.00  0.00    -0.248 NA
ATOM     57  C   UNL A   1      42.287  27.838  32.247  1.00  0.00     0.031 C 
ATOM     58  C   UNL A   1      43.107  30.905  37.419  1.00  0.00     0.029 A 
ATOM     59  C   UNL A   1      42.594  30.445  36.217  1.00  0.00     0.049 A 
ATOM     60  H   UNL A   1      40.933  31.154  35.124  1.00  0.00     0.167 HD
ATOM     61  C   UNL A   1      42.501  28.996  34.215  1.00  0.00     0.074 A 
ATOM     62  C   UNL A   1      43.004  27.942  33.358  1.00  0.00     0.031 C 
ATOM     63  C   UNL A   1      43.073  29.369  35.386  1.00  0.00     0.034 A 
BRANCH  50  64
ATOM     64  C   UNL A   1      40.336  34.250  38.007  1.00  0.00     0.023 A 
ATOM     65  C   UNL A   1      41.025  35.465  37.813  1.00  0.00     0.012 A 
ATOM     66  C   UNL A   1      39.656  34.027  39.221  1.00  0.00     0.148 A 
ATOM     67  C   UNL A   1      41.078  36.420  38.827  1.00  0.00     0.002 A 
ATOM     68  C   UNL A   1      39.672  35.005  40.207  1.00  0.00     0.091 A 
ATOM     69  F   UNL A   1      39.027  32.857  39.398  1.00  0.00    -0.205 F 
ATOM     70  C   UNL A   1      40.395  36.195  40.019  1.00  0.00     0.022 A 
BRANCH  68  71
ATOM     71  S   UNL A   1      38.752  34.841  41.740  1.00  0.00     0.127 S 
ATOM     72  O   UNL A   1      37.435  34.436  41.252  1.00  0.00    -0.237 OA
ATOM     73  O   UNL A   1      39.495  33.787  42.435  1.00  0.00    -0.237 OA
ATOM     74  O   UNL A   1      38.812  36.146  42.384  1.00  0.00    -0.744 OA
ENDBRANCH  68  71
ENDBRANCH  50  64
BRANCH  51  75
ATOM     75  C   UNL A   1      40.182  28.080  30.211  1.00  0.00     0.023 A 
ATOM     76  C   UNL A   1      39.299  26.991  30.093  1.00  0.00     0.012 A 
ATOM     77  C   UNL A   1      41.068  28.368  29.155  1.00  0.00     0.148 A 
ATOM     78  C   UNL A   1      39.308  26.192  28.947  1.00  0.00     0.002 A 
ATOM     79  C   UNL A   1      41.034  27.603  27.996  1.00  0.00     0.091 A 
ATOM     80  F   UNL A   1      41.912  29.399  29.299  1.00  0.00    -0.205 F 
ATOM     81  C   UNL A   1      40.166  26.505  27.896  1.00  0.00     0.022 A 
BRANCH  79  82
ATOM     82  S   UNL A   1      42.013  28.000  26.543  1.00  0.00     0.127 S 
ATOM     83  O   UNL A   1      41.645  29.393  26.306  1.00  0.00    -0.237 OA
ATOM     84  O   UNL A   1      43.374  27.798  27.039  1.00  0.00    -0.237 OA
ATOM     85  O   UNL A   1      41.596  27.058  25.514  1.00  0.00    -0.744 OA
ENDBRANCH  79  82
ENDBRANCH  51  75
BRANCH  63  86
ATOM     86  C   UNL A   1      44.295  28.617  35.854  1.00  0.00     0.023 A 
ATOM     87  C   UNL A   1      45.576  29.002  35.411  1.00  0.00     0.012 A 
ATOM     88  C   UNL A   1      44.180  27.580  36.803  1.00  0.00     0.148 A 
ATOM     89  C   UNL A   1      46.718  28.349  35.879  1.00  0.00     0.002 A 
ATOM     90  C   UNL A   1      45.324  26.968  37.304  1.00  0.00     0.091 A 
ATOM     91  F   UNL A   1      42.954  27.214  37.203  1.00  0.00    -0.205 F 
ATOM     92  C   UNL A   1      46.592  27.342  36.833  1.00  0.00     0.022 A 
BRANCH  90  93
ATOM     93  S   UNL A   1      45.266  25.731  38.606  1.00  0.00     0.127 S 
ATOM     94  O   UNL A   1      46.672  25.642  38.996  1.00  0.00    -0.237 OA
ATOM     95  O   UNL A   1      44.398  26.366  39.599  1.00  0.00    -0.237 OA
ATOM     96  O   UNL A   1      44.711  24.531  37.998  1.00  0.00    -0.744 OA
ENDBRANCH  90  93
ENDBRANCH  63  86
ENDBRANCH  37  38
ENDBRANCH  30  32
ENDBRANCH  29  30
ENDBRANCH  28  29
ENDBRANCH  27  28
ENDBRANCH  26  27
ENDBRANCH   1  26
TORSDOF 23
ENDMDL
