MODEL 1
REMARK VINA RESULT:      -8.6      0.000      0.000
REMARK SMILES COc1ccc(-c2cc([C@@H]3CC[N@@H+](CC(=O)OCCOCCOCCOC(=O)c4ccc(-c5c6nc(c(-c7cccc(S(=O)(=O)[O-])c7F)c7ccc([nH]7)c(-c7cccc(S(=O)(=O)[O-])c7F)c7nc(c(-c8cccc(S(=O)(=O)[O-])c8F)c8ccc5[nH]8)C=C7)C=C6)cc4)C3)ccn2)c2ccc(C)nc12
REMARK SMILES IDX 21 1 20 2 19 3 18 4 17 5 15 6 16 7 14 8 13 9 10 10 11 11
REMARK SMILES IDX 92 12 12 13 9 15 7 16 8 17 95 18 94 19 93 20 6 21 3 22 4 23
REMARK SMILES IDX 102 24 5 25 96 26 101 27 97 28 99 29 98 30 100 31 2 32 1 33
REMARK SMILES IDX 22 34 23 35 24 36 25 37 26 38 27 39 28 40 29 41 30 42 91 43
REMARK SMILES IDX 31 44 90 45 32 46 33 47 34 48 84 49 35 50 89 51 83 52 85 53
REMARK SMILES IDX 36 54 88 55 82 56 81 57 37 59 69 60 49 61 68 62 50 63 53 64
REMARK SMILES IDX 67 65 86 66 51 67 52 68 66 70 87 71 54 72 38 73 39 74 47 75
REMARK SMILES IDX 40 76 42 77 48 78 41 79 43 80 44 81 45 82 46 83 70 84 71 85
REMARK SMILES IDX 79 86 72 87 74 88 80 89 73 90 75 91 76 92 77 93 78 94 55 95
REMARK SMILES IDX 56 96 64 97 57 98 59 99 65 100 58 101 60 102 61 103 62 104
REMARK SMILES IDX 63 105
REMARK H PARENT 13 14 85 58 53 69
REMARK Flexibility Score: inf
ROOT
ATOM      1  C   UNL A   1      49.795  27.264  23.787  1.00  0.00     0.188 C 
ENDROOT
BRANCH   1   2
ATOM      2  O   UNL A   1      48.631  27.593  24.537  1.00  0.00    -0.376 OA
BRANCH   2   3
ATOM      3  C   UNL A   1      47.397  27.741  23.843  1.00  0.00     0.202 C 
BRANCH   3   4
ATOM      4  C   UNL A   1      46.149  27.218  24.558  1.00  0.00     0.261 C 
BRANCH   4   5
ATOM      5  O   UNL A   1      46.321  27.097  25.986  1.00  0.00    -0.459 OA
BRANCH   5   6
ATOM      6  C   UNL A   1      45.265  26.604  26.687  1.00  0.00     0.361 C 
ATOM      7  O   UNL A   1      45.282  25.525  27.271  1.00  0.00    -0.245 OA
BRANCH   6   8
ATOM      8  C   UNL A   1      44.066  27.558  26.767  1.00  0.00     0.386 C 
BRANCH   8   9
ATOM      9  N   UNL A   1      42.881  27.189  27.572  1.00  0.00    -0.325 N 
ATOM     10  C   UNL A   1      40.839  28.471  27.546  1.00  0.00     0.080 C 
ATOM     11  C   UNL A   1      40.768  27.315  26.531  1.00  0.00     0.075 C 
ATOM     12  C   UNL A   1      42.176  28.267  28.277  1.00  0.00     0.271 C 
ATOM     13  C   UNL A   1      41.870  26.355  26.950  1.00  0.00     0.263 C 
ATOM     14  H   UNL A   1      43.397  26.626  28.247  1.00  0.00     0.348 HD
BRANCH  10  15
ATOM     15  C   UNL A   1      39.538  28.493  28.310  1.00  0.00    -0.035 A 
ATOM     16  C   UNL A   1      37.672  29.773  29.097  1.00  0.00     0.071 A 
ATOM     17  C   UNL A   1      38.713  29.592  28.190  1.00  0.00     0.033 A 
ATOM     18  N   UNL A   1      37.399  28.936  30.117  1.00  0.00    -0.256 NA
ATOM     19  C   UNL A   1      38.172  27.838  30.189  1.00  0.00     0.112 A 
ATOM     20  C   UNL A   1      39.218  27.573  29.313  1.00  0.00     0.024 A 
BRANCH  16  21
ATOM     21  C   UNL A   1      36.777  30.895  28.868  1.00  0.00     0.010 A 
ATOM     22  C   UNL A   1      35.270  33.030  28.001  1.00  0.00     0.145 A 
ATOM     23  C   UNL A   1      36.483  33.267  28.657  1.00  0.00     0.049 A 
ATOM     24  C   UNL A   1      34.787  31.736  27.718  1.00  0.00     0.113 A 
ATOM     25  C   UNL A   1      37.239  32.195  29.095  1.00  0.00     0.015 A 
ATOM     26  C   UNL A   1      35.536  30.660  28.210  1.00  0.00     0.013 A 
ATOM     27  N   UNL A   1      33.666  31.517  26.982  1.00  0.00    -0.249 NA
ATOM     28  C   UNL A   1      35.038  29.356  27.984  1.00  0.00     0.013 A 
ATOM     29  C   UNL A   1      33.260  30.250  26.720  1.00  0.00     0.038 A 
ATOM     30  C   UNL A   1      33.906  29.142  27.224  1.00  0.00     0.024 A 
ATOM     31  C   UNL A   1      32.042  30.082  25.867  1.00  0.00     0.067 C 
BRANCH  22  32
ATOM     32  O   UNL A   1      34.591  34.171  27.626  1.00  0.00    -0.494 OA
ATOM     33  C   UNL A   1      33.408  34.319  28.412  1.00  0.00     0.278 C 
ENDBRANCH  22  32
ENDBRANCH  16  21
ENDBRANCH  10  15
ENDBRANCH   8   9
ENDBRANCH   6   8
ENDBRANCH   5   6
ENDBRANCH   4   5
ENDBRANCH   3   4
ENDBRANCH   2   3
ENDBRANCH   1   2
BRANCH   1  34
ATOM     34  C   UNL A   1      51.157  27.597  24.409  1.00  0.00     0.188 C 
BRANCH  34  35
ATOM     35  O   UNL A   1      52.137  26.620  24.093  1.00  0.00    -0.376 OA
BRANCH  35  36
ATOM     36  C   UNL A   1      53.017  26.189  25.113  1.00  0.00     0.202 C 
BRANCH  36  37
ATOM     37  C   UNL A   1      52.550  24.920  25.823  1.00  0.00     0.261 C 
BRANCH  37  38
ATOM     38  O   UNL A   1      51.594  25.141  26.871  1.00  0.00    -0.460 OA
BRANCH  38  39
ATOM     39  C   UNL A   1      51.957  25.918  27.913  1.00  0.00     0.338 C 
ATOM     40  O   UNL A   1      53.094  26.162  28.287  1.00  0.00    -0.246 OA
BRANCH  39  41
ATOM     41  C   UNL A   1      50.752  26.622  28.404  1.00  0.00     0.060 A 
ATOM     42  C   UNL A   1      50.907  27.646  29.351  1.00  0.00     0.016 A 
ATOM     43  C   UNL A   1      49.492  26.323  27.885  1.00  0.00     0.016 A 
ATOM     44  C   UNL A   1      49.791  28.354  29.802  1.00  0.00     0.010 A 
ATOM     45  C   UNL A   1      48.380  27.030  28.339  1.00  0.00     0.010 A 
ATOM     46  C   UNL A   1      48.518  28.027  29.321  1.00  0.00    -0.014 A 
BRANCH  46  47
ATOM     47  C   UNL A   1      47.298  28.594  29.944  1.00  0.00     0.031 A 
ATOM     48  C   UNL A   1      46.615  27.795  31.021  1.00  0.00     0.074 A 
ATOM     49  C   UNL A   1      46.773  29.759  29.524  1.00  0.00     0.049 A 
ATOM     50  N   UNL A   1      45.470  28.006  31.611  1.00  0.00    -0.248 NA
ATOM     51  C   UNL A   1      47.314  26.582  31.484  1.00  0.00     0.031 C 
ATOM     52  C   UNL A   1      47.348  30.628  28.497  1.00  0.00     0.029 A 
ATOM     53  N   UNL A   1      45.608  30.392  29.885  1.00  0.00    -0.354 N 
ATOM     54  C   UNL A   1      45.282  26.929  32.468  1.00  0.00     0.074 A 
ATOM     55  C   UNL A   1      46.435  26.068  32.332  1.00  0.00     0.031 C 
ATOM     56  C   UNL A   1      46.515  31.663  28.285  1.00  0.00     0.029 A 
ATOM     57  C   UNL A   1      45.332  31.508  29.128  1.00  0.00     0.049 A 
ATOM     58  H   UNL A   1      45.026  30.077  30.614  1.00  0.00     0.167 HD
ATOM     59  C   UNL A   1      44.240  26.678  33.293  1.00  0.00     0.034 A 
ATOM     60  C   UNL A   1      44.231  32.287  29.095  1.00  0.00     0.034 A 
ATOM     61  C   UNL A   1      43.111  27.554  33.449  1.00  0.00     0.049 A 
ATOM     62  C   UNL A   1      43.080  31.971  30.017  1.00  0.00     0.074 A 
ATOM     63  C   UNL A   1      42.042  27.425  34.316  1.00  0.00     0.029 A 
ATOM     64  N   UNL A   1      42.895  28.704  32.709  1.00  0.00    -0.354 N 
ATOM     65  N   UNL A   1      42.972  31.018  30.911  1.00  0.00    -0.248 NA
ATOM     66  C   UNL A   1      41.906  32.854  29.943  1.00  0.00     0.031 C 
ATOM     67  C   UNL A   1      41.153  28.475  34.067  1.00  0.00     0.029 A 
ATOM     68  C   UNL A   1      41.697  29.284  33.083  1.00  0.00     0.049 A 
ATOM     69  H   UNL A   1      43.504  29.056  32.020  1.00  0.00     0.167 HD
ATOM     70  C   UNL A   1      41.744  31.218  31.537  1.00  0.00     0.074 A 
ATOM     71  C   UNL A   1      41.154  32.392  30.932  1.00  0.00     0.031 C 
ATOM     72  C   UNL A   1      41.152  30.490  32.516  1.00  0.00     0.034 A 
BRANCH  59  73
ATOM     73  C   UNL A   1      44.257  25.405  34.094  1.00  0.00     0.023 A 
ATOM     74  C   UNL A   1      43.855  24.191  33.504  1.00  0.00     0.012 A 
ATOM     75  C   UNL A   1      44.764  25.405  35.409  1.00  0.00     0.148 A 
ATOM     76  C   UNL A   1      43.940  22.996  34.218  1.00  0.00     0.002 A 
ATOM     77  C   UNL A   1      44.891  24.205  36.096  1.00  0.00     0.091 A 
ATOM     78  F   UNL A   1      45.117  26.576  35.956  1.00  0.00    -0.205 F 
ATOM     79  C   UNL A   1      44.470  23.001  35.507  1.00  0.00     0.022 A 
BRANCH  77  80
ATOM     80  S   UNL A   1      45.640  24.096  37.725  1.00  0.00     0.127 S 
ATOM     81  O   UNL A   1      46.956  24.686  37.483  1.00  0.00    -0.237 OA
ATOM     82  O   UNL A   1      44.740  24.923  38.528  1.00  0.00    -0.237 OA
ATOM     83  O   UNL A   1      45.650  22.683  38.073  1.00  0.00    -0.744 OA
ENDBRANCH  77  80
ENDBRANCH  59  73
BRANCH  60  84
ATOM     84  C   UNL A   1      44.147  33.451  28.163  1.00  0.00     0.023 A 
ATOM     85  C   UNL A   1      43.821  33.235  26.810  1.00  0.00     0.012 A 
ATOM     86  C   UNL A   1      44.428  34.760  28.600  1.00  0.00     0.148 A 
ATOM     87  C   UNL A   1      43.826  34.292  25.898  1.00  0.00     0.002 A 
ATOM     88  C   UNL A   1      44.373  35.817  27.698  1.00  0.00     0.091 A 
ATOM     89  F   UNL A   1      44.755  34.945  29.886  1.00  0.00    -0.205 F 
ATOM     90  C   UNL A   1      44.095  35.584  26.343  1.00  0.00     0.022 A 
BRANCH  88  91
ATOM     91  S   UNL A   1      44.587  37.526  28.207  1.00  0.00     0.127 S 
ATOM     92  O   UNL A   1      44.412  38.239  26.945  1.00  0.00    -0.237 OA
ATOM     93  O   UNL A   1      43.496  37.694  29.167  1.00  0.00    -0.237 OA
ATOM     94  O   UNL A   1      45.918  37.594  28.795  1.00  0.00    -0.744 OA
ENDBRANCH  88  91
ENDBRANCH  60  84
BRANCH  72  95
ATOM     95  C   UNL A   1      39.831  30.974  33.054  1.00  0.00     0.023 A 
ATOM     96  C   UNL A   1      38.630  30.644  32.395  1.00  0.00     0.012 A 
ATOM     97  C   UNL A   1      39.780  31.694  34.265  1.00  0.00     0.148 A 
ATOM     98  C   UNL A   1      37.403  31.058  32.912  1.00  0.00     0.002 A 
ATOM     99  C   UNL A   1      38.551  32.053  34.803  1.00  0.00     0.091 A 
ATOM    100  F   UNL A   1      40.935  32.010  34.869  1.00  0.00    -0.205 F 
ATOM    101  C   UNL A   1      37.362  31.750  34.121  1.00  0.00     0.022 A 
BRANCH  99 102
ATOM    102  S   UNL A   1      38.398  32.852  36.405  1.00  0.00     0.127 S 
ATOM    103  O   UNL A   1      36.955  33.067  36.494  1.00  0.00    -0.237 OA
ATOM    104  O   UNL A   1      38.920  31.829  37.311  1.00  0.00    -0.237 OA
ATOM    105  O   UNL A   1      39.205  34.063  36.330  1.00  0.00    -0.744 OA
ENDBRANCH  99 102
ENDBRANCH  72  95
ENDBRANCH  46  47
ENDBRANCH  39  41
ENDBRANCH  38  39
ENDBRANCH  37  38
ENDBRANCH  36  37
ENDBRANCH  35  36
ENDBRANCH  34  35
ENDBRANCH   1  34
TORSDOF 24
ENDMDL
MODEL 2
REMARK VINA RESULT:      -8.5      5.017      9.384
REMARK SMILES COc1ccc(-c2cc([C@@H]3CC[N@@H+](CC(=O)OCCOCCOCCOC(=O)c4ccc(-c5c6nc(c(-c7cccc(S(=O)(=O)[O-])c7F)c7ccc([nH]7)c(-c7cccc(S(=O)(=O)[O-])c7F)c7nc(c(-c8cccc(S(=O)(=O)[O-])c8F)c8ccc5[nH]8)C=C7)C=C6)cc4)C3)ccn2)c2ccc(C)nc12
REMARK SMILES IDX 21 1 20 2 19 3 18 4 17 5 15 6 16 7 14 8 13 9 10 10 11 11
REMARK SMILES IDX 92 12 12 13 9 15 7 16 8 17 95 18 94 19 93 20 6 21 3 22 4 23
REMARK SMILES IDX 102 24 5 25 96 26 101 27 97 28 99 29 98 30 100 31 2 32 1 33
REMARK SMILES IDX 22 34 23 35 24 36 25 37 26 38 27 39 28 40 29 41 30 42 91 43
REMARK SMILES IDX 31 44 90 45 32 46 33 47 34 48 84 49 35 50 89 51 83 52 85 53
REMARK SMILES IDX 36 54 88 55 82 56 81 57 37 59 69 60 49 61 68 62 50 63 53 64
REMARK SMILES IDX 67 65 86 66 51 67 52 68 66 70 87 71 54 72 38 73 39 74 47 75
REMARK SMILES IDX 40 76 42 77 48 78 41 79 43 80 44 81 45 82 46 83 70 84 71 85
REMARK SMILES IDX 79 86 72 87 74 88 80 89 73 90 75 91 76 92 77 93 78 94 55 95
REMARK SMILES IDX 56 96 64 97 57 98 59 99 65 100 58 101 60 102 61 103 62 104
REMARK SMILES IDX 63 105
REMARK H PARENT 13 14 85 58 53 69
REMARK Flexibility Score: inf
ROOT
ATOM      1  C   UNL A   1      38.877  23.667  26.478  1.00  0.00     0.188 C 
ENDROOT
BRANCH   1   2
ATOM      2  O   UNL A   1      37.770  23.634  25.585  1.00  0.00    -0.376 OA
BRANCH   2   3
ATOM      3  C   UNL A   1      36.793  22.613  25.756  1.00  0.00     0.202 C 
BRANCH   3   4
ATOM      4  C   UNL A   1      36.957  21.363  24.888  1.00  0.00     0.261 C 
BRANCH   4   5
ATOM      5  O   UNL A   1      35.715  20.667  24.652  1.00  0.00    -0.459 OA
BRANCH   5   6
ATOM      6  C   UNL A   1      35.753  19.310  24.734  1.00  0.00     0.361 C 
ATOM      7  O   UNL A   1      36.711  18.683  25.175  1.00  0.00    -0.245 OA
BRANCH   6   8
ATOM      8  C   UNL A   1      34.450  18.621  24.309  1.00  0.00     0.386 C 
BRANCH   8   9
ATOM      9  N   UNL A   1      33.146  19.208  24.688  1.00  0.00    -0.325 N 
ATOM     10  C   UNL A   1      32.765  21.587  24.772  1.00  0.00     0.080 C 
ATOM     11  C   UNL A   1      32.346  21.017  23.405  1.00  0.00     0.075 C 
ATOM     12  C   UNL A   1      33.159  20.355  25.604  1.00  0.00     0.271 C 
ATOM     13  C   UNL A   1      32.207  19.519  23.628  1.00  0.00     0.263 C 
ATOM     14  H   UNL A   1      32.813  18.383  25.186  1.00  0.00     0.348 HD
BRANCH  10  15
ATOM     15  C   UNL A   1      31.671  22.515  25.240  1.00  0.00    -0.035 A 
ATOM     16  C   UNL A   1      30.831  24.755  25.365  1.00  0.00     0.071 A 
ATOM     17  C   UNL A   1      31.629  23.801  24.740  1.00  0.00     0.033 A 
ATOM     18  N   UNL A   1      30.075  24.518  26.456  1.00  0.00    -0.256 NA
ATOM     19  C   UNL A   1      30.077  23.247  26.897  1.00  0.00     0.112 A 
ATOM     20  C   UNL A   1      30.829  22.232  26.320  1.00  0.00     0.024 A 
BRANCH  16  21
ATOM     21  C   UNL A   1      30.751  26.066  24.745  1.00  0.00     0.010 A 
ATOM     22  C   UNL A   1      30.311  28.659  23.929  1.00  0.00     0.145 A 
ATOM     23  C   UNL A   1      29.495  27.635  23.434  1.00  0.00     0.049 A 
ATOM     24  C   UNL A   1      31.337  28.439  24.869  1.00  0.00     0.113 A 
ATOM     25  C   UNL A   1      29.717  26.333  23.841  1.00  0.00     0.015 A 
ATOM     26  C   UNL A   1      31.585  27.110  25.236  1.00  0.00     0.013 A 
ATOM     27  N   UNL A   1      32.048  29.454  25.428  1.00  0.00    -0.249 NA
ATOM     28  C   UNL A   1      32.649  26.866  26.136  1.00  0.00     0.013 A 
ATOM     29  C   UNL A   1      33.010  29.186  26.346  1.00  0.00     0.038 A 
ATOM     30  C   UNL A   1      33.356  27.902  26.709  1.00  0.00     0.024 A 
ATOM     31  C   UNL A   1      33.723  30.353  26.953  1.00  0.00     0.067 C 
BRANCH  22  32
ATOM     32  O   UNL A   1      30.011  29.914  23.440  1.00  0.00    -0.494 OA
ATOM     33  C   UNL A   1      29.892  29.871  22.017  1.00  0.00     0.278 C 
ENDBRANCH  22  32
ENDBRANCH  16  21
ENDBRANCH  10  15
ENDBRANCH   8   9
ENDBRANCH   6   8
ENDBRANCH   5   6
ENDBRANCH   4   5
ENDBRANCH   3   4
ENDBRANCH   2   3
ENDBRANCH   1   2
BRANCH   1  34
ATOM     34  C   UNL A   1      39.621  22.351  26.735  1.00  0.00     0.188 C 
BRANCH  34  35
ATOM     35  O   UNL A   1      41.021  22.549  26.862  1.00  0.00    -0.376 OA
BRANCH  35  36
ATOM     36  C   UNL A   1      41.890  21.775  26.059  1.00  0.00     0.202 C 
BRANCH  36  37
ATOM     37  C   UNL A   1      42.807  22.613  25.171  1.00  0.00     0.261 C 
BRANCH  37  38
ATOM     38  O   UNL A   1      42.968  23.975  25.596  1.00  0.00    -0.460 OA
BRANCH  38  39
ATOM     39  C   UNL A   1      44.130  24.327  26.186  1.00  0.00     0.338 C 
ATOM     40  O   UNL A   1      45.213  23.775  26.063  1.00  0.00    -0.246 OA
BRANCH  39  41
ATOM     41  C   UNL A   1      43.935  25.639  26.840  1.00  0.00     0.060 A 
ATOM     42  C   UNL A   1      43.477  26.717  26.069  1.00  0.00     0.016 A 
ATOM     43  C   UNL A   1      44.135  25.786  28.214  1.00  0.00     0.016 A 
ATOM     44  C   UNL A   1      43.246  27.957  26.668  1.00  0.00     0.010 A 
ATOM     45  C   UNL A   1      43.907  27.026  28.809  1.00  0.00     0.010 A 
ATOM     46  C   UNL A   1      43.492  28.125  28.037  1.00  0.00    -0.014 A 
BRANCH  46  47
ATOM     47  C   UNL A   1      43.481  29.473  28.654  1.00  0.00     0.031 A 
ATOM     48  C   UNL A   1      44.759  30.267  28.642  1.00  0.00     0.074 A 
ATOM     49  C   UNL A   1      42.384  29.955  29.265  1.00  0.00     0.049 A 
ATOM     50  N   UNL A   1      45.039  31.397  29.234  1.00  0.00    -0.248 NA
ATOM     51  C   UNL A   1      45.878  29.703  27.866  1.00  0.00     0.031 C 
ATOM     52  C   UNL A   1      41.086  29.284  29.334  1.00  0.00     0.029 A 
ATOM     53  N   UNL A   1      42.202  31.112  29.984  1.00  0.00    -0.354 N 
ATOM     54  C   UNL A   1      46.376  31.648  28.955  1.00  0.00     0.074 A 
ATOM     55  C   UNL A   1      46.853  30.561  28.130  1.00  0.00     0.031 C 
ATOM     56  C   UNL A   1      40.251  30.024  30.085  1.00  0.00     0.029 A 
ATOM     57  C   UNL A   1      40.967  31.197  30.584  1.00  0.00     0.049 A 
ATOM     58  H   UNL A   1      42.889  31.813  30.061  1.00  0.00     0.167 HD
ATOM     59  C   UNL A   1      47.141  32.690  29.353  1.00  0.00     0.034 A 
ATOM     60  C   UNL A   1      40.487  32.097  31.467  1.00  0.00     0.034 A 
ATOM     61  C   UNL A   1      46.654  33.786  30.146  1.00  0.00     0.049 A 
ATOM     62  C   UNL A   1      41.371  33.240  31.902  1.00  0.00     0.074 A 
ATOM     63  C   UNL A   1      47.330  34.927  30.536  1.00  0.00     0.029 A 
ATOM     64  N   UNL A   1      45.381  33.866  30.687  1.00  0.00    -0.354 N 
ATOM     65  N   UNL A   1      42.594  33.530  31.530  1.00  0.00    -0.248 NA
ATOM     66  C   UNL A   1      40.798  34.196  32.863  1.00  0.00     0.031 C 
ATOM     67  C   UNL A   1      46.480  35.677  31.354  1.00  0.00     0.029 A 
ATOM     68  C   UNL A   1      45.259  35.027  31.427  1.00  0.00     0.049 A 
ATOM     69  H   UNL A   1      44.671  33.196  30.561  1.00  0.00     0.167 HD
ATOM     70  C   UNL A   1      42.916  34.724  32.170  1.00  0.00     0.074 A 
ATOM     71  C   UNL A   1      41.754  35.111  32.940  1.00  0.00     0.031 C 
ATOM     72  C   UNL A   1      44.072  35.431  32.136  1.00  0.00     0.034 A 
BRANCH  59  73
ATOM     73  C   UNL A   1      48.589  32.707  28.948  1.00  0.00     0.023 A 
ATOM     74  C   UNL A   1      49.567  32.137  29.786  1.00  0.00     0.012 A 
ATOM     75  C   UNL A   1      48.963  33.208  27.684  1.00  0.00     0.148 A 
ATOM     76  C   UNL A   1      50.900  32.082  29.381  1.00  0.00     0.002 A 
ATOM     77  C   UNL A   1      50.284  33.105  27.268  1.00  0.00     0.091 A 
ATOM     78  F   UNL A   1      48.019  33.766  26.915  1.00  0.00    -0.205 F 
ATOM     79  C   UNL A   1      51.256  32.553  28.119  1.00  0.00     0.022 A 
BRANCH  77  80
ATOM     80  S   UNL A   1      50.824  33.604  25.630  1.00  0.00     0.127 S 
ATOM     81  O   UNL A   1      52.093  34.268  25.929  1.00  0.00    -0.237 OA
ATOM     82  O   UNL A   1      50.956  32.316  24.949  1.00  0.00    -0.237 OA
ATOM     83  O   UNL A   1      49.780  34.472  25.105  1.00  0.00    -0.744 OA
ENDBRANCH  77  80
ENDBRANCH  59  73
BRANCH  60  84
ATOM     84  C   UNL A   1      39.101  31.974  32.007  1.00  0.00     0.023 A 
ATOM     85  C   UNL A   1      38.878  31.234  33.185  1.00  0.00     0.012 A 
ATOM     86  C   UNL A   1      38.002  32.549  31.341  1.00  0.00     0.148 A 
ATOM     87  C   UNL A   1      37.582  31.025  33.660  1.00  0.00     0.002 A 
ATOM     88  C   UNL A   1      36.719  32.387  31.854  1.00  0.00     0.091 A 
ATOM     89  F   UNL A   1      38.229  33.235  30.212  1.00  0.00    -0.205 F 
ATOM     90  C   UNL A   1      36.504  31.607  33.000  1.00  0.00     0.022 A 
BRANCH  88  91
ATOM     91  S   UNL A   1      35.288  33.200  31.136  1.00  0.00     0.127 S 
ATOM     92  O   UNL A   1      34.186  32.492  31.782  1.00  0.00    -0.237 OA
ATOM     93  O   UNL A   1      35.475  34.583  31.574  1.00  0.00    -0.237 OA
ATOM     94  O   UNL A   1      35.409  33.006  29.697  1.00  0.00    -0.744 OA
ENDBRANCH  88  91
ENDBRANCH  60  84
BRANCH  72  95
ATOM     95  C   UNL A   1      44.125  36.735  32.889  1.00  0.00     0.023 A 
ATOM     96  C   UNL A   1      44.547  36.764  34.233  1.00  0.00     0.012 A 
ATOM     97  C   UNL A   1      43.829  37.946  32.231  1.00  0.00     0.148 A 
ATOM     98  C   UNL A   1      44.633  37.973  34.921  1.00  0.00     0.002 A 
ATOM     99  C   UNL A   1      43.973  39.151  32.905  1.00  0.00     0.091 A 
ATOM    100  F   UNL A   1      43.417  37.895  30.956  1.00  0.00    -0.205 F 
ATOM    101  C   UNL A   1      44.360  39.167  34.254  1.00  0.00     0.022 A 
BRANCH  99 102
ATOM    102  S   UNL A   1      43.746  40.740  32.098  1.00  0.00     0.127 S 
ATOM    103  O   UNL A   1      42.311  40.728  31.818  1.00  0.00    -0.237 OA
ATOM    104  O   UNL A   1      44.157  41.678  33.142  1.00  0.00    -0.237 OA
ATOM    105  O   UNL A   1      44.610  40.724  30.925  1.00  0.00    -0.744 OA
ENDBRANCH  99 102
ENDBRANCH  72  95
ENDBRANCH  46  47
ENDBRANCH  39  41
ENDBRANCH  38  39
ENDBRANCH  37  38
ENDBRANCH  36  37
ENDBRANCH  35  36
ENDBRANCH  34  35
ENDBRANCH   1  34
TORSDOF 24
ENDMDL
MODEL 3
REMARK VINA RESULT:      -8.4      4.101     10.199
REMARK SMILES COc1ccc(-c2cc([C@@H]3CC[N@@H+](CC(=O)OCCOCCOCCOC(=O)c4ccc(-c5c6nc(c(-c7cccc(S(=O)(=O)[O-])c7F)c7ccc([nH]7)c(-c7cccc(S(=O)(=O)[O-])c7F)c7nc(c(-c8cccc(S(=O)(=O)[O-])c8F)c8ccc5[nH]8)C=C7)C=C6)cc4)C3)ccn2)c2ccc(C)nc12
REMARK SMILES IDX 21 1 20 2 19 3 18 4 17 5 15 6 16 7 14 8 13 9 10 10 11 11
REMARK SMILES IDX 92 12 12 13 9 15 7 16 8 17 95 18 94 19 93 20 6 21 3 22 4 23
REMARK SMILES IDX 102 24 5 25 96 26 101 27 97 28 99 29 98 30 100 31 2 32 1 33
REMARK SMILES IDX 22 34 23 35 24 36 25 37 26 38 27 39 28 40 29 41 30 42 91 43
REMARK SMILES IDX 31 44 90 45 32 46 33 47 34 48 84 49 35 50 89 51 83 52 85 53
REMARK SMILES IDX 36 54 88 55 82 56 81 57 37 59 69 60 49 61 68 62 50 63 53 64
REMARK SMILES IDX 67 65 86 66 51 67 52 68 66 70 87 71 54 72 38 73 39 74 47 75
REMARK SMILES IDX 40 76 42 77 48 78 41 79 43 80 44 81 45 82 46 83 70 84 71 85
REMARK SMILES IDX 79 86 72 87 74 88 80 89 73 90 75 91 76 92 77 93 78 94 55 95
REMARK SMILES IDX 56 96 64 97 57 98 59 99 65 100 58 101 60 102 61 103 62 104
REMARK SMILES IDX 63 105
REMARK H PARENT 13 14 85 58 53 69
REMARK Flexibility Score: inf
ROOT
ATOM      1  C   UNL A   1      34.306  22.161  26.957  1.00  0.00     0.188 C 
ENDROOT
BRANCH   1   2
ATOM      2  O   UNL A   1      32.994  22.574  27.321  1.00  0.00    -0.376 OA
BRANCH   2   3
ATOM      3  C   UNL A   1      32.151  23.122  26.313  1.00  0.00     0.202 C 
BRANCH   3   4
ATOM      4  C   UNL A   1      30.692  23.362  26.705  1.00  0.00     0.261 C 
BRANCH   4   5
ATOM      5  O   UNL A   1      30.238  24.701  26.411  1.00  0.00    -0.459 OA
BRANCH   5   6
ATOM      6  C   UNL A   1      30.512  25.178  25.168  1.00  0.00     0.361 C 
ATOM      7  O   UNL A   1      30.211  24.590  24.133  1.00  0.00    -0.245 OA
BRANCH   6   8
ATOM      8  C   UNL A   1      31.153  26.572  25.160  1.00  0.00     0.386 C 
BRANCH   8   9
ATOM      9  N   UNL A   1      32.013  26.996  26.286  1.00  0.00    -0.325 N 
ATOM     10  C   UNL A   1      33.162  29.116  26.321  1.00  0.00     0.080 C 
ATOM     11  C   UNL A   1      31.807  29.219  27.045  1.00  0.00     0.075 C 
ATOM     12  C   UNL A   1      33.298  27.628  25.958  1.00  0.00     0.271 C 
ATOM     13  C   UNL A   1      31.409  27.782  27.344  1.00  0.00     0.263 C 
ATOM     14  H   UNL A   1      32.181  26.053  26.636  1.00  0.00     0.348 HD
BRANCH  10  15
ATOM     15  C   UNL A   1      34.196  29.798  27.181  1.00  0.00    -0.035 A 
ATOM     16  C   UNL A   1      34.971  31.826  28.194  1.00  0.00     0.071 A 
ATOM     17  C   UNL A   1      33.934  31.065  27.661  1.00  0.00     0.033 A 
ATOM     18  N   UNL A   1      36.251  31.413  28.279  1.00  0.00    -0.256 NA
ATOM     19  C   UNL A   1      36.483  30.155  27.863  1.00  0.00     0.112 A 
ATOM     20  C   UNL A   1      35.502  29.324  27.337  1.00  0.00     0.024 A 
BRANCH  16  21
ATOM     21  C   UNL A   1      34.624  33.114  28.769  1.00  0.00     0.010 A 
ATOM     22  C   UNL A   1      33.559  35.344  29.985  1.00  0.00     0.145 A 
ATOM     23  C   UNL A   1      33.371  35.154  28.612  1.00  0.00     0.049 A 
ATOM     24  C   UNL A   1      34.241  34.421  30.803  1.00  0.00     0.113 A 
ATOM     25  C   UNL A   1      33.906  34.036  28.000  1.00  0.00     0.015 A 
ATOM     26  C   UNL A   1      34.822  33.318  30.165  1.00  0.00     0.013 A 
ATOM     27  N   UNL A   1      34.321  34.558  32.153  1.00  0.00    -0.249 NA
ATOM     28  C   UNL A   1      35.558  32.411  30.962  1.00  0.00     0.013 A 
ATOM     29  C   UNL A   1      34.971  33.626  32.895  1.00  0.00     0.038 A 
ATOM     30  C   UNL A   1      35.623  32.550  32.334  1.00  0.00     0.024 A 
ATOM     31  C   UNL A   1      34.982  33.817  34.379  1.00  0.00     0.067 C 
BRANCH  22  32
ATOM     32  O   UNL A   1      32.998  36.502  30.484  1.00  0.00    -0.494 OA
ATOM     33  C   UNL A   1      33.280  37.598  29.613  1.00  0.00     0.278 C 
ENDBRANCH  22  32
ENDBRANCH  16  21
ENDBRANCH  10  15
ENDBRANCH   8   9
ENDBRANCH   6   8
ENDBRANCH   5   6
ENDBRANCH   4   5
ENDBRANCH   3   4
ENDBRANCH   2   3
ENDBRANCH   1   2
BRANCH   1  34
ATOM     34  C   UNL A   1      34.785  22.494  25.539  1.00  0.00     0.188 C 
BRANCH  34  35
ATOM     35  O   UNL A   1      35.763  21.573  25.080  1.00  0.00    -0.376 OA
BRANCH  35  36
ATOM     36  C   UNL A   1      36.991  21.486  25.777  1.00  0.00     0.202 C 
BRANCH  36  37
ATOM     37  C   UNL A   1      37.608  22.846  26.096  1.00  0.00     0.261 C 
BRANCH  37  38
ATOM     38  O   UNL A   1      39.023  22.928  25.865  1.00  0.00    -0.460 OA
BRANCH  38  39
ATOM     39  C   UNL A   1      39.855  22.572  26.866  1.00  0.00     0.338 C 
ATOM     40  O   UNL A   1      40.047  21.445  27.296  1.00  0.00    -0.246 OA
BRANCH  39  41
ATOM     41  C   UNL A   1      40.680  23.748  27.219  1.00  0.00     0.060 A 
ATOM     42  C   UNL A   1      40.620  24.886  26.401  1.00  0.00     0.016 A 
ATOM     43  C   UNL A   1      41.451  23.753  28.383  1.00  0.00     0.016 A 
ATOM     44  C   UNL A   1      41.357  26.024  26.732  1.00  0.00     0.010 A 
ATOM     45  C   UNL A   1      42.188  24.889  28.709  1.00  0.00     0.010 A 
ATOM     46  C   UNL A   1      42.171  26.019  27.872  1.00  0.00    -0.014 A 
BRANCH  46  47
ATOM     47  C   UNL A   1      43.137  27.115  28.125  1.00  0.00     0.031 A 
ATOM     48  C   UNL A   1      42.638  28.354  28.817  1.00  0.00     0.074 A 
ATOM     49  C   UNL A   1      44.410  27.039  27.697  1.00  0.00     0.049 A 
ATOM     50  N   UNL A   1      43.245  29.491  29.023  1.00  0.00    -0.248 NA
ATOM     51  C   UNL A   1      41.259  28.307  29.337  1.00  0.00     0.031 C 
ATOM     52  C   UNL A   1      45.012  25.888  27.024  1.00  0.00     0.029 A 
ATOM     53  N   UNL A   1      45.417  27.974  27.729  1.00  0.00    -0.354 N 
ATOM     54  C   UNL A   1      42.310  30.313  29.638  1.00  0.00     0.074 A 
ATOM     55  C   UNL A   1      41.095  29.544  29.786  1.00  0.00     0.031 C 
ATOM     56  C   UNL A   1      46.275  26.198  26.676  1.00  0.00     0.029 A 
ATOM     57  C   UNL A   1      46.554  27.580  27.062  1.00  0.00     0.049 A 
ATOM     58  H   UNL A   1      45.332  28.842  28.187  1.00  0.00     0.167 HD
ATOM     59  C   UNL A   1      42.449  31.596  30.042  1.00  0.00     0.034 A 
ATOM     60  C   UNL A   1      47.672  28.272  26.762  1.00  0.00     0.034 A 
ATOM     61  C   UNL A   1      43.669  32.347  29.923  1.00  0.00     0.049 A 
ATOM     62  C   UNL A   1      47.790  29.707  27.214  1.00  0.00     0.074 A 
ATOM     63  C   UNL A   1      43.933  33.628  30.372  1.00  0.00     0.029 A 
ATOM     64  N   UNL A   1      44.817  31.895  29.294  1.00  0.00    -0.354 N 
ATOM     65  N   UNL A   1      46.942  30.430  27.905  1.00  0.00    -0.248 NA
ATOM     66  C   UNL A   1      49.032  30.415  26.866  1.00  0.00     0.031 C 
ATOM     67  C   UNL A   1      45.228  33.970  29.972  1.00  0.00     0.029 A 
ATOM     68  C   UNL A   1      45.786  32.881  29.322  1.00  0.00     0.049 A 
ATOM     69  H   UNL A   1      44.926  31.005  28.888  1.00  0.00     0.167 HD
ATOM     70  C   UNL A   1      47.568  31.657  28.115  1.00  0.00     0.074 A 
ATOM     71  C   UNL A   1      48.871  31.571  27.494  1.00  0.00     0.031 C 
ATOM     72  C   UNL A   1      47.103  32.758  28.754  1.00  0.00     0.034 A 
BRANCH  59  73
ATOM     73  C   UNL A   1      41.258  32.285  30.648  1.00  0.00     0.023 A 
ATOM     74  C   UNL A   1      40.313  32.926  29.823  1.00  0.00     0.012 A 
ATOM     75  C   UNL A   1      41.031  32.212  32.038  1.00  0.00     0.148 A 
ATOM     76  C   UNL A   1      39.167  33.501  30.375  1.00  0.00     0.002 A 
ATOM     77  C   UNL A   1      39.865  32.743  32.573  1.00  0.00     0.091 A 
ATOM     78  F   UNL A   1      41.955  31.618  32.804  1.00  0.00    -0.205 F 
ATOM     79  C   UNL A   1      38.937  33.398  31.745  1.00  0.00     0.022 A 
BRANCH  77  80
ATOM     80  S   UNL A   1      39.437  32.586  34.310  1.00  0.00     0.127 S 
ATOM     81  O   UNL A   1      38.401  33.609  34.451  1.00  0.00    -0.237 OA
ATOM     82  O   UNL A   1      38.947  31.209  34.378  1.00  0.00    -0.237 OA
ATOM     83  O   UNL A   1      40.662  32.839  35.054  1.00  0.00    -0.744 OA
ENDBRANCH  77  80
ENDBRANCH  59  73
BRANCH  60  84
ATOM     84  C   UNL A   1      48.784  27.634  25.999  1.00  0.00     0.023 A 
ATOM     85  C   UNL A   1      48.697  27.535  24.596  1.00  0.00     0.012 A 
ATOM     86  C   UNL A   1      49.905  27.089  26.655  1.00  0.00     0.148 A 
ATOM     87  C   UNL A   1      49.678  26.861  23.866  1.00  0.00     0.002 A 
ATOM     88  C   UNL A   1      50.908  26.471  25.916  1.00  0.00     0.091 A 
ATOM     89  F   UNL A   1      49.964  27.174  27.991  1.00  0.00    -0.205 F 
ATOM     90  C   UNL A   1      50.786  26.335  24.524  1.00  0.00     0.022 A 
BRANCH  88  91
ATOM     91  S   UNL A   1      52.425  25.872  26.667  1.00  0.00     0.127 S 
ATOM     92  O   UNL A   1      52.503  24.511  26.143  1.00  0.00    -0.237 OA
ATOM     93  O   UNL A   1      53.417  26.800  26.123  1.00  0.00    -0.237 OA
ATOM     94  O   UNL A   1      52.221  25.988  28.105  1.00  0.00    -0.744 OA
ENDBRANCH  88  91
ENDBRANCH  60  84
BRANCH  72  95
ATOM     95  C   UNL A   1      48.027  33.941  28.884  1.00  0.00     0.023 A 
ATOM     96  C   UNL A   1      48.774  34.134  30.063  1.00  0.00     0.012 A 
ATOM     97  C   UNL A   1      48.211  34.820  27.797  1.00  0.00     0.148 A 
ATOM     98  C   UNL A   1      49.659  35.206  30.172  1.00  0.00     0.002 A 
ATOM     99  C   UNL A   1      49.136  35.851  27.892  1.00  0.00     0.091 A 
ATOM    100  F   UNL A   1      47.481  34.627  26.689  1.00  0.00    -0.205 F 
ATOM    101  C   UNL A   1      49.850  36.056  29.083  1.00  0.00     0.022 A 
BRANCH  99 102
ATOM    102  S   UNL A   1      49.524  36.927  26.507  1.00  0.00     0.127 S 
ATOM    103  O   UNL A   1      48.217  37.075  25.870  1.00  0.00    -0.237 OA
ATOM    104  O   UNL A   1      50.015  38.130  27.180  1.00  0.00    -0.237 OA
ATOM    105  O   UNL A   1      50.527  36.224  25.718  1.00  0.00    -0.744 OA
ENDBRANCH  99 102
ENDBRANCH  72  95
ENDBRANCH  46  47
ENDBRANCH  39  41
ENDBRANCH  38  39
ENDBRANCH  37  38
ENDBRANCH  36  37
ENDBRANCH  35  36
ENDBRANCH  34  35
ENDBRANCH   1  34
TORSDOF 24
ENDMDL
