MODEL 1
REMARK VINA RESULT:      -8.2      0.000      0.000
REMARK SMILES CCCOc1cc(NC[C@H]2CC[C@@H](C(=O)OCCOCCOCCOC(=O)c3ccc(-c4c5nc(c(-c6cccc(S(=O)(=O)[O-])c6F)c6ccc([nH]6)c(-c6cccc(S(=O)(=O)[O-])c6F)c6nc(c(-c7cccc(S(=O)(=O)[O-])c7F)c7ccc4[nH]7)C=C6)C=C5)cc3)O2)ncn1
REMARK SMILES IDX 19 1 18 2 17 3 16 4 14 5 15 6 13 7 10 8 11 9 91 10 12 11
REMARK SMILES IDX 9 12 8 13 7 15 5 16 6 17 94 18 93 19 92 20 4 21 3 22 2 23
REMARK SMILES IDX 1 24 20 25 21 26 22 27 23 28 24 29 25 30 26 31 27 32 28 33
REMARK SMILES IDX 29 34 90 35 30 36 89 37 31 38 32 39 33 40 83 41 34 42 88 43
REMARK SMILES IDX 82 44 84 45 35 46 87 47 81 48 80 49 36 51 68 52 48 53 67 54
REMARK SMILES IDX 49 55 52 56 66 57 85 58 50 59 51 60 65 62 86 63 53 64 37 65
REMARK SMILES IDX 38 66 46 67 39 68 41 69 47 70 40 71 42 72 43 73 44 74 45 75
REMARK SMILES IDX 69 76 70 77 78 78 71 79 73 80 79 81 72 82 74 83 75 84 76 85
REMARK SMILES IDX 77 86 54 87 55 88 63 89 56 90 58 91 64 92 57 93 59 94 60 95
REMARK SMILES IDX 61 96 62 97
REMARK H PARENT 8 14 84 50 52 61
REMARK Flexibility Score: inf
ROOT
ATOM      1  O   UNL A   1      42.828  21.978  27.453  1.00  0.00    -0.376 OA
ENDROOT
BRANCH   1   2
ATOM      2  C   UNL A   1      42.491  23.342  27.660  1.00  0.00     0.202 C 
BRANCH   2   3
ATOM      3  C   UNL A   1      41.274  23.630  28.541  1.00  0.00     0.261 C 
BRANCH   3   4
ATOM      4  O   UNL A   1      40.031  23.231  27.934  1.00  0.00    -0.461 OA
BRANCH   4   5
ATOM      5  C   UNL A   1      39.325  24.207  27.301  1.00  0.00     0.335 C 
ATOM      6  O   UNL A   1      39.204  25.355  27.715  1.00  0.00    -0.249 OA
BRANCH   5   7
ATOM      7  C   UNL A   1      38.635  23.708  26.019  1.00  0.00     0.228 C 
ATOM      8  C   UNL A   1      37.470  22.014  24.880  1.00  0.00     0.138 C 
ATOM      9  C   UNL A   1      36.707  23.334  24.760  1.00  0.00     0.037 C 
ATOM     10  O   UNL A   1      38.627  22.305  25.722  1.00  0.00    -0.361 OA
ATOM     11  C   UNL A   1      37.173  24.110  25.968  1.00  0.00     0.047 C 
BRANCH   8  12
ATOM     12  C   UNL A   1      36.717  20.795  25.465  1.00  0.00     0.146 C 
BRANCH  12  13
ATOM     13  N   UNL A   1      35.314  21.040  25.749  1.00  0.00    -0.367 N 
ATOM     14  H   UNL A   1      35.061  21.424  26.619  1.00  0.00     0.162 HD
BRANCH  13  15
ATOM     15  C   UNL A   1      34.324  20.746  24.827  1.00  0.00     0.133 A 
ATOM     16  C   UNL A   1      32.813  19.191  23.955  1.00  0.00     0.218 A 
ATOM     17  C   UNL A   1      33.953  19.429  24.682  1.00  0.00     0.115 A 
ATOM     18  N   UNL A   1      32.132  20.123  23.281  1.00  0.00    -0.202 NA
ATOM     19  C   UNL A   1      32.623  21.360  23.417  1.00  0.00     0.228 A 
ATOM     20  N   UNL A   1      33.660  21.724  24.193  1.00  0.00    -0.219 NA
BRANCH  16  21
ATOM     21  O   UNL A   1      32.300  17.915  23.946  1.00  0.00    -0.478 OA
BRANCH  21  22
ATOM     22  C   UNL A   1      33.276  16.997  23.422  1.00  0.00     0.231 C 
BRANCH  22  23
ATOM     23  C   UNL A   1      33.763  16.032  24.512  1.00  0.00     0.038 C 
ATOM     24  C   UNL A   1      32.709  15.736  25.576  1.00  0.00     0.007 C 
ENDBRANCH  22  23
ENDBRANCH  21  22
ENDBRANCH  16  21
ENDBRANCH  13  15
ENDBRANCH  12  13
ENDBRANCH   8  12
ENDBRANCH   5   7
ENDBRANCH   4   5
ENDBRANCH   3   4
ENDBRANCH   2   3
ENDBRANCH   1   2
BRANCH   1  25
ATOM     25  C   UNL A   1      42.378  21.326  26.270  1.00  0.00     0.188 C 
BRANCH  25  26
ATOM     26  C   UNL A   1      43.295  20.290  25.596  1.00  0.00     0.188 C 
BRANCH  26  27
ATOM     27  O   UNL A   1      44.585  20.771  25.245  1.00  0.00    -0.376 OA
BRANCH  27  28
ATOM     28  C   UNL A   1      44.743  21.150  23.887  1.00  0.00     0.202 C 
BRANCH  28  29
ATOM     29  C   UNL A   1      44.963  22.658  23.738  1.00  0.00     0.261 C 
BRANCH  29  30
ATOM     30  O   UNL A   1      44.775  23.403  24.954  1.00  0.00    -0.460 OA
BRANCH  30  31
ATOM     31  C   UNL A   1      45.878  23.588  25.715  1.00  0.00     0.338 C 
ATOM     32  O   UNL A   1      46.774  22.787  25.909  1.00  0.00    -0.246 OA
BRANCH  31  33
ATOM     33  C   UNL A   1      45.921  25.003  26.138  1.00  0.00     0.060 A 
ATOM     34  C   UNL A   1      46.234  25.294  27.470  1.00  0.00     0.016 A 
ATOM     35  C   UNL A   1      45.635  26.031  25.235  1.00  0.00     0.016 A 
ATOM     36  C   UNL A   1      46.213  26.617  27.915  1.00  0.00     0.010 A 
ATOM     37  C   UNL A   1      45.608  27.355  25.686  1.00  0.00     0.010 A 
ATOM     38  C   UNL A   1      45.860  27.652  27.036  1.00  0.00    -0.014 A 
BRANCH  38  39
ATOM     39  C   UNL A   1      45.619  29.016  27.569  1.00  0.00     0.031 A 
ATOM     40  C   UNL A   1      44.259  29.356  28.119  1.00  0.00     0.074 A 
ATOM     41  C   UNL A   1      46.597  29.940  27.583  1.00  0.00     0.049 A 
ATOM     42  N   UNL A   1      43.851  30.458  28.693  1.00  0.00    -0.248 NA
ATOM     43  C   UNL A   1      43.222  28.318  28.004  1.00  0.00     0.031 C 
ATOM     44  C   UNL A   1      47.947  29.751  27.057  1.00  0.00     0.029 A 
ATOM     45  N   UNL A   1      46.592  31.231  28.048  1.00  0.00    -0.354 N 
ATOM     46  C   UNL A   1      42.509  30.254  28.998  1.00  0.00     0.074 A 
ATOM     47  C   UNL A   1      42.166  28.931  28.521  1.00  0.00     0.031 C 
ATOM     48  C   UNL A   1      48.638  30.894  27.215  1.00  0.00     0.029 A 
ATOM     49  C   UNL A   1      47.780  31.894  27.847  1.00  0.00     0.049 A 
ATOM     50  H   UNL A   1      45.813  31.645  28.484  1.00  0.00     0.167 HD
ATOM     51  C   UNL A   1      41.646  31.079  29.637  1.00  0.00     0.034 A 
ATOM     52  C   UNL A   1      48.133  33.162  28.139  1.00  0.00     0.034 A 
ATOM     53  C   UNL A   1      41.985  32.389  30.124  1.00  0.00     0.049 A 
ATOM     54  C   UNL A   1      47.155  34.058  28.857  1.00  0.00     0.074 A 
ATOM     55  C   UNL A   1      41.189  33.278  30.827  1.00  0.00     0.029 A 
ATOM     56  N   UNL A   1      43.213  33.005  29.952  1.00  0.00    -0.354 N 
ATOM     57  N   UNL A   1      45.940  33.795  29.272  1.00  0.00    -0.248 NA
ATOM     58  C   UNL A   1      47.618  35.416  29.187  1.00  0.00     0.031 C 
ATOM     59  C   UNL A   1      41.932  34.441  31.062  1.00  0.00     0.029 A 
ATOM     60  C   UNL A   1      43.198  34.265  30.527  1.00  0.00     0.049 A 
ATOM     61  H   UNL A   1      43.985  32.606  29.487  1.00  0.00     0.167 HD
ATOM     62  C   UNL A   1      45.508  34.935  29.943  1.00  0.00     0.074 A 
ATOM     63  C   UNL A   1      46.603  35.882  29.900  1.00  0.00     0.031 C 
ATOM     64  C   UNL A   1      44.309  35.183  30.528  1.00  0.00     0.034 A 
BRANCH  51  65
ATOM     65  C   UNL A   1      40.251  30.566  29.884  1.00  0.00     0.023 A 
ATOM     66  C   UNL A   1      39.340  30.493  28.810  1.00  0.00     0.012 A 
ATOM     67  C   UNL A   1      39.860  30.107  31.156  1.00  0.00     0.148 A 
ATOM     68  C   UNL A   1      38.050  30.000  29.005  1.00  0.00     0.002 A 
ATOM     69  C   UNL A   1      38.587  29.577  31.333  1.00  0.00     0.091 A 
ATOM     70  F   UNL A   1      40.732  30.207  32.169  1.00  0.00    -0.205 F 
ATOM     71  C   UNL A   1      37.678  29.532  30.262  1.00  0.00     0.022 A 
BRANCH  69  72
ATOM     72  S   UNL A   1      38.038  28.879  32.895  1.00  0.00     0.127 S 
ATOM     73  O   UNL A   1      36.660  29.365  32.967  1.00  0.00    -0.237 OA
ATOM     74  O   UNL A   1      38.166  27.442  32.653  1.00  0.00    -0.237 OA
ATOM     75  O   UNL A   1      38.941  29.406  33.908  1.00  0.00    -0.744 OA
ENDBRANCH  69  72
ENDBRANCH  51  65
BRANCH  52  76
ATOM     76  C   UNL A   1      49.504  33.648  27.814  1.00  0.00     0.023 A 
ATOM     77  C   UNL A   1      50.501  33.632  28.810  1.00  0.00     0.012 A 
ATOM     78  C   UNL A   1      49.825  34.121  26.527  1.00  0.00     0.148 A 
ATOM     79  C   UNL A   1      51.784  34.110  28.539  1.00  0.00     0.002 A 
ATOM     80  C   UNL A   1      51.119  34.545  26.250  1.00  0.00     0.091 A 
ATOM     81  F   UNL A   1      48.858  34.147  25.600  1.00  0.00    -0.205 F 
ATOM     82  C   UNL A   1      52.096  34.557  27.258  1.00  0.00     0.022 A 
BRANCH  80  83
ATOM     83  S   UNL A   1      51.641  35.026  24.599  1.00  0.00     0.127 S 
ATOM     84  O   UNL A   1      51.568  33.757  23.880  1.00  0.00    -0.237 OA
ATOM     85  O   UNL A   1      50.616  36.004  24.230  1.00  0.00    -0.237 OA
ATOM     86  O   UNL A   1      52.976  35.588  24.759  1.00  0.00    -0.744 OA
ENDBRANCH  80  83
ENDBRANCH  52  76
BRANCH  64  87
ATOM     87  C   UNL A   1      44.122  36.519  31.203  1.00  0.00     0.023 A 
ATOM     88  C   UNL A   1      44.311  36.635  32.595  1.00  0.00     0.012 A 
ATOM     89  C   UNL A   1      43.807  37.670  30.453  1.00  0.00     0.148 A 
ATOM     90  C   UNL A   1      44.143  37.864  33.234  1.00  0.00     0.002 A 
ATOM     91  C   UNL A   1      43.690  38.900  31.091  1.00  0.00     0.091 A 
ATOM     92  F   UNL A   1      43.612  37.542  29.131  1.00  0.00    -0.205 F 
ATOM     93  C   UNL A   1      43.843  38.997  32.483  1.00  0.00     0.022 A 
BRANCH  91  94
ATOM     94  S   UNL A   1      43.398  40.422  30.180  1.00  0.00     0.127 S 
ATOM     95  O   UNL A   1      43.396  39.948  28.797  1.00  0.00    -0.237 OA
ATOM     96  O   UNL A   1      42.088  40.843  30.680  1.00  0.00    -0.237 OA
ATOM     97  O   UNL A   1      44.491  41.313  30.542  1.00  0.00    -0.744 OA
ENDBRANCH  91  94
ENDBRANCH  64  87
ENDBRANCH  38  39
ENDBRANCH  31  33
ENDBRANCH  30  31
ENDBRANCH  29  30
ENDBRANCH  28  29
ENDBRANCH  27  28
ENDBRANCH  26  27
ENDBRANCH  25  26
ENDBRANCH   1  25
TORSDOF 26
ENDMDL
MODEL 2
REMARK VINA RESULT:      -8.2      3.721      8.933
REMARK SMILES CCCOc1cc(NC[C@H]2CC[C@@H](C(=O)OCCOCCOCCOC(=O)c3ccc(-c4c5nc(c(-c6cccc(S(=O)(=O)[O-])c6F)c6ccc([nH]6)c(-c6cccc(S(=O)(=O)[O-])c6F)c6nc(c(-c7cccc(S(=O)(=O)[O-])c7F)c7ccc4[nH]7)C=C6)C=C5)cc3)O2)ncn1
REMARK SMILES IDX 19 1 18 2 17 3 16 4 14 5 15 6 13 7 10 8 11 9 91 10 12 11
REMARK SMILES IDX 9 12 8 13 7 15 5 16 6 17 94 18 93 19 92 20 4 21 3 22 2 23
REMARK SMILES IDX 1 24 20 25 21 26 22 27 23 28 24 29 25 30 26 31 27 32 28 33
REMARK SMILES IDX 29 34 90 35 30 36 89 37 31 38 32 39 33 40 83 41 34 42 88 43
REMARK SMILES IDX 82 44 84 45 35 46 87 47 81 48 80 49 36 51 68 52 48 53 67 54
REMARK SMILES IDX 49 55 52 56 66 57 85 58 50 59 51 60 65 62 86 63 53 64 37 65
REMARK SMILES IDX 38 66 46 67 39 68 41 69 47 70 40 71 42 72 43 73 44 74 45 75
REMARK SMILES IDX 69 76 70 77 78 78 71 79 73 80 79 81 72 82 74 83 75 84 76 85
REMARK SMILES IDX 77 86 54 87 55 88 63 89 56 90 58 91 64 92 57 93 59 94 60 95
REMARK SMILES IDX 61 96 62 97
REMARK H PARENT 8 14 84 50 52 61
REMARK Flexibility Score: inf
ROOT
ATOM      1  O   UNL A   1      34.237  28.247  26.238  1.00  0.00    -0.376 OA
ENDROOT
BRANCH   1   2
ATOM      2  C   UNL A   1      33.532  27.017  26.139  1.00  0.00     0.202 C 
BRANCH   2   3
ATOM      3  C   UNL A   1      34.285  25.833  25.528  1.00  0.00     0.261 C 
BRANCH   3   4
ATOM      4  O   UNL A   1      34.164  24.627  26.305  1.00  0.00    -0.461 OA
BRANCH   4   5
ATOM      5  C   UNL A   1      34.648  23.490  25.736  1.00  0.00     0.335 C 
ATOM      6  O   UNL A   1      35.764  23.028  25.949  1.00  0.00    -0.249 OA
BRANCH   5   7
ATOM      7  C   UNL A   1      33.662  22.855  24.738  1.00  0.00     0.228 C 
ATOM      8  C   UNL A   1      31.658  22.987  23.518  1.00  0.00     0.138 C 
ATOM      9  C   UNL A   1      32.812  22.639  22.577  1.00  0.00     0.037 C 
ATOM     10  O   UNL A   1      32.265  23.164  24.834  1.00  0.00    -0.361 OA
ATOM     11  C   UNL A   1      34.020  23.182  23.301  1.00  0.00     0.047 C 
BRANCH   8  12
ATOM     12  C   UNL A   1      30.807  24.237  23.186  1.00  0.00     0.146 C 
BRANCH  12  13
ATOM     13  N   UNL A   1      31.279  24.993  22.040  1.00  0.00    -0.367 N 
ATOM     14  H   UNL A   1      31.243  24.582  21.146  1.00  0.00     0.162 HD
BRANCH  13  15
ATOM     15  C   UNL A   1      31.777  26.279  22.171  1.00  0.00     0.133 A 
ATOM     16  C   UNL A   1      31.456  28.472  22.910  1.00  0.00     0.218 A 
ATOM     17  C   UNL A   1      30.900  27.270  22.548  1.00  0.00     0.115 A 
ATOM     18  N   UNL A   1      32.752  28.778  22.793  1.00  0.00    -0.202 NA
ATOM     19  C   UNL A   1      33.508  27.773  22.336  1.00  0.00     0.228 A 
ATOM     20  N   UNL A   1      33.090  26.524  22.062  1.00  0.00    -0.219 NA
BRANCH  16  21
ATOM     21  O   UNL A   1      30.639  29.424  23.475  1.00  0.00    -0.478 OA
BRANCH  21  22
ATOM     22  C   UNL A   1      29.268  29.169  23.117  1.00  0.00     0.231 C 
BRANCH  22  23
ATOM     23  C   UNL A   1      28.557  30.467  22.712  1.00  0.00     0.038 C 
ATOM     24  C   UNL A   1      28.212  30.534  21.226  1.00  0.00     0.007 C 
ENDBRANCH  22  23
ENDBRANCH  21  22
ENDBRANCH  16  21
ENDBRANCH  13  15
ENDBRANCH  12  13
ENDBRANCH   8  12
ENDBRANCH   5   7
ENDBRANCH   4   5
ENDBRANCH   3   4
ENDBRANCH   2   3
ENDBRANCH   1   2
BRANCH   1  25
ATOM     25  C   UNL A   1      34.174  28.983  27.455  1.00  0.00     0.188 C 
BRANCH  25  26
ATOM     26  C   UNL A   1      35.474  29.551  28.049  1.00  0.00     0.188 C 
BRANCH  26  27
ATOM     27  O   UNL A   1      35.342  30.817  28.680  1.00  0.00    -0.376 OA
BRANCH  27  28
ATOM     28  C   UNL A   1      36.236  31.057  29.755  1.00  0.00     0.202 C 
BRANCH  28  29
ATOM     29  C   UNL A   1      35.991  30.101  30.925  1.00  0.00     0.261 C 
BRANCH  29  30
ATOM     30  O   UNL A   1      36.986  29.071  31.061  1.00  0.00    -0.460 OA
BRANCH  30  31
ATOM     31  C   UNL A   1      37.881  29.236  32.062  1.00  0.00     0.338 C 
ATOM     32  O   UNL A   1      37.836  28.737  33.171  1.00  0.00    -0.246 OA
BRANCH  31  33
ATOM     33  C   UNL A   1      39.040  29.985  31.533  1.00  0.00     0.060 A 
ATOM     34  C   UNL A   1      39.326  29.898  30.167  1.00  0.00     0.016 A 
ATOM     35  C   UNL A   1      39.848  30.747  32.381  1.00  0.00     0.016 A 
ATOM     36  C   UNL A   1      40.454  30.537  29.652  1.00  0.00     0.010 A 
ATOM     37  C   UNL A   1      40.983  31.381  31.863  1.00  0.00     0.010 A 
ATOM     38  C   UNL A   1      41.312  31.249  30.503  1.00  0.00    -0.014 A 
BRANCH  38  39
ATOM     39  C   UNL A   1      42.621  31.727  29.991  1.00  0.00     0.031 A 
ATOM     40  C   UNL A   1      42.753  33.159  29.543  1.00  0.00     0.074 A 
ATOM     41  C   UNL A   1      43.688  30.909  29.939  1.00  0.00     0.049 A 
ATOM     42  N   UNL A   1      43.814  33.801  29.127  1.00  0.00    -0.248 NA
ATOM     43  C   UNL A   1      41.526  33.972  29.562  1.00  0.00     0.031 C 
ATOM     44  C   UNL A   1      43.690  29.496  30.315  1.00  0.00     0.029 A 
ATOM     45  N   UNL A   1      44.975  31.152  29.531  1.00  0.00    -0.354 N 
ATOM     46  C   UNL A   1      43.384  35.089  28.825  1.00  0.00     0.074 A 
ATOM     47  C   UNL A   1      41.959  35.128  29.080  1.00  0.00     0.031 C 
ATOM     48  C   UNL A   1      44.919  28.993  30.104  1.00  0.00     0.029 A 
ATOM     49  C   UNL A   1      45.788  30.044  29.576  1.00  0.00     0.049 A 
ATOM     50  H   UNL A   1      45.289  32.037  29.234  1.00  0.00     0.167 HD
ATOM     51  C   UNL A   1      44.109  36.150  28.398  1.00  0.00     0.034 A 
ATOM     52  C   UNL A   1      47.082  29.895  29.230  1.00  0.00     0.034 A 
ATOM     53  C   UNL A   1      45.526  36.121  28.155  1.00  0.00     0.049 A 
ATOM     54  C   UNL A   1      47.869  31.094  28.763  1.00  0.00     0.074 A 
ATOM     55  C   UNL A   1      46.354  37.160  27.767  1.00  0.00     0.029 A 
ATOM     56  N   UNL A   1      46.325  34.995  28.265  1.00  0.00    -0.354 N 
ATOM     57  N   UNL A   1      47.480  32.339  28.628  1.00  0.00    -0.248 NA
ATOM     58  C   UNL A   1      49.288  30.873  28.444  1.00  0.00     0.031 C 
ATOM     59  C   UNL A   1      47.652  36.656  27.622  1.00  0.00     0.029 A 
ATOM     60  C   UNL A   1      47.636  35.309  27.945  1.00  0.00     0.049 A 
ATOM     61  H   UNL A   1      46.008  34.101  28.529  1.00  0.00     0.167 HD
ATOM     62  C   UNL A   1      48.611  33.054  28.247  1.00  0.00     0.074 A 
ATOM     63  C   UNL A   1      49.705  32.107  28.198  1.00  0.00     0.031 C 
ATOM     64  C   UNL A   1      48.731  34.373  27.949  1.00  0.00     0.034 A 
BRANCH  51  65
ATOM     65  C   UNL A   1      43.380  37.454  28.204  1.00  0.00     0.023 A 
ATOM     66  C   UNL A   1      42.671  37.680  27.006  1.00  0.00     0.012 A 
ATOM     67  C   UNL A   1      43.349  38.429  29.220  1.00  0.00     0.148 A 
ATOM     68  C   UNL A   1      41.968  38.868  26.810  1.00  0.00     0.002 A 
ATOM     69  C   UNL A   1      42.611  39.592  29.034  1.00  0.00     0.091 A 
ATOM     70  F   UNL A   1      44.049  38.206  30.342  1.00  0.00    -0.205 F 
ATOM     71  C   UNL A   1      41.929  39.817  27.826  1.00  0.00     0.022 A 
BRANCH  69  72
ATOM     72  S   UNL A   1      42.436  40.841  30.313  1.00  0.00     0.127 S 
ATOM     73  O   UNL A   1      41.064  41.298  30.093  1.00  0.00    -0.237 OA
ATOM     74  O   UNL A   1      42.630  40.061  31.535  1.00  0.00    -0.237 OA
ATOM     75  O   UNL A   1      43.474  41.829  30.053  1.00  0.00    -0.744 OA
ENDBRANCH  69  72
ENDBRANCH  51  65
BRANCH  52  76
ATOM     76  C   UNL A   1      47.744  28.567  29.375  1.00  0.00     0.023 A 
ATOM     77  C   UNL A   1      48.269  28.185  30.626  1.00  0.00     0.012 A 
ATOM     78  C   UNL A   1      47.853  27.683  28.285  1.00  0.00     0.148 A 
ATOM     79  C   UNL A   1      48.921  26.961  30.779  1.00  0.00     0.002 A 
ATOM     80  C   UNL A   1      48.456  26.443  28.458  1.00  0.00     0.091 A 
ATOM     81  F   UNL A   1      47.366  28.073  27.098  1.00  0.00    -0.205 F 
ATOM     82  C   UNL A   1      49.005  26.086  29.700  1.00  0.00     0.022 A 
BRANCH  80  83
ATOM     83  S   UNL A   1      48.505  25.206  27.155  1.00  0.00     0.127 S 
ATOM     84  O   UNL A   1      48.885  26.008  25.996  1.00  0.00    -0.237 OA
ATOM     85  O   UNL A   1      49.543  24.296  27.642  1.00  0.00    -0.237 OA
ATOM     86  O   UNL A   1      47.169  24.626  27.116  1.00  0.00    -0.744 OA
ENDBRANCH  80  83
ENDBRANCH  52  76
BRANCH  64  87
ATOM     87  C   UNL A   1      50.100  34.884  27.575  1.00  0.00     0.023 A 
ATOM     88  C   UNL A   1      50.943  35.426  28.567  1.00  0.00     0.012 A 
ATOM     89  C   UNL A   1      50.572  34.784  26.251  1.00  0.00     0.148 A 
ATOM     90  C   UNL A   1      52.212  35.902  28.238  1.00  0.00     0.002 A 
ATOM     91  C   UNL A   1      51.857  35.216  25.941  1.00  0.00     0.091 A 
ATOM     92  F   UNL A   1      49.754  34.284  25.313  1.00  0.00    -0.205 F 
ATOM     93  C   UNL A   1      52.674  35.789  26.930  1.00  0.00     0.022 A 
BRANCH  91  94
ATOM     94  S   UNL A   1      52.559  35.018  24.298  1.00  0.00     0.127 S 
ATOM     95  O   UNL A   1      51.792  33.886  23.780  1.00  0.00    -0.237 OA
ATOM     96  O   UNL A   1      52.251  36.302  23.665  1.00  0.00    -0.237 OA
ATOM     97  O   UNL A   1      53.981  34.779  24.503  1.00  0.00    -0.744 OA
ENDBRANCH  91  94
ENDBRANCH  64  87
ENDBRANCH  38  39
ENDBRANCH  31  33
ENDBRANCH  30  31
ENDBRANCH  29  30
ENDBRANCH  28  29
ENDBRANCH  27  28
ENDBRANCH  26  27
ENDBRANCH  25  26
ENDBRANCH   1  25
TORSDOF 26
ENDMDL
MODEL 3
REMARK VINA RESULT:      -8.1      6.627     11.400
REMARK SMILES CCCOc1cc(NC[C@H]2CC[C@@H](C(=O)OCCOCCOCCOC(=O)c3ccc(-c4c5nc(c(-c6cccc(S(=O)(=O)[O-])c6F)c6ccc([nH]6)c(-c6cccc(S(=O)(=O)[O-])c6F)c6nc(c(-c7cccc(S(=O)(=O)[O-])c7F)c7ccc4[nH]7)C=C6)C=C5)cc3)O2)ncn1
REMARK SMILES IDX 19 1 18 2 17 3 16 4 14 5 15 6 13 7 10 8 11 9 91 10 12 11
REMARK SMILES IDX 9 12 8 13 7 15 5 16 6 17 94 18 93 19 92 20 4 21 3 22 2 23
REMARK SMILES IDX 1 24 20 25 21 26 22 27 23 28 24 29 25 30 26 31 27 32 28 33
REMARK SMILES IDX 29 34 90 35 30 36 89 37 31 38 32 39 33 40 83 41 34 42 88 43
REMARK SMILES IDX 82 44 84 45 35 46 87 47 81 48 80 49 36 51 68 52 48 53 67 54
REMARK SMILES IDX 49 55 52 56 66 57 85 58 50 59 51 60 65 62 86 63 53 64 37 65
REMARK SMILES IDX 38 66 46 67 39 68 41 69 47 70 40 71 42 72 43 73 44 74 45 75
REMARK SMILES IDX 69 76 70 77 78 78 71 79 73 80 79 81 72 82 74 83 75 84 76 85
REMARK SMILES IDX 77 86 54 87 55 88 63 89 56 90 58 91 64 92 57 93 59 94 60 95
REMARK SMILES IDX 61 96 62 97
REMARK H PARENT 8 14 84 50 52 61
REMARK Flexibility Score: inf
ROOT
ATOM      1  O   UNL A   1      34.240  28.609  25.499  1.00  0.00    -0.376 OA
ENDROOT
BRANCH   1   2
ATOM      2  C   UNL A   1      33.234  27.650  25.206  1.00  0.00     0.202 C 
BRANCH   2   3
ATOM      3  C   UNL A   1      33.705  26.258  24.780  1.00  0.00     0.261 C 
BRANCH   3   4
ATOM      4  O   UNL A   1      34.866  25.810  25.504  1.00  0.00    -0.461 OA
BRANCH   4   5
ATOM      5  C   UNL A   1      35.116  24.472  25.480  1.00  0.00     0.335 C 
ATOM      6  O   UNL A   1      36.155  23.967  25.072  1.00  0.00    -0.249 OA
BRANCH   5   7
ATOM      7  C   UNL A   1      33.921  23.633  25.971  1.00  0.00     0.228 C 
ATOM      8  C   UNL A   1      31.623  23.469  26.433  1.00  0.00     0.138 C 
ATOM      9  C   UNL A   1      32.052  22.306  25.538  1.00  0.00     0.037 C 
ATOM     10  O   UNL A   1      32.819  24.286  26.616  1.00  0.00    -0.361 OA
ATOM     11  C   UNL A   1      33.281  22.843  24.846  1.00  0.00     0.047 C 
BRANCH   8  12
ATOM     12  C   UNL A   1      30.468  24.374  25.938  1.00  0.00     0.146 C 
BRANCH  12  13
ATOM     13  N   UNL A   1      30.163  24.232  24.526  1.00  0.00    -0.367 N 
ATOM     14  H   UNL A   1      29.861  23.359  24.185  1.00  0.00     0.162 HD
BRANCH  13  15
ATOM     15  C   UNL A   1      30.284  25.294  23.645  1.00  0.00     0.133 A 
ATOM     16  C   UNL A   1      29.868  27.543  23.169  1.00  0.00     0.218 A 
ATOM     17  C   UNL A   1      29.549  26.427  23.903  1.00  0.00     0.115 A 
ATOM     18  N   UNL A   1      30.732  27.562  22.150  1.00  0.00    -0.202 NA
ATOM     19  C   UNL A   1      31.332  26.388  21.923  1.00  0.00     0.228 A 
ATOM     20  N   UNL A   1      31.182  25.265  22.650  1.00  0.00    -0.219 NA
BRANCH  16  21
ATOM     21  O   UNL A   1      29.297  28.743  23.525  1.00  0.00    -0.478 OA
BRANCH  21  22
ATOM     22  C   UNL A   1      28.006  28.877  22.901  1.00  0.00     0.231 C 
BRANCH  22  23
ATOM     23  C   UNL A   1      27.924  30.175  22.086  1.00  0.00     0.038 C 
ATOM     24  C   UNL A   1      28.827  31.285  22.617  1.00  0.00     0.007 C 
ENDBRANCH  22  23
ENDBRANCH  21  22
ENDBRANCH  16  21
ENDBRANCH  13  15
ENDBRANCH  12  13
ENDBRANCH   8  12
ENDBRANCH   5   7
ENDBRANCH   4   5
ENDBRANCH   3   4
ENDBRANCH   2   3
ENDBRANCH   1   2
BRANCH   1  25
ATOM     25  C   UNL A   1      34.045  29.505  26.588  1.00  0.00     0.188 C 
BRANCH  25  26
ATOM     26  C   UNL A   1      34.875  29.311  27.869  1.00  0.00     0.188 C 
BRANCH  26  27
ATOM     27  O   UNL A   1      36.263  29.578  27.729  1.00  0.00    -0.376 OA
BRANCH  27  28
ATOM     28  C   UNL A   1      36.999  29.619  28.942  1.00  0.00     0.202 C 
BRANCH  28  29
ATOM     29  C   UNL A   1      36.150  30.137  30.106  1.00  0.00     0.261 C 
BRANCH  29  30
ATOM     30  O   UNL A   1      36.389  29.461  31.354  1.00  0.00    -0.460 OA
BRANCH  30  31
ATOM     31  C   UNL A   1      37.156  30.122  32.251  1.00  0.00     0.338 C 
ATOM     32  O   UNL A   1      36.777  30.922  33.086  1.00  0.00    -0.246 OA
BRANCH  31  33
ATOM     33  C   UNL A   1      38.528  29.578  32.183  1.00  0.00     0.060 A 
ATOM     34  C   UNL A   1      38.706  28.196  32.298  1.00  0.00     0.016 A 
ATOM     35  C   UNL A   1      39.629  30.426  32.029  1.00  0.00     0.016 A 
ATOM     36  C   UNL A   1      39.995  27.660  32.308  1.00  0.00     0.010 A 
ATOM     37  C   UNL A   1      40.920  29.887  32.047  1.00  0.00     0.010 A 
ATOM     38  C   UNL A   1      41.112  28.506  32.224  1.00  0.00    -0.014 A 
BRANCH  38  39
ATOM     39  C   UNL A   1      42.468  27.955  32.465  1.00  0.00     0.031 A 
ATOM     40  C   UNL A   1      43.302  27.519  31.289  1.00  0.00     0.074 A 
ATOM     41  C   UNL A   1      42.966  27.855  33.712  1.00  0.00     0.049 A 
ATOM     42  N   UNL A   1      44.532  27.075  31.266  1.00  0.00    -0.248 NA
ATOM     43  C   UNL A   1      42.662  27.591  29.965  1.00  0.00     0.031 C 
ATOM     44  C   UNL A   1      42.256  28.214  34.938  1.00  0.00     0.029 A 
ATOM     45  N   UNL A   1      44.188  27.405  34.147  1.00  0.00    -0.354 N 
ATOM     46  C   UNL A   1      44.812  26.803  29.931  1.00  0.00     0.074 A 
ATOM     47  C   UNL A   1      43.614  27.108  29.178  1.00  0.00     0.031 C 
ATOM     48  C   UNL A   1      43.051  27.954  35.991  1.00  0.00     0.029 A 
ATOM     49  C   UNL A   1      44.321  27.409  35.515  1.00  0.00     0.049 A 
ATOM     50  H   UNL A   1      44.901  27.108  33.538  1.00  0.00     0.167 HD
ATOM     51  C   UNL A   1      45.967  26.363  29.376  1.00  0.00     0.034 A 
ATOM     52  C   UNL A   1      45.350  27.016  36.294  1.00  0.00     0.034 A 
ATOM     53  C   UNL A   1      47.164  26.071  30.117  1.00  0.00     0.049 A 
ATOM     54  C   UNL A   1      46.626  26.536  35.651  1.00  0.00     0.074 A 
ATOM     55  C   UNL A   1      48.397  25.666  29.635  1.00  0.00     0.029 A 
ATOM     56  N   UNL A   1      47.279  26.139  31.496  1.00  0.00    -0.354 N 
ATOM     57  N   UNL A   1      46.924  26.430  34.378  1.00  0.00    -0.248 NA
ATOM     58  C   UNL A   1      47.726  26.165  36.555  1.00  0.00     0.031 C 
ATOM     59  C   UNL A   1      49.252  25.470  30.726  1.00  0.00     0.029 A 
ATOM     60  C   UNL A   1      48.558  25.777  31.885  1.00  0.00     0.049 A 
ATOM     61  H   UNL A   1      46.556  26.404  32.110  1.00  0.00     0.167 HD
ATOM     62  C   UNL A   1      48.252  26.018  34.329  1.00  0.00     0.074 A 
ATOM     63  C   UNL A   1      48.709  25.919  35.700  1.00  0.00     0.031 C 
ATOM     64  C   UNL A   1      49.022  25.732  33.248  1.00  0.00     0.034 A 
BRANCH  51  65
ATOM     65  C   UNL A   1      46.001  26.210  27.878  1.00  0.00     0.023 A 
ATOM     66  C   UNL A   1      46.417  27.297  27.080  1.00  0.00     0.012 A 
ATOM     67  C   UNL A   1      45.678  24.985  27.264  1.00  0.00     0.148 A 
ATOM     68  C   UNL A   1      46.482  27.175  25.693  1.00  0.00     0.002 A 
ATOM     69  C   UNL A   1      45.786  24.859  25.884  1.00  0.00     0.091 A 
ATOM     70  F   UNL A   1      45.262  23.972  28.037  1.00  0.00    -0.205 F 
ATOM     71  C   UNL A   1      46.177  25.956  25.096  1.00  0.00     0.022 A 
BRANCH  69  72
ATOM     72  S   UNL A   1      45.490  23.308  25.028  1.00  0.00     0.127 S 
ATOM     73  O   UNL A   1      44.028  23.260  25.002  1.00  0.00    -0.237 OA
ATOM     74  O   UNL A   1      46.115  23.548  23.727  1.00  0.00    -0.237 OA
ATOM     75  O   UNL A   1      46.135  22.278  25.830  1.00  0.00    -0.744 OA
ENDBRANCH  69  72
ENDBRANCH  51  65
BRANCH  52  76
ATOM     76  C   UNL A   1      45.244  27.122  37.777  1.00  0.00     0.023 A 
ATOM     77  C   UNL A   1      44.752  26.028  38.518  1.00  0.00     0.012 A 
ATOM     78  C   UNL A   1      45.630  28.294  38.455  1.00  0.00     0.148 A 
ATOM     79  C   UNL A   1      44.614  26.113  39.904  1.00  0.00     0.002 A 
ATOM     80  C   UNL A   1      45.541  28.352  39.841  1.00  0.00     0.091 A 
ATOM     81  F   UNL A   1      46.076  29.329  37.731  1.00  0.00    -0.205 F 
ATOM     82  C   UNL A   1      45.018  27.269  40.567  1.00  0.00     0.022 A 
BRANCH  80  83
ATOM     83  S   UNL A   1      46.146  29.754  40.787  1.00  0.00     0.127 S 
ATOM     84  O   UNL A   1      45.803  29.365  42.152  1.00  0.00    -0.237 OA
ATOM     85  O   UNL A   1      47.578  29.730  40.481  1.00  0.00    -0.237 OA
ATOM     86  O   UNL A   1      45.440  30.915  40.261  1.00  0.00    -0.744 OA
ENDBRANCH  80  83
ENDBRANCH  52  76
BRANCH  64  87
ATOM     87  C   UNL A   1      50.451  25.317  33.497  1.00  0.00     0.023 A 
ATOM     88  C   UNL A   1      50.771  23.951  33.633  1.00  0.00     0.012 A 
ATOM     89  C   UNL A   1      51.484  26.274  33.547  1.00  0.00     0.148 A 
ATOM     90  C   UNL A   1      52.087  23.549  33.862  1.00  0.00     0.002 A 
ATOM     91  C   UNL A   1      52.800  25.861  33.727  1.00  0.00     0.091 A 
ATOM     92  F   UNL A   1      51.164  27.572  33.435  1.00  0.00    -0.205 F 
ATOM     93  C   UNL A   1      53.102  24.501  33.900  1.00  0.00     0.022 A 
BRANCH  91  94
ATOM     94  S   UNL A   1      54.174  27.019  33.692  1.00  0.00     0.127 S 
ATOM     95  O   UNL A   1      53.931  27.736  32.442  1.00  0.00    -0.237 OA
ATOM     96  O   UNL A   1      53.949  27.814  34.902  1.00  0.00    -0.237 OA
ATOM     97  O   UNL A   1      55.379  26.202  33.730  1.00  0.00    -0.744 OA
ENDBRANCH  91  94
ENDBRANCH  64  87
ENDBRANCH  38  39
ENDBRANCH  31  33
ENDBRANCH  30  31
ENDBRANCH  29  30
ENDBRANCH  28  29
ENDBRANCH  27  28
ENDBRANCH  26  27
ENDBRANCH  25  26
ENDBRANCH   1  25
TORSDOF 26
ENDMDL
