MODEL 1
REMARK VINA RESULT:     -11.7      0.000      0.000
REMARK SMILES O=C(OCCOCCOCCOC(=O)c1ccc(N2C(=O)/C(=C\c3ccc4c(c3)OCO4)[NH+]=C2c2ccccc2)cc1)c1ccc(-c2c3nc(c(-c4cccc(S(=O)(=O)[O-])c4F)c4ccc([nH]4)c(-c4cccc(S(=O)(=O)[O-])c4F)c4nc(c(-c5cccc(S(=O)(=O)[O-])c5F)c5ccc2[nH]5)C=C4)C=C3)cc1
REMARK SMILES IDX 7 1 6 2 5 3 4 4 3 5 2 6 1 7 43 8 44 9 105 10 45 11 104 12
REMARK SMILES IDX 46 13 47 14 48 15 98 16 49 17 103 18 97 19 99 20 50 21
REMARK SMILES IDX 102 22 96 23 95 24 51 26 83 27 63 28 82 29 64 30 67 31 81 32
REMARK SMILES IDX 100 33 65 34 66 35 80 37 101 38 68 39 52 40 53 41 61 42
REMARK SMILES IDX 54 43 56 44 62 45 55 46 57 47 58 48 59 49 60 50 84 51 85 52
REMARK SMILES IDX 93 53 86 54 88 55 94 56 87 57 89 58 90 59 91 60 92 61 69 62
REMARK SMILES IDX 70 63 78 64 71 65 73 66 79 67 72 68 74 69 75 70 76 71 77 72
REMARK SMILES IDX 8 73 9 74 10 75 11 76 12 77 13 78 14 79 15 80 16 81 42 82
REMARK SMILES IDX 17 83 41 84 18 85 19 86 20 87 34 88 21 89 22 90 33 91 23 92
REMARK SMILES IDX 35 94 36 95 40 96 37 97 39 98 38 99 24 100 25 101 29 102
REMARK SMILES IDX 26 103 28 104 27 105 30 106 32 107 31 108
REMARK H PARENT 99 25 67 36 33 93
REMARK Flexibility Score: inf
ROOT
ATOM      1  C   UNL A   1      46.747  27.490  26.693  1.00  0.00     0.188 C 
ENDROOT
BRANCH   1   2
ATOM      2  O   UNL A   1      45.824  27.073  25.698  1.00  0.00    -0.376 OA
BRANCH   2   3
ATOM      3  C   UNL A   1      44.560  26.556  26.100  1.00  0.00     0.202 C 
BRANCH   3   4
ATOM      4  C   UNL A   1      43.507  26.232  25.029  1.00  0.00     0.261 C 
BRANCH   4   5
ATOM      5  O   UNL A   1      42.204  26.802  25.232  1.00  0.00    -0.460 OA
BRANCH   5   6
ATOM      6  C   UNL A   1      41.895  28.094  25.502  1.00  0.00     0.338 C 
ATOM      7  O   UNL A   1      42.013  28.946  24.627  1.00  0.00    -0.246 OA
BRANCH   6   8
ATOM      8  C   UNL A   1      41.397  28.500  26.835  1.00  0.00     0.060 A 
ATOM      9  C   UNL A   1      41.893  29.588  27.550  1.00  0.00     0.016 A 
ATOM     10  C   UNL A   1      40.305  27.818  27.354  1.00  0.00     0.016 A 
ATOM     11  C   UNL A   1      41.500  29.865  28.849  1.00  0.00     0.010 A 
ATOM     12  C   UNL A   1      39.804  28.184  28.600  1.00  0.00     0.010 A 
ATOM     13  C   UNL A   1      40.436  29.169  29.390  1.00  0.00    -0.014 A 
BRANCH  13  14
ATOM     14  C   UNL A   1      39.982  29.393  30.783  1.00  0.00     0.031 A 
ATOM     15  C   UNL A   1      38.774  30.267  30.957  1.00  0.00     0.074 A 
ATOM     16  C   UNL A   1      40.722  28.981  31.832  1.00  0.00     0.049 A 
ATOM     17  N   UNL A   1      38.434  31.023  31.961  1.00  0.00    -0.248 NA
ATOM     18  C   UNL A   1      37.876  30.371  29.790  1.00  0.00     0.031 C 
ATOM     19  C   UNL A   1      41.892  28.098  31.776  1.00  0.00     0.029 A 
ATOM     20  N   UNL A   1      40.667  29.361  33.154  1.00  0.00    -0.354 N 
ATOM     21  C   UNL A   1      37.357  31.775  31.508  1.00  0.00     0.074 A 
ATOM     22  C   UNL A   1      37.113  31.394  30.137  1.00  0.00     0.031 C 
ATOM     23  C   UNL A   1      42.478  28.053  32.982  1.00  0.00     0.029 A 
ATOM     24  C   UNL A   1      41.791  28.985  33.863  1.00  0.00     0.049 A 
ATOM     25  H   UNL A   1      39.909  29.847  33.551  1.00  0.00     0.167 HD
ATOM     26  C   UNL A   1      36.642  32.701  32.189  1.00  0.00     0.034 A 
ATOM     27  C   UNL A   1      42.275  29.437  35.035  1.00  0.00     0.034 A 
ATOM     28  C   UNL A   1      36.908  33.010  33.565  1.00  0.00     0.049 A 
ATOM     29  C   UNL A   1      41.525  30.538  35.733  1.00  0.00     0.074 A 
ATOM     30  C   UNL A   1      36.178  33.796  34.435  1.00  0.00     0.029 A 
ATOM     31  N   UNL A   1      38.011  32.543  34.268  1.00  0.00    -0.354 N 
ATOM     32  N   UNL A   1      40.436  31.161  35.352  1.00  0.00    -0.248 NA
ATOM     33  C   UNL A   1      42.055  30.984  37.028  1.00  0.00     0.031 C 
ATOM     34  C   UNL A   1      36.861  33.832  35.655  1.00  0.00     0.029 A 
ATOM     35  C   UNL A   1      37.993  33.034  35.556  1.00  0.00     0.049 A 
ATOM     36  H   UNL A   1      38.704  31.948  33.900  1.00  0.00     0.167 HD
ATOM     37  C   UNL A   1      40.079  31.979  36.418  1.00  0.00     0.074 A 
ATOM     38  C   UNL A   1      41.108  31.821  37.427  1.00  0.00     0.031 C 
ATOM     39  C   UNL A   1      38.983  32.762  36.566  1.00  0.00     0.034 A 
BRANCH  26  40
ATOM     40  C   UNL A   1      35.516  33.396  31.466  1.00  0.00     0.023 A 
ATOM     41  C   UNL A   1      34.921  32.790  30.339  1.00  0.00     0.012 A 
ATOM     42  C   UNL A   1      35.042  34.652  31.896  1.00  0.00     0.148 A 
ATOM     43  C   UNL A   1      33.934  33.450  29.607  1.00  0.00     0.002 A 
ATOM     44  C   UNL A   1      34.013  35.276  31.198  1.00  0.00     0.091 A 
ATOM     45  F   UNL A   1      35.625  35.231  32.955  1.00  0.00    -0.205 F 
ATOM     46  C   UNL A   1      33.475  34.689  30.042  1.00  0.00     0.022 A 
BRANCH  44  47
ATOM     47  S   UNL A   1      33.281  36.826  31.732  1.00  0.00     0.127 S 
ATOM     48  O   UNL A   1      32.921  37.438  30.454  1.00  0.00    -0.237 OA
ATOM     49  O   UNL A   1      32.142  36.369  32.531  1.00  0.00    -0.237 OA
ATOM     50  O   UNL A   1      34.315  37.517  32.490  1.00  0.00    -0.744 OA
ENDBRANCH  44  47
ENDBRANCH  26  40
BRANCH  27  51
ATOM     51  C   UNL A   1      43.502  28.841  35.637  1.00  0.00     0.023 A 
ATOM     52  C   UNL A   1      44.752  29.400  35.309  1.00  0.00     0.012 A 
ATOM     53  C   UNL A   1      43.460  27.764  36.540  1.00  0.00     0.148 A 
ATOM     54  C   UNL A   1      45.935  28.882  35.837  1.00  0.00     0.002 A 
ATOM     55  C   UNL A   1      44.642  27.291  37.107  1.00  0.00     0.091 A 
ATOM     56  F   UNL A   1      42.261  27.257  36.865  1.00  0.00    -0.205 F 
ATOM     57  C   UNL A   1      45.882  27.830  36.740  1.00  0.00     0.022 A 
BRANCH  55  58
ATOM     58  S   UNL A   1      44.660  26.020  38.364  1.00  0.00     0.127 S 
ATOM     59  O   UNL A   1      44.031  26.689  39.500  1.00  0.00    -0.237 OA
ATOM     60  O   UNL A   1      43.865  24.973  37.728  1.00  0.00    -0.237 OA
ATOM     61  O   UNL A   1      46.074  25.723  38.526  1.00  0.00    -0.744 OA
ENDBRANCH  55  58
ENDBRANCH  27  51
BRANCH  39  62
ATOM     62  C   UNL A   1      38.728  33.349  37.924  1.00  0.00     0.023 A 
ATOM     63  C   UNL A   1      39.249  34.604  38.284  1.00  0.00     0.012 A 
ATOM     64  C   UNL A   1      37.842  32.680  38.793  1.00  0.00     0.148 A 
ATOM     65  C   UNL A   1      38.895  35.182  39.503  1.00  0.00     0.002 A 
ATOM     66  C   UNL A   1      37.448  33.288  39.973  1.00  0.00     0.091 A 
ATOM     67  F   UNL A   1      37.384  31.472  38.431  1.00  0.00    -0.205 F 
ATOM     68  C   UNL A   1      37.982  34.534  40.336  1.00  0.00     0.022 A 
BRANCH  66  69
ATOM     69  S   UNL A   1      36.184  32.586  41.037  1.00  0.00     0.127 S 
ATOM     70  O   UNL A   1      36.912  31.493  41.681  1.00  0.00    -0.237 OA
ATOM     71  O   UNL A   1      35.863  33.710  41.915  1.00  0.00    -0.237 OA
ATOM     72  O   UNL A   1      35.097  32.173  40.158  1.00  0.00    -0.744 OA
ENDBRANCH  66  69
ENDBRANCH  39  62
ENDBRANCH  13  14
ENDBRANCH   6   8
ENDBRANCH   5   6
ENDBRANCH   4   5
ENDBRANCH   3   4
ENDBRANCH   2   3
ENDBRANCH   1   2
BRANCH   1  73
ATOM     73  C   UNL A   1      46.185  27.302  28.108  1.00  0.00     0.188 C 
BRANCH  73  74
ATOM     74  O   UNL A   1      46.459  28.342  29.040  1.00  0.00    -0.376 OA
BRANCH  74  75
ATOM     75  C   UNL A   1      46.734  27.934  30.376  1.00  0.00     0.202 C 
BRANCH  75  76
ATOM     76  C   UNL A   1      46.167  26.589  30.879  1.00  0.00     0.261 C 
BRANCH  76  77
ATOM     77  O   UNL A   1      44.728  26.418  30.889  1.00  0.00    -0.460 OA
BRANCH  77  78
ATOM     78  C   UNL A   1      44.319  25.128  31.057  1.00  0.00     0.338 C 
ATOM     79  O   UNL A   1      44.618  24.416  32.005  1.00  0.00    -0.246 OA
BRANCH  78  80
ATOM     80  C   UNL A   1      43.531  24.587  29.910  1.00  0.00     0.060 A 
ATOM     81  C   UNL A   1      42.760  25.366  29.035  1.00  0.00     0.020 A 
ATOM     82  C   UNL A   1      43.461  23.196  29.800  1.00  0.00     0.020 A 
ATOM     83  C   UNL A   1      41.932  24.750  28.057  1.00  0.00     0.053 A 
ATOM     84  C   UNL A   1      42.603  22.595  28.868  1.00  0.00     0.053 A 
ATOM     85  C   UNL A   1      41.824  23.354  27.980  1.00  0.00     0.136 A 
BRANCH  85  86
ATOM     86  N   UNL A   1      40.953  22.667  27.092  1.00  0.00    -0.154 N 
ATOM     87  C   UNL A   1      39.681  23.127  26.782  1.00  0.00     0.385 C 
ATOM     88  C   UNL A   1      41.123  21.526  26.366  1.00  0.00     0.295 C 
ATOM     89  O   UNL A   1      39.269  24.277  26.810  1.00  0.00    -0.236 OA
ATOM     90  C   UNL A   1      39.077  21.952  26.046  1.00  0.00     0.216 C 
ATOM     91  N   UNL A   1      40.078  21.074  25.735  1.00  0.00    -0.233 N 
ATOM     92  C   UNL A   1      37.807  21.681  25.704  1.00  0.00     0.068 C 
ATOM     93  H   UNL A   1      40.022  20.276  25.161  1.00  0.00     0.312 HD
BRANCH  88  94
ATOM     94  C   UNL A   1      42.320  20.698  26.302  1.00  0.00     0.065 A 
ATOM     95  C   UNL A   1      43.404  21.155  25.542  1.00  0.00     0.017 A 
ATOM     96  C   UNL A   1      42.120  19.336  26.495  1.00  0.00     0.017 A 
ATOM     97  C   UNL A   1      44.306  20.235  25.005  1.00  0.00     0.001 A 
ATOM     98  C   UNL A   1      43.005  18.424  25.929  1.00  0.00     0.001 A 
ATOM     99  C   UNL A   1      44.101  18.868  25.193  1.00  0.00     0.000 A 
ENDBRANCH  88  94
BRANCH  92 100
ATOM    100  C   UNL A   1      36.703  22.609  25.892  1.00  0.00    -0.017 A 
ATOM    101  C   UNL A   1      36.499  23.702  25.024  1.00  0.00     0.012 A 
ATOM    102  C   UNL A   1      35.764  22.285  26.873  1.00  0.00     0.059 A 
ATOM    103  C   UNL A   1      35.288  24.401  25.042  1.00  0.00     0.051 A 
ATOM    104  C   UNL A   1      34.567  22.946  26.824  1.00  0.00     0.166 A 
ATOM    105  C   UNL A   1      34.324  23.958  25.918  1.00  0.00     0.165 A 
ATOM    106  O   UNL A   1      33.451  22.595  27.522  1.00  0.00    -0.454 OA
ATOM    107  O   UNL A   1      33.013  24.339  25.944  1.00  0.00    -0.454 OA
ATOM    108  C   UNL A   1      32.473  23.213  26.667  1.00  0.00     0.468 C 
ENDBRANCH  92 100
ENDBRANCH  85  86
ENDBRANCH  78  80
ENDBRANCH  77  78
ENDBRANCH  76  77
ENDBRANCH  75  76
ENDBRANCH  74  75
ENDBRANCH  73  74
ENDBRANCH   1  73
TORSDOF 23
ENDMDL
MODEL 2
REMARK VINA RESULT:     -10.9      6.017     13.253
REMARK SMILES O=C(OCCOCCOCCOC(=O)c1ccc(N2C(=O)/C(=C\c3ccc4c(c3)OCO4)[NH+]=C2c2ccccc2)cc1)c1ccc(-c2c3nc(c(-c4cccc(S(=O)(=O)[O-])c4F)c4ccc([nH]4)c(-c4cccc(S(=O)(=O)[O-])c4F)c4nc(c(-c5cccc(S(=O)(=O)[O-])c5F)c5ccc2[nH]5)C=C4)C=C3)cc1
REMARK SMILES IDX 7 1 6 2 5 3 4 4 3 5 2 6 1 7 43 8 44 9 105 10 45 11 104 12
REMARK SMILES IDX 46 13 47 14 48 15 98 16 49 17 103 18 97 19 99 20 50 21
REMARK SMILES IDX 102 22 96 23 95 24 51 26 83 27 63 28 82 29 64 30 67 31 81 32
REMARK SMILES IDX 100 33 65 34 66 35 80 37 101 38 68 39 52 40 53 41 61 42
REMARK SMILES IDX 54 43 56 44 62 45 55 46 57 47 58 48 59 49 60 50 84 51 85 52
REMARK SMILES IDX 93 53 86 54 88 55 94 56 87 57 89 58 90 59 91 60 92 61 69 62
REMARK SMILES IDX 70 63 78 64 71 65 73 66 79 67 72 68 74 69 75 70 76 71 77 72
REMARK SMILES IDX 8 73 9 74 10 75 11 76 12 77 13 78 14 79 15 80 16 81 42 82
REMARK SMILES IDX 17 83 41 84 18 85 19 86 20 87 34 88 21 89 22 90 33 91 23 92
REMARK SMILES IDX 35 94 36 95 40 96 37 97 39 98 38 99 24 100 25 101 29 102
REMARK SMILES IDX 26 103 28 104 27 105 30 106 32 107 31 108
REMARK H PARENT 99 25 67 36 33 93
REMARK Flexibility Score: inf
ROOT
ATOM      1  C   UNL A   1      35.816  32.851  30.856  1.00  0.00     0.188 C 
ENDROOT
BRANCH   1   2
ATOM      2  O   UNL A   1      35.584  31.901  31.886  1.00  0.00    -0.376 OA
BRANCH   2   3
ATOM      3  C   UNL A   1      36.221  30.631  31.810  1.00  0.00     0.202 C 
BRANCH   3   4
ATOM      4  C   UNL A   1      37.754  30.563  31.734  1.00  0.00     0.261 C 
BRANCH   4   5
ATOM      5  O   UNL A   1      38.469  31.333  32.714  1.00  0.00    -0.460 OA
BRANCH   5   6
ATOM      6  C   UNL A   1      39.486  32.205  32.505  1.00  0.00     0.338 C 
ATOM      7  O   UNL A   1      39.544  33.244  33.157  1.00  0.00    -0.246 OA
BRANCH   6   8
ATOM      8  C   UNL A   1      40.547  31.921  31.513  1.00  0.00     0.060 A 
ATOM      9  C   UNL A   1      40.538  32.409  30.208  1.00  0.00     0.016 A 
ATOM     10  C   UNL A   1      41.662  31.214  31.942  1.00  0.00     0.016 A 
ATOM     11  C   UNL A   1      41.475  32.020  29.264  1.00  0.00     0.010 A 
ATOM     12  C   UNL A   1      42.683  30.942  31.036  1.00  0.00     0.010 A 
ATOM     13  C   UNL A   1      42.572  31.286  29.672  1.00  0.00    -0.014 A 
BRANCH  13  14
ATOM     14  C   UNL A   1      43.596  30.811  28.711  1.00  0.00     0.031 A 
ATOM     15  C   UNL A   1      43.656  29.329  28.480  1.00  0.00     0.074 A 
ATOM     16  C   UNL A   1      44.531  31.649  28.217  1.00  0.00     0.049 A 
ATOM     17  N   UNL A   1      44.666  28.584  28.131  1.00  0.00    -0.248 NA
ATOM     18  C   UNL A   1      42.424  28.576  28.782  1.00  0.00     0.031 C 
ATOM     19  C   UNL A   1      44.544  33.109  28.350  1.00  0.00     0.029 A 
ATOM     20  N   UNL A   1      45.729  31.369  27.602  1.00  0.00    -0.354 N 
ATOM     21  C   UNL A   1      44.226  27.274  28.282  1.00  0.00     0.074 A 
ATOM     22  C   UNL A   1      42.867  27.330  28.769  1.00  0.00     0.031 C 
ATOM     23  C   UNL A   1      45.711  33.591  27.895  1.00  0.00     0.029 A 
ATOM     24  C   UNL A   1      46.564  32.468  27.541  1.00  0.00     0.049 A 
ATOM     25  H   UNL A   1      45.966  30.484  27.245  1.00  0.00     0.167 HD
ATOM     26  C   UNL A   1      44.909  26.132  28.032  1.00  0.00     0.034 A 
ATOM     27  C   UNL A   1      47.895  32.543  27.345  1.00  0.00     0.034 A 
ATOM     28  C   UNL A   1      46.246  26.141  27.512  1.00  0.00     0.049 A 
ATOM     29  C   UNL A   1      48.658  31.258  27.168  1.00  0.00     0.074 A 
ATOM     30  C   UNL A   1      47.006  25.082  27.055  1.00  0.00     0.029 A 
ATOM     31  N   UNL A   1      47.025  27.283  27.389  1.00  0.00    -0.354 N 
ATOM     32  N   UNL A   1      48.210  30.026  27.194  1.00  0.00    -0.248 NA
ATOM     33  C   UNL A   1      50.100  31.374  26.918  1.00  0.00     0.031 C 
ATOM     34  C   UNL A   1      48.260  25.582  26.691  1.00  0.00     0.029 A 
ATOM     35  C   UNL A   1      48.264  26.957  26.879  1.00  0.00     0.049 A 
ATOM     36  H   UNL A   1      46.736  28.193  27.630  1.00  0.00     0.167 HD
ATOM     37  C   UNL A   1      49.290  29.228  26.834  1.00  0.00     0.074 A 
ATOM     38  C   UNL A   1      50.426  30.113  26.666  1.00  0.00     0.031 C 
ATOM     39  C   UNL A   1      49.333  27.889  26.624  1.00  0.00     0.034 A 
BRANCH  26  40
ATOM     40  C   UNL A   1      44.209  24.821  28.288  1.00  0.00     0.023 A 
ATOM     41  C   UNL A   1      44.189  24.273  29.588  1.00  0.00     0.012 A 
ATOM     42  C   UNL A   1      43.569  24.123  27.244  1.00  0.00     0.148 A 
ATOM     43  C   UNL A   1      43.619  23.024  29.832  1.00  0.00     0.002 A 
ATOM     44  C   UNL A   1      42.946  22.907  27.507  1.00  0.00     0.091 A 
ATOM     45  F   UNL A   1      43.609  24.639  26.007  1.00  0.00    -0.205 F 
ATOM     46  C   UNL A   1      42.991  22.346  28.793  1.00  0.00     0.022 A 
BRANCH  44  47
ATOM     47  S   UNL A   1      42.024  22.001  26.261  1.00  0.00     0.127 S 
ATOM     48  O   UNL A   1      40.938  22.934  25.962  1.00  0.00    -0.237 OA
ATOM     49  O   UNL A   1      43.013  21.856  25.192  1.00  0.00    -0.237 OA
ATOM     50  O   UNL A   1      41.622  20.751  26.891  1.00  0.00    -0.744 OA
ENDBRANCH  44  47
ENDBRANCH  26  40
BRANCH  27  51
ATOM     51  C   UNL A   1      48.585  33.863  27.274  1.00  0.00     0.023 A 
ATOM     52  C   UNL A   1      48.674  34.508  26.025  1.00  0.00     0.012 A 
ATOM     53  C   UNL A   1      49.123  34.501  28.404  1.00  0.00     0.148 A 
ATOM     54  C   UNL A   1      49.312  35.743  25.895  1.00  0.00     0.002 A 
ATOM     55  C   UNL A   1      49.707  35.760  28.274  1.00  0.00     0.091 A 
ATOM     56  F   UNL A   1      49.009  33.888  29.592  1.00  0.00    -0.205 F 
ATOM     57  C   UNL A   1      49.825  36.372  27.021  1.00  0.00     0.022 A 
BRANCH  55  58
ATOM     58  S   UNL A   1      50.289  36.696  29.683  1.00  0.00     0.127 S 
ATOM     59  O   UNL A   1      51.036  37.782  29.054  1.00  0.00    -0.237 OA
ATOM     60  O   UNL A   1      49.030  37.079  30.315  1.00  0.00    -0.237 OA
ATOM     61  O   UNL A   1      51.094  35.736  30.418  1.00  0.00    -0.744 OA
ENDBRANCH  55  58
ENDBRANCH  27  51
BRANCH  39  62
ATOM     62  C   UNL A   1      50.576  27.323  26.004  1.00  0.00     0.023 A 
ATOM     63  C   UNL A   1      51.438  26.486  26.733  1.00  0.00     0.012 A 
ATOM     64  C   UNL A   1      50.802  27.537  24.629  1.00  0.00     0.148 A 
ATOM     65  C   UNL A   1      52.518  25.873  26.099  1.00  0.00     0.002 A 
ATOM     66  C   UNL A   1      51.840  26.876  23.993  1.00  0.00     0.091 A 
ATOM     67  F   UNL A   1      49.976  28.362  23.968  1.00  0.00    -0.205 F 
ATOM     68  C   UNL A   1      52.707  26.053  24.728  1.00  0.00     0.022 A 
BRANCH  66  69
ATOM     69  S   UNL A   1      52.075  26.950  22.214  1.00  0.00     0.127 S 
ATOM     70  O   UNL A   1      53.125  25.952  22.012  1.00  0.00    -0.237 OA
ATOM     71  O   UNL A   1      50.756  26.563  21.715  1.00  0.00    -0.237 OA
ATOM     72  O   UNL A   1      52.460  28.323  21.912  1.00  0.00    -0.744 OA
ENDBRANCH  66  69
ENDBRANCH  39  62
ENDBRANCH  13  14
ENDBRANCH   6   8
ENDBRANCH   5   6
ENDBRANCH   4   5
ENDBRANCH   3   4
ENDBRANCH   2   3
ENDBRANCH   1   2
BRANCH   1  73
ATOM     73  C   UNL A   1      34.816  34.013  30.916  1.00  0.00     0.188 C 
BRANCH  73  74
ATOM     74  O   UNL A   1      33.640  33.876  30.128  1.00  0.00    -0.376 OA
BRANCH  74  75
ATOM     75  C   UNL A   1      33.775  34.160  28.738  1.00  0.00     0.202 C 
BRANCH  75  76
ATOM     76  C   UNL A   1      33.806  32.987  27.736  1.00  0.00     0.261 C 
BRANCH  76  77
ATOM     77  O   UNL A   1      33.400  31.678  28.207  1.00  0.00    -0.460 OA
BRANCH  77  78
ATOM     78  C   UNL A   1      34.216  30.661  27.807  1.00  0.00     0.338 C 
ATOM     79  O   UNL A   1      35.418  30.600  28.023  1.00  0.00    -0.246 OA
BRANCH  78  80
ATOM     80  C   UNL A   1      33.535  29.632  26.965  1.00  0.00     0.060 A 
ATOM     81  C   UNL A   1      32.291  29.056  27.261  1.00  0.00     0.020 A 
ATOM     82  C   UNL A   1      34.264  29.125  25.886  1.00  0.00     0.020 A 
ATOM     83  C   UNL A   1      31.785  27.983  26.476  1.00  0.00     0.053 A 
ATOM     84  C   UNL A   1      33.783  28.034  25.149  1.00  0.00     0.053 A 
ATOM     85  C   UNL A   1      32.540  27.442  25.426  1.00  0.00     0.136 A 
BRANCH  85  86
ATOM     86  N   UNL A   1      32.144  26.317  24.655  1.00  0.00    -0.154 N 
ATOM     87  C   UNL A   1      32.584  25.028  24.924  1.00  0.00     0.385 C 
ATOM     88  C   UNL A   1      31.299  26.205  23.590  1.00  0.00     0.295 C 
ATOM     89  O   UNL A   1      32.958  24.570  25.994  1.00  0.00    -0.236 OA
ATOM     90  C   UNL A   1      32.122  24.260  23.706  1.00  0.00     0.216 C 
ATOM     91  N   UNL A   1      31.240  25.040  23.011  1.00  0.00    -0.233 N 
ATOM     92  C   UNL A   1      32.445  23.037  23.258  1.00  0.00     0.068 C 
ATOM     93  H   UNL A   1      30.683  24.780  22.243  1.00  0.00     0.312 HD
BRANCH  88  94
ATOM     94  C   UNL A   1      30.535  27.274  22.962  1.00  0.00     0.065 A 
ATOM     95  C   UNL A   1      31.230  28.384  22.464  1.00  0.00     0.017 A 
ATOM     96  C   UNL A   1      29.218  27.402  23.389  1.00  0.00     0.017 A 
ATOM     97  C   UNL A   1      30.582  29.616  22.365  1.00  0.00     0.001 A 
ATOM     98  C   UNL A   1      28.589  28.642  23.318  1.00  0.00     0.001 A 
ATOM     99  C   UNL A   1      29.263  29.745  22.800  1.00  0.00     0.000 A 
ENDBRANCH  88  94
BRANCH  92 100
ATOM    100  C   UNL A   1      33.281  22.100  23.992  1.00  0.00    -0.017 A 
ATOM    101  C   UNL A   1      32.862  20.776  24.244  1.00  0.00     0.012 A 
ATOM    102  C   UNL A   1      34.576  22.516  24.303  1.00  0.00     0.059 A 
ATOM    103  C   UNL A   1      33.780  19.818  24.686  1.00  0.00     0.051 A 
ATOM    104  C   UNL A   1      35.464  21.544  24.675  1.00  0.00     0.166 A 
ATOM    105  C   UNL A   1      35.086  20.227  24.837  1.00  0.00     0.165 A 
ATOM    106  O   UNL A   1      36.813  21.711  24.768  1.00  0.00    -0.454 OA
ATOM    107  O   UNL A   1      36.171  19.422  25.035  1.00  0.00    -0.454 OA
ATOM    108  C   UNL A   1      37.201  20.335  24.603  1.00  0.00     0.468 C 
ENDBRANCH  92 100
ENDBRANCH  85  86
ENDBRANCH  78  80
ENDBRANCH  77  78
ENDBRANCH  76  77
ENDBRANCH  75  76
ENDBRANCH  74  75
ENDBRANCH  73  74
ENDBRANCH   1  73
TORSDOF 23
ENDMDL
MODEL 3
REMARK VINA RESULT:     -10.9      6.009     10.247
REMARK SMILES O=C(OCCOCCOCCOC(=O)c1ccc(N2C(=O)/C(=C\c3ccc4c(c3)OCO4)[NH+]=C2c2ccccc2)cc1)c1ccc(-c2c3nc(c(-c4cccc(S(=O)(=O)[O-])c4F)c4ccc([nH]4)c(-c4cccc(S(=O)(=O)[O-])c4F)c4nc(c(-c5cccc(S(=O)(=O)[O-])c5F)c5ccc2[nH]5)C=C4)C=C3)cc1
REMARK SMILES IDX 7 1 6 2 5 3 4 4 3 5 2 6 1 7 43 8 44 9 105 10 45 11 104 12
REMARK SMILES IDX 46 13 47 14 48 15 98 16 49 17 103 18 97 19 99 20 50 21
REMARK SMILES IDX 102 22 96 23 95 24 51 26 83 27 63 28 82 29 64 30 67 31 81 32
REMARK SMILES IDX 100 33 65 34 66 35 80 37 101 38 68 39 52 40 53 41 61 42
REMARK SMILES IDX 54 43 56 44 62 45 55 46 57 47 58 48 59 49 60 50 84 51 85 52
REMARK SMILES IDX 93 53 86 54 88 55 94 56 87 57 89 58 90 59 91 60 92 61 69 62
REMARK SMILES IDX 70 63 78 64 71 65 73 66 79 67 72 68 74 69 75 70 76 71 77 72
REMARK SMILES IDX 8 73 9 74 10 75 11 76 12 77 13 78 14 79 15 80 16 81 42 82
REMARK SMILES IDX 17 83 41 84 18 85 19 86 20 87 34 88 21 89 22 90 33 91 23 92
REMARK SMILES IDX 35 94 36 95 40 96 37 97 39 98 38 99 24 100 25 101 29 102
REMARK SMILES IDX 26 103 28 104 27 105 30 106 32 107 31 108
REMARK H PARENT 99 25 67 36 33 93
REMARK Flexibility Score: inf
ROOT
ATOM      1  C   UNL A   1      36.491  32.814  30.806  1.00  0.00     0.188 C 
ENDROOT
BRANCH   1   2
ATOM      2  O   UNL A   1      36.243  31.416  30.774  1.00  0.00    -0.376 OA
BRANCH   2   3
ATOM      3  C   UNL A   1      37.143  30.571  30.065  1.00  0.00     0.202 C 
BRANCH   3   4
ATOM      4  C   UNL A   1      38.558  30.349  30.620  1.00  0.00     0.261 C 
BRANCH   4   5
ATOM      5  O   UNL A   1      38.682  29.358  31.653  1.00  0.00    -0.460 OA
BRANCH   5   6
ATOM      6  C   UNL A   1      38.107  29.360  32.881  1.00  0.00     0.338 C 
ATOM      7  O   UNL A   1      37.410  28.413  33.230  1.00  0.00    -0.246 OA
BRANCH   6   8
ATOM      8  C   UNL A   1      38.316  30.482  33.823  1.00  0.00     0.060 A 
ATOM      9  C   UNL A   1      37.408  31.523  34.004  1.00  0.00     0.016 A 
ATOM     10  C   UNL A   1      39.434  30.436  34.646  1.00  0.00     0.016 A 
ATOM     11  C   UNL A   1      37.691  32.626  34.795  1.00  0.00     0.010 A 
ATOM     12  C   UNL A   1      39.653  31.469  35.552  1.00  0.00     0.010 A 
ATOM     13  C   UNL A   1      38.819  32.607  35.592  1.00  0.00    -0.014 A 
BRANCH  13  14
ATOM     14  C   UNL A   1      39.196  33.764  36.438  1.00  0.00     0.031 A 
ATOM     15  C   UNL A   1      40.214  34.706  35.863  1.00  0.00     0.074 A 
ATOM     16  C   UNL A   1      38.782  33.856  37.718  1.00  0.00     0.049 A 
ATOM     17  N   UNL A   1      41.077  35.468  36.471  1.00  0.00    -0.248 NA
ATOM     18  C   UNL A   1      40.333  34.711  34.392  1.00  0.00     0.031 C 
ATOM     19  C   UNL A   1      37.769  33.016  38.365  1.00  0.00     0.029 A 
ATOM     20  N   UNL A   1      39.262  34.633  38.747  1.00  0.00    -0.354 N 
ATOM     21  C   UNL A   1      41.911  35.951  35.470  1.00  0.00     0.074 A 
ATOM     22  C   UNL A   1      41.460  35.382  34.222  1.00  0.00     0.031 C 
ATOM     23  C   UNL A   1      37.747  33.273  39.682  1.00  0.00     0.029 A 
ATOM     24  C   UNL A   1      38.814  34.215  39.984  1.00  0.00     0.049 A 
ATOM     25  H   UNL A   1      39.860  35.404  38.616  1.00  0.00     0.167 HD
ATOM     26  C   UNL A   1      42.962  36.795  35.597  1.00  0.00     0.034 A 
ATOM     27  C   UNL A   1      39.293  34.465  41.218  1.00  0.00     0.034 A 
ATOM     28  C   UNL A   1      43.340  37.360  36.861  1.00  0.00     0.049 A 
ATOM     29  C   UNL A   1      40.522  35.325  41.338  1.00  0.00     0.074 A 
ATOM     30  C   UNL A   1      44.266  38.348  37.128  1.00  0.00     0.029 A 
ATOM     31  N   UNL A   1      42.803  36.967  38.080  1.00  0.00    -0.354 N 
ATOM     32  N   UNL A   1      41.236  35.876  40.387  1.00  0.00    -0.248 NA
ATOM     33  C   UNL A   1      40.999  35.612  42.697  1.00  0.00     0.031 C 
ATOM     34  C   UNL A   1      44.315  38.526  38.514  1.00  0.00     0.029 A 
ATOM     35  C   UNL A   1      43.387  37.679  39.105  1.00  0.00     0.049 A 
ATOM     36  H   UNL A   1      42.106  36.280  38.195  1.00  0.00     0.167 HD
ATOM     37  C   UNL A   1      42.167  36.680  41.034  1.00  0.00     0.074 A 
ATOM     38  C   UNL A   1      41.967  36.485  42.457  1.00  0.00     0.031 C 
ATOM     39  C   UNL A   1      43.079  37.531  40.505  1.00  0.00     0.034 A 
BRANCH  26  40
ATOM     40  C   UNL A   1      43.725  37.164  34.350  1.00  0.00     0.023 A 
ATOM     41  C   UNL A   1      44.638  36.250  33.784  1.00  0.00     0.012 A 
ATOM     42  C   UNL A   1      43.545  38.419  33.732  1.00  0.00     0.148 A 
ATOM     43  C   UNL A   1      45.414  36.600  32.679  1.00  0.00     0.002 A 
ATOM     44  C   UNL A   1      44.276  38.737  32.592  1.00  0.00     0.091 A 
ATOM     45  F   UNL A   1      42.691  39.291  34.286  1.00  0.00    -0.205 F 
ATOM     46  C   UNL A   1      45.226  37.841  32.079  1.00  0.00     0.022 A 
BRANCH  44  47
ATOM     47  S   UNL A   1      44.037  40.269  31.685  1.00  0.00     0.127 S 
ATOM     48  O   UNL A   1      44.703  39.968  30.418  1.00  0.00    -0.237 OA
ATOM     49  O   UNL A   1      42.578  40.352  31.602  1.00  0.00    -0.237 OA
ATOM     50  O   UNL A   1      44.660  41.312  32.489  1.00  0.00    -0.744 OA
ENDBRANCH  44  47
ENDBRANCH  26  40
BRANCH  27  51
ATOM     51  C   UNL A   1      38.607  33.931  42.429  1.00  0.00     0.023 A 
ATOM     52  C   UNL A   1      37.639  34.735  43.063  1.00  0.00     0.012 A 
ATOM     53  C   UNL A   1      38.864  32.650  42.946  1.00  0.00     0.148 A 
ATOM     54  C   UNL A   1      36.967  34.291  44.202  1.00  0.00     0.002 A 
ATOM     55  C   UNL A   1      38.147  32.193  44.050  1.00  0.00     0.091 A 
ATOM     56  F   UNL A   1      39.770  31.884  42.318  1.00  0.00    -0.205 F 
ATOM     57  C   UNL A   1      37.217  33.018  44.695  1.00  0.00     0.022 A 
BRANCH  55  58
ATOM     58  S   UNL A   1      38.317  30.529  44.682  1.00  0.00     0.127 S 
ATOM     59  O   UNL A   1      39.735  30.465  45.027  1.00  0.00    -0.237 OA
ATOM     60  O   UNL A   1      37.392  30.553  45.812  1.00  0.00    -0.237 OA
ATOM     61  O   UNL A   1      37.916  29.697  43.560  1.00  0.00    -0.744 OA
ENDBRANCH  55  58
ENDBRANCH  27  51
BRANCH  39  62
ATOM     62  C   UNL A   1      43.791  38.459  41.444  1.00  0.00     0.023 A 
ATOM     63  C   UNL A   1      43.224  39.688  41.825  1.00  0.00     0.012 A 
ATOM     64  C   UNL A   1      44.987  38.021  42.049  1.00  0.00     0.148 A 
ATOM     65  C   UNL A   1      43.847  40.474  42.793  1.00  0.00     0.002 A 
ATOM     66  C   UNL A   1      45.566  38.778  43.054  1.00  0.00     0.091 A 
ATOM     67  F   UNL A   1      45.516  36.856  41.645  1.00  0.00    -0.205 F 
ATOM     68  C   UNL A   1      45.004  40.010  43.420  1.00  0.00     0.022 A 
BRANCH  66  69
ATOM     69  S   UNL A   1      46.979  38.197  43.998  1.00  0.00     0.127 S 
ATOM     70  O   UNL A   1      46.416  37.039  44.691  1.00  0.00    -0.237 OA
ATOM     71  O   UNL A   1      47.939  37.873  42.943  1.00  0.00    -0.237 OA
ATOM     72  O   UNL A   1      47.374  39.303  44.860  1.00  0.00    -0.744 OA
ENDBRANCH  66  69
ENDBRANCH  39  62
ENDBRANCH  13  14
ENDBRANCH   6   8
ENDBRANCH   5   6
ENDBRANCH   4   5
ENDBRANCH   3   4
ENDBRANCH   2   3
ENDBRANCH   1   2
BRANCH   1  73
ATOM     73  C   UNL A   1      35.351  33.581  31.489  1.00  0.00     0.188 C 
BRANCH  73  74
ATOM     74  O   UNL A   1      34.121  33.649  30.778  1.00  0.00    -0.376 OA
BRANCH  74  75
ATOM     75  C   UNL A   1      34.172  34.243  29.484  1.00  0.00     0.202 C 
BRANCH  75  76
ATOM     76  C   UNL A   1      34.102  33.331  28.241  1.00  0.00     0.261 C 
BRANCH  76  77
ATOM     77  O   UNL A   1      33.694  31.953  28.428  1.00  0.00    -0.460 OA
BRANCH  77  78
ATOM     78  C   UNL A   1      34.359  31.060  27.641  1.00  0.00     0.338 C 
ATOM     79  O   UNL A   1      35.571  31.030  27.484  1.00  0.00    -0.246 OA
BRANCH  78  80
ATOM     80  C   UNL A   1      33.463  30.146  26.871  1.00  0.00     0.060 A 
ATOM     81  C   UNL A   1      32.374  29.451  27.417  1.00  0.00     0.020 A 
ATOM     82  C   UNL A   1      33.832  29.874  25.551  1.00  0.00     0.020 A 
ATOM     83  C   UNL A   1      31.663  28.495  26.641  1.00  0.00     0.053 A 
ATOM     84  C   UNL A   1      33.159  28.894  24.809  1.00  0.00     0.053 A 
ATOM     85  C   UNL A   1      32.066  28.186  25.334  1.00  0.00     0.136 A 
BRANCH  85  86
ATOM     86  N   UNL A   1      31.463  27.183  24.528  1.00  0.00    -0.154 N 
ATOM     87  C   UNL A   1      31.890  25.862  24.528  1.00  0.00     0.385 C 
ATOM     88  C   UNL A   1      30.408  27.232  23.666  1.00  0.00     0.295 C 
ATOM     89  O   UNL A   1      32.460  25.257  25.423  1.00  0.00    -0.236 OA
ATOM     90  C   UNL A   1      31.146  25.275  23.350  1.00  0.00     0.216 C 
ATOM     91  N   UNL A   1      30.174  26.158  22.969  1.00  0.00    -0.233 N 
ATOM     92  C   UNL A   1      31.309  24.119  22.689  1.00  0.00     0.068 C 
ATOM     93  H   UNL A   1      29.455  26.014  22.311  1.00  0.00     0.312 HD
BRANCH  88  94
ATOM     94  C   UNL A   1      29.579  28.390  23.361  1.00  0.00     0.065 A 
ATOM     95  C   UNL A   1      28.187  28.229  23.362  1.00  0.00     0.017 A 
ATOM     96  C   UNL A   1      30.174  29.364  22.568  1.00  0.00     0.017 A 
ATOM     97  C   UNL A   1      27.394  29.077  22.587  1.00  0.00     0.001 A 
ATOM     98  C   UNL A   1      29.379  30.183  21.772  1.00  0.00     0.001 A 
ATOM     99  C   UNL A   1      27.992  30.049  21.787  1.00  0.00     0.000 A 
ENDBRANCH  88  94
BRANCH  92 100
ATOM    100  C   UNL A   1      32.237  23.076  23.098  1.00  0.00    -0.017 A 
ATOM    101  C   UNL A   1      33.633  23.272  23.062  1.00  0.00     0.012 A 
ATOM    102  C   UNL A   1      31.687  21.928  23.672  1.00  0.00     0.059 A 
ATOM    103  C   UNL A   1      34.488  22.383  23.723  1.00  0.00     0.051 A 
ATOM    104  C   UNL A   1      32.541  21.113  24.362  1.00  0.00     0.166 A 
ATOM    105  C   UNL A   1      33.900  21.345  24.409  1.00  0.00     0.165 A 
ATOM    106  O   UNL A   1      32.159  20.102  25.192  1.00  0.00    -0.454 OA
ATOM    107  O   UNL A   1      34.514  20.507  25.294  1.00  0.00    -0.454 OA
ATOM    108  C   UNL A   1      33.346  20.045  26.003  1.00  0.00     0.468 C 
ENDBRANCH  92 100
ENDBRANCH  85  86
ENDBRANCH  78  80
ENDBRANCH  77  78
ENDBRANCH  76  77
ENDBRANCH  75  76
ENDBRANCH  74  75
ENDBRANCH  73  74
ENDBRANCH   1  73
TORSDOF 23
ENDMDL
