MODEL 1
REMARK VINA RESULT:     -10.2      0.000      0.000
REMARK SMILES O=C(NC[C@@H]1CCOC1)NC[C@@H]1CC[C@H](C(=O)OCCOCCOCCOC(=O)c2ccc(-c3c4nc(c(-c5cccc(S(=O)(=O)[O-])c5F)c5ccc([nH]5)c(-c5cccc(S(=O)(=O)[O-])c5F)c5nc(c(-c6cccc(S(=O)(=O)[O-])c6F)c6ccc3[nH]6)C=C5)C=C4)cc2)O1
REMARK SMILES IDX 22 1 21 2 20 3 19 4 18 5 16 6 17 7 15 8 12 9 13 10 93 11
REMARK SMILES IDX 14 12 11 13 10 14 1 15 2 16 3 17 4 20 5 21 6 22 9 23 7 24
REMARK SMILES IDX 8 25 23 26 24 27 25 28 26 29 27 30 28 31 29 32 30 33 31 34
REMARK SMILES IDX 92 35 32 36 91 37 33 38 34 39 35 40 85 41 36 42 90 43 84 44
REMARK SMILES IDX 86 45 37 46 89 47 83 48 82 49 38 51 70 52 50 53 69 54 51 55
REMARK SMILES IDX 54 56 68 57 87 58 52 59 53 60 67 62 88 63 55 64 39 65 40 66
REMARK SMILES IDX 48 67 41 68 43 69 49 70 42 71 44 72 45 73 46 74 47 75 71 76
REMARK SMILES IDX 72 77 80 78 73 79 75 80 81 81 74 82 76 83 77 84 78 85 79 86
REMARK SMILES IDX 56 87 57 88 65 89 58 90 60 91 66 92 59 93 61 94 62 95 63 96
REMARK SMILES IDX 64 97
REMARK H PARENT 3 18 10 19 86 50 54 61
REMARK Flexibility Score: inf
ROOT
ATOM      1  C   UNL A   1      30.322  28.863  23.848  1.00  0.00     0.188 C 
ENDROOT
BRANCH   1   2
ATOM      2  O   UNL A   1      30.736  27.901  22.882  1.00  0.00    -0.376 OA
BRANCH   2   3
ATOM      3  C   UNL A   1      30.511  26.524  23.198  1.00  0.00     0.202 C 
BRANCH   3   4
ATOM      4  C   UNL A   1      31.392  25.496  22.467  1.00  0.00     0.261 C 
BRANCH   4   5
ATOM      5  O   UNL A   1      32.800  25.819  22.526  1.00  0.00    -0.461 OA
BRANCH   5   6
ATOM      6  C   UNL A   1      33.639  24.775  22.765  1.00  0.00     0.335 C 
ATOM      7  O   UNL A   1      33.748  23.803  22.023  1.00  0.00    -0.249 OA
BRANCH   6   8
ATOM      8  C   UNL A   1      34.488  24.952  24.042  1.00  0.00     0.228 C 
ATOM      9  C   UNL A   1      33.384  23.759  25.699  1.00  0.00     0.138 C 
ATOM     10  C   UNL A   1      32.978  25.219  25.840  1.00  0.00     0.037 C 
ATOM     11  O   UNL A   1      34.496  23.713  24.776  1.00  0.00    -0.361 OA
ATOM     12  C   UNL A   1      34.050  25.959  25.086  1.00  0.00     0.047 C 
BRANCH   9  13
ATOM     13  C   UNL A   1      32.245  22.871  25.172  1.00  0.00     0.149 C 
BRANCH  13  14
ATOM     14  N   UNL A   1      32.704  21.507  25.035  1.00  0.00    -0.336 N 
ATOM     15  O   UNL A   1      33.280  21.257  27.225  1.00  0.00    -0.249 OA
ATOM     16  C   UNL A   1      33.266  20.841  26.070  1.00  0.00     0.314 C 
ATOM     17  N   UNL A   1      33.868  19.666  25.788  1.00  0.00    -0.338 N 
ATOM     18  H   UNL A   1      34.135  19.144  26.579  1.00  0.00     0.165 HD
ATOM     19  H   UNL A   1      32.606  21.053  24.167  1.00  0.00     0.165 HD
BRANCH  17  20
ATOM     20  C   UNL A   1      34.187  19.041  24.515  1.00  0.00     0.123 C 
BRANCH  20  21
ATOM     21  C   UNL A   1      33.125  17.983  24.167  1.00  0.00     0.036 C 
ATOM     22  C   UNL A   1      32.766  17.109  25.356  1.00  0.00     0.036 C 
ATOM     23  C   UNL A   1      33.687  16.940  23.217  1.00  0.00     0.165 C 
ATOM     24  C   UNL A   1      33.875  16.074  25.367  1.00  0.00     0.160 C 
ATOM     25  O   UNL A   1      34.379  15.983  24.026  1.00  0.00    -0.381 OA
ENDBRANCH  20  21
ENDBRANCH  17  20
ENDBRANCH  13  14
ENDBRANCH   9  13
ENDBRANCH   6   8
ENDBRANCH   5   6
ENDBRANCH   4   5
ENDBRANCH   3   4
ENDBRANCH   2   3
ENDBRANCH   1   2
BRANCH   1  26
ATOM     26  C   UNL A   1      31.354  29.193  24.932  1.00  0.00     0.188 C 
BRANCH  26  27
ATOM     27  O   UNL A   1      31.308  30.536  25.373  1.00  0.00    -0.376 OA
BRANCH  27  28
ATOM     28  C   UNL A   1      31.841  30.893  26.643  1.00  0.00     0.202 C 
BRANCH  28  29
ATOM     29  C   UNL A   1      31.893  32.379  27.065  1.00  0.00     0.261 C 
BRANCH  29  30
ATOM     30  O   UNL A   1      33.194  32.975  27.219  1.00  0.00    -0.460 OA
BRANCH  30  31
ATOM     31  C   UNL A   1      33.338  33.938  28.160  1.00  0.00     0.338 C 
ATOM     32  O   UNL A   1      32.556  34.849  28.384  1.00  0.00    -0.246 OA
BRANCH  31  33
ATOM     33  C   UNL A   1      34.444  33.531  29.071  1.00  0.00     0.060 A 
ATOM     34  C   UNL A   1      35.693  34.149  28.906  1.00  0.00     0.016 A 
ATOM     35  C   UNL A   1      34.245  32.642  30.133  1.00  0.00     0.016 A 
ATOM     36  C   UNL A   1      36.753  33.849  29.769  1.00  0.00     0.010 A 
ATOM     37  C   UNL A   1      35.313  32.330  30.986  1.00  0.00     0.010 A 
ATOM     38  C   UNL A   1      36.582  32.903  30.788  1.00  0.00    -0.014 A 
BRANCH  38  39
ATOM     39  C   UNL A   1      37.767  32.356  31.502  1.00  0.00     0.031 A 
ATOM     40  C   UNL A   1      38.509  31.210  30.862  1.00  0.00     0.074 A 
ATOM     41  C   UNL A   1      38.180  32.836  32.691  1.00  0.00     0.049 A 
ATOM     42  N   UNL A   1      39.524  30.522  31.312  1.00  0.00    -0.248 NA
ATOM     43  C   UNL A   1      38.036  30.784  29.533  1.00  0.00     0.031 C 
ATOM     44  C   UNL A   1      37.567  33.942  33.421  1.00  0.00     0.029 A 
ATOM     45  N   UNL A   1      39.208  32.423  33.509  1.00  0.00    -0.354 N 
ATOM     46  C   UNL A   1      39.785  29.557  30.346  1.00  0.00     0.074 A 
ATOM     47  C   UNL A   1      38.825  29.749  29.283  1.00  0.00     0.031 C 
ATOM     48  C   UNL A   1      38.202  34.094  34.598  1.00  0.00     0.029 A 
ATOM     49  C   UNL A   1      39.249  33.080  34.719  1.00  0.00     0.049 A 
ATOM     50  H   UNL A   1      39.851  31.723  33.254  1.00  0.00     0.167 HD
ATOM     51  C   UNL A   1      40.742  28.601  30.337  1.00  0.00     0.034 A 
ATOM     52  C   UNL A   1      40.017  32.863  35.807  1.00  0.00     0.034 A 
ATOM     53  C   UNL A   1      41.717  28.418  31.376  1.00  0.00     0.049 A 
ATOM     54  C   UNL A   1      41.064  31.773  35.777  1.00  0.00     0.074 A 
ATOM     55  C   UNL A   1      42.761  27.511  31.421  1.00  0.00     0.029 A 
ATOM     56  N   UNL A   1      41.757  29.136  32.559  1.00  0.00    -0.354 N 
ATOM     57  N   UNL A   1      41.379  30.955  34.804  1.00  0.00    -0.248 NA
ATOM     58  C   UNL A   1      41.882  31.598  36.989  1.00  0.00     0.031 C 
ATOM     59  C   UNL A   1      43.411  27.655  32.649  1.00  0.00     0.029 A 
ATOM     60  C   UNL A   1      42.798  28.682  33.349  1.00  0.00     0.049 A 
ATOM     61  H   UNL A   1      41.138  29.862  32.802  1.00  0.00     0.167 HD
ATOM     62  C   UNL A   1      42.454  30.202  35.269  1.00  0.00     0.074 A 
ATOM     63  C   UNL A   1      42.750  30.673  36.603  1.00  0.00     0.031 C 
ATOM     64  C   UNL A   1      43.128  29.200  34.651  1.00  0.00     0.034 A 
BRANCH  51  65
ATOM     65  C   UNL A   1      40.797  27.669  29.155  1.00  0.00     0.023 A 
ATOM     66  C   UNL A   1      39.900  26.586  29.073  1.00  0.00     0.012 A 
ATOM     67  C   UNL A   1      41.679  27.927  28.088  1.00  0.00     0.148 A 
ATOM     68  C   UNL A   1      39.894  25.761  27.949  1.00  0.00     0.002 A 
ATOM     69  C   UNL A   1      41.633  27.128  26.953  1.00  0.00     0.091 A 
ATOM     70  F   UNL A   1      42.538  28.950  28.201  1.00  0.00    -0.205 F 
ATOM     71  C   UNL A   1      40.748  26.039  26.886  1.00  0.00     0.022 A 
BRANCH  69  72
ATOM     72  S   UNL A   1      42.633  27.453  25.497  1.00  0.00     0.127 S 
ATOM     73  O   UNL A   1      43.985  27.391  26.048  1.00  0.00    -0.237 OA
ATOM     74  O   UNL A   1      42.276  26.334  24.626  1.00  0.00    -0.237 OA
ATOM     75  O   UNL A   1      42.222  28.763  25.009  1.00  0.00    -0.744 OA
ENDBRANCH  69  72
ENDBRANCH  51  65
BRANCH  52  76
ATOM     76  C   UNL A   1      39.838  33.690  37.038  1.00  0.00     0.023 A 
ATOM     77  C   UNL A   1      38.755  33.438  37.903  1.00  0.00     0.012 A 
ATOM     78  C   UNL A   1      40.717  34.751  37.334  1.00  0.00     0.148 A 
ATOM     79  C   UNL A   1      38.523  34.254  39.012  1.00  0.00     0.002 A 
ATOM     80  C   UNL A   1      40.515  35.521  38.473  1.00  0.00     0.091 A 
ATOM     81  F   UNL A   1      41.728  34.992  36.488  1.00  0.00    -0.205 F 
ATOM     82  C   UNL A   1      39.408  35.289  39.302  1.00  0.00     0.022 A 
BRANCH  80  83
ATOM     83  S   UNL A   1      41.673  36.795  38.986  1.00  0.00     0.127 S 
ATOM     84  O   UNL A   1      40.789  37.760  39.633  1.00  0.00    -0.237 OA
ATOM     85  O   UNL A   1      42.550  36.056  39.895  1.00  0.00    -0.237 OA
ATOM     86  O   UNL A   1      42.322  37.250  37.764  1.00  0.00    -0.744 OA
ENDBRANCH  80  83
ENDBRANCH  52  76
BRANCH  64  87
ATOM     87  C   UNL A   1      44.295  28.575  35.374  1.00  0.00     0.023 A 
ATOM     88  C   UNL A   1      45.606  29.034  35.134  1.00  0.00     0.012 A 
ATOM     89  C   UNL A   1      44.079  27.588  36.356  1.00  0.00     0.148 A 
ATOM     90  C   UNL A   1      46.685  28.495  35.834  1.00  0.00     0.002 A 
ATOM     91  C   UNL A   1      45.153  27.093  37.087  1.00  0.00     0.091 A 
ATOM     92  F   UNL A   1      42.827  27.154  36.562  1.00  0.00    -0.205 F 
ATOM     93  C   UNL A   1      46.457  27.535  36.818  1.00  0.00     0.022 A 
BRANCH  91  94
ATOM     94  S   UNL A   1      44.944  25.930  38.441  1.00  0.00     0.127 S 
ATOM     95  O   UNL A   1      44.126  26.703  39.374  1.00  0.00    -0.237 OA
ATOM     96  O   UNL A   1      44.246  24.821  37.792  1.00  0.00    -0.237 OA
ATOM     97  O   UNL A   1      46.287  25.611  38.908  1.00  0.00    -0.744 OA
ENDBRANCH  91  94
ENDBRANCH  64  87
ENDBRANCH  38  39
ENDBRANCH  31  33
ENDBRANCH  30  31
ENDBRANCH  29  30
ENDBRANCH  28  29
ENDBRANCH  27  28
ENDBRANCH  26  27
ENDBRANCH   1  26
TORSDOF 24
ENDMDL
MODEL 2
REMARK VINA RESULT:     -10.0      1.940      7.619
REMARK SMILES O=C(NC[C@@H]1CCOC1)NC[C@@H]1CC[C@H](C(=O)OCCOCCOCCOC(=O)c2ccc(-c3c4nc(c(-c5cccc(S(=O)(=O)[O-])c5F)c5ccc([nH]5)c(-c5cccc(S(=O)(=O)[O-])c5F)c5nc(c(-c6cccc(S(=O)(=O)[O-])c6F)c6ccc3[nH]6)C=C5)C=C4)cc2)O1
REMARK SMILES IDX 22 1 21 2 20 3 19 4 18 5 16 6 17 7 15 8 12 9 13 10 93 11
REMARK SMILES IDX 14 12 11 13 10 14 1 15 2 16 3 17 4 20 5 21 6 22 9 23 7 24
REMARK SMILES IDX 8 25 23 26 24 27 25 28 26 29 27 30 28 31 29 32 30 33 31 34
REMARK SMILES IDX 92 35 32 36 91 37 33 38 34 39 35 40 85 41 36 42 90 43 84 44
REMARK SMILES IDX 86 45 37 46 89 47 83 48 82 49 38 51 70 52 50 53 69 54 51 55
REMARK SMILES IDX 54 56 68 57 87 58 52 59 53 60 67 62 88 63 55 64 39 65 40 66
REMARK SMILES IDX 48 67 41 68 43 69 49 70 42 71 44 72 45 73 46 74 47 75 71 76
REMARK SMILES IDX 72 77 80 78 73 79 75 80 81 81 74 82 76 83 77 84 78 85 79 86
REMARK SMILES IDX 56 87 57 88 65 89 58 90 60 91 66 92 59 93 61 94 62 95 63 96
REMARK SMILES IDX 64 97
REMARK H PARENT 3 18 10 19 86 50 54 61
REMARK Flexibility Score: inf
ROOT
ATOM      1  C   UNL A   1      30.353  29.023  23.870  1.00  0.00     0.188 C 
ENDROOT
BRANCH   1   2
ATOM      2  O   UNL A   1      30.850  28.380  22.700  1.00  0.00    -0.376 OA
BRANCH   2   3
ATOM      3  C   UNL A   1      30.674  26.964  22.612  1.00  0.00     0.202 C 
BRANCH   3   4
ATOM      4  C   UNL A   1      31.727  26.187  21.803  1.00  0.00     0.261 C 
BRANCH   4   5
ATOM      5  O   UNL A   1      33.058  26.299  22.358  1.00  0.00    -0.461 OA
BRANCH   5   6
ATOM      6  C   UNL A   1      33.662  25.127  22.694  1.00  0.00     0.335 C 
ATOM      7  O   UNL A   1      33.684  24.138  21.968  1.00  0.00    -0.249 OA
BRANCH   6   8
ATOM      8  C   UNL A   1      34.367  25.175  24.066  1.00  0.00     0.228 C 
ATOM      9  C   UNL A   1      33.225  23.666  25.411  1.00  0.00     0.138 C 
ATOM     10  C   UNL A   1      32.677  25.054  25.713  1.00  0.00     0.037 C 
ATOM     11  O   UNL A   1      34.419  23.844  24.614  1.00  0.00    -0.361 OA
ATOM     12  C   UNL A   1      33.744  25.978  25.190  1.00  0.00     0.047 C 
BRANCH   9  13
ATOM     13  C   UNL A   1      32.226  22.783  24.645  1.00  0.00     0.149 C 
BRANCH  13  14
ATOM     14  N   UNL A   1      32.681  21.411  24.641  1.00  0.00    -0.336 N 
ATOM     15  O   UNL A   1      33.032  21.298  26.889  1.00  0.00    -0.249 OA
ATOM     16  C   UNL A   1      33.128  20.809  25.767  1.00  0.00     0.314 C 
ATOM     17  N   UNL A   1      33.741  19.616  25.622  1.00  0.00    -0.338 N 
ATOM     18  H   UNL A   1      33.922  19.144  26.467  1.00  0.00     0.165 HD
ATOM     19  H   UNL A   1      32.665  20.903  23.798  1.00  0.00     0.165 HD
BRANCH  17  20
ATOM     20  C   UNL A   1      34.179  18.909  24.429  1.00  0.00     0.123 C 
BRANCH  20  21
ATOM     21  C   UNL A   1      33.156  17.822  24.056  1.00  0.00     0.036 C 
ATOM     22  C   UNL A   1      32.539  17.164  25.278  1.00  0.00     0.036 C 
ATOM     23  C   UNL A   1      33.841  16.627  23.414  1.00  0.00     0.165 C 
ATOM     24  C   UNL A   1      33.577  16.130  25.672  1.00  0.00     0.160 C 
ATOM     25  O   UNL A   1      34.322  15.810  24.487  1.00  0.00    -0.381 OA
ENDBRANCH  20  21
ENDBRANCH  17  20
ENDBRANCH  13  14
ENDBRANCH   9  13
ENDBRANCH   6   8
ENDBRANCH   5   6
ENDBRANCH   4   5
ENDBRANCH   3   4
ENDBRANCH   2   3
ENDBRANCH   1   2
BRANCH   1  26
ATOM     26  C   UNL A   1      31.410  29.393  24.917  1.00  0.00     0.188 C 
BRANCH  26  27
ATOM     27  O   UNL A   1      31.307  30.724  25.385  1.00  0.00    -0.376 OA
BRANCH  27  28
ATOM     28  C   UNL A   1      31.969  31.117  26.582  1.00  0.00     0.202 C 
BRANCH  28  29
ATOM     29  C   UNL A   1      31.861  32.577  27.076  1.00  0.00     0.261 C 
BRANCH  29  30
ATOM     30  O   UNL A   1      33.065  33.367  27.071  1.00  0.00    -0.460 OA
BRANCH  30  31
ATOM     31  C   UNL A   1      33.323  34.129  28.160  1.00  0.00     0.338 C 
ATOM     32  O   UNL A   1      32.623  35.032  28.590  1.00  0.00    -0.246 OA
BRANCH  31  33
ATOM     33  C   UNL A   1      34.436  33.490  28.916  1.00  0.00     0.060 A 
ATOM     34  C   UNL A   1      35.744  33.929  28.659  1.00  0.00     0.016 A 
ATOM     35  C   UNL A   1      34.206  32.555  29.932  1.00  0.00     0.016 A 
ATOM     36  C   UNL A   1      36.823  33.407  29.380  1.00  0.00     0.010 A 
ATOM     37  C   UNL A   1      35.291  32.021  30.641  1.00  0.00     0.010 A 
ATOM     38  C   UNL A   1      36.608  32.416  30.346  1.00  0.00    -0.014 A 
BRANCH  38  39
ATOM     39  C   UNL A   1      37.757  31.643  30.890  1.00  0.00     0.031 A 
ATOM     40  C   UNL A   1      38.160  31.891  32.321  1.00  0.00     0.074 A 
ATOM     41  C   UNL A   1      38.446  30.755  30.148  1.00  0.00     0.049 A 
ATOM     42  N   UNL A   1      39.160  31.395  33.001  1.00  0.00    -0.248 NA
ATOM     43  C   UNL A   1      37.318  32.828  33.086  1.00  0.00     0.031 C 
ATOM     44  C   UNL A   1      38.166  30.409  28.756  1.00  0.00     0.029 A 
ATOM     45  N   UNL A   1      39.554  30.001  30.464  1.00  0.00    -0.354 N 
ATOM     46  C   UNL A   1      39.094  31.989  34.256  1.00  0.00     0.074 A 
ATOM     47  C   UNL A   1      37.955  32.880  34.247  1.00  0.00     0.031 C 
ATOM     48  C   UNL A   1      39.101  29.543  28.325  1.00  0.00     0.029 A 
ATOM     49  C   UNL A   1      40.063  29.293  29.397  1.00  0.00     0.049 A 
ATOM     50  H   UNL A   1      39.946  29.971  31.366  1.00  0.00     0.167 HD
ATOM     51  C   UNL A   1      39.902  31.806  35.326  1.00  0.00     0.034 A 
ATOM     52  C   UNL A   1      41.191  28.560  29.292  1.00  0.00     0.034 A 
ATOM     53  C   UNL A   1      41.021  30.905  35.354  1.00  0.00     0.049 A 
ATOM     54  C   UNL A   1      42.087  28.391  30.497  1.00  0.00     0.074 A 
ATOM     55  C   UNL A   1      41.858  30.613  36.416  1.00  0.00     0.029 A 
ATOM     56  N   UNL A   1      41.471  30.169  34.272  1.00  0.00    -0.354 N 
ATOM     57  N   UNL A   1      41.938  28.859  31.712  1.00  0.00    -0.248 NA
ATOM     58  C   UNL A   1      43.294  27.565  30.322  1.00  0.00     0.031 C 
ATOM     59  C   UNL A   1      42.840  29.728  35.965  1.00  0.00     0.029 A 
ATOM     60  C   UNL A   1      42.586  29.435  34.634  1.00  0.00     0.049 A 
ATOM     61  H   UNL A   1      41.059  30.167  33.377  1.00  0.00     0.167 HD
ATOM     62  C   UNL A   1      43.003  28.351  32.452  1.00  0.00     0.074 A 
ATOM     63  C   UNL A   1      43.779  27.524  31.556  1.00  0.00     0.031 C 
ATOM     64  C   UNL A   1      43.317  28.562  33.754  1.00  0.00     0.034 A 
BRANCH  51  65
ATOM     65  C   UNL A   1      39.607  32.592  36.576  1.00  0.00     0.023 A 
ATOM     66  C   UNL A   1      40.256  33.822  36.801  1.00  0.00     0.012 A 
ATOM     67  C   UNL A   1      38.618  32.151  37.476  1.00  0.00     0.148 A 
ATOM     68  C   UNL A   1      39.937  34.593  37.918  1.00  0.00     0.002 A 
ATOM     69  C   UNL A   1      38.274  32.948  38.560  1.00  0.00     0.091 A 
ATOM     70  F   UNL A   1      38.032  30.967  37.251  1.00  0.00    -0.205 F 
ATOM     71  C   UNL A   1      38.938  34.164  38.788  1.00  0.00     0.022 A 
BRANCH  69  72
ATOM     72  S   UNL A   1      36.944  32.524  39.691  1.00  0.00     0.127 S 
ATOM     73  O   UNL A   1      37.386  31.223  40.191  1.00  0.00    -0.237 OA
ATOM     74  O   UNL A   1      37.018  33.610  40.668  1.00  0.00    -0.237 OA
ATOM     75  O   UNL A   1      35.727  32.500  38.893  1.00  0.00    -0.744 OA
ENDBRANCH  69  72
ENDBRANCH  51  65
BRANCH  52  76
ATOM     76  C   UNL A   1      41.560  27.919  27.994  1.00  0.00     0.023 A 
ATOM     77  C   UNL A   1      41.920  28.718  26.892  1.00  0.00     0.012 A 
ATOM     78  C   UNL A   1      41.516  26.519  27.838  1.00  0.00     0.148 A 
ATOM     79  C   UNL A   1      42.185  28.142  25.648  1.00  0.00     0.002 A 
ATOM     80  C   UNL A   1      41.840  25.948  26.613  1.00  0.00     0.091 A 
ATOM     81  F   UNL A   1      41.147  25.774  28.889  1.00  0.00    -0.205 F 
ATOM     82  C   UNL A   1      42.154  26.757  25.511  1.00  0.00     0.022 A 
BRANCH  80  83
ATOM     83  S   UNL A   1      41.942  24.169  26.382  1.00  0.00     0.127 S 
ATOM     84  O   UNL A   1      40.536  23.804  26.240  1.00  0.00    -0.237 OA
ATOM     85  O   UNL A   1      42.732  24.071  25.153  1.00  0.00    -0.237 OA
ATOM     86  O   UNL A   1      42.615  23.658  27.569  1.00  0.00    -0.744 OA
ENDBRANCH  80  83
ENDBRANCH  52  76
BRANCH  64  87
ATOM     87  C   UNL A   1      44.517  27.846  34.322  1.00  0.00     0.023 A 
ATOM     88  C   UNL A   1      45.775  28.480  34.348  1.00  0.00     0.012 A 
ATOM     89  C   UNL A   1      44.375  26.572  34.908  1.00  0.00     0.148 A 
ATOM     90  C   UNL A   1      46.878  27.843  34.917  1.00  0.00     0.002 A 
ATOM     91  C   UNL A   1      45.466  25.966  35.520  1.00  0.00     0.091 A 
ATOM     92  F   UNL A   1      43.174  25.977  34.863  1.00  0.00    -0.205 F 
ATOM     93  C   UNL A   1      46.721  26.594  35.512  1.00  0.00     0.022 A 
BRANCH  91  94
ATOM     94  S   UNL A   1      45.336  24.405  36.399  1.00  0.00     0.127 S 
ATOM     95  O   UNL A   1      46.737  24.114  36.699  1.00  0.00    -0.237 OA
ATOM     96  O   UNL A   1      44.527  24.770  37.562  1.00  0.00    -0.237 OA
ATOM     97  O   UNL A   1      44.690  23.477  35.480  1.00  0.00    -0.744 OA
ENDBRANCH  91  94
ENDBRANCH  64  87
ENDBRANCH  38  39
ENDBRANCH  31  33
ENDBRANCH  30  31
ENDBRANCH  29  30
ENDBRANCH  28  29
ENDBRANCH  27  28
ENDBRANCH  26  27
ENDBRANCH   1  26
TORSDOF 24
ENDMDL
MODEL 3
REMARK VINA RESULT:      -9.9      6.365     11.047
REMARK SMILES O=C(NC[C@@H]1CCOC1)NC[C@@H]1CC[C@H](C(=O)OCCOCCOCCOC(=O)c2ccc(-c3c4nc(c(-c5cccc(S(=O)(=O)[O-])c5F)c5ccc([nH]5)c(-c5cccc(S(=O)(=O)[O-])c5F)c5nc(c(-c6cccc(S(=O)(=O)[O-])c6F)c6ccc3[nH]6)C=C5)C=C4)cc2)O1
REMARK SMILES IDX 22 1 21 2 20 3 19 4 18 5 16 6 17 7 15 8 12 9 13 10 93 11
REMARK SMILES IDX 14 12 11 13 10 14 1 15 2 16 3 17 4 20 5 21 6 22 9 23 7 24
REMARK SMILES IDX 8 25 23 26 24 27 25 28 26 29 27 30 28 31 29 32 30 33 31 34
REMARK SMILES IDX 92 35 32 36 91 37 33 38 34 39 35 40 85 41 36 42 90 43 84 44
REMARK SMILES IDX 86 45 37 46 89 47 83 48 82 49 38 51 70 52 50 53 69 54 51 55
REMARK SMILES IDX 54 56 68 57 87 58 52 59 53 60 67 62 88 63 55 64 39 65 40 66
REMARK SMILES IDX 48 67 41 68 43 69 49 70 42 71 44 72 45 73 46 74 47 75 71 76
REMARK SMILES IDX 72 77 80 78 73 79 75 80 81 81 74 82 76 83 77 84 78 85 79 86
REMARK SMILES IDX 56 87 57 88 65 89 58 90 60 91 66 92 59 93 61 94 62 95 63 96
REMARK SMILES IDX 64 97
REMARK H PARENT 3 18 10 19 86 50 54 61
REMARK Flexibility Score: inf
ROOT
ATOM      1  C   UNL A   1      39.804  22.336  26.526  1.00  0.00     0.188 C 
ENDROOT
BRANCH   1   2
ATOM      2  O   UNL A   1      39.017  23.416  27.021  1.00  0.00    -0.376 OA
BRANCH   2   3
ATOM      3  C   UNL A   1      38.106  24.031  26.106  1.00  0.00     0.202 C 
BRANCH   3   4
ATOM      4  C   UNL A   1      37.041  23.117  25.475  1.00  0.00     0.261 C 
BRANCH   4   5
ATOM      5  O   UNL A   1      36.287  23.769  24.428  1.00  0.00    -0.461 OA
BRANCH   5   6
ATOM      6  C   UNL A   1      34.940  23.583  24.462  1.00  0.00     0.335 C 
ATOM      7  O   UNL A   1      34.266  23.660  25.485  1.00  0.00    -0.249 OA
BRANCH   6   8
ATOM      8  C   UNL A   1      34.325  23.314  23.073  1.00  0.00     0.228 C 
ATOM      9  C   UNL A   1      32.964  25.141  22.625  1.00  0.00     0.138 C 
ATOM     10  C   UNL A   1      32.074  24.030  23.167  1.00  0.00     0.037 C 
ATOM     11  O   UNL A   1      34.254  24.553  22.342  1.00  0.00    -0.361 OA
ATOM     12  C   UNL A   1      32.906  22.789  22.982  1.00  0.00     0.047 C 
BRANCH   9  13
ATOM     13  C   UNL A   1      33.138  26.303  23.616  1.00  0.00     0.149 C 
BRANCH  13  14
ATOM     14  N   UNL A   1      32.147  27.324  23.359  1.00  0.00    -0.336 N 
ATOM     15  O   UNL A   1      33.650  28.939  22.792  1.00  0.00    -0.249 OA
ATOM     16  C   UNL A   1      32.501  28.592  23.047  1.00  0.00     0.314 C 
ATOM     17  N   UNL A   1      31.520  29.520  23.051  1.00  0.00    -0.338 N 
ATOM     18  H   UNL A   1      31.783  30.394  22.681  1.00  0.00     0.165 HD
ATOM     19  H   UNL A   1      31.192  27.091  23.414  1.00  0.00     0.165 HD
BRANCH  17  20
ATOM     20  C   UNL A   1      30.142  29.448  23.510  1.00  0.00     0.123 C 
BRANCH  20  21
ATOM     21  C   UNL A   1      29.186  29.822  22.363  1.00  0.00     0.036 C 
ATOM     22  C   UNL A   1      28.870  31.307  22.334  1.00  0.00     0.036 C 
ATOM     23  C   UNL A   1      27.801  29.249  22.601  1.00  0.00     0.165 C 
ATOM     24  C   UNL A   1      27.771  31.444  23.370  1.00  0.00     0.160 C 
ATOM     25  O   UNL A   1      27.124  30.166  23.468  1.00  0.00    -0.381 OA
ENDBRANCH  20  21
ENDBRANCH  17  20
ENDBRANCH  13  14
ENDBRANCH   9  13
ENDBRANCH   6   8
ENDBRANCH   5   6
ENDBRANCH   4   5
ENDBRANCH   3   4
ENDBRANCH   2   3
ENDBRANCH   1   2
BRANCH   1  26
ATOM     26  C   UNL A   1      40.681  21.631  27.566  1.00  0.00     0.188 C 
BRANCH  26  27
ATOM     27  O   UNL A   1      40.684  20.222  27.448  1.00  0.00    -0.376 OA
BRANCH  27  28
ATOM     28  C   UNL A   1      40.967  19.607  26.196  1.00  0.00     0.202 C 
BRANCH  28  29
ATOM     29  C   UNL A   1      42.306  18.864  25.990  1.00  0.00     0.261 C 
BRANCH  29  30
ATOM     30  O   UNL A   1      42.966  19.033  24.721  1.00  0.00    -0.460 OA
BRANCH  30  31
ATOM     31  C   UNL A   1      44.233  19.511  24.729  1.00  0.00     0.338 C 
ATOM     32  O   UNL A   1      45.202  18.993  24.197  1.00  0.00    -0.246 OA
BRANCH  31  33
ATOM     33  C   UNL A   1      44.193  20.914  25.228  1.00  0.00     0.060 A 
ATOM     34  C   UNL A   1      43.814  21.922  24.327  1.00  0.00     0.016 A 
ATOM     35  C   UNL A   1      44.416  21.234  26.572  1.00  0.00     0.016 A 
ATOM     36  C   UNL A   1      43.702  23.249  24.753  1.00  0.00     0.010 A 
ATOM     37  C   UNL A   1      44.320  22.568  26.993  1.00  0.00     0.010 A 
ATOM     38  C   UNL A   1      43.998  23.589  26.080  1.00  0.00    -0.014 A 
BRANCH  38  39
ATOM     39  C   UNL A   1      44.182  25.015  26.461  1.00  0.00     0.031 A 
ATOM     40  C   UNL A   1      45.526  25.647  26.200  1.00  0.00     0.074 A 
ATOM     41  C   UNL A   1      43.205  25.741  27.036  1.00  0.00     0.049 A 
ATOM     42  N   UNL A   1      45.954  26.845  26.499  1.00  0.00    -0.248 NA
ATOM     43  C   UNL A   1      46.522  24.808  25.510  1.00  0.00     0.031 C 
ATOM     44  C   UNL A   1      41.857  25.265  27.339  1.00  0.00     0.029 A 
ATOM     45  N   UNL A   1      43.214  27.038  27.498  1.00  0.00    -0.354 N 
ATOM     46  C   UNL A   1      47.276  26.891  26.074  1.00  0.00     0.074 A 
ATOM     47  C   UNL A   1      47.582  25.603  25.493  1.00  0.00     0.031 C 
ATOM     48  C   UNL A   1      41.182  26.242  27.974  1.00  0.00     0.029 A 
ATOM     49  C   UNL A   1      42.056  27.402  28.148  1.00  0.00     0.049 A 
ATOM     50  H   UNL A   1      43.977  27.648  27.376  1.00  0.00     0.167 HD
ATOM     51  C   UNL A   1      48.158  27.914  26.150  1.00  0.00     0.034 A 
ATOM     52  C   UNL A   1      41.751  28.524  28.832  1.00  0.00     0.034 A 
ATOM     53  C   UNL A   1      47.856  29.206  26.702  1.00  0.00     0.049 A 
ATOM     54  C   UNL A   1      42.763  29.643  28.921  1.00  0.00     0.074 A 
ATOM     55  C   UNL A   1      48.672  30.321  26.766  1.00  0.00     0.029 A 
ATOM     56  N   UNL A   1      46.657  29.550  27.302  1.00  0.00    -0.354 N 
ATOM     57  N   UNL A   1      43.964  29.716  28.401  1.00  0.00    -0.248 NA
ATOM     58  C   UNL A   1      42.365  30.849  29.666  1.00  0.00     0.031 C 
ATOM     59  C   UNL A   1      47.980  31.330  27.440  1.00  0.00     0.029 A 
ATOM     60  C   UNL A   1      46.716  30.856  27.755  1.00  0.00     0.049 A 
ATOM     61  H   UNL A   1      45.878  28.955  27.393  1.00  0.00     0.167 HD
ATOM     62  C   UNL A   1      44.443  30.984  28.719  1.00  0.00     0.074 A 
ATOM     63  C   UNL A   1      43.398  31.654  29.459  1.00  0.00     0.031 C 
ATOM     64  C   UNL A   1      45.647  31.539  28.435  1.00  0.00     0.034 A 
BRANCH  51  65
ATOM     65  C   UNL A   1      49.547  27.690  25.614  1.00  0.00     0.023 A 
ATOM     66  C   UNL A   1      50.589  27.333  26.492  1.00  0.00     0.012 A 
ATOM     67  C   UNL A   1      49.792  27.747  24.229  1.00  0.00     0.148 A 
ATOM     68  C   UNL A   1      51.862  27.052  25.997  1.00  0.00     0.002 A 
ATOM     69  C   UNL A   1      51.050  27.420  23.741  1.00  0.00     0.091 A 
ATOM     70  F   UNL A   1      48.789  28.112  23.417  1.00  0.00    -0.205 F 
ATOM     71  C   UNL A   1      52.089  27.082  24.624  1.00  0.00     0.022 A 
BRANCH  69  72
ATOM     72  S   UNL A   1      51.421  27.348  21.985  1.00  0.00     0.127 S 
ATOM     73  O   UNL A   1      52.775  26.797  21.992  1.00  0.00    -0.237 OA
ATOM     74  O   UNL A   1      50.392  26.432  21.494  1.00  0.00    -0.237 OA
ATOM     75  O   UNL A   1      51.310  28.714  21.492  1.00  0.00    -0.744 OA
ENDBRANCH  69  72
ENDBRANCH  51  65
BRANCH  52  76
ATOM     76  C   UNL A   1      40.424  28.667  29.503  1.00  0.00     0.023 A 
ATOM     77  C   UNL A   1      40.247  28.193  30.818  1.00  0.00     0.012 A 
ATOM     78  C   UNL A   1      39.326  29.234  28.827  1.00  0.00     0.148 A 
ATOM     79  C   UNL A   1      38.993  28.241  31.430  1.00  0.00     0.002 A 
ATOM     80  C   UNL A   1      38.095  29.334  29.464  1.00  0.00     0.091 A 
ATOM     81  F   UNL A   1      39.505  29.657  27.568  1.00  0.00    -0.205 F 
ATOM     82  C   UNL A   1      37.920  28.819  30.757  1.00  0.00     0.022 A 
BRANCH  80  83
ATOM     83  S   UNL A   1      36.692  30.171  28.717  1.00  0.00     0.127 S 
ATOM     84  O   UNL A   1      35.854  30.448  29.880  1.00  0.00    -0.237 OA
ATOM     85  O   UNL A   1      37.328  31.347  28.120  1.00  0.00    -0.237 OA
ATOM     86  O   UNL A   1      36.145  29.230  27.749  1.00  0.00    -0.744 OA
ENDBRANCH  80  83
ENDBRANCH  52  76
BRANCH  64  87
ATOM     87  C   UNL A   1      45.894  32.964  28.866  1.00  0.00     0.023 A 
ATOM     88  C   UNL A   1      46.525  33.233  30.096  1.00  0.00     0.012 A 
ATOM     89  C   UNL A   1      45.575  34.034  28.005  1.00  0.00     0.148 A 
ATOM     90  C   UNL A   1      46.801  34.546  30.479  1.00  0.00     0.002 A 
ATOM     91  C   UNL A   1      45.900  35.335  28.370  1.00  0.00     0.091 A 
ATOM     92  F   UNL A   1      44.963  33.760  26.844  1.00  0.00    -0.205 F 
ATOM     93  C   UNL A   1      46.500  35.594  29.612  1.00  0.00     0.022 A 
BRANCH  91  94
ATOM     94  S   UNL A   1      45.643  36.736  27.275  1.00  0.00     0.127 S 
ATOM     95  O   UNL A   1      46.423  36.345  26.102  1.00  0.00    -0.237 OA
ATOM     96  O   UNL A   1      44.194  36.715  27.078  1.00  0.00    -0.237 OA
ATOM     97  O   UNL A   1      46.139  37.904  27.992  1.00  0.00    -0.744 OA
ENDBRANCH  91  94
ENDBRANCH  64  87
ENDBRANCH  38  39
ENDBRANCH  31  33
ENDBRANCH  30  31
ENDBRANCH  29  30
ENDBRANCH  28  29
ENDBRANCH  27  28
ENDBRANCH  26  27
ENDBRANCH   1  26
TORSDOF 24
ENDMDL
