MODEL 1
REMARK VINA RESULT:      -8.7      0.000      0.000
REMARK SMILES CC(C)[C@H](NC(=O)OCc1ccccc1)C(=O)NCC(=O)OCCOCCOCCOC(=O)c1ccc(-c2c3nc(c(-c4cccc(S(=O)(=O)[O-])c4F)c4ccc([nH]4)c(-c4cccc(S(=O)(=O)[O-])c4F)c4nc(c(-c5cccc(S(=O)(=O)[O-])c5F)c5ccc2[nH]5)C=C4)C=C3)cc1
REMARK SMILES IDX 25 1 24 2 23 3 22 4 20 5 21 6 19 7 18 8 16 9 17 10 4 12 2 13
REMARK SMILES IDX 1 14 3 15 5 16 6 17 7 19 8 20 9 21 10 22 11 23 15 24 12 25
REMARK SMILES IDX 14 26 13 27 26 28 27 29 28 30 29 31 30 32 31 33 32 34 33 35
REMARK SMILES IDX 34 36 35 37 96 38 36 39 95 40 37 41 38 42 39 43 89 44 40 45
REMARK SMILES IDX 94 46 88 47 90 48 41 49 93 50 87 51 86 52 42 54 74 55 54 56
REMARK SMILES IDX 73 57 55 58 58 59 72 60 91 61 56 62 57 63 71 65 92 66 59 67
REMARK SMILES IDX 43 68 44 69 52 70 45 71 47 72 53 73 46 74 48 75 49 76 50 77
REMARK SMILES IDX 51 78 75 79 76 80 84 81 77 82 79 83 85 84 78 85 80 86 81 87
REMARK SMILES IDX 82 88 83 89 60 90 61 91 69 92 62 93 64 94 70 95 63 96 65 97
REMARK SMILES IDX 66 98 67 99 68 100
REMARK H PARENT 18 11 5 18 90 53 58 64
REMARK Flexibility Score: inf
ROOT
ATOM      1  O   UNL A   1      34.106  33.263  29.053  1.00  0.00    -0.376 OA
ENDROOT
BRANCH   1   2
ATOM      2  C   UNL A   1      33.690  32.507  27.931  1.00  0.00     0.202 C 
BRANCH   2   3
ATOM      3  C   UNL A   1      34.240  31.120  27.553  1.00  0.00     0.261 C 
BRANCH   3   4
ATOM      4  O   UNL A   1      33.302  30.037  27.443  1.00  0.00    -0.462 OA
BRANCH   4   5
ATOM      5  C   UNL A   1      33.019  29.627  26.174  1.00  0.00     0.325 C 
ATOM      6  O   UNL A   1      32.232  30.195  25.424  1.00  0.00    -0.250 OA
BRANCH   5   7
ATOM      7  C   UNL A   1      33.835  28.416  25.700  1.00  0.00     0.238 C 
BRANCH   7   8
ATOM      8  N   UNL A   1      33.695  27.931  24.333  1.00  0.00    -0.343 N 
ATOM      9  C   UNL A   1      33.611  26.683  23.815  1.00  0.00     0.243 C 
ATOM     10  O   UNL A   1      33.389  26.592  22.602  1.00  0.00    -0.273 OA
ATOM     11  H   UNL A   1      33.654  28.647  23.658  1.00  0.00     0.164 HD
BRANCH   9  12
ATOM     12  C   UNL A   1      33.793  25.408  24.656  1.00  0.00     0.177 C 
BRANCH  12  13
ATOM     13  C   UNL A   1      34.246  24.151  23.882  1.00  0.00     0.015 C 
ATOM     14  C   UNL A   1      35.631  23.671  24.336  1.00  0.00     0.010 C 
ATOM     15  C   UNL A   1      33.235  23.014  24.056  1.00  0.00     0.010 C 
ENDBRANCH  12  13
BRANCH  12  16
ATOM     16  N   UNL A   1      32.652  25.309  25.576  1.00  0.00    -0.309 N 
ATOM     17  C   UNL A   1      31.376  25.734  25.454  1.00  0.00     0.408 C 
ATOM     18  H   UNL A   1      32.852  24.854  26.425  1.00  0.00     0.167 HD
ATOM     19  O   UNL A   1      30.649  25.820  26.454  1.00  0.00    -0.225 OA
BRANCH  17  20
ATOM     20  O   UNL A   1      31.023  26.078  24.205  1.00  0.00    -0.445 OA
BRANCH  20  21
ATOM     21  C   UNL A   1      29.619  26.145  23.914  1.00  0.00     0.270 C 
BRANCH  21  22
ATOM     22  C   UNL A   1      29.255  27.481  23.353  1.00  0.00    -0.011 A 
ATOM     23  C   UNL A   1      30.259  28.289  22.804  1.00  0.00     0.007 A 
ATOM     24  C   UNL A   1      27.937  27.943  23.395  1.00  0.00     0.007 A 
ATOM     25  C   UNL A   1      29.952  29.550  22.309  1.00  0.00     0.000 A 
ATOM     26  C   UNL A   1      27.630  29.206  22.894  1.00  0.00     0.000 A 
ATOM     27  C   UNL A   1      28.637  30.008  22.357  1.00  0.00     0.000 A 
ENDBRANCH  21  22
ENDBRANCH  20  21
ENDBRANCH  17  20
ENDBRANCH  12  16
ENDBRANCH   9  12
ENDBRANCH   7   8
ENDBRANCH   5   7
ENDBRANCH   4   5
ENDBRANCH   3   4
ENDBRANCH   2   3
ENDBRANCH   1   2
BRANCH   1  28
ATOM     28  C   UNL A   1      34.945  32.714  30.040  1.00  0.00     0.188 C 
BRANCH  28  29
ATOM     29  C   UNL A   1      34.801  33.216  31.485  1.00  0.00     0.188 C 
BRANCH  29  30
ATOM     30  O   UNL A   1      35.862  33.845  32.165  1.00  0.00    -0.376 OA
BRANCH  30  31
ATOM     31  C   UNL A   1      36.926  33.019  32.597  1.00  0.00     0.202 C 
BRANCH  31  32
ATOM     32  C   UNL A   1      36.628  31.677  33.296  1.00  0.00     0.261 C 
BRANCH  32  33
ATOM     33  O   UNL A   1      36.592  30.505  32.457  1.00  0.00    -0.460 OA
BRANCH  33  34
ATOM     34  C   UNL A   1      37.539  29.555  32.700  1.00  0.00     0.338 C 
ATOM     35  O   UNL A   1      37.371  28.487  33.265  1.00  0.00    -0.246 OA
BRANCH  34  36
ATOM     36  C   UNL A   1      38.773  29.880  31.934  1.00  0.00     0.060 A 
ATOM     37  C   UNL A   1      39.991  30.030  32.625  1.00  0.00     0.016 A 
ATOM     38  C   UNL A   1      38.741  30.028  30.550  1.00  0.00     0.016 A 
ATOM     39  C   UNL A   1      41.174  30.312  31.936  1.00  0.00     0.010 A 
ATOM     40  C   UNL A   1      39.918  30.356  29.867  1.00  0.00     0.010 A 
ATOM     41  C   UNL A   1      41.138  30.513  30.553  1.00  0.00    -0.014 A 
BRANCH  41  42
ATOM     42  C   UNL A   1      42.321  31.042  29.824  1.00  0.00     0.031 A 
ATOM     43  C   UNL A   1      43.342  30.065  29.310  1.00  0.00     0.074 A 
ATOM     44  C   UNL A   1      42.527  32.363  29.681  1.00  0.00     0.049 A 
ATOM     45  N   UNL A   1      44.528  30.289  28.811  1.00  0.00    -0.248 NA
ATOM     46  C   UNL A   1      42.973  28.641  29.376  1.00  0.00     0.031 C 
ATOM     47  C   UNL A   1      41.607  33.416  30.100  1.00  0.00     0.029 A 
ATOM     48  N   UNL A   1      43.615  33.043  29.182  1.00  0.00    -0.354 N 
ATOM     49  C   UNL A   1      45.069  29.037  28.547  1.00  0.00     0.074 A 
ATOM     50  C   UNL A   1      44.077  28.057  28.931  1.00  0.00     0.031 C 
ATOM     51  C   UNL A   1      42.190  34.611  29.892  1.00  0.00     0.029 A 
ATOM     52  C   UNL A   1      43.539  34.405  29.366  1.00  0.00     0.049 A 
ATOM     53  H   UNL A   1      44.373  32.599  28.737  1.00  0.00     0.167 HD
ATOM     54  C   UNL A   1      46.284  28.729  28.033  1.00  0.00     0.034 A 
ATOM     55  C   UNL A   1      44.468  35.368  29.184  1.00  0.00     0.034 A 
ATOM     56  C   UNL A   1      47.268  29.701  27.643  1.00  0.00     0.049 A 
ATOM     57  C   UNL A   1      45.839  34.995  28.673  1.00  0.00     0.074 A 
ATOM     58  C   UNL A   1      48.505  29.484  27.061  1.00  0.00     0.029 A 
ATOM     59  N   UNL A   1      47.142  31.071  27.815  1.00  0.00    -0.354 N 
ATOM     60  N   UNL A   1      46.299  33.819  28.322  1.00  0.00    -0.248 NA
ATOM     61  C   UNL A   1      46.815  36.087  28.520  1.00  0.00     0.031 C 
ATOM     62  C   UNL A   1      49.145  30.719  26.921  1.00  0.00     0.029 A 
ATOM     63  C   UNL A   1      48.291  31.709  27.379  1.00  0.00     0.049 A 
ATOM     64  H   UNL A   1      46.352  31.522  28.191  1.00  0.00     0.167 HD
ATOM     65  C   UNL A   1      47.602  34.033  27.881  1.00  0.00     0.074 A 
ATOM     66  C   UNL A   1      47.852  35.455  27.988  1.00  0.00     0.031 C 
ATOM     67  C   UNL A   1      48.516  33.130  27.444  1.00  0.00     0.034 A 
BRANCH  54  68
ATOM     68  C   UNL A   1      46.620  27.272  27.859  1.00  0.00     0.023 A 
ATOM     69  C   UNL A   1      47.105  26.528  28.954  1.00  0.00     0.012 A 
ATOM     70  C   UNL A   1      46.397  26.627  26.627  1.00  0.00     0.148 A 
ATOM     71  C   UNL A   1      47.392  25.171  28.817  1.00  0.00     0.002 A 
ATOM     72  C   UNL A   1      46.643  25.264  26.510  1.00  0.00     0.091 A 
ATOM     73  F   UNL A   1      45.957  27.357  25.593  1.00  0.00    -0.205 F 
ATOM     74  C   UNL A   1      47.152  24.538  27.600  1.00  0.00     0.022 A 
BRANCH  72  75
ATOM     75  S   UNL A   1      46.292  24.341  25.011  1.00  0.00     0.127 S 
ATOM     76  O   UNL A   1      47.295  24.880  24.092  1.00  0.00    -0.237 OA
ATOM     77  O   UNL A   1      46.535  22.962  25.435  1.00  0.00    -0.237 OA
ATOM     78  O   UNL A   1      44.909  24.639  24.668  1.00  0.00    -0.744 OA
ENDBRANCH  72  75
ENDBRANCH  54  68
BRANCH  55  79
ATOM     79  C   UNL A   1      44.144  36.790  29.498  1.00  0.00     0.023 A 
ATOM     80  C   UNL A   1      44.328  37.270  30.809  1.00  0.00     0.012 A 
ATOM     81  C   UNL A   1      43.653  37.666  28.509  1.00  0.00     0.148 A 
ATOM     82  C   UNL A   1      44.004  38.588  31.136  1.00  0.00     0.002 A 
ATOM     83  C   UNL A   1      43.387  38.992  28.828  1.00  0.00     0.091 A 
ATOM     84  F   UNL A   1      43.462  37.185  27.273  1.00  0.00    -0.205 F 
ATOM     85  C   UNL A   1      43.545  39.451  30.145  1.00  0.00     0.022 A 
BRANCH  83  86
ATOM     86  S   UNL A   1      42.906  40.206  27.595  1.00  0.00     0.127 S 
ATOM     87  O   UNL A   1      43.521  41.424  28.117  1.00  0.00    -0.237 OA
ATOM     88  O   UNL A   1      43.533  39.669  26.386  1.00  0.00    -0.237 OA
ATOM     89  O   UNL A   1      41.450  40.194  27.575  1.00  0.00    -0.744 OA
ENDBRANCH  83  86
ENDBRANCH  55  79
BRANCH  67  90
ATOM     90  C   UNL A   1      49.871  33.639  27.016  1.00  0.00     0.023 A 
ATOM     91  C   UNL A   1      50.082  34.028  25.678  1.00  0.00     0.012 A 
ATOM     92  C   UNL A   1      50.900  33.827  27.961  1.00  0.00     0.148 A 
ATOM     93  C   UNL A   1      51.304  34.574  25.283  1.00  0.00     0.002 A 
ATOM     94  C   UNL A   1      52.097  34.417  27.570  1.00  0.00     0.091 A 
ATOM     95  F   UNL A   1      50.683  33.441  29.226  1.00  0.00    -0.205 F 
ATOM     96  C   UNL A   1      52.305  34.780  26.230  1.00  0.00     0.022 A 
BRANCH  94  97
ATOM     97  S   UNL A   1      53.410  34.809  28.731  1.00  0.00     0.127 S 
ATOM     98  O   UNL A   1      53.759  33.486  29.246  1.00  0.00    -0.237 OA
ATOM     99  O   UNL A   1      54.421  35.411  27.862  1.00  0.00    -0.237 OA
ATOM    100  O   UNL A   1      52.829  35.718  29.710  1.00  0.00    -0.744 OA
ENDBRANCH  94  97
ENDBRANCH  67  90
ENDBRANCH  41  42
ENDBRANCH  34  36
ENDBRANCH  33  34
ENDBRANCH  32  33
ENDBRANCH  31  32
ENDBRANCH  30  31
ENDBRANCH  29  30
ENDBRANCH  28  29
ENDBRANCH   1  28
TORSDOF 27
ENDMDL
MODEL 2
REMARK VINA RESULT:      -8.7      3.156      8.870
REMARK SMILES CC(C)[C@H](NC(=O)OCc1ccccc1)C(=O)NCC(=O)OCCOCCOCCOC(=O)c1ccc(-c2c3nc(c(-c4cccc(S(=O)(=O)[O-])c4F)c4ccc([nH]4)c(-c4cccc(S(=O)(=O)[O-])c4F)c4nc(c(-c5cccc(S(=O)(=O)[O-])c5F)c5ccc2[nH]5)C=C4)C=C3)cc1
REMARK SMILES IDX 25 1 24 2 23 3 22 4 20 5 21 6 19 7 18 8 16 9 17 10 4 12 2 13
REMARK SMILES IDX 1 14 3 15 5 16 6 17 7 19 8 20 9 21 10 22 11 23 15 24 12 25
REMARK SMILES IDX 14 26 13 27 26 28 27 29 28 30 29 31 30 32 31 33 32 34 33 35
REMARK SMILES IDX 34 36 35 37 96 38 36 39 95 40 37 41 38 42 39 43 89 44 40 45
REMARK SMILES IDX 94 46 88 47 90 48 41 49 93 50 87 51 86 52 42 54 74 55 54 56
REMARK SMILES IDX 73 57 55 58 58 59 72 60 91 61 56 62 57 63 71 65 92 66 59 67
REMARK SMILES IDX 43 68 44 69 52 70 45 71 47 72 53 73 46 74 48 75 49 76 50 77
REMARK SMILES IDX 51 78 75 79 76 80 84 81 77 82 79 83 85 84 78 85 80 86 81 87
REMARK SMILES IDX 82 88 83 89 60 90 61 91 69 92 62 93 64 94 70 95 63 96 65 97
REMARK SMILES IDX 66 98 67 99 68 100
REMARK H PARENT 18 11 5 18 90 53 58 64
REMARK Flexibility Score: inf
ROOT
ATOM      1  O   UNL A   1      39.532  20.355  25.481  1.00  0.00    -0.376 OA
ENDROOT
BRANCH   1   2
ATOM      2  C   UNL A   1      38.438  21.236  25.649  1.00  0.00     0.202 C 
BRANCH   2   3
ATOM      3  C   UNL A   1      37.147  21.202  24.812  1.00  0.00     0.261 C 
BRANCH   3   4
ATOM      4  O   UNL A   1      37.037  22.124  23.715  1.00  0.00    -0.462 OA
BRANCH   4   5
ATOM      5  C   UNL A   1      35.886  22.852  23.667  1.00  0.00     0.325 C 
ATOM      6  O   UNL A   1      35.616  23.660  22.785  1.00  0.00    -0.250 OA
BRANCH   5   7
ATOM      7  C   UNL A   1      34.881  22.528  24.782  1.00  0.00     0.238 C 
BRANCH   7   8
ATOM      8  N   UNL A   1      34.292  23.603  25.570  1.00  0.00    -0.343 N 
ATOM      9  C   UNL A   1      33.157  24.325  25.418  1.00  0.00     0.243 C 
ATOM     10  O   UNL A   1      32.867  25.113  26.326  1.00  0.00    -0.273 OA
ATOM     11  H   UNL A   1      34.819  23.850  26.364  1.00  0.00     0.164 HD
BRANCH   9  12
ATOM     12  C   UNL A   1      32.248  24.215  24.182  1.00  0.00     0.177 C 
BRANCH  12  13
ATOM     13  C   UNL A   1      31.449  22.900  24.050  1.00  0.00     0.015 C 
ATOM     14  C   UNL A   1      32.084  21.949  23.026  1.00  0.00     0.010 C 
ATOM     15  C   UNL A   1      31.345  22.190  25.402  1.00  0.00     0.010 C 
ENDBRANCH  12  13
BRANCH  12  16
ATOM     16  N   UNL A   1      33.001  24.714  23.024  1.00  0.00    -0.309 N 
ATOM     17  C   UNL A   1      32.806  25.795  22.239  1.00  0.00     0.408 C 
ATOM     18  H   UNL A   1      33.781  24.166  22.780  1.00  0.00     0.167 HD
ATOM     19  O   UNL A   1      33.372  25.877  21.139  1.00  0.00    -0.225 OA
BRANCH  17  20
ATOM     20  O   UNL A   1      31.943  26.694  22.738  1.00  0.00    -0.445 OA
BRANCH  20  21
ATOM     21  C   UNL A   1      32.443  28.016  22.989  1.00  0.00     0.270 C 
BRANCH  21  22
ATOM     22  C   UNL A   1      32.654  28.235  24.453  1.00  0.00    -0.011 A 
ATOM     23  C   UNL A   1      31.547  28.494  25.271  1.00  0.00     0.007 A 
ATOM     24  C   UNL A   1      33.937  28.212  25.005  1.00  0.00     0.007 A 
ATOM     25  C   UNL A   1      31.720  28.738  26.627  1.00  0.00     0.000 A 
ATOM     26  C   UNL A   1      34.109  28.451  26.366  1.00  0.00     0.000 A 
ATOM     27  C   UNL A   1      33.002  28.718  27.174  1.00  0.00     0.000 A 
ENDBRANCH  21  22
ENDBRANCH  20  21
ENDBRANCH  17  20
ENDBRANCH  12  16
ENDBRANCH   9  12
ENDBRANCH   7   8
ENDBRANCH   5   7
ENDBRANCH   4   5
ENDBRANCH   3   4
ENDBRANCH   2   3
ENDBRANCH   1   2
BRANCH   1  28
ATOM     28  C   UNL A   1      40.411  20.062  26.539  1.00  0.00     0.188 C 
BRANCH  28  29
ATOM     29  C   UNL A   1      41.311  21.185  27.076  1.00  0.00     0.188 C 
BRANCH  29  30
ATOM     30  O   UNL A   1      41.532  22.373  26.353  1.00  0.00    -0.376 OA
BRANCH  30  31
ATOM     31  C   UNL A   1      41.354  23.591  27.051  1.00  0.00     0.202 C 
BRANCH  31  32
ATOM     32  C   UNL A   1      40.074  24.424  26.839  1.00  0.00     0.261 C 
BRANCH  32  33
ATOM     33  O   UNL A   1      40.213  25.642  26.079  1.00  0.00    -0.460 OA
BRANCH  33  34
ATOM     34  C   UNL A   1      41.487  26.037  25.793  1.00  0.00     0.338 C 
ATOM     35  O   UNL A   1      42.157  25.694  24.834  1.00  0.00    -0.246 OA
BRANCH  34  36
ATOM     36  C   UNL A   1      41.863  27.171  26.680  1.00  0.00     0.060 A 
ATOM     37  C   UNL A   1      41.307  28.443  26.441  1.00  0.00     0.016 A 
ATOM     38  C   UNL A   1      42.746  26.990  27.741  1.00  0.00     0.016 A 
ATOM     39  C   UNL A   1      41.620  29.527  27.267  1.00  0.00     0.010 A 
ATOM     40  C   UNL A   1      43.094  28.087  28.539  1.00  0.00     0.010 A 
ATOM     41  C   UNL A   1      42.545  29.363  28.303  1.00  0.00    -0.014 A 
BRANCH  41  42
ATOM     42  C   UNL A   1      43.078  30.534  29.047  1.00  0.00     0.031 A 
ATOM     43  C   UNL A   1      42.286  31.064  30.211  1.00  0.00     0.074 A 
ATOM     44  C   UNL A   1      44.202  31.163  28.661  1.00  0.00     0.049 A 
ATOM     45  N   UNL A   1      42.447  32.166  30.892  1.00  0.00    -0.248 NA
ATOM     46  C   UNL A   1      41.152  30.237  30.659  1.00  0.00     0.031 C 
ATOM     47  C   UNL A   1      45.082  30.739  27.576  1.00  0.00     0.029 A 
ATOM     48  N   UNL A   1      44.766  32.333  29.117  1.00  0.00    -0.354 N 
ATOM     49  C   UNL A   1      41.412  32.194  31.818  1.00  0.00     0.074 A 
ATOM     50  C   UNL A   1      40.633  30.991  31.618  1.00  0.00     0.031 C 
ATOM     51  C   UNL A   1      46.046  31.663  27.412  1.00  0.00     0.029 A 
ATOM     52  C   UNL A   1      45.826  32.763  28.350  1.00  0.00     0.049 A 
ATOM     53  H   UNL A   1      44.445  32.814  29.913  1.00  0.00     0.167 HD
ATOM     54  C   UNL A   1      41.132  33.135  32.751  1.00  0.00     0.034 A 
ATOM     55  C   UNL A   1      46.503  33.930  28.367  1.00  0.00     0.034 A 
ATOM     56  C   UNL A   1      41.909  34.326  32.957  1.00  0.00     0.049 A 
ATOM     57  C   UNL A   1      46.131  34.995  29.371  1.00  0.00     0.074 A 
ATOM     58  C   UNL A   1      41.734  35.310  33.914  1.00  0.00     0.029 A 
ATOM     59  N   UNL A   1      42.992  34.711  32.182  1.00  0.00    -0.354 N 
ATOM     60  N   UNL A   1      45.222  34.961  30.315  1.00  0.00    -0.248 NA
ATOM     61  C   UNL A   1      46.891  36.255  29.322  1.00  0.00     0.031 C 
ATOM     62  C   UNL A   1      42.684  36.311  33.692  1.00  0.00     0.029 A 
ATOM     63  C   UNL A   1      43.476  35.932  32.620  1.00  0.00     0.049 A 
ATOM     64  H   UNL A   1      43.362  34.192  31.432  1.00  0.00     0.167 HD
ATOM     65  C   UNL A   1      45.319  36.176  30.986  1.00  0.00     0.074 A 
ATOM     66  C   UNL A   1      46.391  36.918  30.356  1.00  0.00     0.031 C 
ATOM     67  C   UNL A   1      44.575  36.644  32.019  1.00  0.00     0.034 A 
BRANCH  54  68
ATOM     68  C   UNL A   1      39.928  32.914  33.627  1.00  0.00     0.023 A 
ATOM     69  C   UNL A   1      40.084  32.335  34.902  1.00  0.00     0.012 A 
ATOM     70  C   UNL A   1      38.651  33.337  33.210  1.00  0.00     0.148 A 
ATOM     71  C   UNL A   1      38.983  32.152  35.737  1.00  0.00     0.002 A 
ATOM     72  C   UNL A   1      37.565  33.192  34.065  1.00  0.00     0.091 A 
ATOM     73  F   UNL A   1      38.521  33.865  31.984  1.00  0.00    -0.205 F 
ATOM     74  C   UNL A   1      37.728  32.589  35.323  1.00  0.00     0.022 A 
BRANCH  72  75
ATOM     75  S   UNL A   1      35.924  33.794  33.657  1.00  0.00     0.127 S 
ATOM     76  O   UNL A   1      36.212  35.154  33.204  1.00  0.00    -0.237 OA
ATOM     77  O   UNL A   1      35.513  32.873  32.597  1.00  0.00    -0.237 OA
ATOM     78  O   UNL A   1      35.142  33.698  34.882  1.00  0.00    -0.744 OA
ENDBRANCH  72  75
ENDBRANCH  54  68
BRANCH  55  79
ATOM     79  C   UNL A   1      47.604  34.171  27.389  1.00  0.00     0.023 A 
ATOM     80  C   UNL A   1      47.313  34.771  26.149  1.00  0.00     0.012 A 
ATOM     81  C   UNL A   1      48.935  33.808  27.680  1.00  0.00     0.148 A 
ATOM     82  C   UNL A   1      48.320  34.980  25.206  1.00  0.00     0.002 A 
ATOM     83  C   UNL A   1      49.942  34.070  26.759  1.00  0.00     0.091 A 
ATOM     84  F   UNL A   1      49.189  33.216  28.856  1.00  0.00    -0.205 F 
ATOM     85  C   UNL A   1      49.635  34.640  25.514  1.00  0.00     0.022 A 
BRANCH  83  86
ATOM     86  S   UNL A   1      51.678  33.778  27.115  1.00  0.00     0.127 S 
ATOM     87  O   UNL A   1      51.875  34.576  28.322  1.00  0.00    -0.237 OA
ATOM     88  O   UNL A   1      51.701  32.329  27.323  1.00  0.00    -0.237 OA
ATOM     89  O   UNL A   1      52.404  34.229  25.935  1.00  0.00    -0.744 OA
ENDBRANCH  83  86
ENDBRANCH  55  79
BRANCH  67  90
ATOM     90  C   UNL A   1      44.898  38.012  32.568  1.00  0.00     0.023 A 
ATOM     91  C   UNL A   1      45.854  38.145  33.595  1.00  0.00     0.012 A 
ATOM     92  C   UNL A   1      44.332  39.169  31.996  1.00  0.00     0.148 A 
ATOM     93  C   UNL A   1      46.224  39.409  34.059  1.00  0.00     0.002 A 
ATOM     94  C   UNL A   1      44.742  40.426  32.430  1.00  0.00     0.091 A 
ATOM     95  F   UNL A   1      43.418  39.020  31.028  1.00  0.00    -0.205 F 
ATOM     96  C   UNL A   1      45.678  40.547  33.469  1.00  0.00     0.022 A 
BRANCH  94  97
ATOM     97  S   UNL A   1      44.168  41.949  31.671  1.00  0.00     0.127 S 
ATOM     98  O   UNL A   1      44.730  41.842  30.325  1.00  0.00    -0.237 OA
ATOM     99  O   UNL A   1      42.714  41.799  31.737  1.00  0.00    -0.237 OA
ATOM    100  O   UNL A   1      44.707  43.033  32.480  1.00  0.00    -0.744 OA
ENDBRANCH  94  97
ENDBRANCH  67  90
ENDBRANCH  41  42
ENDBRANCH  34  36
ENDBRANCH  33  34
ENDBRANCH  32  33
ENDBRANCH  31  32
ENDBRANCH  30  31
ENDBRANCH  29  30
ENDBRANCH  28  29
ENDBRANCH   1  28
TORSDOF 27
ENDMDL
MODEL 3
REMARK VINA RESULT:      -8.6      1.739      2.062
REMARK SMILES CC(C)[C@H](NC(=O)OCc1ccccc1)C(=O)NCC(=O)OCCOCCOCCOC(=O)c1ccc(-c2c3nc(c(-c4cccc(S(=O)(=O)[O-])c4F)c4ccc([nH]4)c(-c4cccc(S(=O)(=O)[O-])c4F)c4nc(c(-c5cccc(S(=O)(=O)[O-])c5F)c5ccc2[nH]5)C=C4)C=C3)cc1
REMARK SMILES IDX 25 1 24 2 23 3 22 4 20 5 21 6 19 7 18 8 16 9 17 10 4 12 2 13
REMARK SMILES IDX 1 14 3 15 5 16 6 17 7 19 8 20 9 21 10 22 11 23 15 24 12 25
REMARK SMILES IDX 14 26 13 27 26 28 27 29 28 30 29 31 30 32 31 33 32 34 33 35
REMARK SMILES IDX 34 36 35 37 96 38 36 39 95 40 37 41 38 42 39 43 89 44 40 45
REMARK SMILES IDX 94 46 88 47 90 48 41 49 93 50 87 51 86 52 42 54 74 55 54 56
REMARK SMILES IDX 73 57 55 58 58 59 72 60 91 61 56 62 57 63 71 65 92 66 59 67
REMARK SMILES IDX 43 68 44 69 52 70 45 71 47 72 53 73 46 74 48 75 49 76 50 77
REMARK SMILES IDX 51 78 75 79 76 80 84 81 77 82 79 83 85 84 78 85 80 86 81 87
REMARK SMILES IDX 82 88 83 89 60 90 61 91 69 92 62 93 64 94 70 95 63 96 65 97
REMARK SMILES IDX 66 98 67 99 68 100
REMARK H PARENT 18 11 5 18 90 53 58 64
REMARK Flexibility Score: inf
ROOT
ATOM      1  O   UNL A   1      34.123  33.282  29.004  1.00  0.00    -0.376 OA
ENDROOT
BRANCH   1   2
ATOM      2  C   UNL A   1      33.654  32.585  27.865  1.00  0.00     0.202 C 
BRANCH   2   3
ATOM      3  C   UNL A   1      34.051  31.146  27.490  1.00  0.00     0.261 C 
BRANCH   3   4
ATOM      4  O   UNL A   1      33.000  30.176  27.359  1.00  0.00    -0.462 OA
BRANCH   4   5
ATOM      5  C   UNL A   1      32.860  29.618  26.124  1.00  0.00     0.325 C 
ATOM      6  O   UNL A   1      32.154  30.078  25.233  1.00  0.00    -0.250 OA
BRANCH   5   7
ATOM      7  C   UNL A   1      33.736  28.379  25.883  1.00  0.00     0.238 C 
BRANCH   7   8
ATOM      8  N   UNL A   1      33.695  27.695  24.597  1.00  0.00    -0.343 N 
ATOM      9  C   UNL A   1      33.858  26.396  24.253  1.00  0.00     0.243 C 
ATOM     10  O   UNL A   1      33.659  26.098  23.070  1.00  0.00    -0.273 OA
ATOM     11  H   UNL A   1      33.513  28.289  23.834  1.00  0.00     0.164 HD
BRANCH   9  12
ATOM     12  C   UNL A   1      34.289  25.308  25.252  1.00  0.00     0.177 C 
BRANCH  12  13
ATOM     13  C   UNL A   1      35.196  24.195  24.684  1.00  0.00     0.015 C 
ATOM     14  C   UNL A   1      36.186  23.674  25.736  1.00  0.00     0.010 C 
ATOM     15  C   UNL A   1      34.357  23.027  24.158  1.00  0.00     0.010 C 
ENDBRANCH  12  13
BRANCH  12  16
ATOM     16  N   UNL A   1      33.111  24.934  26.045  1.00  0.00    -0.309 N 
ATOM     17  C   UNL A   1      31.817  25.310  25.944  1.00  0.00     0.408 C 
ATOM     18  H   UNL A   1      33.296  24.301  26.776  1.00  0.00     0.167 HD
ATOM     19  O   UNL A   1      31.036  25.117  26.886  1.00  0.00    -0.225 OA
BRANCH  17  20
ATOM     20  O   UNL A   1      31.508  25.923  24.789  1.00  0.00    -0.445 OA
BRANCH  20  21
ATOM     21  C   UNL A   1      30.204  25.673  24.243  1.00  0.00     0.270 C 
BRANCH  21  22
ATOM     22  C   UNL A   1      29.637  26.915  23.633  1.00  0.00    -0.011 A 
ATOM     23  C   UNL A   1      30.495  27.809  22.980  1.00  0.00     0.007 A 
ATOM     24  C   UNL A   1      28.274  27.205  23.732  1.00  0.00     0.007 A 
ATOM     25  C   UNL A   1      29.998  28.987  22.438  1.00  0.00     0.000 A 
ATOM     26  C   UNL A   1      27.777  28.384  23.182  1.00  0.00     0.000 A 
ATOM     27  C   UNL A   1      28.639  29.275  22.542  1.00  0.00     0.000 A 
ENDBRANCH  21  22
ENDBRANCH  20  21
ENDBRANCH  17  20
ENDBRANCH  12  16
ENDBRANCH   9  12
ENDBRANCH   7   8
ENDBRANCH   5   7
ENDBRANCH   4   5
ENDBRANCH   3   4
ENDBRANCH   2   3
ENDBRANCH   1   2
BRANCH   1  28
ATOM     28  C   UNL A   1      34.919  32.651  29.977  1.00  0.00     0.188 C 
BRANCH  28  29
ATOM     29  C   UNL A   1      34.650  32.962  31.458  1.00  0.00     0.188 C 
BRANCH  29  30
ATOM     30  O   UNL A   1      35.579  33.663  32.252  1.00  0.00    -0.376 OA
BRANCH  30  31
ATOM     31  C   UNL A   1      36.668  32.923  32.768  1.00  0.00     0.202 C 
BRANCH  31  32
ATOM     32  C   UNL A   1      36.463  31.466  33.232  1.00  0.00     0.261 C 
BRANCH  32  33
ATOM     33  O   UNL A   1      36.621  30.440  32.230  1.00  0.00    -0.460 OA
BRANCH  33  34
ATOM     34  C   UNL A   1      37.579  29.500  32.471  1.00  0.00     0.338 C 
ATOM     35  O   UNL A   1      37.414  28.411  32.994  1.00  0.00    -0.246 OA
BRANCH  34  36
ATOM     36  C   UNL A   1      38.829  29.873  31.754  1.00  0.00     0.060 A 
ATOM     37  C   UNL A   1      40.060  29.792  32.434  1.00  0.00     0.016 A 
ATOM     38  C   UNL A   1      38.798  30.290  30.426  1.00  0.00     0.016 A 
ATOM     39  C   UNL A   1      41.257  30.112  31.786  1.00  0.00     0.010 A 
ATOM     40  C   UNL A   1      39.993  30.653  29.793  1.00  0.00     0.010 A 
ATOM     41  C   UNL A   1      41.227  30.580  30.469  1.00  0.00    -0.014 A 
BRANCH  41  42
ATOM     42  C   UNL A   1      42.442  31.149  29.829  1.00  0.00     0.031 A 
ATOM     43  C   UNL A   1      43.499  30.203  29.330  1.00  0.00     0.074 A 
ATOM     44  C   UNL A   1      42.644  32.477  29.755  1.00  0.00     0.049 A 
ATOM     45  N   UNL A   1      44.708  30.456  28.907  1.00  0.00    -0.248 NA
ATOM     46  C   UNL A   1      43.141  28.774  29.314  1.00  0.00     0.031 C 
ATOM     47  C   UNL A   1      41.692  33.504  30.169  1.00  0.00     0.029 A 
ATOM     48  N   UNL A   1      43.751  33.185  29.347  1.00  0.00    -0.354 N 
ATOM     49  C   UNL A   1      45.275  29.222  28.619  1.00  0.00     0.074 A 
ATOM     50  C   UNL A   1      44.272  28.218  28.905  1.00  0.00     0.031 C 
ATOM     51  C   UNL A   1      42.274  34.710  30.045  1.00  0.00     0.029 A 
ATOM     52  C   UNL A   1      43.652  34.537  29.586  1.00  0.00     0.049 A 
ATOM     53  H   UNL A   1      44.536  32.767  28.925  1.00  0.00     0.167 HD
ATOM     54  C   UNL A   1      46.519  28.945  28.159  1.00  0.00     0.034 A 
ATOM     55  C   UNL A   1      44.580  35.514  29.497  1.00  0.00     0.034 A 
ATOM     56  C   UNL A   1      47.513  29.940  27.866  1.00  0.00     0.049 A 
ATOM     57  C   UNL A   1      45.981  35.174  29.047  1.00  0.00     0.074 A 
ATOM     58  C   UNL A   1      48.782  29.758  27.344  1.00  0.00     0.029 A 
ATOM     59  N   UNL A   1      47.365  31.300  28.091  1.00  0.00    -0.354 N 
ATOM     60  N   UNL A   1      46.470  34.017  28.670  1.00  0.00    -0.248 NA
ATOM     61  C   UNL A   1      46.953  36.278  28.995  1.00  0.00     0.031 C 
ATOM     62  C   UNL A   1      49.417  31.002  27.293  1.00  0.00     0.029 A 
ATOM     63  C   UNL A   1      48.530  31.965  27.747  1.00  0.00     0.049 A 
ATOM     64  H   UNL A   1      46.552  31.729  28.443  1.00  0.00     0.167 HD
ATOM     65  C   UNL A   1      47.793  34.260  28.311  1.00  0.00     0.074 A 
ATOM     66  C   UNL A   1      48.024  35.677  28.493  1.00  0.00     0.031 C 
ATOM     67  C   UNL A   1      48.737  33.383  27.886  1.00  0.00     0.034 A 
BRANCH  54  68
ATOM     68  C   UNL A   1      46.877  27.499  27.941  1.00  0.00     0.023 A 
ATOM     69  C   UNL A   1      47.463  26.756  28.986  1.00  0.00     0.012 A 
ATOM     70  C   UNL A   1      46.577  26.862  26.721  1.00  0.00     0.148 A 
ATOM     71  C   UNL A   1      47.773  25.408  28.809  1.00  0.00     0.002 A 
ATOM     72  C   UNL A   1      46.848  25.508  26.567  1.00  0.00     0.091 A 
ATOM     73  F   UNL A   1      46.041  27.593  25.734  1.00  0.00    -0.205 F 
ATOM     74  C   UNL A   1      47.457  24.783  27.605  1.00  0.00     0.022 A 
BRANCH  72  75
ATOM     75  S   UNL A   1      46.407  24.594  25.087  1.00  0.00     0.127 S 
ATOM     76  O   UNL A   1      46.528  23.211  25.548  1.00  0.00    -0.237 OA
ATOM     77  O   UNL A   1      45.033  25.038  24.849  1.00  0.00    -0.237 OA
ATOM     78  O   UNL A   1      47.363  24.995  24.064  1.00  0.00    -0.744 OA
ENDBRANCH  72  75
ENDBRANCH  54  68
BRANCH  55  79
ATOM     79  C   UNL A   1      44.226  36.918  29.855  1.00  0.00     0.023 A 
ATOM     80  C   UNL A   1      43.817  37.810  28.845  1.00  0.00     0.012 A 
ATOM     81  C   UNL A   1      44.295  37.374  31.187  1.00  0.00     0.148 A 
ATOM     82  C   UNL A   1      43.509  39.138  29.150  1.00  0.00     0.002 A 
ATOM     83  C   UNL A   1      43.933  38.681  31.492  1.00  0.00     0.091 A 
ATOM     84  F   UNL A   1      44.709  36.518  32.131  1.00  0.00    -0.205 F 
ATOM     85  C   UNL A   1      43.556  39.569  30.473  1.00  0.00     0.022 A 
BRANCH  83  86
ATOM     86  S   UNL A   1      43.847  39.293  33.178  1.00  0.00     0.127 S 
ATOM     87  O   UNL A   1      42.875  38.381  33.778  1.00  0.00    -0.237 OA
ATOM     88  O   UNL A   1      45.225  39.110  33.634  1.00  0.00    -0.237 OA
ATOM     89  O   UNL A   1      43.426  40.683  33.073  1.00  0.00    -0.744 OA
ENDBRANCH  83  86
ENDBRANCH  55  79
BRANCH  67  90
ATOM     90  C   UNL A   1      50.109  33.919  27.555  1.00  0.00     0.023 A 
ATOM     91  C   UNL A   1      51.083  34.020  28.569  1.00  0.00     0.012 A 
ATOM     92  C   UNL A   1      50.462  34.225  26.226  1.00  0.00     0.148 A 
ATOM     93  C   UNL A   1      52.380  34.439  28.266  1.00  0.00     0.002 A 
ATOM     94  C   UNL A   1      51.769  34.594  25.924  1.00  0.00     0.091 A 
ATOM     95  F   UNL A   1      49.518  34.132  25.278  1.00  0.00    -0.205 F 
ATOM     96  C   UNL A   1      52.725  34.713  26.945  1.00  0.00     0.022 A 
BRANCH  94  97
ATOM     97  S   UNL A   1      52.334  34.876  24.243  1.00  0.00     0.127 S 
ATOM     98  O   UNL A   1      53.767  35.088  24.442  1.00  0.00    -0.237 OA
ATOM     99  O   UNL A   1      51.991  33.614  23.586  1.00  0.00    -0.237 OA
ATOM    100  O   UNL A   1      51.600  36.035  23.757  1.00  0.00    -0.744 OA
ENDBRANCH  94  97
ENDBRANCH  67  90
ENDBRANCH  41  42
ENDBRANCH  34  36
ENDBRANCH  33  34
ENDBRANCH  32  33
ENDBRANCH  31  32
ENDBRANCH  30  31
ENDBRANCH  29  30
ENDBRANCH  28  29
ENDBRANCH   1  28
TORSDOF 27
ENDMDL
