MODEL 1
REMARK VINA RESULT:      -7.8      0.000      0.000
REMARK SMILES O=C(COc1cccc(/C=C2/SC(=S)N(NC(=O)c3ccccc3F)C2=O)c1)OCCOCCOCCOC(=O)c1ccc(-c2c3nc(c(-c4cccc(S(=O)(=O)[O-])c4F)c4ccc([nH]4)c(-c4cccc(S(=O)(=O)[O-])c4F)c4nc(c(-c5cccc(S(=O)(=O)[O-])c5F)c5ccc2[nH]5)C=C4)C=C3)cc1
REMARK SMILES IDX 33 1 32 2 31 3 30 4 29 5 2 6 1 7 3 8 4 9 5 10 6 11 28 12
REMARK SMILES IDX 7 13 9 14 8 15 10 16 11 17 12 18 26 19 13 20 15 21 27 22
REMARK SMILES IDX 14 23 16 24 17 25 18 27 19 28 20 29 24 30 21 31 23 32 25 33
REMARK SMILES IDX 22 34 34 35 35 36 36 37 37 38 38 39 39 40 40 41 41 42 42 43
REMARK SMILES IDX 103 44 43 45 102 46 44 47 45 48 46 49 96 50 47 51 101 52
REMARK SMILES IDX 95 53 97 54 48 55 100 56 94 57 93 58 49 60 81 61 61 62 80 63
REMARK SMILES IDX 62 64 65 65 79 66 98 67 63 68 64 69 78 71 99 72 66 73 50 74
REMARK SMILES IDX 51 75 59 76 52 77 54 78 60 79 53 80 55 81 56 82 57 83 58 84
REMARK SMILES IDX 82 85 83 86 91 87 84 88 86 89 92 90 85 91 87 92 88 93 89 94
REMARK SMILES IDX 90 95 67 96 68 97 76 98 69 99 71 100 77 101 70 102 72 103
REMARK SMILES IDX 73 104 74 105 75 106
REMARK H PARENT 16 26 97 59 65 70
REMARK Flexibility Score: inf
ROOT
ATOM      1  C   UNL A   1      39.869  27.954  27.779  1.00  0.00     0.188 C 
ENDROOT
BRANCH   1   2
ATOM      2  O   UNL A   1      38.716  28.043  28.605  1.00  0.00    -0.376 OA
BRANCH   2   3
ATOM      3  C   UNL A   1      38.309  29.359  28.920  1.00  0.00     0.202 C 
BRANCH   3   4
ATOM      4  C   UNL A   1      36.793  29.440  29.026  1.00  0.00     0.261 C 
BRANCH   4   5
ATOM      5  O   UNL A   1      36.082  28.986  27.859  1.00  0.00    -0.461 OA
BRANCH   5   6
ATOM      6  C   UNL A   1      34.827  29.322  27.500  1.00  0.00     0.344 C 
ATOM      7  O   UNL A   1      34.007  28.428  27.281  1.00  0.00    -0.248 OA
BRANCH   6   8
ATOM      8  C   UNL A   1      34.455  30.791  27.280  1.00  0.00     0.351 C 
BRANCH   8   9
ATOM      9  O   UNL A   1      33.932  31.607  28.306  1.00  0.00    -0.482 OA
BRANCH   9  10
ATOM     10  C   UNL A   1      34.827  32.495  28.832  1.00  0.00     0.120 A 
ATOM     11  C   UNL A   1      36.040  32.641  28.170  1.00  0.00     0.046 A 
ATOM     12  C   UNL A   1      34.630  33.135  30.051  1.00  0.00     0.054 A 
ATOM     13  C   UNL A   1      37.045  33.425  28.737  1.00  0.00     0.004 A 
ATOM     14  C   UNL A   1      35.671  33.786  30.702  1.00  0.00    -0.021 A 
ATOM     15  C   UNL A   1      36.869  33.980  30.011  1.00  0.00     0.008 A 
BRANCH  14  16
ATOM     16  C   UNL A   1      35.515  34.194  32.107  1.00  0.00     0.029 C 
ATOM     17  C   UNL A   1      35.889  33.471  33.181  1.00  0.00     0.082 C 
ATOM     18  S   UNL A   1      35.900  34.131  34.784  1.00  0.00    -0.052 SA
ATOM     19  C   UNL A   1      36.488  32.097  33.239  1.00  0.00     0.285 C 
ATOM     20  C   UNL A   1      36.983  32.877  35.390  1.00  0.00     0.168 C 
ATOM     21  N   UNL A   1      37.246  31.972  34.384  1.00  0.00    -0.198 N 
ATOM     22  O   UNL A   1      36.278  31.194  32.447  1.00  0.00    -0.266 OA
ATOM     23  S   UNL A   1      37.533  32.826  36.966  1.00  0.00    -0.050 S 
BRANCH  21  24
ATOM     24  N   UNL A   1      38.035  30.831  34.626  1.00  0.00    -0.254 N 
ATOM     25  C   UNL A   1      39.326  30.560  34.210  1.00  0.00     0.273 C 
ATOM     26  H   UNL A   1      37.609  30.129  35.170  1.00  0.00     0.192 HD
ATOM     27  O   UNL A   1      39.854  29.515  34.603  1.00  0.00    -0.267 OA
BRANCH  25  28
ATOM     28  C   UNL A   1      40.093  31.392  33.256  1.00  0.00     0.077 A 
ATOM     29  C   UNL A   1      40.399  30.825  32.005  1.00  0.00     0.017 A 
ATOM     30  C   UNL A   1      40.513  32.692  33.523  1.00  0.00     0.136 A 
ATOM     31  C   UNL A   1      41.019  31.589  31.011  1.00  0.00     0.001 A 
ATOM     32  C   UNL A   1      41.122  33.460  32.530  1.00  0.00     0.040 A 
ATOM     33  F   UNL A   1      40.316  33.247  34.728  1.00  0.00    -0.206 F 
ATOM     34  C   UNL A   1      41.356  32.916  31.266  1.00  0.00     0.003 A 
ENDBRANCH  25  28
ENDBRANCH  21  24
ENDBRANCH  14  16
ENDBRANCH   9  10
ENDBRANCH   8   9
ENDBRANCH   6   8
ENDBRANCH   5   6
ENDBRANCH   4   5
ENDBRANCH   3   4
ENDBRANCH   2   3
ENDBRANCH   1   2
BRANCH   1  35
ATOM     35  C   UNL A   1      40.087  26.525  27.263  1.00  0.00     0.188 C 
BRANCH  35  36
ATOM     36  O   UNL A   1      41.395  26.101  26.891  1.00  0.00    -0.376 OA
BRANCH  36  37
ATOM     37  C   UNL A   1      41.934  26.535  25.653  1.00  0.00     0.202 C 
BRANCH  37  38
ATOM     38  C   UNL A   1      43.360  27.099  25.688  1.00  0.00     0.261 C 
BRANCH  38  39
ATOM     39  O   UNL A   1      43.469  28.490  26.047  1.00  0.00    -0.460 OA
BRANCH  39  40
ATOM     40  C   UNL A   1      44.529  28.838  26.819  1.00  0.00     0.338 C 
ATOM     41  O   UNL A   1      45.500  28.144  27.081  1.00  0.00    -0.246 OA
BRANCH  40  42
ATOM     42  C   UNL A   1      44.444  30.272  27.197  1.00  0.00     0.060 A 
ATOM     43  C   UNL A   1      45.513  31.126  26.876  1.00  0.00     0.016 A 
ATOM     44  C   UNL A   1      43.353  30.766  27.913  1.00  0.00     0.016 A 
ATOM     45  C   UNL A   1      45.517  32.457  27.313  1.00  0.00     0.010 A 
ATOM     46  C   UNL A   1      43.369  32.091  28.369  1.00  0.00     0.010 A 
ATOM     47  C   UNL A   1      44.468  32.933  28.107  1.00  0.00    -0.014 A 
BRANCH  47  48
ATOM     48  C   UNL A   1      44.590  34.205  28.869  1.00  0.00     0.031 A 
ATOM     49  C   UNL A   1      44.827  34.117  30.355  1.00  0.00     0.074 A 
ATOM     50  C   UNL A   1      44.401  35.408  28.299  1.00  0.00     0.049 A 
ATOM     51  N   UNL A   1      44.766  35.053  31.265  1.00  0.00    -0.248 NA
ATOM     52  C   UNL A   1      45.158  32.783  30.879  1.00  0.00     0.031 C 
ATOM     53  C   UNL A   1      44.182  35.644  26.876  1.00  0.00     0.029 A 
ATOM     54  N   UNL A   1      44.305  36.656  28.870  1.00  0.00    -0.354 N 
ATOM     55  C   UNL A   1      44.993  34.411  32.477  1.00  0.00     0.074 A 
ATOM     56  C   UNL A   1      45.202  33.010  32.182  1.00  0.00     0.031 C 
ATOM     57  C   UNL A   1      43.914  36.949  26.690  1.00  0.00     0.029 A 
ATOM     58  C   UNL A   1      43.903  37.630  27.986  1.00  0.00     0.049 A 
ATOM     59  H   UNL A   1      44.505  36.835  29.818  1.00  0.00     0.167 HD
ATOM     60  C   UNL A   1      45.020  34.934  33.726  1.00  0.00     0.034 A 
ATOM     61  C   UNL A   1      43.518  38.906  28.200  1.00  0.00     0.034 A 
ATOM     62  C   UNL A   1      44.822  36.326  34.023  1.00  0.00     0.049 A 
ATOM     63  C   UNL A   1      43.532  39.473  29.598  1.00  0.00     0.074 A 
ATOM     64  C   UNL A   1      44.894  36.961  35.251  1.00  0.00     0.029 A 
ATOM     65  N   UNL A   1      44.492  37.295  33.089  1.00  0.00    -0.354 N 
ATOM     66  N   UNL A   1      43.855  38.883  30.723  1.00  0.00    -0.248 NA
ATOM     67  C   UNL A   1      43.156  40.887  29.754  1.00  0.00     0.031 C 
ATOM     68  C   UNL A   1      44.566  38.308  35.064  1.00  0.00     0.029 A 
ATOM     69  C   UNL A   1      44.336  38.520  33.714  1.00  0.00     0.049 A 
ATOM     70  H   UNL A   1      44.384  37.135  32.124  1.00  0.00     0.167 HD
ATOM     71  C   UNL A   1      43.760  39.859  31.712  1.00  0.00     0.074 A 
ATOM     72  C   UNL A   1      43.353  41.082  31.052  1.00  0.00     0.031 C 
ATOM     73  C   UNL A   1      43.985  39.749  33.045  1.00  0.00     0.034 A 
BRANCH  60  74
ATOM     74  C   UNL A   1      45.262  33.983  34.868  1.00  0.00     0.023 A 
ATOM     75  C   UNL A   1      46.578  33.615  35.215  1.00  0.00     0.012 A 
ATOM     76  C   UNL A   1      44.182  33.459  35.606  1.00  0.00     0.148 A 
ATOM     77  C   UNL A   1      46.813  32.703  36.244  1.00  0.00     0.002 A 
ATOM     78  C   UNL A   1      44.426  32.591  36.662  1.00  0.00     0.091 A 
ATOM     79  F   UNL A   1      42.936  33.798  35.246  1.00  0.00    -0.205 F 
ATOM     80  C   UNL A   1      45.738  32.198  36.972  1.00  0.00     0.022 A 
BRANCH  78  81
ATOM     81  S   UNL A   1      43.110  31.958  37.707  1.00  0.00     0.127 S 
ATOM     82  O   UNL A   1      42.249  31.293  36.730  1.00  0.00    -0.237 OA
ATOM     83  O   UNL A   1      43.833  31.049  38.599  1.00  0.00    -0.237 OA
ATOM     84  O   UNL A   1      42.534  33.120  38.369  1.00  0.00    -0.744 OA
ENDBRANCH  78  81
ENDBRANCH  60  74
BRANCH  61  85
ATOM     85  C   UNL A   1      43.085  39.743  27.042  1.00  0.00     0.023 A 
ATOM     86  C   UNL A   1      41.729  39.767  26.667  1.00  0.00     0.012 A 
ATOM     87  C   UNL A   1      44.005  40.554  26.348  1.00  0.00     0.148 A 
ATOM     88  C   UNL A   1      41.298  40.570  25.610  1.00  0.00     0.002 A 
ATOM     89  C   UNL A   1      43.561  41.396  25.337  1.00  0.00     0.091 A 
ATOM     90  F   UNL A   1      45.294  40.504  26.713  1.00  0.00    -0.205 F 
ATOM     91  C   UNL A   1      42.210  41.393  24.954  1.00  0.00     0.022 A 
BRANCH  89  92
ATOM     92  S   UNL A   1      44.629  42.596  24.535  1.00  0.00     0.127 S 
ATOM     93  O   UNL A   1      45.341  43.173  25.672  1.00  0.00    -0.237 OA
ATOM     94  O   UNL A   1      45.440  41.739  23.669  1.00  0.00    -0.237 OA
ATOM     95  O   UNL A   1      43.742  43.507  23.823  1.00  0.00    -0.744 OA
ENDBRANCH  89  92
ENDBRANCH  61  85
BRANCH  73  96
ATOM     96  C   UNL A   1      43.862  40.985  33.900  1.00  0.00     0.023 A 
ATOM     97  C   UNL A   1      42.594  41.449  34.300  1.00  0.00     0.012 A 
ATOM     98  C   UNL A   1      45.018  41.617  34.404  1.00  0.00     0.148 A 
ATOM     99  C   UNL A   1      42.478  42.533  35.172  1.00  0.00     0.002 A 
ATOM    100  C   UNL A   1      44.896  42.664  35.311  1.00  0.00     0.091 A 
ATOM    101  F   UNL A   1      46.216  41.172  33.999  1.00  0.00    -0.205 F 
ATOM    102  C   UNL A   1      43.626  43.130  35.688  1.00  0.00     0.022 A 
BRANCH 100 103
ATOM    103  S   UNL A   1      46.316  43.426  36.104  1.00  0.00     0.127 S 
ATOM    104  O   UNL A   1      46.394  44.709  35.407  1.00  0.00    -0.237 OA
ATOM    105  O   UNL A   1      45.883  43.514  37.498  1.00  0.00    -0.237 OA
ATOM    106  O   UNL A   1      47.439  42.525  35.874  1.00  0.00    -0.744 OA
ENDBRANCH 100 103
ENDBRANCH  73  96
ENDBRANCH  47  48
ENDBRANCH  40  42
ENDBRANCH  39  40
ENDBRANCH  38  39
ENDBRANCH  37  38
ENDBRANCH  36  37
ENDBRANCH  35  36
ENDBRANCH   1  35
TORSDOF 25
ENDMDL
MODEL 2
REMARK VINA RESULT:      -7.6      4.750      9.179
REMARK SMILES O=C(COc1cccc(/C=C2/SC(=S)N(NC(=O)c3ccccc3F)C2=O)c1)OCCOCCOCCOC(=O)c1ccc(-c2c3nc(c(-c4cccc(S(=O)(=O)[O-])c4F)c4ccc([nH]4)c(-c4cccc(S(=O)(=O)[O-])c4F)c4nc(c(-c5cccc(S(=O)(=O)[O-])c5F)c5ccc2[nH]5)C=C4)C=C3)cc1
REMARK SMILES IDX 33 1 32 2 31 3 30 4 29 5 2 6 1 7 3 8 4 9 5 10 6 11 28 12
REMARK SMILES IDX 7 13 9 14 8 15 10 16 11 17 12 18 26 19 13 20 15 21 27 22
REMARK SMILES IDX 14 23 16 24 17 25 18 27 19 28 20 29 24 30 21 31 23 32 25 33
REMARK SMILES IDX 22 34 34 35 35 36 36 37 37 38 38 39 39 40 40 41 41 42 42 43
REMARK SMILES IDX 103 44 43 45 102 46 44 47 45 48 46 49 96 50 47 51 101 52
REMARK SMILES IDX 95 53 97 54 48 55 100 56 94 57 93 58 49 60 81 61 61 62 80 63
REMARK SMILES IDX 62 64 65 65 79 66 98 67 63 68 64 69 78 71 99 72 66 73 50 74
REMARK SMILES IDX 51 75 59 76 52 77 54 78 60 79 53 80 55 81 56 82 57 83 58 84
REMARK SMILES IDX 82 85 83 86 91 87 84 88 86 89 92 90 85 91 87 92 88 93 89 94
REMARK SMILES IDX 90 95 67 96 68 97 76 98 69 99 71 100 77 101 70 102 72 103
REMARK SMILES IDX 73 104 74 105 75 106
REMARK H PARENT 16 26 97 59 65 70
REMARK Flexibility Score: inf
ROOT
ATOM      1  C   UNL A   1      45.316  25.619  24.940  1.00  0.00     0.188 C 
ENDROOT
BRANCH   1   2
ATOM      2  O   UNL A   1      45.001  26.859  25.560  1.00  0.00    -0.376 OA
BRANCH   2   3
ATOM      3  C   UNL A   1      43.625  27.180  25.585  1.00  0.00     0.202 C 
BRANCH   3   4
ATOM      4  C   UNL A   1      43.375  28.398  26.461  1.00  0.00     0.261 C 
BRANCH   4   5
ATOM      5  O   UNL A   1      44.543  28.911  27.130  1.00  0.00    -0.461 OA
BRANCH   5   6
ATOM      6  C   UNL A   1      45.180  30.068  26.862  1.00  0.00     0.344 C 
ATOM      7  O   UNL A   1      45.951  30.119  25.901  1.00  0.00    -0.248 OA
BRANCH   6   8
ATOM      8  C   UNL A   1      45.017  31.271  27.795  1.00  0.00     0.351 C 
BRANCH   8   9
ATOM      9  O   UNL A   1      43.937  31.397  28.695  1.00  0.00    -0.482 OA
BRANCH   9  10
ATOM     10  C   UNL A   1      43.601  32.686  28.998  1.00  0.00     0.120 A 
ATOM     11  C   UNL A   1      44.501  33.679  28.629  1.00  0.00     0.046 A 
ATOM     12  C   UNL A   1      42.491  33.018  29.767  1.00  0.00     0.054 A 
ATOM     13  C   UNL A   1      44.280  34.995  29.037  1.00  0.00     0.004 A 
ATOM     14  C   UNL A   1      42.343  34.287  30.312  1.00  0.00    -0.021 A 
ATOM     15  C   UNL A   1      43.214  35.297  29.893  1.00  0.00     0.008 A 
BRANCH  14  16
ATOM     16  C   UNL A   1      41.327  34.526  31.349  1.00  0.00     0.029 C 
ATOM     17  C   UNL A   1      39.992  34.460  31.170  1.00  0.00     0.082 C 
ATOM     18  S   UNL A   1      38.877  34.506  32.497  1.00  0.00    -0.052 SA
ATOM     19  C   UNL A   1      39.213  34.191  29.917  1.00  0.00     0.285 C 
ATOM     20  C   UNL A   1      37.568  33.813  31.538  1.00  0.00     0.168 C 
ATOM     21  N   UNL A   1      37.997  33.630  30.240  1.00  0.00    -0.198 N 
ATOM     22  O   UNL A   1      39.556  34.492  28.786  1.00  0.00    -0.266 OA
ATOM     23  S   UNL A   1      36.051  33.491  32.158  1.00  0.00    -0.050 S 
BRANCH  21  24
ATOM     24  N   UNL A   1      37.118  33.149  29.251  1.00  0.00    -0.254 N 
ATOM     25  C   UNL A   1      36.941  31.854  28.798  1.00  0.00     0.273 C 
ATOM     26  H   UNL A   1      36.549  33.829  28.822  1.00  0.00     0.192 HD
ATOM     27  O   UNL A   1      36.054  31.648  27.963  1.00  0.00    -0.267 OA
BRANCH  25  28
ATOM     28  C   UNL A   1      37.794  30.706  29.180  1.00  0.00     0.077 A 
ATOM     29  C   UNL A   1      39.184  30.857  29.027  1.00  0.00     0.017 A 
ATOM     30  C   UNL A   1      37.301  29.507  29.685  1.00  0.00     0.136 A 
ATOM     31  C   UNL A   1      40.061  29.862  29.474  1.00  0.00     0.001 A 
ATOM     32  C   UNL A   1      38.172  28.516  30.141  1.00  0.00     0.040 A 
ATOM     33  F   UNL A   1      35.982  29.285  29.773  1.00  0.00    -0.206 F 
ATOM     34  C   UNL A   1      39.553  28.703  30.055  1.00  0.00     0.003 A 
ENDBRANCH  25  28
ENDBRANCH  21  24
ENDBRANCH  14  16
ENDBRANCH   9  10
ENDBRANCH   8   9
ENDBRANCH   6   8
ENDBRANCH   5   6
ENDBRANCH   4   5
ENDBRANCH   3   4
ENDBRANCH   2   3
ENDBRANCH   1   2
BRANCH   1  35
ATOM     35  C   UNL A   1      44.154  24.621  25.049  1.00  0.00     0.188 C 
BRANCH  35  36
ATOM     36  O   UNL A   1      44.149  23.454  24.232  1.00  0.00    -0.376 OA
BRANCH  36  37
ATOM     37  C   UNL A   1      43.721  22.223  24.793  1.00  0.00     0.202 C 
BRANCH  37  38
ATOM     38  C   UNL A   1      43.484  22.209  26.309  1.00  0.00     0.261 C 
BRANCH  38  39
ATOM     39  O   UNL A   1      42.450  21.315  26.766  1.00  0.00    -0.460 OA
BRANCH  39  40
ATOM     40  C   UNL A   1      41.753  21.703  27.863  1.00  0.00     0.338 C 
ATOM     41  O   UNL A   1      40.810  21.116  28.374  1.00  0.00    -0.246 OA
BRANCH  40  42
ATOM     42  C   UNL A   1      42.392  22.889  28.488  1.00  0.00     0.060 A 
ATOM     43  C   UNL A   1      42.001  24.173  28.072  1.00  0.00     0.016 A 
ATOM     44  C   UNL A   1      43.411  22.747  29.430  1.00  0.00     0.016 A 
ATOM     45  C   UNL A   1      42.659  25.311  28.557  1.00  0.00     0.010 A 
ATOM     46  C   UNL A   1      44.084  23.883  29.897  1.00  0.00     0.010 A 
ATOM     47  C   UNL A   1      43.740  25.169  29.434  1.00  0.00    -0.014 A 
BRANCH  47  48
ATOM     48  C   UNL A   1      44.673  26.298  29.702  1.00  0.00     0.031 A 
ATOM     49  C   UNL A   1      44.199  27.404  30.608  1.00  0.00     0.074 A 
ATOM     50  C   UNL A   1      45.867  26.405  29.093  1.00  0.00     0.049 A 
ATOM     51  N   UNL A   1      44.725  28.578  30.835  1.00  0.00    -0.248 NA
ATOM     52  C   UNL A   1      42.947  27.149  31.340  1.00  0.00     0.031 C 
ATOM     53  C   UNL A   1      46.459  25.407  28.209  1.00  0.00     0.029 A 
ATOM     54  N   UNL A   1      46.769  27.445  29.087  1.00  0.00    -0.354 N 
ATOM     55  C   UNL A   1      43.840  29.226  31.690  1.00  0.00     0.074 A 
ATOM     56  C   UNL A   1      42.750  28.308  31.946  1.00  0.00     0.031 C 
ATOM     57  C   UNL A   1      47.596  25.906  27.694  1.00  0.00     0.029 A 
ATOM     58  C   UNL A   1      47.789  27.274  28.181  1.00  0.00     0.049 A 
ATOM     59  H   UNL A   1      46.691  28.233  29.672  1.00  0.00     0.167 HD
ATOM     60  C   UNL A   1      43.919  30.472  32.212  1.00  0.00     0.034 A 
ATOM     61  C   UNL A   1      48.738  28.134  27.752  1.00  0.00     0.034 A 
ATOM     62  C   UNL A   1      45.004  31.383  31.969  1.00  0.00     0.049 A 
ATOM     63  C   UNL A   1      48.804  29.528  28.326  1.00  0.00     0.074 A 
ATOM     64  C   UNL A   1      45.204  32.644  32.503  1.00  0.00     0.029 A 
ATOM     65  N   UNL A   1      46.059  31.143  31.103  1.00  0.00    -0.354 N 
ATOM     66  N   UNL A   1      48.024  30.091  29.217  1.00  0.00    -0.248 NA
ATOM     67  C   UNL A   1      49.896  30.396  27.858  1.00  0.00     0.031 C 
ATOM     68  C   UNL A   1      46.361  33.182  31.929  1.00  0.00     0.029 A 
ATOM     69  C   UNL A   1      46.905  32.238  31.072  1.00  0.00     0.049 A 
ATOM     70  H   UNL A   1      46.189  30.315  30.587  1.00  0.00     0.167 HD
ATOM     71  C   UNL A   1      48.551  31.360  29.444  1.00  0.00     0.074 A 
ATOM     72  C   UNL A   1      49.721  31.483  28.600  1.00  0.00     0.031 C 
ATOM     73  C   UNL A   1      48.101  32.335  30.273  1.00  0.00     0.034 A 
BRANCH  60  74
ATOM     74  C   UNL A   1      42.785  30.926  33.094  1.00  0.00     0.023 A 
ATOM     75  C   UNL A   1      41.510  31.161  32.540  1.00  0.00     0.012 A 
ATOM     76  C   UNL A   1      42.982  31.111  34.476  1.00  0.00     0.148 A 
ATOM     77  C   UNL A   1      40.463  31.621  33.338  1.00  0.00     0.002 A 
ATOM     78  C   UNL A   1      41.921  31.520  35.274  1.00  0.00     0.091 A 
ATOM     79  F   UNL A   1      44.207  30.908  34.982  1.00  0.00    -0.205 F 
ATOM     80  C   UNL A   1      40.667  31.792  34.705  1.00  0.00     0.022 A 
BRANCH  78  81
ATOM     81  S   UNL A   1      42.069  31.685  37.056  1.00  0.00     0.127 S 
ATOM     82  O   UNL A   1      40.690  31.982  37.442  1.00  0.00    -0.237 OA
ATOM     83  O   UNL A   1      42.541  30.357  37.452  1.00  0.00    -0.237 OA
ATOM     84  O   UNL A   1      43.031  32.756  37.278  1.00  0.00    -0.744 OA
ENDBRANCH  78  81
ENDBRANCH  60  74
BRANCH  61  85
ATOM     85  C   UNL A   1      49.712  27.689  26.714  1.00  0.00     0.023 A 
ATOM     86  C   UNL A   1      49.487  28.008  25.362  1.00  0.00     0.012 A 
ATOM     87  C   UNL A   1      50.888  26.998  27.071  1.00  0.00     0.148 A 
ATOM     88  C   UNL A   1      50.405  27.632  24.380  1.00  0.00     0.002 A 
ATOM     89  C   UNL A   1      51.827  26.680  26.097  1.00  0.00     0.091 A 
ATOM     90  F   UNL A   1      51.076  26.693  28.363  1.00  0.00    -0.205 F 
ATOM     91  C   UNL A   1      51.579  26.980  24.749  1.00  0.00     0.022 A 
BRANCH  89  92
ATOM     92  S   UNL A   1      53.431  25.974  26.491  1.00  0.00     0.127 S 
ATOM     93  O   UNL A   1      54.313  26.711  25.589  1.00  0.00    -0.237 OA
ATOM     94  O   UNL A   1      53.567  26.320  27.906  1.00  0.00    -0.237 OA
ATOM     95  O   UNL A   1      53.315  24.547  26.226  1.00  0.00    -0.744 OA
ENDBRANCH  89  92
ENDBRANCH  61  85
BRANCH  73  96
ATOM     96  C   UNL A   1      48.894  33.614  30.375  1.00  0.00     0.023 A 
ATOM     97  C   UNL A   1      49.943  33.728  31.307  1.00  0.00     0.012 A 
ATOM     98  C   UNL A   1      48.669  34.662  29.458  1.00  0.00     0.148 A 
ATOM     99  C   UNL A   1      50.744  34.871  31.337  1.00  0.00     0.002 A 
ATOM    100  C   UNL A   1      49.500  35.776  29.461  1.00  0.00     0.091 A 
ATOM    101  F   UNL A   1      47.654  34.543  28.590  1.00  0.00    -0.205 F 
ATOM    102  C   UNL A   1      50.532  35.887  30.407  1.00  0.00     0.022 A 
BRANCH 100 103
ATOM    103  S   UNL A   1      49.367  37.085  28.238  1.00  0.00     0.127 S 
ATOM    104  O   UNL A   1      50.128  36.528  27.120  1.00  0.00    -0.237 OA
ATOM    105  O   UNL A   1      47.923  37.158  28.017  1.00  0.00    -0.237 OA
ATOM    106  O   UNL A   1      49.947  38.273  28.853  1.00  0.00    -0.744 OA
ENDBRANCH 100 103
ENDBRANCH  73  96
ENDBRANCH  47  48
ENDBRANCH  40  42
ENDBRANCH  39  40
ENDBRANCH  38  39
ENDBRANCH  37  38
ENDBRANCH  36  37
ENDBRANCH  35  36
ENDBRANCH   1  35
TORSDOF 25
ENDMDL
MODEL 3
REMARK VINA RESULT:      -7.3      2.080      2.659
REMARK SMILES O=C(COc1cccc(/C=C2/SC(=S)N(NC(=O)c3ccccc3F)C2=O)c1)OCCOCCOCCOC(=O)c1ccc(-c2c3nc(c(-c4cccc(S(=O)(=O)[O-])c4F)c4ccc([nH]4)c(-c4cccc(S(=O)(=O)[O-])c4F)c4nc(c(-c5cccc(S(=O)(=O)[O-])c5F)c5ccc2[nH]5)C=C4)C=C3)cc1
REMARK SMILES IDX 33 1 32 2 31 3 30 4 29 5 2 6 1 7 3 8 4 9 5 10 6 11 28 12
REMARK SMILES IDX 7 13 9 14 8 15 10 16 11 17 12 18 26 19 13 20 15 21 27 22
REMARK SMILES IDX 14 23 16 24 17 25 18 27 19 28 20 29 24 30 21 31 23 32 25 33
REMARK SMILES IDX 22 34 34 35 35 36 36 37 37 38 38 39 39 40 40 41 41 42 42 43
REMARK SMILES IDX 103 44 43 45 102 46 44 47 45 48 46 49 96 50 47 51 101 52
REMARK SMILES IDX 95 53 97 54 48 55 100 56 94 57 93 58 49 60 81 61 61 62 80 63
REMARK SMILES IDX 62 64 65 65 79 66 98 67 63 68 64 69 78 71 99 72 66 73 50 74
REMARK SMILES IDX 51 75 59 76 52 77 54 78 60 79 53 80 55 81 56 82 57 83 58 84
REMARK SMILES IDX 82 85 83 86 91 87 84 88 86 89 92 90 85 91 87 92 88 93 89 94
REMARK SMILES IDX 90 95 67 96 68 97 76 98 69 99 71 100 77 101 70 102 72 103
REMARK SMILES IDX 73 104 74 105 75 106
REMARK H PARENT 16 26 97 59 65 70
REMARK Flexibility Score: inf
ROOT
ATOM      1  C   UNL A   1      41.181  28.502  27.519  1.00  0.00     0.188 C 
ENDROOT
BRANCH   1   2
ATOM      2  O   UNL A   1      40.542  28.331  28.776  1.00  0.00    -0.376 OA
BRANCH   2   3
ATOM      3  C   UNL A   1      40.507  29.486  29.590  1.00  0.00     0.202 C 
BRANCH   3   4
ATOM      4  C   UNL A   1      39.072  29.873  29.911  1.00  0.00     0.261 C 
BRANCH   4   5
ATOM      5  O   UNL A   1      38.192  29.926  28.771  1.00  0.00    -0.461 OA
BRANCH   5   6
ATOM      6  C   UNL A   1      36.989  30.529  28.711  1.00  0.00     0.344 C 
ATOM      7  O   UNL A   1      36.414  30.612  27.624  1.00  0.00    -0.248 OA
BRANCH   6   8
ATOM      8  C   UNL A   1      36.389  31.181  29.961  1.00  0.00     0.351 C 
BRANCH   8   9
ATOM      9  O   UNL A   1      35.244  32.003  29.916  1.00  0.00    -0.482 OA
BRANCH   9  10
ATOM     10  C   UNL A   1      35.083  32.807  31.009  1.00  0.00     0.120 A 
ATOM     11  C   UNL A   1      34.624  34.100  30.783  1.00  0.00     0.046 A 
ATOM     12  C   UNL A   1      35.485  32.435  32.287  1.00  0.00     0.054 A 
ATOM     13  C   UNL A   1      34.575  35.008  31.841  1.00  0.00     0.004 A 
ATOM     14  C   UNL A   1      35.592  33.369  33.311  1.00  0.00    -0.021 A 
ATOM     15  C   UNL A   1      35.078  34.651  33.099  1.00  0.00     0.008 A 
BRANCH  14  16
ATOM     16  C   UNL A   1      36.292  33.015  34.556  1.00  0.00     0.029 C 
ATOM     17  C   UNL A   1      37.582  33.288  34.836  1.00  0.00     0.082 C 
ATOM     18  S   UNL A   1      38.253  33.060  36.418  1.00  0.00    -0.052 SA
ATOM     19  C   UNL A   1      38.622  33.946  33.979  1.00  0.00     0.285 C 
ATOM     20  C   UNL A   1      39.623  34.122  36.088  1.00  0.00     0.168 C 
ATOM     21  N   UNL A   1      39.561  34.559  34.782  1.00  0.00    -0.198 N 
ATOM     22  O   UNL A   1      38.685  33.887  32.763  1.00  0.00    -0.266 OA
ATOM     23  S   UNL A   1      40.804  34.469  37.216  1.00  0.00    -0.050 S 
BRANCH  21  24
ATOM     24  N   UNL A   1      40.577  35.370  34.242  1.00  0.00    -0.254 N 
ATOM     25  C   UNL A   1      41.670  35.005  33.477  1.00  0.00     0.273 C 
ATOM     26  H   UNL A   1      40.498  36.333  34.436  1.00  0.00     0.192 HD
ATOM     27  O   UNL A   1      42.402  35.903  33.048  1.00  0.00    -0.267 OA
BRANCH  25  28
ATOM     28  C   UNL A   1      42.075  33.608  33.203  1.00  0.00     0.077 A 
ATOM     29  C   UNL A   1      42.311  32.775  34.311  1.00  0.00     0.017 A 
ATOM     30  C   UNL A   1      42.221  33.079  31.924  1.00  0.00     0.136 A 
ATOM     31  C   UNL A   1      42.584  31.415  34.133  1.00  0.00     0.001 A 
ATOM     32  C   UNL A   1      42.482  31.720  31.742  1.00  0.00     0.040 A 
ATOM     33  F   UNL A   1      42.085  33.853  30.837  1.00  0.00    -0.206 F 
ATOM     34  C   UNL A   1      42.642  30.883  32.848  1.00  0.00     0.003 A 
ENDBRANCH  25  28
ENDBRANCH  21  24
ENDBRANCH  14  16
ENDBRANCH   9  10
ENDBRANCH   8   9
ENDBRANCH   6   8
ENDBRANCH   5   6
ENDBRANCH   4   5
ENDBRANCH   3   4
ENDBRANCH   2   3
ENDBRANCH   1   2
BRANCH   1  35
ATOM     35  C   UNL A   1      40.747  27.428  26.511  1.00  0.00     0.188 C 
BRANCH  35  36
ATOM     36  O   UNL A   1      41.707  26.506  26.004  1.00  0.00    -0.376 OA
BRANCH  36  37
ATOM     37  C   UNL A   1      42.609  26.936  24.997  1.00  0.00     0.202 C 
BRANCH  37  38
ATOM     38  C   UNL A   1      44.035  27.272  25.455  1.00  0.00     0.261 C 
BRANCH  38  39
ATOM     39  O   UNL A   1      44.271  28.655  25.782  1.00  0.00    -0.460 OA
BRANCH  39  40
ATOM     40  C   UNL A   1      44.945  28.901  26.933  1.00  0.00     0.338 C 
ATOM     41  O   UNL A   1      45.658  28.118  27.543  1.00  0.00    -0.246 OA
BRANCH  40  42
ATOM     42  C   UNL A   1      44.837  30.337  27.298  1.00  0.00     0.060 A 
ATOM     43  C   UNL A   1      45.851  31.222  26.894  1.00  0.00     0.016 A 
ATOM     44  C   UNL A   1      43.782  30.805  28.083  1.00  0.00     0.016 A 
ATOM     45  C   UNL A   1      45.840  32.558  27.313  1.00  0.00     0.010 A 
ATOM     46  C   UNL A   1      43.784  32.135  28.520  1.00  0.00     0.010 A 
ATOM     47  C   UNL A   1      44.833  33.010  28.173  1.00  0.00    -0.014 A 
BRANCH  47  48
ATOM     48  C   UNL A   1      44.962  34.297  28.909  1.00  0.00     0.031 A 
ATOM     49  C   UNL A   1      45.365  34.241  30.360  1.00  0.00     0.074 A 
ATOM     50  C   UNL A   1      44.643  35.479  28.355  1.00  0.00     0.049 A 
ATOM     51  N   UNL A   1      45.349  35.182  31.266  1.00  0.00    -0.248 NA
ATOM     52  C   UNL A   1      45.828  32.934  30.853  1.00  0.00     0.031 C 
ATOM     53  C   UNL A   1      44.257  35.685  26.963  1.00  0.00     0.029 A 
ATOM     54  N   UNL A   1      44.538  36.727  28.926  1.00  0.00    -0.354 N 
ATOM     55  C   UNL A   1      45.743  34.570  32.450  1.00  0.00     0.074 A 
ATOM     56  C   UNL A   1      46.000  33.179  32.142  1.00  0.00     0.031 C 
ATOM     57  C   UNL A   1      43.895  36.970  26.800  1.00  0.00     0.029 A 
ATOM     58  C   UNL A   1      43.986  37.665  28.085  1.00  0.00     0.049 A 
ATOM     59  H   UNL A   1      44.829  36.929  29.845  1.00  0.00     0.167 HD
ATOM     60  C   UNL A   1      45.876  35.109  33.685  1.00  0.00     0.034 A 
ATOM     61  C   UNL A   1      43.553  38.920  28.332  1.00  0.00     0.034 A 
ATOM     62  C   UNL A   1      45.632  36.491  33.993  1.00  0.00     0.049 A 
ATOM     63  C   UNL A   1      43.687  39.504  29.716  1.00  0.00     0.074 A 
ATOM     64  C   UNL A   1      45.800  37.145  35.202  1.00  0.00     0.029 A 
ATOM     65  N   UNL A   1      45.146  37.428  33.095  1.00  0.00    -0.354 N 
ATOM     66  N   UNL A   1      44.164  38.948  30.803  1.00  0.00    -0.248 NA
ATOM     67  C   UNL A   1      43.248  40.896  29.904  1.00  0.00     0.031 C 
ATOM     68  C   UNL A   1      45.376  38.468  35.044  1.00  0.00     0.029 A 
ATOM     69  C   UNL A   1      44.988  38.650  33.726  1.00  0.00     0.049 A 
ATOM     70  H   UNL A   1      44.943  37.250  32.149  1.00  0.00     0.167 HD
ATOM     71  C   UNL A   1      44.121  39.929  31.791  1.00  0.00     0.074 A 
ATOM     72  C   UNL A   1      43.574  41.118  31.172  1.00  0.00     0.031 C 
ATOM     73  C   UNL A   1      44.496  39.848  33.092  1.00  0.00     0.034 A 
BRANCH  60  74
ATOM     74  C   UNL A   1      46.296  34.188  34.800  1.00  0.00     0.023 A 
ATOM     75  C   UNL A   1      45.322  33.582  35.620  1.00  0.00     0.012 A 
ATOM     76  C   UNL A   1      47.658  33.915  35.029  1.00  0.00     0.148 A 
ATOM     77  C   UNL A   1      45.701  32.760  36.682  1.00  0.00     0.002 A 
ATOM     78  C   UNL A   1      48.025  33.055  36.056  1.00  0.00     0.091 A 
ATOM     79  F   UNL A   1      48.573  34.520  34.257  1.00  0.00    -0.205 F 
ATOM     80  C   UNL A   1      47.050  32.491  36.894  1.00  0.00     0.022 A 
BRANCH  78  81
ATOM     81  S   UNL A   1      49.734  32.585  36.350  1.00  0.00     0.127 S 
ATOM     82  O   UNL A   1      50.049  31.841  35.131  1.00  0.00    -0.237 OA
ATOM     83  O   UNL A   1      50.398  33.885  36.460  1.00  0.00    -0.237 OA
ATOM     84  O   UNL A   1      49.726  31.807  37.581  1.00  0.00    -0.744 OA
ENDBRANCH  78  81
ENDBRANCH  60  74
BRANCH  61  85
ATOM     85  C   UNL A   1      42.948  39.716  27.224  1.00  0.00     0.023 A 
ATOM     86  C   UNL A   1      41.549  39.783  27.095  1.00  0.00     0.012 A 
ATOM     87  C   UNL A   1      43.757  40.448  26.331  1.00  0.00     0.148 A 
ATOM     88  C   UNL A   1      40.963  40.551  26.087  1.00  0.00     0.002 A 
ATOM     89  C   UNL A   1      43.168  41.258  25.368  1.00  0.00     0.091 A 
ATOM     90  F   UNL A   1      45.088  40.359  26.463  1.00  0.00    -0.205 F 
ATOM     91  C   UNL A   1      41.771  41.297  25.233  1.00  0.00     0.022 A 
BRANCH  89  92
ATOM     92  S   UNL A   1      44.116  42.366  24.321  1.00  0.00     0.127 S 
ATOM     93  O   UNL A   1      43.276  42.447  23.128  1.00  0.00    -0.237 OA
ATOM     94  O   UNL A   1      44.153  43.583  25.133  1.00  0.00    -0.237 OA
ATOM     95  O   UNL A   1      45.412  41.727  24.132  1.00  0.00    -0.744 OA
ENDBRANCH  89  92
ENDBRANCH  61  85
BRANCH  73  96
ATOM     96  C   UNL A   1      44.395  41.086  33.947  1.00  0.00     0.023 A 
ATOM     97  C   UNL A   1      43.210  41.367  34.655  1.00  0.00     0.012 A 
ATOM     98  C   UNL A   1      45.524  41.909  34.141  1.00  0.00     0.148 A 
ATOM     99  C   UNL A   1      43.145  42.455  35.525  1.00  0.00     0.002 A 
ATOM    100  C   UNL A   1      45.468  42.962  35.046  1.00  0.00     0.091 A 
ATOM    101  F   UNL A   1      46.638  41.636  33.446  1.00  0.00    -0.205 F 
ATOM    102  C   UNL A   1      44.275  43.243  35.732  1.00  0.00     0.022 A 
BRANCH 100 103
ATOM    103  S   UNL A   1      46.901  43.966  35.452  1.00  0.00     0.127 S 
ATOM    104  O   UNL A   1      47.747  43.007  36.160  1.00  0.00    -0.237 OA
ATOM    105  O   UNL A   1      47.392  44.354  34.129  1.00  0.00    -0.237 OA
ATOM    106  O   UNL A   1      46.404  45.072  36.260  1.00  0.00    -0.744 OA
ENDBRANCH 100 103
ENDBRANCH  73  96
ENDBRANCH  47  48
ENDBRANCH  40  42
ENDBRANCH  39  40
ENDBRANCH  38  39
ENDBRANCH  37  38
ENDBRANCH  36  37
ENDBRANCH  35  36
ENDBRANCH   1  35
TORSDOF 25
ENDMDL
