MODEL 1
REMARK VINA RESULT:     -11.2      0.000      0.000
REMARK SMILES Cc1nc(SCc2cccc(Cl)c2)[nH]c(=O)c1CC(=O)OCCOCCOCCOC(=O)c1ccc(-c2c3nc(c(-c4cccc(S(=O)(=O)[O-])c4F)c4ccc([nH]4)c(-c4cccc(S(=O)(=O)[O-])c4F)c4nc(c(-c5cccc(S(=O)(=O)[O-])c5F)c5ccc2[nH]5)C=C4)C=C3)cc1
REMARK SMILES IDX 25 1 24 2 23 3 22 4 21 5 19 6 20 7 18 8 17 9 1 10 2 11 3 12
REMARK SMILES IDX 4 13 15 14 14 15 16 16 5 18 6 19 7 20 8 21 13 22 9 23 11 24
REMARK SMILES IDX 10 25 12 26 26 27 27 28 28 29 29 30 30 31 31 32 32 33 33 34
REMARK SMILES IDX 34 35 95 36 35 37 94 38 36 39 37 40 38 41 88 42 39 43 93 44
REMARK SMILES IDX 87 45 89 46 40 47 92 48 86 49 85 50 41 52 73 53 53 54 72 55
REMARK SMILES IDX 54 56 57 57 71 58 90 59 55 60 56 61 70 63 91 64 58 65 42 66
REMARK SMILES IDX 43 67 51 68 44 69 46 70 52 71 45 72 47 73 48 74 49 75 50 76
REMARK SMILES IDX 74 77 75 78 83 79 76 80 78 81 84 82 77 83 79 84 80 85 81 86
REMARK SMILES IDX 82 87 59 88 60 89 68 90 61 91 63 92 69 93 62 94 64 95 65 96
REMARK SMILES IDX 66 97 67 98
REMARK H PARENT 14 17 89 51 57 62
REMARK Flexibility Score: inf
ROOT
ATOM      1  C   UNL A   1      33.421  24.283  22.822  1.00  0.00     0.188 C 
ENDROOT
BRANCH   1   2
ATOM      2  O   UNL A   1      33.563  25.383  21.922  1.00  0.00    -0.376 OA
BRANCH   2   3
ATOM      3  C   UNL A   1      33.026  26.647  22.290  1.00  0.00     0.202 C 
BRANCH   3   4
ATOM      4  C   UNL A   1      31.511  26.836  22.128  1.00  0.00     0.261 C 
BRANCH   4   5
ATOM      5  O   UNL A   1      30.751  26.608  23.339  1.00  0.00    -0.463 OA
BRANCH   5   6
ATOM      6  C   UNL A   1      30.841  27.571  24.291  1.00  0.00     0.310 C 
ATOM      7  O   UNL A   1      30.643  28.762  24.066  1.00  0.00    -0.252 OA
BRANCH   6   8
ATOM      8  C   UNL A   1      31.086  27.063  25.717  1.00  0.00     0.166 C 
BRANCH   8   9
ATOM      9  C   UNL A   1      31.677  25.701  25.982  1.00  0.00     0.050 A 
ATOM     10  C   UNL A   1      34.071  26.376  25.809  1.00  0.00     0.067 C 
ATOM     11  C   UNL A   1      32.981  25.376  26.070  1.00  0.00     0.050 A 
ATOM     12  N   UNL A   1      33.445  24.101  26.315  1.00  0.00    -0.229 NA
ATOM     13  C   UNL A   1      32.581  23.146  26.344  1.00  0.00     0.168 A 
ATOM     14  C   UNL A   1      30.747  24.620  26.385  1.00  0.00     0.255 A 
ATOM     15  N   UNL A   1      31.245  23.354  26.362  1.00  0.00    -0.301 N 
ATOM     16  O   UNL A   1      29.592  24.863  26.712  1.00  0.00    -0.269 OA
ATOM     17  H   UNL A   1      30.630  22.585  26.359  1.00  0.00     0.172 HD
BRANCH  13  18
ATOM     18  S   UNL A   1      33.008  21.465  26.320  1.00  0.00    -0.083 SA
BRANCH  18  19
ATOM     19  C   UNL A   1      32.212  20.879  24.802  1.00  0.00     0.113 C 
BRANCH  19  20
ATOM     20  C   UNL A   1      32.778  19.629  24.151  1.00  0.00    -0.036 A 
ATOM     21  C   UNL A   1      32.212  19.135  22.964  1.00  0.00     0.005 A 
ATOM     22  C   UNL A   1      33.772  18.848  24.760  1.00  0.00     0.025 A 
ATOM     23  C   UNL A   1      32.616  17.905  22.429  1.00  0.00     0.002 A 
ATOM     24  C   UNL A   1      34.161  17.616  24.240  1.00  0.00     0.041 A 
ATOM     25  C   UNL A   1      33.584  17.137  23.074  1.00  0.00     0.020 A 
ATOM     26  Cl  UNL A   1      35.338  16.678  25.077  1.00  0.00    -0.084 Cl
ENDBRANCH  19  20
ENDBRANCH  18  19
ENDBRANCH  13  18
ENDBRANCH   8   9
ENDBRANCH   6   8
ENDBRANCH   5   6
ENDBRANCH   4   5
ENDBRANCH   3   4
ENDBRANCH   2   3
ENDBRANCH   1   2
BRANCH   1  27
ATOM     27  C   UNL A   1      34.292  23.037  22.591  1.00  0.00     0.188 C 
BRANCH  27  28
ATOM     28  O   UNL A   1      35.518  23.088  23.295  1.00  0.00    -0.376 OA
BRANCH  28  29
ATOM     29  C   UNL A   1      35.757  22.066  24.237  1.00  0.00     0.202 C 
BRANCH  29  30
ATOM     30  C   UNL A   1      37.233  21.746  24.508  1.00  0.00     0.261 C 
BRANCH  30  31
ATOM     31  O   UNL A   1      37.637  21.659  25.886  1.00  0.00    -0.460 OA
BRANCH  31  32
ATOM     32  C   UNL A   1      38.958  21.477  26.126  1.00  0.00     0.338 C 
ATOM     33  O   UNL A   1      39.631  20.526  25.782  1.00  0.00    -0.246 OA
BRANCH  32  34
ATOM     34  C   UNL A   1      39.515  22.733  26.685  1.00  0.00     0.060 A 
ATOM     35  C   UNL A   1      38.882  23.931  26.351  1.00  0.00     0.016 A 
ATOM     36  C   UNL A   1      40.655  22.751  27.487  1.00  0.00     0.016 A 
ATOM     37  C   UNL A   1      39.379  25.155  26.796  1.00  0.00     0.010 A 
ATOM     38  C   UNL A   1      41.178  23.984  27.909  1.00  0.00     0.010 A 
ATOM     39  C   UNL A   1      40.559  25.196  27.542  1.00  0.00    -0.014 A 
BRANCH  39  40
ATOM     40  C   UNL A   1      41.233  26.502  27.773  1.00  0.00     0.031 A 
ATOM     41  C   UNL A   1      42.625  26.703  27.232  1.00  0.00     0.074 A 
ATOM     42  C   UNL A   1      40.615  27.511  28.414  1.00  0.00     0.049 A 
ATOM     43  N   UNL A   1      43.430  27.723  27.365  1.00  0.00    -0.248 NA
ATOM     44  C   UNL A   1      43.183  25.598  26.433  1.00  0.00     0.031 C 
ATOM     45  C   UNL A   1      39.254  27.470  28.946  1.00  0.00     0.029 A 
ATOM     46  N   UNL A   1      41.066  28.767  28.743  1.00  0.00    -0.354 N 
ATOM     47  C   UNL A   1      44.604  27.369  26.710  1.00  0.00     0.074 A 
ATOM     48  C   UNL A   1      44.407  26.036  26.182  1.00  0.00     0.031 C 
ATOM     49  C   UNL A   1      38.989  28.637  29.557  1.00  0.00     0.029 A 
ATOM     50  C   UNL A   1      40.171  29.494  29.494  1.00  0.00     0.049 A 
ATOM     51  H   UNL A   1      41.945  29.115  28.466  1.00  0.00     0.167 HD
ATOM     52  C   UNL A   1      45.742  28.088  26.552  1.00  0.00     0.034 A 
ATOM     53  C   UNL A   1      40.302  30.697  30.088  1.00  0.00     0.034 A 
ATOM     54  C   UNL A   1      45.926  29.425  27.048  1.00  0.00     0.049 A 
ATOM     55  C   UNL A   1      41.590  31.466  29.925  1.00  0.00     0.074 A 
ATOM     56  C   UNL A   1      47.031  30.248  26.910  1.00  0.00     0.029 A 
ATOM     57  N   UNL A   1      44.989  30.136  27.781  1.00  0.00    -0.354 N 
ATOM     58  N   UNL A   1      42.664  31.148  29.243  1.00  0.00    -0.248 NA
ATOM     59  C   UNL A   1      41.672  32.774  30.591  1.00  0.00     0.031 C 
ATOM     60  C   UNL A   1      46.773  31.444  27.588  1.00  0.00     0.029 A 
ATOM     61  C   UNL A   1      45.492  31.383  28.113  1.00  0.00     0.049 A 
ATOM     62  H   UNL A   1      44.097  29.803  28.030  1.00  0.00     0.167 HD
ATOM     63  C   UNL A   1      43.531  32.228  29.366  1.00  0.00     0.074 A 
ATOM     64  C   UNL A   1      42.848  33.221  30.171  1.00  0.00     0.031 C 
ATOM     65  C   UNL A   1      44.785  32.382  28.872  1.00  0.00     0.034 A 
BRANCH  52  66
ATOM     66  C   UNL A   1      46.879  27.439  25.807  1.00  0.00     0.023 A 
ATOM     67  C   UNL A   1      47.639  26.424  26.422  1.00  0.00     0.012 A 
ATOM     68  C   UNL A   1      47.164  27.806  24.476  1.00  0.00     0.148 A 
ATOM     69  C   UNL A   1      48.689  25.811  25.739  1.00  0.00     0.002 A 
ATOM     70  C   UNL A   1      48.180  27.156  23.786  1.00  0.00     0.091 A 
ATOM     71  F   UNL A   1      46.446  28.788  23.915  1.00  0.00    -0.205 F 
ATOM     72  C   UNL A   1      48.952  26.168  24.419  1.00  0.00     0.022 A 
BRANCH  70  73
ATOM     73  S   UNL A   1      48.544  27.488  22.059  1.00  0.00     0.127 S 
ATOM     74  O   UNL A   1      49.676  28.408  22.167  1.00  0.00    -0.237 OA
ATOM     75  O   UNL A   1      48.887  26.157  21.556  1.00  0.00    -0.237 OA
ATOM     76  O   UNL A   1      47.330  28.059  21.493  1.00  0.00    -0.744 OA
ENDBRANCH  70  73
ENDBRANCH  52  66
BRANCH  53  77
ATOM     77  C   UNL A   1      39.179  31.266  30.887  1.00  0.00     0.023 A 
ATOM     78  C   UNL A   1      39.206  31.179  32.293  1.00  0.00     0.012 A 
ATOM     79  C   UNL A   1      38.083  31.892  30.261  1.00  0.00     0.148 A 
ATOM     80  C   UNL A   1      38.149  31.674  33.058  1.00  0.00     0.002 A 
ATOM     81  C   UNL A   1      37.061  32.435  31.031  1.00  0.00     0.091 A 
ATOM     82  F   UNL A   1      38.064  31.946  28.922  1.00  0.00    -0.205 F 
ATOM     83  C   UNL A   1      37.083  32.312  32.428  1.00  0.00     0.022 A 
BRANCH  81  84
ATOM     84  S   UNL A   1      35.711  33.379  30.315  1.00  0.00     0.127 S 
ATOM     85  O   UNL A   1      35.232  34.138  31.468  1.00  0.00    -0.237 OA
ATOM     86  O   UNL A   1      36.405  34.172  29.300  1.00  0.00    -0.237 OA
ATOM     87  O   UNL A   1      34.782  32.393  29.779  1.00  0.00    -0.744 OA
ENDBRANCH  81  84
ENDBRANCH  53  77
BRANCH  65  88
ATOM     88  C   UNL A   1      45.489  33.688  29.141  1.00  0.00     0.023 A 
ATOM     89  C   UNL A   1      46.225  33.863  30.331  1.00  0.00     0.012 A 
ATOM     90  C   UNL A   1      45.469  34.725  28.187  1.00  0.00     0.148 A 
ATOM     91  C   UNL A   1      46.890  35.062  30.585  1.00  0.00     0.002 A 
ATOM     92  C   UNL A   1      46.179  35.896  28.422  1.00  0.00     0.091 A 
ATOM     93  F   UNL A   1      44.751  34.550  27.067  1.00  0.00    -0.205 F 
ATOM     94  C   UNL A   1      46.877  36.073  29.627  1.00  0.00     0.022 A 
BRANCH  92  95
ATOM     95  S   UNL A   1      46.299  37.211  27.203  1.00  0.00     0.127 S 
ATOM     96  O   UNL A   1      44.937  37.744  27.204  1.00  0.00    -0.237 OA
ATOM     97  O   UNL A   1      47.300  38.096  27.798  1.00  0.00    -0.237 OA
ATOM     98  O   UNL A   1      46.720  36.572  25.964  1.00  0.00    -0.744 OA
ENDBRANCH  92  95
ENDBRANCH  65  88
ENDBRANCH  39  40
ENDBRANCH  32  34
ENDBRANCH  31  32
ENDBRANCH  30  31
ENDBRANCH  29  30
ENDBRANCH  28  29
ENDBRANCH  27  28
ENDBRANCH   1  27
TORSDOF 24
ENDMDL
MODEL 2
REMARK VINA RESULT:     -11.0      1.208      7.398
REMARK SMILES Cc1nc(SCc2cccc(Cl)c2)[nH]c(=O)c1CC(=O)OCCOCCOCCOC(=O)c1ccc(-c2c3nc(c(-c4cccc(S(=O)(=O)[O-])c4F)c4ccc([nH]4)c(-c4cccc(S(=O)(=O)[O-])c4F)c4nc(c(-c5cccc(S(=O)(=O)[O-])c5F)c5ccc2[nH]5)C=C4)C=C3)cc1
REMARK SMILES IDX 25 1 24 2 23 3 22 4 21 5 19 6 20 7 18 8 17 9 1 10 2 11 3 12
REMARK SMILES IDX 4 13 15 14 14 15 16 16 5 18 6 19 7 20 8 21 13 22 9 23 11 24
REMARK SMILES IDX 10 25 12 26 26 27 27 28 28 29 29 30 30 31 31 32 32 33 33 34
REMARK SMILES IDX 34 35 95 36 35 37 94 38 36 39 37 40 38 41 88 42 39 43 93 44
REMARK SMILES IDX 87 45 89 46 40 47 92 48 86 49 85 50 41 52 73 53 53 54 72 55
REMARK SMILES IDX 54 56 57 57 71 58 90 59 55 60 56 61 70 63 91 64 58 65 42 66
REMARK SMILES IDX 43 67 51 68 44 69 46 70 52 71 45 72 47 73 48 74 49 75 50 76
REMARK SMILES IDX 74 77 75 78 83 79 76 80 78 81 84 82 77 83 79 84 80 85 81 86
REMARK SMILES IDX 82 87 59 88 60 89 68 90 61 91 63 92 69 93 62 94 64 95 65 96
REMARK SMILES IDX 66 97 67 98
REMARK H PARENT 14 17 89 51 57 62
REMARK Flexibility Score: inf
ROOT
ATOM      1  C   UNL A   1      34.306  25.305  23.337  1.00  0.00     0.188 C 
ENDROOT
BRANCH   1   2
ATOM      2  O   UNL A   1      33.601  26.481  23.735  1.00  0.00    -0.376 OA
BRANCH   2   3
ATOM      3  C   UNL A   1      33.910  27.078  24.988  1.00  0.00     0.202 C 
BRANCH   3   4
ATOM      4  C   UNL A   1      32.925  28.127  25.523  1.00  0.00     0.261 C 
BRANCH   4   5
ATOM      5  O   UNL A   1      31.532  27.755  25.390  1.00  0.00    -0.463 OA
BRANCH   5   6
ATOM      6  C   UNL A   1      30.972  27.141  26.462  1.00  0.00     0.310 C 
ATOM      7  O   UNL A   1      31.029  27.591  27.604  1.00  0.00    -0.252 OA
BRANCH   6   8
ATOM      8  C   UNL A   1      30.141  25.892  26.144  1.00  0.00     0.166 C 
BRANCH   8   9
ATOM      9  C   UNL A   1      30.742  24.697  25.447  1.00  0.00     0.050 A 
ATOM     10  C   UNL A   1      30.297  25.457  23.114  1.00  0.00     0.067 C 
ATOM     11  C   UNL A   1      30.864  24.496  24.121  1.00  0.00     0.050 A 
ATOM     12  N   UNL A   1      31.428  23.371  23.558  1.00  0.00    -0.229 NA
ATOM     13  C   UNL A   1      31.749  22.405  24.348  1.00  0.00     0.168 A 
ATOM     14  C   UNL A   1      31.461  23.708  26.286  1.00  0.00     0.255 A 
ATOM     15  N   UNL A   1      31.763  22.521  25.695  1.00  0.00    -0.301 N 
ATOM     16  O   UNL A   1      31.754  23.954  27.448  1.00  0.00    -0.269 OA
ATOM     17  H   UNL A   1      31.993  21.741  26.250  1.00  0.00     0.172 HD
BRANCH  13  18
ATOM     18  S   UNL A   1      32.166  20.814  23.797  1.00  0.00    -0.083 SA
BRANCH  18  19
ATOM     19  C   UNL A   1      32.782  20.025  25.307  1.00  0.00     0.113 C 
BRANCH  19  20
ATOM     20  C   UNL A   1      33.331  18.614  25.187  1.00  0.00    -0.036 A 
ATOM     21  C   UNL A   1      34.545  18.384  24.520  1.00  0.00     0.005 A 
ATOM     22  C   UNL A   1      32.603  17.486  25.598  1.00  0.00     0.025 A 
ATOM     23  C   UNL A   1      34.995  17.082  24.265  1.00  0.00     0.002 A 
ATOM     24  C   UNL A   1      33.039  16.191  25.328  1.00  0.00     0.041 A 
ATOM     25  C   UNL A   1      34.234  15.982  24.658  1.00  0.00     0.020 A 
ATOM     26  Cl  UNL A   1      32.061  14.854  25.801  1.00  0.00    -0.084 Cl
ENDBRANCH  19  20
ENDBRANCH  18  19
ENDBRANCH  13  18
ENDBRANCH   8   9
ENDBRANCH   6   8
ENDBRANCH   5   6
ENDBRANCH   4   5
ENDBRANCH   3   4
ENDBRANCH   2   3
ENDBRANCH   1   2
BRANCH   1  27
ATOM     27  C   UNL A   1      34.846  24.373  24.435  1.00  0.00     0.188 C 
BRANCH  27  28
ATOM     28  O   UNL A   1      35.875  23.521  23.973  1.00  0.00    -0.376 OA
BRANCH  28  29
ATOM     29  C   UNL A   1      35.758  22.150  24.284  1.00  0.00     0.202 C 
BRANCH  29  30
ATOM     30  C   UNL A   1      37.079  21.411  24.534  1.00  0.00     0.261 C 
BRANCH  30  31
ATOM     31  O   UNL A   1      37.586  21.423  25.882  1.00  0.00    -0.460 OA
BRANCH  31  32
ATOM     32  C   UNL A   1      38.918  21.228  26.036  1.00  0.00     0.338 C 
ATOM     33  O   UNL A   1      39.569  20.306  25.590  1.00  0.00    -0.246 OA
BRANCH  32  34
ATOM     34  C   UNL A   1      39.505  22.442  26.653  1.00  0.00     0.060 A 
ATOM     35  C   UNL A   1      39.015  23.683  26.242  1.00  0.00     0.016 A 
ATOM     36  C   UNL A   1      40.542  22.379  27.582  1.00  0.00     0.016 A 
ATOM     37  C   UNL A   1      39.554  24.869  26.739  1.00  0.00     0.010 A 
ATOM     38  C   UNL A   1      41.110  23.572  28.059  1.00  0.00     0.010 A 
ATOM     39  C   UNL A   1      40.639  24.824  27.617  1.00  0.00    -0.014 A 
BRANCH  39  40
ATOM     40  C   UNL A   1      41.384  26.076  27.921  1.00  0.00     0.031 A 
ATOM     41  C   UNL A   1      40.670  27.182  28.653  1.00  0.00     0.074 A 
ATOM     42  C   UNL A   1      42.681  26.221  27.594  1.00  0.00     0.049 A 
ATOM     43  N   UNL A   1      41.090  28.380  28.966  1.00  0.00    -0.248 NA
ATOM     44  C   UNL A   1      39.292  26.897  29.088  1.00  0.00     0.031 C 
ATOM     45  C   UNL A   1      43.505  25.214  26.928  1.00  0.00     0.029 A 
ATOM     46  N   UNL A   1      43.529  27.290  27.764  1.00  0.00    -0.354 N 
ATOM     47  C   UNL A   1      40.019  29.007  29.591  1.00  0.00     0.074 A 
ATOM     48  C   UNL A   1      38.926  28.058  29.610  1.00  0.00     0.031 C 
ATOM     49  C   UNL A   1      44.733  25.721  26.722  1.00  0.00     0.029 A 
ATOM     50  C   UNL A   1      44.772  27.101  27.206  1.00  0.00     0.049 A 
ATOM     51  H   UNL A   1      43.271  28.113  28.239  1.00  0.00     0.167 HD
ATOM     52  C   UNL A   1      39.949  30.256  30.111  1.00  0.00     0.034 A 
ATOM     53  C   UNL A   1      45.811  27.951  27.074  1.00  0.00     0.034 A 
ATOM     54  C   UNL A   1      41.045  31.188  30.122  1.00  0.00     0.049 A 
ATOM     55  C   UNL A   1      45.698  29.347  27.633  1.00  0.00     0.074 A 
ATOM     56  C   UNL A   1      41.082  32.465  30.656  1.00  0.00     0.029 A 
ATOM     57  N   UNL A   1      42.294  30.950  29.572  1.00  0.00    -0.354 N 
ATOM     58  N   UNL A   1      44.704  29.901  28.285  1.00  0.00    -0.248 NA
ATOM     59  C   UNL A   1      46.865  30.226  27.463  1.00  0.00     0.031 C 
ATOM     60  C   UNL A   1      42.343  33.011  30.399  1.00  0.00     0.029 A 
ATOM     61  C   UNL A   1      43.106  32.059  29.741  1.00  0.00     0.049 A 
ATOM     62  H   UNL A   1      42.564  30.116  29.125  1.00  0.00     0.167 HD
ATOM     63  C   UNL A   1      45.138  31.176  28.634  1.00  0.00     0.074 A 
ATOM     64  C   UNL A   1      46.494  31.304  28.141  1.00  0.00     0.031 C 
ATOM     65  C   UNL A   1      44.471  32.158  29.291  1.00  0.00     0.034 A 
BRANCH  52  66
ATOM     66  C   UNL A   1      38.639  30.687  30.717  1.00  0.00     0.023 A 
ATOM     67  C   UNL A   1      38.397  30.488  32.091  1.00  0.00     0.012 A 
ATOM     68  C   UNL A   1      37.664  31.334  29.930  1.00  0.00     0.148 A 
ATOM     69  C   UNL A   1      37.191  30.889  32.665  1.00  0.00     0.002 A 
ATOM     70  C   UNL A   1      36.485  31.774  30.520  1.00  0.00     0.091 A 
ATOM     71  F   UNL A   1      37.902  31.494  28.621  1.00  0.00    -0.205 F 
ATOM     72  C   UNL A   1      36.242  31.542  31.883  1.00  0.00     0.022 A 
BRANCH  70  73
ATOM     73  S   UNL A   1      35.236  32.695  29.616  1.00  0.00     0.127 S 
ATOM     74  O   UNL A   1      34.192  32.849  30.628  1.00  0.00    -0.237 OA
ATOM     75  O   UNL A   1      35.947  33.929  29.281  1.00  0.00    -0.237 OA
ATOM     76  O   UNL A   1      34.877  31.870  28.471  1.00  0.00    -0.744 OA
ENDBRANCH  70  73
ENDBRANCH  52  66
BRANCH  53  77
ATOM     77  C   UNL A   1      47.061  27.508  26.392  1.00  0.00     0.023 A 
ATOM     78  C   UNL A   1      48.078  26.878  27.136  1.00  0.00     0.012 A 
ATOM     79  C   UNL A   1      47.248  27.707  25.010  1.00  0.00     0.148 A 
ATOM     80  C   UNL A   1      49.270  26.486  26.525  1.00  0.00     0.002 A 
ATOM     81  C   UNL A   1      48.413  27.263  24.395  1.00  0.00     0.091 A 
ATOM     82  F   UNL A   1      46.278  28.328  24.322  1.00  0.00    -0.205 F 
ATOM     83  C   UNL A   1      49.433  26.669  25.154  1.00  0.00     0.022 A 
BRANCH  81  84
ATOM     84  S   UNL A   1      48.658  27.346  22.618  1.00  0.00     0.127 S 
ATOM     85  O   UNL A   1      48.414  25.962  22.218  1.00  0.00    -0.237 OA
ATOM     86  O   UNL A   1      47.619  28.295  22.216  1.00  0.00    -0.237 OA
ATOM     87  O   UNL A   1      50.020  27.826  22.430  1.00  0.00    -0.744 OA
ENDBRANCH  81  84
ENDBRANCH  53  77
BRANCH  65  88
ATOM     88  C   UNL A   1      45.208  33.446  29.562  1.00  0.00     0.023 A 
ATOM     89  C   UNL A   1      45.969  33.590  30.739  1.00  0.00     0.012 A 
ATOM     90  C   UNL A   1      45.193  34.493  28.619  1.00  0.00     0.148 A 
ATOM     91  C   UNL A   1      46.665  34.771  30.994  1.00  0.00     0.002 A 
ATOM     92  C   UNL A   1      45.932  35.646  28.855  1.00  0.00     0.091 A 
ATOM     93  F   UNL A   1      44.451  34.347  27.511  1.00  0.00    -0.205 F 
ATOM     94  C   UNL A   1      46.657  35.794  30.049  1.00  0.00     0.022 A 
BRANCH  92  95
ATOM     95  S   UNL A   1      46.058  36.972  27.648  1.00  0.00     0.127 S 
ATOM     96  O   UNL A   1      46.585  36.266  26.482  1.00  0.00    -0.237 OA
ATOM     97  O   UNL A   1      44.668  37.408  27.520  1.00  0.00    -0.237 OA
ATOM     98  O   UNL A   1      46.948  37.964  28.235  1.00  0.00    -0.744 OA
ENDBRANCH  92  95
ENDBRANCH  65  88
ENDBRANCH  39  40
ENDBRANCH  32  34
ENDBRANCH  31  32
ENDBRANCH  30  31
ENDBRANCH  29  30
ENDBRANCH  28  29
ENDBRANCH  27  28
ENDBRANCH   1  27
TORSDOF 24
ENDMDL
MODEL 3
REMARK VINA RESULT:     -10.0      2.750      7.642
REMARK SMILES Cc1nc(SCc2cccc(Cl)c2)[nH]c(=O)c1CC(=O)OCCOCCOCCOC(=O)c1ccc(-c2c3nc(c(-c4cccc(S(=O)(=O)[O-])c4F)c4ccc([nH]4)c(-c4cccc(S(=O)(=O)[O-])c4F)c4nc(c(-c5cccc(S(=O)(=O)[O-])c5F)c5ccc2[nH]5)C=C4)C=C3)cc1
REMARK SMILES IDX 25 1 24 2 23 3 22 4 21 5 19 6 20 7 18 8 17 9 1 10 2 11 3 12
REMARK SMILES IDX 4 13 15 14 14 15 16 16 5 18 6 19 7 20 8 21 13 22 9 23 11 24
REMARK SMILES IDX 10 25 12 26 26 27 27 28 28 29 29 30 30 31 31 32 32 33 33 34
REMARK SMILES IDX 34 35 95 36 35 37 94 38 36 39 37 40 38 41 88 42 39 43 93 44
REMARK SMILES IDX 87 45 89 46 40 47 92 48 86 49 85 50 41 52 73 53 53 54 72 55
REMARK SMILES IDX 54 56 57 57 71 58 90 59 55 60 56 61 70 63 91 64 58 65 42 66
REMARK SMILES IDX 43 67 51 68 44 69 46 70 52 71 45 72 47 73 48 74 49 75 50 76
REMARK SMILES IDX 74 77 75 78 83 79 76 80 78 81 84 82 77 83 79 84 80 85 81 86
REMARK SMILES IDX 82 87 59 88 60 89 68 90 61 91 63 92 69 93 62 94 64 95 65 96
REMARK SMILES IDX 66 97 67 98
REMARK H PARENT 14 17 89 51 57 62
REMARK Flexibility Score: inf
ROOT
ATOM      1  C   UNL A   1      34.010  26.288  23.846  1.00  0.00     0.188 C 
ENDROOT
BRANCH   1   2
ATOM      2  O   UNL A   1      33.624  27.655  23.999  1.00  0.00    -0.376 OA
BRANCH   2   3
ATOM      3  C   UNL A   1      33.964  28.336  25.199  1.00  0.00     0.202 C 
BRANCH   3   4
ATOM      4  C   UNL A   1      32.811  28.956  26.001  1.00  0.00     0.261 C 
BRANCH   4   5
ATOM      5  O   UNL A   1      31.538  28.291  25.819  1.00  0.00    -0.463 OA
BRANCH   5   6
ATOM      6  C   UNL A   1      31.145  27.467  26.823  1.00  0.00     0.310 C 
ATOM      7  O   UNL A   1      31.383  27.686  28.008  1.00  0.00    -0.252 OA
BRANCH   6   8
ATOM      8  C   UNL A   1      30.263  26.287  26.396  1.00  0.00     0.166 C 
BRANCH   8   9
ATOM      9  C   UNL A   1      30.777  25.205  25.481  1.00  0.00     0.050 A 
ATOM     10  C   UNL A   1      30.285  26.373  23.333  1.00  0.00     0.067 C 
ATOM     11  C   UNL A   1      30.839  25.229  24.136  1.00  0.00     0.050 A 
ATOM     12  N   UNL A   1      31.324  24.194  23.365  1.00  0.00    -0.229 NA
ATOM     13  C   UNL A   1      31.625  23.094  23.964  1.00  0.00     0.168 A 
ATOM     14  C   UNL A   1      31.475  24.056  26.106  1.00  0.00     0.255 A 
ATOM     15  N   UNL A   1      31.695  22.976  25.309  1.00  0.00    -0.301 N 
ATOM     16  O   UNL A   1      31.824  24.086  27.279  1.00  0.00    -0.269 OA
ATOM     17  H   UNL A   1      31.906  22.103  25.713  1.00  0.00     0.172 HD
BRANCH  13  18
ATOM     18  S   UNL A   1      31.942  21.605  23.132  1.00  0.00    -0.083 SA
BRANCH  18  19
ATOM     19  C   UNL A   1      33.057  20.748  24.273  1.00  0.00     0.113 C 
BRANCH  19  20
ATOM     20  C   UNL A   1      33.444  19.319  23.934  1.00  0.00    -0.036 A 
ATOM     21  C   UNL A   1      32.767  18.628  22.915  1.00  0.00     0.005 A 
ATOM     22  C   UNL A   1      34.371  18.590  24.695  1.00  0.00     0.025 A 
ATOM     23  C   UNL A   1      33.002  17.266  22.687  1.00  0.00     0.002 A 
ATOM     24  C   UNL A   1      34.591  17.231  24.482  1.00  0.00     0.041 A 
ATOM     25  C   UNL A   1      33.906  16.562  23.480  1.00  0.00     0.020 A 
ATOM     26  Cl  UNL A   1      35.693  16.383  25.498  1.00  0.00    -0.084 Cl
ENDBRANCH  19  20
ENDBRANCH  18  19
ENDBRANCH  13  18
ENDBRANCH   8   9
ENDBRANCH   6   8
ENDBRANCH   5   6
ENDBRANCH   4   5
ENDBRANCH   3   4
ENDBRANCH   2   3
ENDBRANCH   1   2
BRANCH   1  27
ATOM     27  C   UNL A   1      34.528  25.536  25.084  1.00  0.00     0.188 C 
BRANCH  27  28
ATOM     28  O   UNL A   1      34.922  24.209  24.792  1.00  0.00    -0.376 OA
BRANCH  28  29
ATOM     29  C   UNL A   1      35.673  23.535  25.777  1.00  0.00     0.202 C 
BRANCH  29  30
ATOM     30  C   UNL A   1      37.119  23.197  25.393  1.00  0.00     0.261 C 
BRANCH  30  31
ATOM     31  O   UNL A   1      37.904  22.489  26.371  1.00  0.00    -0.460 OA
BRANCH  31  32
ATOM     32  C   UNL A   1      39.237  22.730  26.375  1.00  0.00     0.338 C 
ATOM     33  O   UNL A   1      40.097  22.037  25.870  1.00  0.00    -0.246 OA
BRANCH  32  34
ATOM     34  C   UNL A   1      39.470  24.096  26.903  1.00  0.00     0.060 A 
ATOM     35  C   UNL A   1      40.122  25.011  26.075  1.00  0.00     0.016 A 
ATOM     36  C   UNL A   1      39.099  24.469  28.194  1.00  0.00     0.016 A 
ATOM     37  C   UNL A   1      40.423  26.297  26.523  1.00  0.00     0.010 A 
ATOM     38  C   UNL A   1      39.431  25.752  28.659  1.00  0.00     0.010 A 
ATOM     39  C   UNL A   1      40.120  26.664  27.836  1.00  0.00    -0.014 A 
BRANCH  39  40
ATOM     40  C   UNL A   1      40.688  27.923  28.392  1.00  0.00     0.031 A 
ATOM     41  C   UNL A   1      39.745  28.949  28.964  1.00  0.00     0.074 A 
ATOM     42  C   UNL A   1      42.015  28.142  28.428  1.00  0.00     0.049 A 
ATOM     43  N   UNL A   1      40.000  30.140  29.439  1.00  0.00    -0.248 NA
ATOM     44  C   UNL A   1      38.320  28.580  29.002  1.00  0.00     0.031 C 
ATOM     45  C   UNL A   1      43.041  27.215  27.954  1.00  0.00     0.029 A 
ATOM     46  N   UNL A   1      42.726  29.232  28.872  1.00  0.00    -0.354 N 
ATOM     47  C   UNL A   1      38.768  30.681  29.789  1.00  0.00     0.074 A 
ATOM     48  C   UNL A   1      37.765  29.689  29.468  1.00  0.00     0.031 C 
ATOM     49  C   UNL A   1      44.249  27.785  28.107  1.00  0.00     0.029 A 
ATOM     50  C   UNL A   1      44.081  29.130  28.656  1.00  0.00     0.049 A 
ATOM     51  H   UNL A   1      42.307  30.010  29.305  1.00  0.00     0.167 HD
ATOM     52  C   UNL A   1      38.494  31.889  30.337  1.00  0.00     0.034 A 
ATOM     53  C   UNL A   1      45.068  30.028  28.849  1.00  0.00     0.034 A 
ATOM     54  C   UNL A   1      39.493  32.862  30.687  1.00  0.00     0.049 A 
ATOM     55  C   UNL A   1      44.734  31.379  29.430  1.00  0.00     0.074 A 
ATOM     56  C   UNL A   1      39.316  34.102  31.277  1.00  0.00     0.029 A 
ATOM     57  N   UNL A   1      40.855  32.712  30.476  1.00  0.00    -0.354 N 
ATOM     58  N   UNL A   1      43.574  31.849  29.822  1.00  0.00    -0.248 NA
ATOM     59  C   UNL A   1      45.852  32.315  29.622  1.00  0.00     0.031 C 
ATOM     60  C   UNL A   1      40.569  34.715  31.393  1.00  0.00     0.029 A 
ATOM     61  C   UNL A   1      41.530  33.840  30.913  1.00  0.00     0.049 A 
ATOM     62  H   UNL A   1      41.280  31.920  30.075  1.00  0.00     0.167 HD
ATOM     63  C   UNL A   1      43.827  33.115  30.340  1.00  0.00     0.074 A 
ATOM     64  C   UNL A   1      45.256  33.330  30.232  1.00  0.00     0.031 C 
ATOM     65  C   UNL A   1      42.957  34.024  30.847  1.00  0.00     0.034 A 
BRANCH  52  66
ATOM     66  C   UNL A   1      37.048  32.226  30.595  1.00  0.00     0.023 A 
ATOM     67  C   UNL A   1      36.482  31.984  31.863  1.00  0.00     0.012 A 
ATOM     68  C   UNL A   1      36.262  32.827  29.590  1.00  0.00     0.148 A 
ATOM     69  C   UNL A   1      35.147  32.298  32.115  1.00  0.00     0.002 A 
ATOM     70  C   UNL A   1      34.947  33.182  29.866  1.00  0.00     0.091 A 
ATOM     71  F   UNL A   1      36.811  33.029  28.385  1.00  0.00    -0.205 F 
ATOM     72  C   UNL A   1      34.385  32.907  31.122  1.00  0.00     0.022 A 
BRANCH  70  73
ATOM     73  S   UNL A   1      33.908  34.042  28.680  1.00  0.00     0.127 S 
ATOM     74  O   UNL A   1      32.870  34.599  29.546  1.00  0.00    -0.237 OA
ATOM     75  O   UNL A   1      34.833  35.031  28.123  1.00  0.00    -0.237 OA
ATOM     76  O   UNL A   1      33.455  33.032  27.734  1.00  0.00    -0.744 OA
ENDBRANCH  70  73
ENDBRANCH  52  66
BRANCH  53  77
ATOM     77  C   UNL A   1      46.477  29.682  28.501  1.00  0.00     0.023 A 
ATOM     78  C   UNL A   1      46.940  29.874  27.185  1.00  0.00     0.012 A 
ATOM     79  C   UNL A   1      47.359  29.163  29.469  1.00  0.00     0.148 A 
ATOM     80  C   UNL A   1      48.244  29.525  26.830  1.00  0.00     0.002 A 
ATOM     81  C   UNL A   1      48.674  28.872  29.124  1.00  0.00     0.091 A 
ATOM     82  F   UNL A   1      46.894  28.967  30.711  1.00  0.00    -0.205 F 
ATOM     83  C   UNL A   1      49.113  29.034  27.802  1.00  0.00     0.022 A 
BRANCH  81  84
ATOM     84  S   UNL A   1      49.896  28.351  30.333  1.00  0.00     0.127 S 
ATOM     85  O   UNL A   1      49.344  27.077  30.786  1.00  0.00    -0.237 OA
ATOM     86  O   UNL A   1      51.102  28.243  29.512  1.00  0.00    -0.237 OA
ATOM     87  O   UNL A   1      49.939  29.411  31.331  1.00  0.00    -0.744 OA
ENDBRANCH  81  84
ENDBRANCH  53  77
BRANCH  65  88
ATOM     88  C   UNL A   1      43.523  35.320  31.370  1.00  0.00     0.023 A 
ATOM     89  C   UNL A   1      43.973  35.408  32.703  1.00  0.00     0.012 A 
ATOM     90  C   UNL A   1      43.663  36.437  30.522  1.00  0.00     0.148 A 
ATOM     91  C   UNL A   1      44.509  36.597  33.195  1.00  0.00     0.002 A 
ATOM     92  C   UNL A   1      44.249  37.602  31.003  1.00  0.00     0.091 A 
ATOM     93  F   UNL A   1      43.216  36.342  29.261  1.00  0.00    -0.205 F 
ATOM     94  C   UNL A   1      44.658  37.689  32.343  1.00  0.00     0.022 A 
BRANCH  92  95
ATOM     95  S   UNL A   1      44.570  39.023  29.951  1.00  0.00     0.127 S 
ATOM     96  O   UNL A   1      45.225  39.940  30.882  1.00  0.00    -0.237 OA
ATOM     97  O   UNL A   1      45.451  38.459  28.928  1.00  0.00    -0.237 OA
ATOM     98  O   UNL A   1      43.271  39.456  29.455  1.00  0.00    -0.744 OA
ENDBRANCH  92  95
ENDBRANCH  65  88
ENDBRANCH  39  40
ENDBRANCH  32  34
ENDBRANCH  31  32
ENDBRANCH  30  31
ENDBRANCH  29  30
ENDBRANCH  28  29
ENDBRANCH  27  28
ENDBRANCH   1  27
TORSDOF 24
ENDMDL
