MODEL 1
REMARK VINA RESULT:     -10.9      0.000      0.000
REMARK SMILES O=C(/C=C/c1ccc(O)c(O)c1)OCCOCCOCCOC(=O)c1ccc(-c2c3nc(c(-c4cccc(S(=O)(=O)[O-])c4F)c4ccc([nH]4)c(-c4cccc(S(=O)(=O)[O-])c4F)c4nc(c(-c5cccc(S(=O)(=O)[O-])c5F)c5ccc2[nH]5)C=C4)C=C3)cc1
REMARK SMILES IDX 18 1 17 2 16 3 15 4 14 5 13 6 2 7 1 8 3 9 4 10 5 11 6 12
REMARK SMILES IDX 12 13 7 14 10 15 8 16 11 17 9 19 19 21 20 22 21 23 22 24
REMARK SMILES IDX 23 25 24 26 25 27 26 28 87 29 27 30 86 31 28 32 29 33 30 34
REMARK SMILES IDX 80 35 31 36 85 37 79 38 81 39 32 40 84 41 78 42 77 43 33 45
REMARK SMILES IDX 65 46 45 47 64 48 46 49 49 50 63 51 82 52 47 53 48 54 62 56
REMARK SMILES IDX 83 57 50 58 34 59 35 60 43 61 36 62 38 63 44 64 37 65 39 66
REMARK SMILES IDX 40 67 41 68 42 69 66 70 67 71 75 72 68 73 70 74 76 75 69 76
REMARK SMILES IDX 71 77 72 78 73 79 74 80 51 81 52 82 60 83 53 84 55 85 61 86
REMARK SMILES IDX 54 87 56 88 57 89 58 90 59 91
REMARK H PARENT 11 18 9 20 81 44 49 55
REMARK Flexibility Score: inf
ROOT
ATOM      1  C   UNL A   1      34.111  22.943  24.362  1.00  0.00     0.188 C 
ENDROOT
BRANCH   1   2
ATOM      2  C   UNL A   1      34.726  24.293  24.772  1.00  0.00     0.188 C 
BRANCH   2   3
ATOM      3  O   UNL A   1      33.925  24.980  25.706  1.00  0.00    -0.376 OA
BRANCH   3   4
ATOM      4  C   UNL A   1      33.259  26.174  25.347  1.00  0.00     0.202 C 
BRANCH   4   5
ATOM      5  C   UNL A   1      31.810  26.399  25.763  1.00  0.00     0.261 C 
BRANCH   5   6
ATOM      6  O   UNL A   1      30.909  27.247  24.997  1.00  0.00    -0.460 OA
BRANCH   6   7
ATOM      7  C   UNL A   1      29.949  27.056  24.076  1.00  0.00     0.330 C 
ATOM      8  O   UNL A   1      29.598  25.917  23.781  1.00  0.00    -0.247 OA
BRANCH   7   9
ATOM      9  C   UNL A   1      29.372  28.181  23.344  1.00  0.00     0.094 C 
ATOM     10  C   UNL A   1      29.851  29.431  23.405  1.00  0.00     0.016 C 
BRANCH  10  11
ATOM     11  C   UNL A   1      29.194  30.511  22.663  1.00  0.00    -0.021 A 
ATOM     12  C   UNL A   1      28.697  30.280  21.372  1.00  0.00     0.012 A 
ATOM     13  C   UNL A   1      29.074  31.788  23.230  1.00  0.00     0.058 A 
ATOM     14  C   UNL A   1      28.073  31.305  20.652  1.00  0.00     0.051 A 
ATOM     15  C   UNL A   1      28.454  32.799  22.509  1.00  0.00     0.157 A 
ATOM     16  C   UNL A   1      27.953  32.562  21.233  1.00  0.00     0.157 A 
BRANCH  15  17
ATOM     17  O   UNL A   1      28.341  34.043  23.066  1.00  0.00    -0.504 OA
ATOM     18  H   UNL A   1      28.314  34.801  22.517  1.00  0.00     0.293 HD
ENDBRANCH  15  17
BRANCH  16  19
ATOM     19  O   UNL A   1      27.343  33.598  20.581  1.00  0.00    -0.504 OA
ATOM     20  H   UNL A   1      27.860  34.271  20.184  1.00  0.00     0.293 HD
ENDBRANCH  16  19
ENDBRANCH  10  11
ENDBRANCH   7   9
ENDBRANCH   6   7
ENDBRANCH   5   6
ENDBRANCH   4   5
ENDBRANCH   3   4
ENDBRANCH   2   3
ENDBRANCH   1   2
BRANCH   1  21
ATOM     21  O   UNL A   1      34.981  21.827  24.187  1.00  0.00    -0.376 OA
BRANCH  21  22
ATOM     22  C   UNL A   1      35.635  21.294  25.340  1.00  0.00     0.202 C 
BRANCH  22  23
ATOM     23  C   UNL A   1      36.942  20.507  25.159  1.00  0.00     0.261 C 
BRANCH  23  24
ATOM     24  O   UNL A   1      38.115  21.314  24.946  1.00  0.00    -0.460 OA
BRANCH  24  25
ATOM     25  C   UNL A   1      39.127  21.074  25.817  1.00  0.00     0.338 C 
ATOM     26  O   UNL A   1      39.767  20.040  25.934  1.00  0.00    -0.246 OA
BRANCH  25  27
ATOM     27  C   UNL A   1      39.486  22.285  26.575  1.00  0.00     0.060 A 
ATOM     28  C   UNL A   1      38.885  23.492  26.198  1.00  0.00     0.016 A 
ATOM     29  C   UNL A   1      40.532  22.273  27.499  1.00  0.00     0.016 A 
ATOM     30  C   UNL A   1      39.368  24.699  26.705  1.00  0.00     0.010 A 
ATOM     31  C   UNL A   1      41.019  23.487  28.002  1.00  0.00     0.010 A 
ATOM     32  C   UNL A   1      40.468  24.708  27.574  1.00  0.00    -0.014 A 
BRANCH  32  33
ATOM     33  C   UNL A   1      41.101  26.005  27.926  1.00  0.00     0.031 A 
ATOM     34  C   UNL A   1      42.522  26.279  27.510  1.00  0.00     0.074 A 
ATOM     35  C   UNL A   1      40.403  26.950  28.580  1.00  0.00     0.049 A 
ATOM     36  N   UNL A   1      43.229  27.371  27.658  1.00  0.00    -0.248 NA
ATOM     37  C   UNL A   1      43.240  25.184  26.837  1.00  0.00     0.031 C 
ATOM     38  C   UNL A   1      39.029  26.804  29.056  1.00  0.00     0.029 A 
ATOM     39  N   UNL A   1      40.764  28.216  28.968  1.00  0.00    -0.354 N 
ATOM     40  C   UNL A   1      44.473  27.097  27.101  1.00  0.00     0.074 A 
ATOM     41  C   UNL A   1      44.433  25.727  26.634  1.00  0.00     0.031 C 
ATOM     42  C   UNL A   1      38.669  27.930  29.695  1.00  0.00     0.029 A 
ATOM     43  C   UNL A   1      39.788  28.873  29.677  1.00  0.00     0.049 A 
ATOM     44  H   UNL A   1      41.639  28.616  28.757  1.00  0.00     0.167 HD
ATOM     45  C   UNL A   1      45.543  27.916  26.962  1.00  0.00     0.034 A 
ATOM     46  C   UNL A   1      39.797  30.091  30.254  1.00  0.00     0.034 A 
ATOM     47  C   UNL A   1      45.587  29.282  27.411  1.00  0.00     0.049 A 
ATOM     48  C   UNL A   1      40.999  30.984  30.088  1.00  0.00     0.074 A 
ATOM     49  C   UNL A   1      46.620  30.197  27.285  1.00  0.00     0.029 A 
ATOM     50  N   UNL A   1      44.560  29.932  28.075  1.00  0.00    -0.354 N 
ATOM     51  N   UNL A   1      42.113  30.757  29.434  1.00  0.00    -0.248 NA
ATOM     52  C   UNL A   1      40.931  32.319  30.705  1.00  0.00     0.031 C 
ATOM     53  C   UNL A   1      46.218  31.398  27.882  1.00  0.00     0.029 A 
ATOM     54  C   UNL A   1      44.933  31.232  28.372  1.00  0.00     0.049 A 
ATOM     55  H   UNL A   1      43.691  29.528  28.304  1.00  0.00     0.167 HD
ATOM     56  C   UNL A   1      42.863  31.924  29.538  1.00  0.00     0.074 A 
ATOM     57  C   UNL A   1      42.064  32.868  30.291  1.00  0.00     0.031 C 
ATOM     58  C   UNL A   1      44.111  32.183  29.075  1.00  0.00     0.034 A 
BRANCH  45  59
ATOM     59  C   UNL A   1      46.745  27.375  26.236  1.00  0.00     0.023 A 
ATOM     60  C   UNL A   1      46.862  27.594  24.848  1.00  0.00     0.012 A 
ATOM     61  C   UNL A   1      47.785  26.723  26.924  1.00  0.00     0.148 A 
ATOM     62  C   UNL A   1      47.986  27.155  24.152  1.00  0.00     0.002 A 
ATOM     63  C   UNL A   1      48.919  26.317  26.229  1.00  0.00     0.091 A 
ATOM     64  F   UNL A   1      47.645  26.505  28.239  1.00  0.00    -0.205 F 
ATOM     65  C   UNL A   1      49.018  26.526  24.842  1.00  0.00     0.022 A 
BRANCH  63  66
ATOM     66  S   UNL A   1      50.332  25.556  27.037  1.00  0.00     0.127 S 
ATOM     67  O   UNL A   1      50.698  26.580  28.015  1.00  0.00    -0.237 OA
ATOM     68  O   UNL A   1      49.744  24.346  27.613  1.00  0.00    -0.237 OA
ATOM     69  O   UNL A   1      51.312  25.315  25.988  1.00  0.00    -0.744 OA
ENDBRANCH  63  66
ENDBRANCH  45  59
BRANCH  46  70
ATOM     70  C   UNL A   1      38.602  30.555  31.011  1.00  0.00     0.023 A 
ATOM     71  C   UNL A   1      38.530  30.356  32.403  1.00  0.00     0.012 A 
ATOM     72  C   UNL A   1      37.547  31.222  30.360  1.00  0.00     0.148 A 
ATOM     73  C   UNL A   1      37.415  30.785  33.126  1.00  0.00     0.002 A 
ATOM     74  C   UNL A   1      36.471  31.705  31.094  1.00  0.00     0.091 A 
ATOM     75  F   UNL A   1      37.613  31.382  29.030  1.00  0.00    -0.205 F 
ATOM     76  C   UNL A   1      36.392  31.471  32.475  1.00  0.00     0.022 A 
BRANCH  74  77
ATOM     77  S   UNL A   1      35.221  32.738  30.321  1.00  0.00     0.127 S 
ATOM     78  O   UNL A   1      34.643  31.832  29.335  1.00  0.00    -0.237 OA
ATOM     79  O   UNL A   1      34.343  33.070  31.443  1.00  0.00    -0.237 OA
ATOM     80  O   UNL A   1      35.958  33.884  29.793  1.00  0.00    -0.744 OA
ENDBRANCH  74  77
ENDBRANCH  46  70
BRANCH  58  81
ATOM     81  C   UNL A   1      44.694  33.542  29.362  1.00  0.00     0.023 A 
ATOM     82  C   UNL A   1      45.428  33.742  30.548  1.00  0.00     0.012 A 
ATOM     83  C   UNL A   1      44.570  34.601  28.441  1.00  0.00     0.148 A 
ATOM     84  C   UNL A   1      46.001  34.982  30.830  1.00  0.00     0.002 A 
ATOM     85  C   UNL A   1      45.178  35.823  28.710  1.00  0.00     0.091 A 
ATOM     86  F   UNL A   1      43.851  34.404  27.326  1.00  0.00    -0.205 F 
ATOM     87  C   UNL A   1      45.885  36.019  29.907  1.00  0.00     0.022 A 
BRANCH  85  88
ATOM     88  S   UNL A   1      45.144  37.180  27.531  1.00  0.00     0.127 S 
ATOM     89  O   UNL A   1      45.763  38.260  28.298  1.00  0.00    -0.237 OA
ATOM     90  O   UNL A   1      45.963  36.667  26.431  1.00  0.00    -0.237 OA
ATOM     91  O   UNL A   1      43.739  37.365  27.193  1.00  0.00    -0.744 OA
ENDBRANCH  85  88
ENDBRANCH  58  81
ENDBRANCH  32  33
ENDBRANCH  25  27
ENDBRANCH  24  25
ENDBRANCH  23  24
ENDBRANCH  22  23
ENDBRANCH  21  22
ENDBRANCH   1  21
TORSDOF 23
ENDMDL
MODEL 2
REMARK VINA RESULT:     -10.4      3.289      5.084
REMARK SMILES O=C(/C=C/c1ccc(O)c(O)c1)OCCOCCOCCOC(=O)c1ccc(-c2c3nc(c(-c4cccc(S(=O)(=O)[O-])c4F)c4ccc([nH]4)c(-c4cccc(S(=O)(=O)[O-])c4F)c4nc(c(-c5cccc(S(=O)(=O)[O-])c5F)c5ccc2[nH]5)C=C4)C=C3)cc1
REMARK SMILES IDX 18 1 17 2 16 3 15 4 14 5 13 6 2 7 1 8 3 9 4 10 5 11 6 12
REMARK SMILES IDX 12 13 7 14 10 15 8 16 11 17 9 19 19 21 20 22 21 23 22 24
REMARK SMILES IDX 23 25 24 26 25 27 26 28 87 29 27 30 86 31 28 32 29 33 30 34
REMARK SMILES IDX 80 35 31 36 85 37 79 38 81 39 32 40 84 41 78 42 77 43 33 45
REMARK SMILES IDX 65 46 45 47 64 48 46 49 49 50 63 51 82 52 47 53 48 54 62 56
REMARK SMILES IDX 83 57 50 58 34 59 35 60 43 61 36 62 38 63 44 64 37 65 39 66
REMARK SMILES IDX 40 67 41 68 42 69 66 70 67 71 75 72 68 73 70 74 76 75 69 76
REMARK SMILES IDX 71 77 72 78 73 79 74 80 51 81 52 82 60 83 53 84 55 85 61 86
REMARK SMILES IDX 54 87 56 88 57 89 58 90 59 91
REMARK H PARENT 11 18 9 20 81 44 49 55
REMARK Flexibility Score: inf
ROOT
ATOM      1  C   UNL A   1      37.092  21.820  24.269  1.00  0.00     0.188 C 
ENDROOT
BRANCH   1   2
ATOM      2  C   UNL A   1      35.987  22.858  24.001  1.00  0.00     0.188 C 
BRANCH   2   3
ATOM      3  O   UNL A   1      35.717  23.650  25.135  1.00  0.00    -0.376 OA
BRANCH   3   4
ATOM      4  C   UNL A   1      34.932  24.821  25.029  1.00  0.00     0.202 C 
BRANCH   4   5
ATOM      5  C   UNL A   1      33.682  24.831  24.156  1.00  0.00     0.261 C 
BRANCH   5   6
ATOM      6  O   UNL A   1      32.363  24.532  24.692  1.00  0.00    -0.460 OA
BRANCH   6   7
ATOM      7  C   UNL A   1      31.603  23.433  24.837  1.00  0.00     0.330 C 
ATOM      8  O   UNL A   1      30.566  23.486  25.492  1.00  0.00    -0.247 OA
BRANCH   7   9
ATOM      9  C   UNL A   1      32.035  22.142  24.306  1.00  0.00     0.094 C 
ATOM     10  C   UNL A   1      32.254  21.062  25.067  1.00  0.00     0.016 C 
BRANCH  10  11
ATOM     11  C   UNL A   1      32.718  19.811  24.460  1.00  0.00    -0.021 A 
ATOM     12  C   UNL A   1      33.842  19.149  24.976  1.00  0.00     0.012 A 
ATOM     13  C   UNL A   1      32.053  19.276  23.347  1.00  0.00     0.058 A 
ATOM     14  C   UNL A   1      34.296  17.958  24.401  1.00  0.00     0.051 A 
ATOM     15  C   UNL A   1      32.511  18.093  22.782  1.00  0.00     0.157 A 
ATOM     16  C   UNL A   1      33.619  17.435  23.306  1.00  0.00     0.157 A 
BRANCH  15  17
ATOM     17  O   UNL A   1      31.860  17.577  21.696  1.00  0.00    -0.504 OA
ATOM     18  H   UNL A   1      31.145  18.044  21.312  1.00  0.00     0.293 HD
ENDBRANCH  15  17
BRANCH  16  19
ATOM     19  O   UNL A   1      34.012  16.268  22.709  1.00  0.00    -0.504 OA
ATOM     20  H   UNL A   1      33.664  15.450  23.004  1.00  0.00     0.293 HD
ENDBRANCH  16  19
ENDBRANCH  10  11
ENDBRANCH   7   9
ENDBRANCH   6   7
ENDBRANCH   5   6
ENDBRANCH   4   5
ENDBRANCH   3   4
ENDBRANCH   2   3
ENDBRANCH   1   2
BRANCH   1  21
ATOM     21  O   UNL A   1      36.769  20.676  25.056  1.00  0.00    -0.376 OA
BRANCH  21  22
ATOM     22  C   UNL A   1      37.664  19.563  25.028  1.00  0.00     0.202 C 
BRANCH  22  23
ATOM     23  C   UNL A   1      39.174  19.814  25.168  1.00  0.00     0.261 C 
BRANCH  23  24
ATOM     24  O   UNL A   1      39.604  20.231  26.477  1.00  0.00    -0.460 OA
BRANCH  24  25
ATOM     25  C   UNL A   1      40.877  20.698  26.526  1.00  0.00     0.338 C 
ATOM     26  O   UNL A   1      41.869  20.181  26.037  1.00  0.00    -0.246 OA
BRANCH  25  27
ATOM     27  C   UNL A   1      40.940  22.026  27.161  1.00  0.00     0.060 A 
ATOM     28  C   UNL A   1      40.373  23.106  26.474  1.00  0.00     0.016 A 
ATOM     29  C   UNL A   1      41.710  22.241  28.307  1.00  0.00     0.016 A 
ATOM     30  C   UNL A   1      40.621  24.411  26.900  1.00  0.00     0.010 A 
ATOM     31  C   UNL A   1      41.963  23.553  28.729  1.00  0.00     0.010 A 
ATOM     32  C   UNL A   1      41.455  24.646  28.002  1.00  0.00    -0.014 A 
BRANCH  32  33
ATOM     33  C   UNL A   1      41.882  26.036  28.304  1.00  0.00     0.031 A 
ATOM     34  C   UNL A   1      43.283  26.476  27.969  1.00  0.00     0.074 A 
ATOM     35  C   UNL A   1      41.016  26.915  28.838  1.00  0.00     0.049 A 
ATOM     36  N   UNL A   1      43.826  27.661  28.088  1.00  0.00    -0.248 NA
ATOM     37  C   UNL A   1      44.190  25.451  27.428  1.00  0.00     0.031 C 
ATOM     38  C   UNL A   1      39.640  26.612  29.226  1.00  0.00     0.029 A 
ATOM     39  N   UNL A   1      41.175  28.240  29.158  1.00  0.00    -0.354 N 
ATOM     40  C   UNL A   1      45.135  27.527  27.640  1.00  0.00     0.074 A 
ATOM     41  C   UNL A   1      45.313  26.139  27.270  1.00  0.00     0.031 C 
ATOM     42  C   UNL A   1      39.085  27.715  29.756  1.00  0.00     0.029 A 
ATOM     43  C   UNL A   1      40.068  28.800  29.749  1.00  0.00     0.049 A 
ATOM     44  H   UNL A   1      42.003  28.742  28.981  1.00  0.00     0.167 HD
ATOM     45  C   UNL A   1      46.094  28.475  27.518  1.00  0.00     0.034 A 
ATOM     46  C   UNL A   1      39.870  30.041  30.236  1.00  0.00     0.034 A 
ATOM     47  C   UNL A   1      45.922  29.859  27.869  1.00  0.00     0.049 A 
ATOM     48  C   UNL A   1      40.953  31.078  30.091  1.00  0.00     0.074 A 
ATOM     49  C   UNL A   1      46.832  30.897  27.751  1.00  0.00     0.029 A 
ATOM     50  N   UNL A   1      44.769  30.402  28.412  1.00  0.00    -0.354 N 
ATOM     51  N   UNL A   1      42.135  30.966  29.533  1.00  0.00    -0.248 NA
ATOM     52  C   UNL A   1      40.661  32.426  30.604  1.00  0.00     0.031 C 
ATOM     53  C   UNL A   1      46.230  32.067  28.230  1.00  0.00     0.029 A 
ATOM     54  C   UNL A   1      44.943  31.757  28.640  1.00  0.00     0.049 A 
ATOM     55  H   UNL A   1      43.946  29.897  28.608  1.00  0.00     0.167 HD
ATOM     56  C   UNL A   1      42.714  32.229  29.606  1.00  0.00     0.074 A 
ATOM     57  C   UNL A   1      41.741  33.099  30.232  1.00  0.00     0.031 C 
ATOM     58  C   UNL A   1      43.950  32.627  29.214  1.00  0.00     0.034 A 
BRANCH  45  59
ATOM     59  C   UNL A   1      47.411  28.060  26.918  1.00  0.00     0.023 A 
ATOM     60  C   UNL A   1      48.490  27.764  27.776  1.00  0.00     0.012 A 
ATOM     61  C   UNL A   1      47.564  27.890  25.529  1.00  0.00     0.148 A 
ATOM     62  C   UNL A   1      49.708  27.325  27.260  1.00  0.00     0.002 A 
ATOM     63  C   UNL A   1      48.771  27.420  25.024  1.00  0.00     0.091 A 
ATOM     64  F   UNL A   1      46.533  28.197  24.730  1.00  0.00    -0.205 F 
ATOM     65  C   UNL A   1      49.846  27.144  25.887  1.00  0.00     0.022 A 
BRANCH  63  66
ATOM     66  S   UNL A   1      49.028  27.091  23.276  1.00  0.00     0.127 S 
ATOM     67  O   UNL A   1      48.464  28.293  22.664  1.00  0.00    -0.237 OA
ATOM     68  O   UNL A   1      50.486  26.991  23.191  1.00  0.00    -0.237 OA
ATOM     69  O   UNL A   1      48.318  25.852  22.993  1.00  0.00    -0.744 OA
ENDBRANCH  63  66
ENDBRANCH  45  59
BRANCH  46  70
ATOM     70  C   UNL A   1      38.568  30.382  30.872  1.00  0.00     0.023 A 
ATOM     71  C   UNL A   1      38.334  30.045  32.219  1.00  0.00     0.012 A 
ATOM     72  C   UNL A   1      37.571  31.069  30.156  1.00  0.00     0.148 A 
ATOM     73  C   UNL A   1      37.117  30.359  32.828  1.00  0.00     0.002 A 
ATOM     74  C   UNL A   1      36.388  31.436  30.786  1.00  0.00     0.091 A 
ATOM     75  F   UNL A   1      37.793  31.361  28.865  1.00  0.00    -0.205 F 
ATOM     76  C   UNL A   1      36.150  31.065  32.118  1.00  0.00     0.022 A 
BRANCH  74  77
ATOM     77  S   UNL A   1      35.194  32.491  29.957  1.00  0.00     0.127 S 
ATOM     78  O   UNL A   1      34.294  32.850  31.048  1.00  0.00    -0.237 OA
ATOM     79  O   UNL A   1      36.026  33.586  29.459  1.00  0.00    -0.237 OA
ATOM     80  O   UNL A   1      34.629  31.657  28.900  1.00  0.00    -0.744 OA
ENDBRANCH  74  77
ENDBRANCH  46  70
BRANCH  58  81
ATOM     81  C   UNL A   1      44.324  34.069  29.443  1.00  0.00     0.023 A 
ATOM     82  C   UNL A   1      44.980  34.430  30.637  1.00  0.00     0.012 A 
ATOM     83  C   UNL A   1      44.084  35.052  28.463  1.00  0.00     0.148 A 
ATOM     84  C   UNL A   1      45.360  35.753  30.866  1.00  0.00     0.002 A 
ATOM     85  C   UNL A   1      44.502  36.360  28.682  1.00  0.00     0.091 A 
ATOM     86  F   UNL A   1      43.439  34.698  27.341  1.00  0.00    -0.205 F 
ATOM     87  C   UNL A   1      45.132  36.715  29.886  1.00  0.00     0.022 A 
BRANCH  85  88
ATOM     88  S   UNL A   1      44.317  37.637  27.430  1.00  0.00     0.127 S 
ATOM     89  O   UNL A   1      44.326  38.855  28.240  1.00  0.00    -0.237 OA
ATOM     90  O   UNL A   1      45.511  37.449  26.603  1.00  0.00    -0.237 OA
ATOM     91  O   UNL A   1      43.066  37.336  26.749  1.00  0.00    -0.744 OA
ENDBRANCH  85  88
ENDBRANCH  58  81
ENDBRANCH  32  33
ENDBRANCH  25  27
ENDBRANCH  24  25
ENDBRANCH  23  24
ENDBRANCH  22  23
ENDBRANCH  21  22
ENDBRANCH   1  21
TORSDOF 23
ENDMDL
MODEL 3
REMARK VINA RESULT:     -10.3      1.642      7.786
REMARK SMILES O=C(/C=C/c1ccc(O)c(O)c1)OCCOCCOCCOC(=O)c1ccc(-c2c3nc(c(-c4cccc(S(=O)(=O)[O-])c4F)c4ccc([nH]4)c(-c4cccc(S(=O)(=O)[O-])c4F)c4nc(c(-c5cccc(S(=O)(=O)[O-])c5F)c5ccc2[nH]5)C=C4)C=C3)cc1
REMARK SMILES IDX 18 1 17 2 16 3 15 4 14 5 13 6 2 7 1 8 3 9 4 10 5 11 6 12
REMARK SMILES IDX 12 13 7 14 10 15 8 16 11 17 9 19 19 21 20 22 21 23 22 24
REMARK SMILES IDX 23 25 24 26 25 27 26 28 87 29 27 30 86 31 28 32 29 33 30 34
REMARK SMILES IDX 80 35 31 36 85 37 79 38 81 39 32 40 84 41 78 42 77 43 33 45
REMARK SMILES IDX 65 46 45 47 64 48 46 49 49 50 63 51 82 52 47 53 48 54 62 56
REMARK SMILES IDX 83 57 50 58 34 59 35 60 43 61 36 62 38 63 44 64 37 65 39 66
REMARK SMILES IDX 40 67 41 68 42 69 66 70 67 71 75 72 68 73 70 74 76 75 69 76
REMARK SMILES IDX 71 77 72 78 73 79 74 80 51 81 52 82 60 83 53 84 55 85 61 86
REMARK SMILES IDX 54 87 56 88 57 89 58 90 59 91
REMARK H PARENT 11 18 9 20 81 44 49 55
REMARK Flexibility Score: inf
ROOT
ATOM      1  C   UNL A   1      36.090  22.720  25.288  1.00  0.00     0.188 C 
ENDROOT
BRANCH   1   2
ATOM      2  C   UNL A   1      35.007  23.424  26.125  1.00  0.00     0.188 C 
BRANCH   2   3
ATOM      3  O   UNL A   1      34.530  24.594  25.500  1.00  0.00    -0.376 OA
BRANCH   3   4
ATOM      4  C   UNL A   1      33.153  24.915  25.521  1.00  0.00     0.202 C 
BRANCH   4   5
ATOM      5  C   UNL A   1      32.699  26.359  25.345  1.00  0.00     0.261 C 
BRANCH   5   6
ATOM      6  O   UNL A   1      31.439  26.700  24.704  1.00  0.00    -0.460 OA
BRANCH   6   7
ATOM      7  C   UNL A   1      31.024  26.936  23.448  1.00  0.00     0.330 C 
ATOM      8  O   UNL A   1      31.119  26.058  22.595  1.00  0.00    -0.247 OA
BRANCH   7   9
ATOM      9  C   UNL A   1      30.542  28.256  23.048  1.00  0.00     0.094 C 
ATOM     10  C   UNL A   1      29.254  28.623  23.095  1.00  0.00     0.016 C 
BRANCH  10  11
ATOM     11  C   UNL A   1      28.849  29.957  22.645  1.00  0.00    -0.021 A 
ATOM     12  C   UNL A   1      28.943  31.055  23.514  1.00  0.00     0.012 A 
ATOM     13  C   UNL A   1      28.347  30.145  21.350  1.00  0.00     0.058 A 
ATOM     14  C   UNL A   1      28.554  32.332  23.097  1.00  0.00     0.051 A 
ATOM     15  C   UNL A   1      27.962  31.416  20.944  1.00  0.00     0.157 A 
ATOM     16  C   UNL A   1      28.068  32.503  21.806  1.00  0.00     0.157 A 
BRANCH  15  17
ATOM     17  O   UNL A   1      27.472  31.593  19.679  1.00  0.00    -0.504 OA
ATOM     18  H   UNL A   1      28.050  31.561  18.944  1.00  0.00     0.293 HD
ENDBRANCH  15  17
BRANCH  16  19
ATOM     19  O   UNL A   1      27.682  33.729  21.340  1.00  0.00    -0.504 OA
ATOM     20  H   UNL A   1      26.774  33.957  21.314  1.00  0.00     0.293 HD
ENDBRANCH  16  19
ENDBRANCH  10  11
ENDBRANCH   7   9
ENDBRANCH   6   7
ENDBRANCH   5   6
ENDBRANCH   4   5
ENDBRANCH   3   4
ENDBRANCH   2   3
ENDBRANCH   1   2
BRANCH   1  21
ATOM     21  O   UNL A   1      36.522  21.423  25.692  1.00  0.00    -0.376 OA
BRANCH  21  22
ATOM     22  C   UNL A   1      37.049  20.546  24.695  1.00  0.00     0.202 C 
BRANCH  22  23
ATOM     23  C   UNL A   1      38.269  19.675  25.037  1.00  0.00     0.261 C 
BRANCH  23  24
ATOM     24  O   UNL A   1      38.822  19.888  26.349  1.00  0.00    -0.460 OA
BRANCH  24  25
ATOM     25  C   UNL A   1      40.146  20.186  26.358  1.00  0.00     0.338 C 
ATOM     26  O   UNL A   1      41.054  19.512  25.897  1.00  0.00    -0.246 OA
BRANCH  25  27
ATOM     27  C   UNL A   1      40.392  21.534  26.900  1.00  0.00     0.060 A 
ATOM     28  C   UNL A   1      39.832  22.623  26.222  1.00  0.00     0.016 A 
ATOM     29  C   UNL A   1      41.312  21.738  27.931  1.00  0.00     0.016 A 
ATOM     30  C   UNL A   1      40.234  23.921  26.536  1.00  0.00     0.010 A 
ATOM     31  C   UNL A   1      41.719  23.043  28.240  1.00  0.00     0.010 A 
ATOM     32  C   UNL A   1      41.213  24.138  27.516  1.00  0.00    -0.014 A 
BRANCH  32  33
ATOM     33  C   UNL A   1      41.783  25.499  27.681  1.00  0.00     0.031 A 
ATOM     34  C   UNL A   1      40.976  26.569  28.368  1.00  0.00     0.074 A 
ATOM     35  C   UNL A   1      43.029  25.774  27.256  1.00  0.00     0.049 A 
ATOM     36  N   UNL A   1      41.319  27.795  28.672  1.00  0.00    -0.248 NA
ATOM     37  C   UNL A   1      39.605  26.212  28.768  1.00  0.00     0.031 C 
ATOM     38  C   UNL A   1      43.907  24.835  26.559  1.00  0.00     0.029 A 
ATOM     39  N   UNL A   1      43.764  26.930  27.337  1.00  0.00    -0.354 N 
ATOM     40  C   UNL A   1      40.211  28.357  29.296  1.00  0.00     0.074 A 
ATOM     41  C   UNL A   1      39.175  27.346  29.304  1.00  0.00     0.031 C 
ATOM     42  C   UNL A   1      45.056  25.461  26.254  1.00  0.00     0.029 A 
ATOM     43  C   UNL A   1      44.994  26.844  26.729  1.00  0.00     0.049 A 
ATOM     44  H   UNL A   1      43.442  27.743  27.789  1.00  0.00     0.167 HD
ATOM     45  C   UNL A   1      40.075  29.590  29.839  1.00  0.00     0.034 A 
ATOM     46  C   UNL A   1      45.955  27.775  26.566  1.00  0.00     0.034 A 
ATOM     47  C   UNL A   1      41.103  30.596  29.847  1.00  0.00     0.049 A 
ATOM     48  C   UNL A   1      45.779  29.140  27.177  1.00  0.00     0.074 A 
ATOM     49  C   UNL A   1      41.063  31.865  30.401  1.00  0.00     0.029 A 
ATOM     50  N   UNL A   1      42.355  30.454  29.271  1.00  0.00    -0.354 N 
ATOM     51  N   UNL A   1      44.780  29.606  27.887  1.00  0.00    -0.248 NA
ATOM     52  C   UNL A   1      46.883  30.098  27.001  1.00  0.00     0.031 C 
ATOM     53  C   UNL A   1      42.289  32.493  30.153  1.00  0.00     0.029 A 
ATOM     54  C   UNL A   1      43.095  31.611  29.451  1.00  0.00     0.049 A 
ATOM     55  H   UNL A   1      42.673  29.648  28.802  1.00  0.00     0.167 HD
ATOM     56  C   UNL A   1      45.144  30.895  28.262  1.00  0.00     0.074 A 
ATOM     57  C   UNL A   1      46.469  31.127  27.728  1.00  0.00     0.031 C 
ATOM     58  C   UNL A   1      44.434  31.814  28.962  1.00  0.00     0.034 A 
BRANCH  45  59
ATOM     59  C   UNL A   1      38.776  29.906  30.532  1.00  0.00     0.023 A 
ATOM     60  C   UNL A   1      38.564  29.423  31.839  1.00  0.00     0.012 A 
ATOM     61  C   UNL A   1      37.807  30.732  29.932  1.00  0.00     0.148 A 
ATOM     62  C   UNL A   1      37.397  29.740  32.532  1.00  0.00     0.002 A 
ATOM     63  C   UNL A   1      36.661  31.071  30.643  1.00  0.00     0.091 A 
ATOM     64  F   UNL A   1      38.019  31.163  28.681  1.00  0.00    -0.205 F 
ATOM     65  C   UNL A   1      36.452  30.571  31.940  1.00  0.00     0.022 A 
BRANCH  63  66
ATOM     66  S   UNL A   1      35.412  32.187  29.993  1.00  0.00     0.127 S 
ATOM     67  O   UNL A   1      34.499  32.303  31.129  1.00  0.00    -0.237 OA
ATOM     68  O   UNL A   1      36.191  33.394  29.712  1.00  0.00    -0.237 OA
ATOM     69  O   UNL A   1      34.863  31.532  28.814  1.00  0.00    -0.744 OA
ENDBRANCH  63  66
ENDBRANCH  45  59
BRANCH  46  70
ATOM     70  C   UNL A   1      47.196  27.426  25.820  1.00  0.00     0.023 A 
ATOM     71  C   UNL A   1      48.243  26.750  26.475  1.00  0.00     0.012 A 
ATOM     72  C   UNL A   1      47.330  27.736  24.454  1.00  0.00     0.148 A 
ATOM     73  C   UNL A   1      49.413  26.418  25.789  1.00  0.00     0.002 A 
ATOM     74  C   UNL A   1      48.468  27.345  23.761  1.00  0.00     0.091 A 
ATOM     75  F   UNL A   1      46.339  28.406  23.847  1.00  0.00    -0.205 F 
ATOM     76  C   UNL A   1      49.521  26.702  24.429  1.00  0.00     0.022 A 
BRANCH  74  77
ATOM     77  S   UNL A   1      48.572  27.542  21.978  1.00  0.00     0.127 S 
ATOM     78  O   UNL A   1      49.769  28.363  21.830  1.00  0.00    -0.237 OA
ATOM     79  O   UNL A   1      48.708  26.162  21.512  1.00  0.00    -0.237 OA
ATOM     80  O   UNL A   1      47.307  28.168  21.598  1.00  0.00    -0.744 OA
ENDBRANCH  74  77
ENDBRANCH  46  70
BRANCH  58  81
ATOM     81  C   UNL A   1      45.075  33.157  29.200  1.00  0.00     0.023 A 
ATOM     82  C   UNL A   1      45.861  33.353  30.353  1.00  0.00     0.012 A 
ATOM     83  C   UNL A   1      44.952  34.203  28.263  1.00  0.00     0.148 A 
ATOM     84  C   UNL A   1      46.487  34.577  30.587  1.00  0.00     0.002 A 
ATOM     85  C   UNL A   1      45.612  35.407  28.484  1.00  0.00     0.091 A 
ATOM     86  F   UNL A   1      44.183  34.010  27.181  1.00  0.00    -0.205 F 
ATOM     87  C   UNL A   1      46.371  35.600  29.649  1.00  0.00     0.022 A 
BRANCH  85  88
ATOM     88  S   UNL A   1      45.579  36.741  27.280  1.00  0.00     0.127 S 
ATOM     89  O   UNL A   1      46.106  36.082  26.086  1.00  0.00    -0.237 OA
ATOM     90  O   UNL A   1      44.155  37.075  27.213  1.00  0.00    -0.237 OA
ATOM     91  O   UNL A   1      46.412  37.795  27.844  1.00  0.00    -0.744 OA
ENDBRANCH  85  88
ENDBRANCH  58  81
ENDBRANCH  32  33
ENDBRANCH  25  27
ENDBRANCH  24  25
ENDBRANCH  23  24
ENDBRANCH  22  23
ENDBRANCH  21  22
ENDBRANCH   1  21
TORSDOF 23
ENDMDL
