MODEL 1
REMARK VINA RESULT:      -8.6      0.000      0.000
REMARK SMILES C[C@H]1C[C@H]1CN(C)c1cccc(F)c1C(=O)OCCOCCOCCOC(=O)c1ccc(-c2c3nc(c(-c4cccc(S(=O)(=O)[O-])c4F)c4ccc([nH]4)c(-c4cccc(S(=O)(=O)[O-])c4F)c4nc(c(-c5cccc(S(=O)(=O)[O-])c5F)c5ccc2[nH]5)C=C4)C=C3)cc1
REMARK SMILES IDX 21 1 20 2 19 3 18 4 17 5 15 6 16 7 14 8 8 9 9 10 10 11 12 12
REMARK SMILES IDX 11 13 13 14 6 15 7 16 5 17 4 18 1 19 2 20 3 21 22 22 23 23
REMARK SMILES IDX 24 24 25 25 26 26 27 27 28 28 29 29 30 30 91 31 31 32 90 33
REMARK SMILES IDX 32 34 33 35 34 36 84 37 35 38 89 39 83 40 85 41 36 42 88 43
REMARK SMILES IDX 82 44 81 45 37 47 69 48 49 49 68 50 50 51 53 52 67 53 86 54
REMARK SMILES IDX 51 55 52 56 66 58 87 59 54 60 38 61 39 62 47 63 40 64 42 65
REMARK SMILES IDX 48 66 41 67 43 68 44 69 45 70 46 71 70 72 71 73 79 74 72 75
REMARK SMILES IDX 74 76 80 77 73 78 75 79 76 80 77 81 78 82 55 83 56 84 64 85
REMARK SMILES IDX 57 86 59 87 65 88 58 89 60 90 61 91 62 92 63 93
REMARK H PARENT 85 46 53 57
REMARK Flexibility Score: inf
ROOT
ATOM      1  C   UNL A   1      38.885  20.734  25.493  1.00  0.00     0.188 C 
ENDROOT
BRANCH   1   2
ATOM      2  O   UNL A   1      37.696  21.514  25.616  1.00  0.00    -0.376 OA
BRANCH   2   3
ATOM      3  C   UNL A   1      37.909  22.926  25.604  1.00  0.00     0.202 C 
BRANCH   3   4
ATOM      4  C   UNL A   1      36.574  23.667  25.619  1.00  0.00     0.261 C 
BRANCH   4   5
ATOM      5  O   UNL A   1      35.504  22.810  25.196  1.00  0.00    -0.460 OA
BRANCH   5   6
ATOM      6  C   UNL A   1      34.676  23.247  24.214  1.00  0.00     0.343 C 
ATOM      7  O   UNL A   1      34.994  23.500  23.067  1.00  0.00    -0.246 OA
BRANCH   6   8
ATOM      8  C   UNL A   1      33.314  23.221  24.793  1.00  0.00     0.119 A 
ATOM      9  C   UNL A   1      32.504  22.069  24.814  1.00  0.00     0.054 A 
ATOM     10  C   UNL A   1      31.320  22.140  25.580  1.00  0.00     0.027 A 
ATOM     11  C   UNL A   1      30.907  23.307  26.227  1.00  0.00     0.005 A 
ATOM     12  C   UNL A   1      32.871  24.404  25.412  1.00  0.00     0.139 A 
ATOM     13  C   UNL A   1      31.677  24.453  26.120  1.00  0.00     0.040 A 
ATOM     14  F   UNL A   1      33.594  25.533  25.337  1.00  0.00    -0.206 F 
BRANCH   9  15
ATOM     15  N   UNL A   1      32.746  20.895  24.123  1.00  0.00    -0.374 N 
ATOM     16  C   UNL A   1      32.238  20.658  22.785  1.00  0.00     0.143 C 
BRANCH  15  17
ATOM     17  C   UNL A   1      33.395  19.782  24.823  1.00  0.00     0.120 C 
BRANCH  17  18
ATOM     18  C   UNL A   1      32.496  18.578  24.829  1.00  0.00     0.011 C 
ATOM     19  C   UNL A   1      34.012  17.098  23.223  1.00  0.00     0.008 C 
ATOM     20  C   UNL A   1      32.787  17.299  24.054  1.00  0.00    -0.009 C 
ATOM     21  C   UNL A   1      32.913  17.326  25.556  1.00  0.00     0.009 C 
ENDBRANCH  17  18
ENDBRANCH  15  17
ENDBRANCH   9  15
ENDBRANCH   6   8
ENDBRANCH   5   6
ENDBRANCH   4   5
ENDBRANCH   3   4
ENDBRANCH   2   3
ENDBRANCH   1   2
BRANCH   1  22
ATOM     22  C   UNL A   1      40.070  21.291  26.301  1.00  0.00     0.188 C 
BRANCH  22  23
ATOM     23  O   UNL A   1      40.576  20.595  27.438  1.00  0.00    -0.376 OA
BRANCH  23  24
ATOM     24  C   UNL A   1      41.561  19.592  27.255  1.00  0.00     0.202 C 
BRANCH  24  25
ATOM     25  C   UNL A   1      42.200  19.529  25.866  1.00  0.00     0.261 C 
BRANCH  25  26
ATOM     26  O   UNL A   1      43.622  19.735  25.865  1.00  0.00    -0.460 OA
BRANCH  26  27
ATOM     27  C   UNL A   1      44.043  20.798  25.136  1.00  0.00     0.338 C 
ATOM     28  O   UNL A   1      44.552  20.770  24.027  1.00  0.00    -0.246 OA
BRANCH  27  29
ATOM     29  C   UNL A   1      43.708  22.065  25.821  1.00  0.00     0.060 A 
ATOM     30  C   UNL A   1      43.393  23.173  25.024  1.00  0.00     0.016 A 
ATOM     31  C   UNL A   1      43.804  22.205  27.210  1.00  0.00     0.016 A 
ATOM     32  C   UNL A   1      43.236  24.433  25.602  1.00  0.00     0.010 A 
ATOM     33  C   UNL A   1      43.657  23.473  27.787  1.00  0.00     0.010 A 
ATOM     34  C   UNL A   1      43.417  24.600  26.982  1.00  0.00    -0.014 A 
BRANCH  34  35
ATOM     35  C   UNL A   1      43.517  25.972  27.542  1.00  0.00     0.031 A 
ATOM     36  C   UNL A   1      44.868  26.631  27.625  1.00  0.00     0.074 A 
ATOM     37  C   UNL A   1      42.424  26.639  27.953  1.00  0.00     0.049 A 
ATOM     38  N   UNL A   1      45.173  27.835  28.031  1.00  0.00    -0.248 NA
ATOM     39  C   UNL A   1      46.024  25.832  27.186  1.00  0.00     0.031 C 
ATOM     40  C   UNL A   1      41.062  26.115  27.929  1.00  0.00     0.029 A 
ATOM     41  N   UNL A   1      42.291  27.899  28.483  1.00  0.00    -0.354 N 
ATOM     42  C   UNL A   1      46.553  27.939  27.907  1.00  0.00     0.074 A 
ATOM     43  C   UNL A   1      47.030  26.667  27.406  1.00  0.00     0.031 C 
ATOM     44  C   UNL A   1      40.230  27.040  28.437  1.00  0.00     0.029 A 
ATOM     45  C   UNL A   1      41.002  28.216  28.838  1.00  0.00     0.049 A 
ATOM     46  H   UNL A   1      43.049  28.517  28.598  1.00  0.00     0.167 HD
ATOM     47  C   UNL A   1      47.350  29.002  28.161  1.00  0.00     0.034 A 
ATOM     48  C   UNL A   1      40.501  29.323  29.425  1.00  0.00     0.034 A 
ATOM     49  C   UNL A   1      46.882  30.272  28.643  1.00  0.00     0.049 A 
ATOM     50  C   UNL A   1      41.417  30.480  29.739  1.00  0.00     0.074 A 
ATOM     51  C   UNL A   1      47.617  31.420  28.882  1.00  0.00     0.029 A 
ATOM     52  N   UNL A   1      45.569  30.560  28.975  1.00  0.00    -0.354 N 
ATOM     53  N   UNL A   1      42.697  30.609  29.486  1.00  0.00    -0.248 NA
ATOM     54  C   UNL A   1      40.816  31.655  30.389  1.00  0.00     0.031 C 
ATOM     55  C   UNL A   1      46.750  32.396  29.380  1.00  0.00     0.029 A 
ATOM     56  C   UNL A   1      45.473  31.863  29.430  1.00  0.00     0.049 A 
ATOM     57  H   UNL A   1      44.815  29.931  28.897  1.00  0.00     0.167 HD
ATOM     58  C   UNL A   1      43.045  31.887  29.912  1.00  0.00     0.074 A 
ATOM     59  C   UNL A   1      41.840  32.499  30.429  1.00  0.00     0.031 C 
ATOM     60  C   UNL A   1      44.259  32.491  29.888  1.00  0.00     0.034 A 
BRANCH  47  61
ATOM     61  C   UNL A   1      48.821  28.861  27.876  1.00  0.00     0.023 A 
ATOM     62  C   UNL A   1      49.318  29.258  26.618  1.00  0.00     0.012 A 
ATOM     63  C   UNL A   1      49.717  28.431  28.874  1.00  0.00     0.148 A 
ATOM     64  C   UNL A   1      50.685  29.212  26.351  1.00  0.00     0.002 A 
ATOM     65  C   UNL A   1      51.082  28.426  28.613  1.00  0.00     0.091 A 
ATOM     66  F   UNL A   1      49.217  28.039  30.054  1.00  0.00    -0.205 F 
ATOM     67  C   UNL A   1      51.567  28.809  27.351  1.00  0.00     0.022 A 
BRANCH  65  68
ATOM     68  S   UNL A   1      52.303  27.995  29.857  1.00  0.00     0.127 S 
ATOM     69  O   UNL A   1      53.553  28.265  29.147  1.00  0.00    -0.237 OA
ATOM     70  O   UNL A   1      51.996  28.941  30.930  1.00  0.00    -0.237 OA
ATOM     71  O   UNL A   1      52.063  26.598  30.190  1.00  0.00    -0.744 OA
ENDBRANCH  65  68
ENDBRANCH  47  61
BRANCH  48  72
ATOM     72  C   UNL A   1      39.040  29.411  29.705  1.00  0.00     0.023 A 
ATOM     73  C   UNL A   1      38.567  29.140  31.002  1.00  0.00     0.012 A 
ATOM     74  C   UNL A   1      38.127  29.800  28.706  1.00  0.00     0.148 A 
ATOM     75  C   UNL A   1      37.206  29.237  31.296  1.00  0.00     0.002 A 
ATOM     76  C   UNL A   1      36.781  29.946  29.019  1.00  0.00     0.091 A 
ATOM     77  F   UNL A   1      38.598  30.034  27.472  1.00  0.00    -0.205 F 
ATOM     78  C   UNL A   1      36.316  29.651  30.309  1.00  0.00     0.022 A 
BRANCH  76  79
ATOM     79  S   UNL A   1      35.583  30.599  27.849  1.00  0.00     0.127 S 
ATOM     80  O   UNL A   1      35.877  29.816  26.652  1.00  0.00    -0.237 OA
ATOM     81  O   UNL A   1      34.317  30.272  28.504  1.00  0.00    -0.237 OA
ATOM     82  O   UNL A   1      35.861  32.026  27.756  1.00  0.00    -0.744 OA
ENDBRANCH  76  79
ENDBRANCH  48  72
BRANCH  60  83
ATOM     83  C   UNL A   1      44.375  33.900  30.408  1.00  0.00     0.023 A 
ATOM     84  C   UNL A   1      44.125  34.983  29.543  1.00  0.00     0.012 A 
ATOM     85  C   UNL A   1      44.583  34.146  31.781  1.00  0.00     0.148 A 
ATOM     86  C   UNL A   1      44.089  36.288  30.032  1.00  0.00     0.002 A 
ATOM     87  C   UNL A   1      44.500  35.445  32.270  1.00  0.00     0.091 A 
ATOM     88  F   UNL A   1      44.832  33.103  32.586  1.00  0.00    -0.205 F 
ATOM     89  C   UNL A   1      44.261  36.518  31.396  1.00  0.00     0.022 A 
BRANCH  87  90
ATOM     90  S   UNL A   1      44.606  35.829  34.023  1.00  0.00     0.127 S 
ATOM     91  O   UNL A   1      44.271  37.252  34.037  1.00  0.00    -0.237 OA
ATOM     92  O   UNL A   1      43.581  34.955  34.594  1.00  0.00    -0.237 OA
ATOM     93  O   UNL A   1      45.969  35.506  34.425  1.00  0.00    -0.744 OA
ENDBRANCH  87  90
ENDBRANCH  60  83
ENDBRANCH  34  35
ENDBRANCH  27  29
ENDBRANCH  26  27
ENDBRANCH  25  26
ENDBRANCH  24  25
ENDBRANCH  23  24
ENDBRANCH  22  23
ENDBRANCH   1  22
TORSDOF 23
ENDMDL
MODEL 2
REMARK VINA RESULT:      -8.5      3.000      3.935
REMARK SMILES C[C@H]1C[C@H]1CN(C)c1cccc(F)c1C(=O)OCCOCCOCCOC(=O)c1ccc(-c2c3nc(c(-c4cccc(S(=O)(=O)[O-])c4F)c4ccc([nH]4)c(-c4cccc(S(=O)(=O)[O-])c4F)c4nc(c(-c5cccc(S(=O)(=O)[O-])c5F)c5ccc2[nH]5)C=C4)C=C3)cc1
REMARK SMILES IDX 21 1 20 2 19 3 18 4 17 5 15 6 16 7 14 8 8 9 9 10 10 11 12 12
REMARK SMILES IDX 11 13 13 14 6 15 7 16 5 17 4 18 1 19 2 20 3 21 22 22 23 23
REMARK SMILES IDX 24 24 25 25 26 26 27 27 28 28 29 29 30 30 91 31 31 32 90 33
REMARK SMILES IDX 32 34 33 35 34 36 84 37 35 38 89 39 83 40 85 41 36 42 88 43
REMARK SMILES IDX 82 44 81 45 37 47 69 48 49 49 68 50 50 51 53 52 67 53 86 54
REMARK SMILES IDX 51 55 52 56 66 58 87 59 54 60 38 61 39 62 47 63 40 64 42 65
REMARK SMILES IDX 48 66 41 67 43 68 44 69 45 70 46 71 70 72 71 73 79 74 72 75
REMARK SMILES IDX 74 76 80 77 73 78 75 79 76 80 77 81 78 82 55 83 56 84 64 85
REMARK SMILES IDX 57 86 59 87 65 88 58 89 60 90 61 91 62 92 63 93
REMARK H PARENT 85 46 53 57
REMARK Flexibility Score: inf
ROOT
ATOM      1  C   UNL A   1      39.060  20.647  25.840  1.00  0.00     0.188 C 
ENDROOT
BRANCH   1   2
ATOM      2  O   UNL A   1      38.045  21.620  26.083  1.00  0.00    -0.376 OA
BRANCH   2   3
ATOM      3  C   UNL A   1      38.371  22.939  25.645  1.00  0.00     0.202 C 
BRANCH   3   4
ATOM      4  C   UNL A   1      37.128  23.825  25.650  1.00  0.00     0.261 C 
BRANCH   4   5
ATOM      5  O   UNL A   1      35.944  23.054  25.405  1.00  0.00    -0.460 OA
BRANCH   5   6
ATOM      6  C   UNL A   1      35.617  22.760  24.121  1.00  0.00     0.343 C 
ATOM      7  O   UNL A   1      36.258  23.058  23.132  1.00  0.00    -0.246 OA
BRANCH   6   8
ATOM      8  C   UNL A   1      34.409  21.908  24.197  1.00  0.00     0.119 A 
ATOM      9  C   UNL A   1      33.142  22.319  23.744  1.00  0.00     0.054 A 
ATOM     10  C   UNL A   1      32.135  21.331  23.690  1.00  0.00     0.027 A 
ATOM     11  C   UNL A   1      32.336  20.022  24.135  1.00  0.00     0.005 A 
ATOM     12  C   UNL A   1      34.592  20.599  24.683  1.00  0.00     0.139 A 
ATOM     13  C   UNL A   1      33.568  19.663  24.658  1.00  0.00     0.040 A 
ATOM     14  F   UNL A   1      35.774  20.213  25.191  1.00  0.00    -0.206 F 
BRANCH   9  15
ATOM     15  N   UNL A   1      32.788  23.608  23.386  1.00  0.00    -0.374 N 
ATOM     16  C   UNL A   1      33.211  24.216  22.139  1.00  0.00     0.143 C 
BRANCH  15  17
ATOM     17  C   UNL A   1      32.103  24.454  24.369  1.00  0.00     0.120 C 
BRANCH  17  18
ATOM     18  C   UNL A   1      33.077  24.941  25.404  1.00  0.00     0.011 C 
ATOM     19  C   UNL A   1      33.719  27.188  24.137  1.00  0.00     0.008 C 
ATOM     20  C   UNL A   1      33.858  26.243  25.286  1.00  0.00    -0.009 C 
ATOM     21  C   UNL A   1      32.729  26.118  26.277  1.00  0.00     0.009 C 
ENDBRANCH  17  18
ENDBRANCH  15  17
ENDBRANCH   9  15
ENDBRANCH   6   8
ENDBRANCH   5   6
ENDBRANCH   4   5
ENDBRANCH   3   4
ENDBRANCH   2   3
ENDBRANCH   1   2
BRANCH   1  22
ATOM     22  C   UNL A   1      40.456  21.084  26.319  1.00  0.00     0.188 C 
BRANCH  22  23
ATOM     23  O   UNL A   1      41.114  20.402  27.384  1.00  0.00    -0.376 OA
BRANCH  23  24
ATOM     24  C   UNL A   1      41.886  19.249  27.098  1.00  0.00     0.202 C 
BRANCH  24  25
ATOM     25  C   UNL A   1      42.410  19.135  25.664  1.00  0.00     0.261 C 
BRANCH  25  26
ATOM     26  O   UNL A   1      43.840  19.221  25.554  1.00  0.00    -0.460 OA
BRANCH  26  27
ATOM     27  C   UNL A   1      44.290  20.208  24.741  1.00  0.00     0.338 C 
ATOM     28  O   UNL A   1      44.703  20.085  23.599  1.00  0.00    -0.246 OA
BRANCH  27  29
ATOM     29  C   UNL A   1      44.123  21.530  25.383  1.00  0.00     0.060 A 
ATOM     30  C   UNL A   1      43.788  22.614  24.563  1.00  0.00     0.016 A 
ATOM     31  C   UNL A   1      44.393  21.734  26.740  1.00  0.00     0.016 A 
ATOM     32  C   UNL A   1      43.784  23.911  25.079  1.00  0.00     0.010 A 
ATOM     33  C   UNL A   1      44.399  23.037  27.254  1.00  0.00     0.010 A 
ATOM     34  C   UNL A   1      44.139  24.135  26.416  1.00  0.00    -0.014 A 
BRANCH  34  35
ATOM     35  C   UNL A   1      44.395  25.523  26.879  1.00  0.00     0.031 A 
ATOM     36  C   UNL A   1      45.786  26.086  26.770  1.00  0.00     0.074 A 
ATOM     37  C   UNL A   1      43.403  26.289  27.368  1.00  0.00     0.049 A 
ATOM     38  N   UNL A   1      46.216  27.284  27.066  1.00  0.00    -0.248 NA
ATOM     39  C   UNL A   1      46.828  25.182  26.254  1.00  0.00     0.031 C 
ATOM     40  C   UNL A   1      42.016  25.866  27.527  1.00  0.00     0.029 A 
ATOM     41  N   UNL A   1      43.417  27.582  27.833  1.00  0.00    -0.354 N 
ATOM     42  C   UNL A   1      47.577  27.279  26.782  1.00  0.00     0.074 A 
ATOM     43  C   UNL A   1      47.906  25.952  26.309  1.00  0.00     0.031 C 
ATOM     44  C   UNL A   1      41.311  26.875  28.069  1.00  0.00     0.029 A 
ATOM     45  C   UNL A   1      42.201  28.010  28.310  1.00  0.00     0.049 A 
ATOM     46  H   UNL A   1      44.223  28.148  27.824  1.00  0.00     0.167 HD
ATOM     47  C   UNL A   1      48.467  28.293  26.881  1.00  0.00     0.034 A 
ATOM     48  C   UNL A   1      41.847  29.180  28.881  1.00  0.00     0.034 A 
ATOM     49  C   UNL A   1      48.144  29.617  27.336  1.00  0.00     0.049 A 
ATOM     50  C   UNL A   1      42.868  30.281  29.021  1.00  0.00     0.074 A 
ATOM     51  C   UNL A   1      48.976  30.720  27.421  1.00  0.00     0.029 A 
ATOM     52  N   UNL A   1      46.899  30.017  27.794  1.00  0.00    -0.354 N 
ATOM     53  N   UNL A   1      44.116  30.303  28.619  1.00  0.00    -0.248 NA
ATOM     54  C   UNL A   1      42.426  31.530  29.662  1.00  0.00     0.031 C 
ATOM     55  C   UNL A   1      48.240  31.781  27.953  1.00  0.00     0.029 A 
ATOM     56  C   UNL A   1      46.944  31.346  28.178  1.00  0.00     0.049 A 
ATOM     57  H   UNL A   1      46.102  29.443  27.839  1.00  0.00     0.167 HD
ATOM     58  C   UNL A   1      44.596  31.573  28.926  1.00  0.00     0.074 A 
ATOM     59  C   UNL A   1      43.502  32.298  29.536  1.00  0.00     0.031 C 
ATOM     60  C   UNL A   1      45.837  32.084  28.730  1.00  0.00     0.034 A 
BRANCH  47  61
ATOM     61  C   UNL A   1      49.882  28.030  26.443  1.00  0.00     0.023 A 
ATOM     62  C   UNL A   1      50.861  27.743  27.416  1.00  0.00     0.012 A 
ATOM     63  C   UNL A   1      50.221  27.972  25.078  1.00  0.00     0.148 A 
ATOM     64  C   UNL A   1      52.162  27.419  27.038  1.00  0.00     0.002 A 
ATOM     65  C   UNL A   1      51.511  27.610  24.707  1.00  0.00     0.091 A 
ATOM     66  F   UNL A   1      49.279  28.269  24.173  1.00  0.00    -0.205 F 
ATOM     67  C   UNL A   1      52.483  27.340  25.685  1.00  0.00     0.022 A 
BRANCH  65  68
ATOM     68  S   UNL A   1      52.004  27.407  22.992  1.00  0.00     0.127 S 
ATOM     69  O   UNL A   1      52.879  26.238  23.075  1.00  0.00    -0.237 OA
ATOM     70  O   UNL A   1      50.723  27.163  22.330  1.00  0.00    -0.237 OA
ATOM     71  O   UNL A   1      52.658  28.651  22.612  1.00  0.00    -0.744 OA
ENDBRANCH  65  68
ENDBRANCH  47  61
BRANCH  48  72
ATOM     72  C   UNL A   1      40.437  29.389  29.317  1.00  0.00     0.023 A 
ATOM     73  C   UNL A   1      39.477  29.809  28.379  1.00  0.00     0.012 A 
ATOM     74  C   UNL A   1      40.038  29.136  30.644  1.00  0.00     0.148 A 
ATOM     75  C   UNL A   1      38.146  29.991  28.756  1.00  0.00     0.002 A 
ATOM     76  C   UNL A   1      38.702  29.268  31.001  1.00  0.00     0.091 A 
ATOM     77  F   UNL A   1      40.974  28.756  31.527  1.00  0.00    -0.205 F 
ATOM     78  C   UNL A   1      37.757  29.709  30.064  1.00  0.00     0.022 A 
BRANCH  76  79
ATOM     79  S   UNL A   1      38.086  28.802  32.624  1.00  0.00     0.127 S 
ATOM     80  O   UNL A   1      38.956  29.574  33.507  1.00  0.00    -0.237 OA
ATOM     81  O   UNL A   1      36.700  29.267  32.561  1.00  0.00    -0.237 OA
ATOM     82  O   UNL A   1      38.232  27.354  32.700  1.00  0.00    -0.744 OA
ENDBRANCH  76  79
ENDBRANCH  48  72
BRANCH  60  83
ATOM     83  C   UNL A   1      46.105  33.507  29.148  1.00  0.00     0.023 A 
ATOM     84  C   UNL A   1      46.614  33.767  30.435  1.00  0.00     0.012 A 
ATOM     85  C   UNL A   1      45.995  34.563  28.221  1.00  0.00     0.148 A 
ATOM     86  C   UNL A   1      47.000  35.057  30.797  1.00  0.00     0.002 A 
ATOM     87  C   UNL A   1      46.425  35.838  28.573  1.00  0.00     0.091 A 
ATOM     88  F   UNL A   1      45.496  34.296  27.005  1.00  0.00    -0.205 F 
ATOM     89  C   UNL A   1      46.920  36.088  29.863  1.00  0.00     0.022 A 
BRANCH  87  90
ATOM     90  S   UNL A   1      46.457  37.205  27.407  1.00  0.00     0.127 S 
ATOM     91  O   UNL A   1      47.764  37.799  27.680  1.00  0.00    -0.237 OA
ATOM     92  O   UNL A   1      46.357  36.517  26.120  1.00  0.00    -0.237 OA
ATOM     93  O   UNL A   1      45.311  38.043  27.736  1.00  0.00    -0.744 OA
ENDBRANCH  87  90
ENDBRANCH  60  83
ENDBRANCH  34  35
ENDBRANCH  27  29
ENDBRANCH  26  27
ENDBRANCH  25  26
ENDBRANCH  24  25
ENDBRANCH  23  24
ENDBRANCH  22  23
ENDBRANCH   1  22
TORSDOF 23
ENDMDL
MODEL 3
REMARK VINA RESULT:      -8.2      2.627      3.905
REMARK SMILES C[C@H]1C[C@H]1CN(C)c1cccc(F)c1C(=O)OCCOCCOCCOC(=O)c1ccc(-c2c3nc(c(-c4cccc(S(=O)(=O)[O-])c4F)c4ccc([nH]4)c(-c4cccc(S(=O)(=O)[O-])c4F)c4nc(c(-c5cccc(S(=O)(=O)[O-])c5F)c5ccc2[nH]5)C=C4)C=C3)cc1
REMARK SMILES IDX 21 1 20 2 19 3 18 4 17 5 15 6 16 7 14 8 8 9 9 10 10 11 12 12
REMARK SMILES IDX 11 13 13 14 6 15 7 16 5 17 4 18 1 19 2 20 3 21 22 22 23 23
REMARK SMILES IDX 24 24 25 25 26 26 27 27 28 28 29 29 30 30 91 31 31 32 90 33
REMARK SMILES IDX 32 34 33 35 34 36 84 37 35 38 89 39 83 40 85 41 36 42 88 43
REMARK SMILES IDX 82 44 81 45 37 47 69 48 49 49 68 50 50 51 53 52 67 53 86 54
REMARK SMILES IDX 51 55 52 56 66 58 87 59 54 60 38 61 39 62 47 63 40 64 42 65
REMARK SMILES IDX 48 66 41 67 43 68 44 69 45 70 46 71 70 72 71 73 79 74 72 75
REMARK SMILES IDX 74 76 80 77 73 78 75 79 76 80 77 81 78 82 55 83 56 84 64 85
REMARK SMILES IDX 57 86 59 87 65 88 58 89 60 90 61 91 62 92 63 93
REMARK H PARENT 85 46 53 57
REMARK Flexibility Score: inf
ROOT
ATOM      1  C   UNL A   1      38.282  21.630  25.688  1.00  0.00     0.188 C 
ENDROOT
BRANCH   1   2
ATOM      2  O   UNL A   1      37.036  22.295  25.487  1.00  0.00    -0.376 OA
BRANCH   2   3
ATOM      3  C   UNL A   1      36.969  23.609  26.042  1.00  0.00     0.202 C 
BRANCH   3   4
ATOM      4  C   UNL A   1      35.841  24.406  25.392  1.00  0.00     0.261 C 
BRANCH   4   5
ATOM      5  O   UNL A   1      34.687  23.583  25.175  1.00  0.00    -0.460 OA
BRANCH   5   6
ATOM      6  C   UNL A   1      33.458  24.148  25.293  1.00  0.00     0.343 C 
ATOM      7  O   UNL A   1      32.833  24.296  26.326  1.00  0.00    -0.246 OA
BRANCH   6   8
ATOM      8  C   UNL A   1      33.113  24.650  23.945  1.00  0.00     0.119 A 
ATOM      9  C   UNL A   1      33.075  26.019  23.615  1.00  0.00     0.054 A 
ATOM     10  C   UNL A   1      32.935  26.338  22.247  1.00  0.00     0.027 A 
ATOM     11  C   UNL A   1      32.759  25.367  21.258  1.00  0.00     0.005 A 
ATOM     12  C   UNL A   1      32.894  23.680  22.949  1.00  0.00     0.139 A 
ATOM     13  C   UNL A   1      32.713  24.030  21.617  1.00  0.00     0.040 A 
ATOM     14  F   UNL A   1      32.850  22.374  23.258  1.00  0.00    -0.206 F 
BRANCH   9  15
ATOM     15  N   UNL A   1      33.123  27.070  24.513  1.00  0.00    -0.374 N 
ATOM     16  C   UNL A   1      34.333  27.829  24.762  1.00  0.00     0.143 C 
BRANCH  15  17
ATOM     17  C   UNL A   1      31.959  27.325  25.368  1.00  0.00     0.120 C 
BRANCH  17  18
ATOM     18  C   UNL A   1      32.403  27.803  26.722  1.00  0.00     0.011 C 
ATOM     19  C   UNL A   1      31.738  30.349  26.344  1.00  0.00     0.008 C 
ATOM     20  C   UNL A   1      32.309  29.251  27.183  1.00  0.00    -0.009 C 
ATOM     21  C   UNL A   1      31.384  28.206  27.755  1.00  0.00     0.009 C 
ENDBRANCH  17  18
ENDBRANCH  15  17
ENDBRANCH   9  15
ENDBRANCH   6   8
ENDBRANCH   5   6
ENDBRANCH   4   5
ENDBRANCH   3   4
ENDBRANCH   2   3
ENDBRANCH   1   2
BRANCH   1  22
ATOM     22  C   UNL A   1      39.311  22.474  26.460  1.00  0.00     0.188 C 
BRANCH  22  23
ATOM     23  O   UNL A   1      40.067  21.913  27.531  1.00  0.00    -0.376 OA
BRANCH  23  24
ATOM     24  C   UNL A   1      41.089  20.975  27.241  1.00  0.00     0.202 C 
BRANCH  24  25
ATOM     25  C   UNL A   1      41.943  21.278  26.008  1.00  0.00     0.261 C 
BRANCH  25  26
ATOM     26  O   UNL A   1      43.278  21.717  26.313  1.00  0.00    -0.460 OA
BRANCH  26  27
ATOM     27  C   UNL A   1      43.693  22.803  25.617  1.00  0.00     0.338 C 
ATOM     28  O   UNL A   1      44.208  22.812  24.511  1.00  0.00    -0.246 OA
BRANCH  27  29
ATOM     29  C   UNL A   1      43.344  24.048  26.337  1.00  0.00     0.060 A 
ATOM     30  C   UNL A   1      43.015  25.172  25.570  1.00  0.00     0.016 A 
ATOM     31  C   UNL A   1      43.440  24.151  27.728  1.00  0.00     0.016 A 
ATOM     32  C   UNL A   1      42.844  26.415  26.182  1.00  0.00     0.010 A 
ATOM     33  C   UNL A   1      43.278  25.401  28.340  1.00  0.00     0.010 A 
ATOM     34  C   UNL A   1      43.024  26.546  27.566  1.00  0.00    -0.014 A 
BRANCH  34  35
ATOM     35  C   UNL A   1      43.109  27.903  28.163  1.00  0.00     0.031 A 
ATOM     36  C   UNL A   1      44.446  28.591  28.229  1.00  0.00     0.074 A 
ATOM     37  C   UNL A   1      42.012  28.533  28.621  1.00  0.00     0.049 A 
ATOM     38  N   UNL A   1      44.735  29.790  28.663  1.00  0.00    -0.248 NA
ATOM     39  C   UNL A   1      45.608  27.832  27.738  1.00  0.00     0.031 C 
ATOM     40  C   UNL A   1      40.662  27.979  28.617  1.00  0.00     0.029 A 
ATOM     41  N   UNL A   1      41.866  29.775  29.191  1.00  0.00    -0.354 N 
ATOM     42  C   UNL A   1      46.109  29.928  28.505  1.00  0.00     0.074 A 
ATOM     43  C   UNL A   1      46.600  28.683  27.956  1.00  0.00     0.031 C 
ATOM     44  C   UNL A   1      39.823  28.870  29.173  1.00  0.00     0.029 A 
ATOM     45  C   UNL A   1      40.579  30.051  29.588  1.00  0.00     0.049 A 
ATOM     46  H   UNL A   1      42.613  30.406  29.304  1.00  0.00     0.167 HD
ATOM     47  C   UNL A   1      46.889  31.002  28.770  1.00  0.00     0.034 A 
ATOM     48  C   UNL A   1      40.070  31.130  30.220  1.00  0.00     0.034 A 
ATOM     49  C   UNL A   1      46.406  32.246  29.301  1.00  0.00     0.049 A 
ATOM     50  C   UNL A   1      40.968  32.298  30.543  1.00  0.00     0.074 A 
ATOM     51  C   UNL A   1      47.120  33.404  29.553  1.00  0.00     0.029 A 
ATOM     52  N   UNL A   1      45.095  32.495  29.674  1.00  0.00    -0.354 N 
ATOM     53  N   UNL A   1      42.237  32.463  30.262  1.00  0.00    -0.248 NA
ATOM     54  C   UNL A   1      40.358  33.440  31.243  1.00  0.00     0.031 C 
ATOM     55  C   UNL A   1      46.246  34.346  30.102  1.00  0.00     0.029 A 
ATOM     56  C   UNL A   1      44.982  33.782  30.170  1.00  0.00     0.049 A 
ATOM     57  H   UNL A   1      44.354  31.852  29.598  1.00  0.00     0.167 HD
ATOM     58  C   UNL A   1      42.569  33.737  30.715  1.00  0.00     0.074 A 
ATOM     59  C   UNL A   1      41.364  34.306  31.281  1.00  0.00     0.031 C 
ATOM     60  C   UNL A   1      43.768  34.368  30.677  1.00  0.00     0.034 A 
BRANCH  47  61
ATOM     61  C   UNL A   1      48.354  30.903  28.443  1.00  0.00     0.023 A 
ATOM     62  C   UNL A   1      48.822  31.427  27.221  1.00  0.00     0.012 A 
ATOM     63  C   UNL A   1      49.273  30.384  29.374  1.00  0.00     0.148 A 
ATOM     64  C   UNL A   1      50.184  31.421  26.924  1.00  0.00     0.002 A 
ATOM     65  C   UNL A   1      50.632  30.416  29.087  1.00  0.00     0.091 A 
ATOM     66  F   UNL A   1      48.801  29.872  30.519  1.00  0.00    -0.205 F 
ATOM     67  C   UNL A   1      51.088  30.928  27.860  1.00  0.00     0.022 A 
BRANCH  65  68
ATOM     68  S   UNL A   1      51.883  29.875  30.258  1.00  0.00     0.127 S 
ATOM     69  O   UNL A   1      51.632  28.435  30.309  1.00  0.00    -0.237 OA
ATOM     70  O   UNL A   1      53.122  30.254  29.581  1.00  0.00    -0.237 OA
ATOM     71  O   UNL A   1      51.617  30.599  31.492  1.00  0.00    -0.744 OA
ENDBRANCH  65  68
ENDBRANCH  47  61
BRANCH  48  72
ATOM     72  C   UNL A   1      38.615  31.176  30.541  1.00  0.00     0.023 A 
ATOM     73  C   UNL A   1      38.142  30.538  31.701  1.00  0.00     0.012 A 
ATOM     74  C   UNL A   1      37.710  31.882  29.724  1.00  0.00     0.148 A 
ATOM     75  C   UNL A   1      36.788  30.585  32.036  1.00  0.00     0.002 A 
ATOM     76  C   UNL A   1      36.372  31.970  30.092  1.00  0.00     0.091 A 
ATOM     77  F   UNL A   1      38.180  32.467  28.613  1.00  0.00    -0.205 F 
ATOM     78  C   UNL A   1      35.906  31.310  31.238  1.00  0.00     0.022 A 
BRANCH  76  79
ATOM     79  S   UNL A   1      35.192  32.988  29.199  1.00  0.00     0.127 S 
ATOM     80  O   UNL A   1      35.087  32.280  27.927  1.00  0.00    -0.237 OA
ATOM     81  O   UNL A   1      34.010  32.895  30.056  1.00  0.00    -0.237 OA
ATOM     82  O   UNL A   1      35.786  34.317  29.137  1.00  0.00    -0.744 OA
ENDBRANCH  76  79
ENDBRANCH  48  72
BRANCH  60  83
ATOM     83  C   UNL A   1      43.866  35.765  31.235  1.00  0.00     0.023 A 
ATOM     84  C   UNL A   1      44.297  35.953  32.562  1.00  0.00     0.012 A 
ATOM     85  C   UNL A   1      43.675  36.888  30.404  1.00  0.00     0.148 A 
ATOM     86  C   UNL A   1      44.528  37.236  33.057  1.00  0.00     0.002 A 
ATOM     87  C   UNL A   1      43.951  38.161  30.889  1.00  0.00     0.091 A 
ATOM     88  F   UNL A   1      43.252  36.687  29.147  1.00  0.00    -0.205 F 
ATOM     89  C   UNL A   1      44.371  38.337  32.218  1.00  0.00     0.022 A 
BRANCH  87  90
ATOM     90  S   UNL A   1      43.877  39.629  29.855  1.00  0.00     0.127 S 
ATOM     91  O   UNL A   1      43.846  40.696  30.853  1.00  0.00    -0.237 OA
ATOM     92  O   UNL A   1      45.125  39.538  29.097  1.00  0.00    -0.237 OA
ATOM     93  O   UNL A   1      42.670  39.494  29.050  1.00  0.00    -0.744 OA
ENDBRANCH  87  90
ENDBRANCH  60  83
ENDBRANCH  34  35
ENDBRANCH  27  29
ENDBRANCH  26  27
ENDBRANCH  25  26
ENDBRANCH  24  25
ENDBRANCH  23  24
ENDBRANCH  22  23
ENDBRANCH   1  22
TORSDOF 23
ENDMDL
