MODEL 1
REMARK VINA RESULT:     -11.1      0.000      0.000
REMARK SMILES CCN(C(=O)Cc1c(C(=O)OCCOCCOCCOC(=O)c2ccc(-c3c4nc(c(-c5cccc(S(=O)(=O)[O-])c5F)c5ccc([nH]5)c(-c5cccc(S(=O)(=O)[O-])c5F)c5nc(c(-c6cccc(S(=O)(=O)[O-])c6F)c6ccc3[nH]6)C=C5)C=C4)cc2)[nH]c2ccc(Cl)cc12)c1ccc(C)c(C)c1
REMARK SMILES IDX 15 1 14 2 13 3 12 4 11 5 9 6 10 7 8 8 7 9 93 10 86 11 87 12
REMARK SMILES IDX 92 13 88 15 90 16 89 17 91 18 6 19 4 20 5 21 3 22 2 23 1 24
REMARK SMILES IDX 94 25 95 26 101 27 96 28 99 29 97 30 100 31 98 32 16 33
REMARK SMILES IDX 17 34 18 35 19 36 20 37 21 38 22 39 23 40 24 41 85 42 25 43
REMARK SMILES IDX 84 44 26 45 27 46 28 47 78 48 29 49 83 50 77 51 79 52 30 53
REMARK SMILES IDX 82 54 76 55 75 56 31 58 63 59 43 60 62 61 44 62 47 63 61 64
REMARK SMILES IDX 80 65 45 66 46 67 60 69 81 70 48 71 32 72 33 73 41 74 34 75
REMARK SMILES IDX 36 76 42 77 35 78 37 79 38 80 39 81 40 82 64 83 65 84 73 85
REMARK SMILES IDX 66 86 68 87 74 88 67 89 69 90 70 91 71 92 72 93 49 94 50 95
REMARK SMILES IDX 58 96 51 97 53 98 59 99 52 100 54 101 55 102 56 103 57 104
REMARK H PARENT 86 14 79 57 47 68
REMARK Flexibility Score: inf
ROOT
ATOM      1  C   UNL A   1      37.415  23.446  26.115  1.00  0.00     0.188 C 
ENDROOT
BRANCH   1   2
ATOM      2  O   UNL A   1      36.305  23.950  25.409  1.00  0.00    -0.376 OA
BRANCH   2   3
ATOM      3  C   UNL A   1      36.172  23.844  24.007  1.00  0.00     0.202 C 
BRANCH   3   4
ATOM      4  C   UNL A   1      34.852  23.706  23.240  1.00  0.00     0.261 C 
BRANCH   4   5
ATOM      5  O   UNL A   1      33.940  24.797  23.302  1.00  0.00    -0.459 OA
BRANCH   5   6
ATOM      6  C   UNL A   1      33.260  25.057  22.161  1.00  0.00     0.355 C 
ATOM      7  O   UNL A   1      33.626  24.718  21.030  1.00  0.00    -0.244 OA
BRANCH   6   8
ATOM      8  C   UNL A   1      32.011  25.713  22.439  1.00  0.00     0.129 A 
ATOM      9  C   UNL A   1      30.841  25.270  23.059  1.00  0.00     0.002 A 
ATOM     10  C   UNL A   1      29.932  26.383  23.085  1.00  0.00     0.005 A 
ATOM     11  N   UNL A   1      31.830  27.043  22.135  1.00  0.00    -0.349 N 
ATOM     12  C   UNL A   1      30.583  27.471  22.508  1.00  0.00     0.046 A 
ATOM     13  C   UNL A   1      28.625  26.568  23.582  1.00  0.00     0.031 A 
ATOM     14  H   UNL A   1      32.508  27.613  21.705  1.00  0.00     0.167 HD
ATOM     15  C   UNL A   1      30.001  28.739  22.399  1.00  0.00     0.028 A 
ATOM     16  C   UNL A   1      28.035  27.833  23.490  1.00  0.00     0.041 A 
ATOM     17  C   UNL A   1      28.711  28.901  22.908  1.00  0.00     0.022 A 
ATOM     18  Cl  UNL A   1      26.452  28.074  24.125  1.00  0.00    -0.084 Cl
BRANCH   9  19
ATOM     19  C   UNL A   1      30.570  23.923  23.669  1.00  0.00     0.139 C 
BRANCH  19  20
ATOM     20  C   UNL A   1      31.096  23.811  25.101  1.00  0.00     0.231 C 
ATOM     21  O   UNL A   1      30.680  24.620  25.940  1.00  0.00    -0.274 OA
BRANCH  20  22
ATOM     22  N   UNL A   1      32.033  22.811  25.396  1.00  0.00    -0.312 N 
BRANCH  22  23
ATOM     23  C   UNL A   1      33.203  22.976  26.285  1.00  0.00     0.122 C 
ATOM     24  C   UNL A   1      32.996  22.574  27.742  1.00  0.00     0.028 C 
ENDBRANCH  22  23
BRANCH  22  25
ATOM     25  C   UNL A   1      32.028  21.593  24.658  1.00  0.00     0.044 A 
ATOM     26  C   UNL A   1      32.010  21.590  23.267  1.00  0.00     0.026 A 
ATOM     27  C   UNL A   1      32.176  20.383  25.338  1.00  0.00     0.030 A 
ATOM     28  C   UNL A   1      32.217  20.393  22.578  1.00  0.00     0.006 A 
ATOM     29  C   UNL A   1      32.428  19.182  24.668  1.00  0.00    -0.046 A 
ATOM     30  C   UNL A   1      32.453  19.187  23.266  1.00  0.00    -0.048 A 
ATOM     31  C   UNL A   1      32.674  17.953  25.498  1.00  0.00     0.044 C 
ATOM     32  C   UNL A   1      32.698  17.947  22.456  1.00  0.00     0.044 C 
ENDBRANCH  22  25
ENDBRANCH  20  22
ENDBRANCH  19  20
ENDBRANCH   9  19
ENDBRANCH   6   8
ENDBRANCH   5   6
ENDBRANCH   4   5
ENDBRANCH   3   4
ENDBRANCH   2   3
ENDBRANCH   1   2
BRANCH   1  33
ATOM     33  C   UNL A   1      38.306  22.367  25.463  1.00  0.00     0.188 C 
BRANCH  33  34
ATOM     34  O   UNL A   1      37.767  21.103  25.135  1.00  0.00    -0.376 OA
BRANCH  34  35
ATOM     35  C   UNL A   1      38.590  19.955  25.230  1.00  0.00     0.202 C 
BRANCH  35  36
ATOM     36  C   UNL A   1      39.847  19.897  26.120  1.00  0.00     0.261 C 
BRANCH  36  37
ATOM     37  O   UNL A   1      40.848  18.929  25.772  1.00  0.00    -0.460 OA
BRANCH  37  38
ATOM     38  C   UNL A   1      42.121  19.241  26.130  1.00  0.00     0.338 C 
ATOM     39  O   UNL A   1      43.102  18.524  26.023  1.00  0.00    -0.246 OA
BRANCH  38  40
ATOM     40  C   UNL A   1      42.210  20.679  26.475  1.00  0.00     0.060 A 
ATOM     41  C   UNL A   1      42.176  21.615  25.429  1.00  0.00     0.016 A 
ATOM     42  C   UNL A   1      42.354  21.107  27.794  1.00  0.00     0.016 A 
ATOM     43  C   UNL A   1      42.331  22.976  25.696  1.00  0.00     0.010 A 
ATOM     44  C   UNL A   1      42.534  22.472  28.059  1.00  0.00     0.010 A 
ATOM     45  C   UNL A   1      42.566  23.407  27.007  1.00  0.00    -0.014 A 
BRANCH  45  46
ATOM     46  C   UNL A   1      43.057  24.792  27.235  1.00  0.00     0.031 A 
ATOM     47  C   UNL A   1      42.130  25.780  27.897  1.00  0.00     0.074 A 
ATOM     48  C   UNL A   1      44.303  25.170  26.896  1.00  0.00     0.049 A 
ATOM     49  N   UNL A   1      42.340  27.030  28.219  1.00  0.00    -0.248 NA
ATOM     50  C   UNL A   1      40.784  25.289  28.241  1.00  0.00     0.031 C 
ATOM     51  C   UNL A   1      45.301  24.320  26.252  1.00  0.00     0.029 A 
ATOM     52  N   UNL A   1      44.932  26.384  27.035  1.00  0.00    -0.354 N 
ATOM     53  C   UNL A   1      41.150  27.482  28.777  1.00  0.00     0.074 A 
ATOM     54  C   UNL A   1      40.216  26.379  28.736  1.00  0.00     0.031 C 
ATOM     55  C   UNL A   1      46.410  25.046  26.026  1.00  0.00     0.029 A 
ATOM     56  C   UNL A   1      46.195  26.416  26.493  1.00  0.00     0.049 A 
ATOM     57  H   UNL A   1      44.517  27.158  27.480  1.00  0.00     0.167 HD
ATOM     58  C   UNL A   1      40.859  28.700  29.294  1.00  0.00     0.034 A 
ATOM     59  C   UNL A   1      47.069  27.437  26.373  1.00  0.00     0.034 A 
ATOM     60  C   UNL A   1      41.786  29.797  29.351  1.00  0.00     0.049 A 
ATOM     61  C   UNL A   1      46.712  28.793  26.934  1.00  0.00     0.074 A 
ATOM     62  C   UNL A   1      41.598  31.052  29.904  1.00  0.00     0.029 A 
ATOM     63  N   UNL A   1      43.066  29.782  28.823  1.00  0.00    -0.354 N 
ATOM     64  N   UNL A   1      45.632  29.165  27.578  1.00  0.00    -0.248 NA
ATOM     65  C   UNL A   1      47.714  29.860  26.783  1.00  0.00     0.031 C 
ATOM     66  C   UNL A   1      42.753  31.808  29.677  1.00  0.00     0.029 A 
ATOM     67  C   UNL A   1      43.675  31.010  29.019  1.00  0.00     0.049 A 
ATOM     68  H   UNL A   1      43.482  29.010  28.374  1.00  0.00     0.167 HD
ATOM     69  C   UNL A   1      45.840  30.495  27.937  1.00  0.00     0.074 A 
ATOM     70  C   UNL A   1      47.159  30.853  27.464  1.00  0.00     0.031 C 
ATOM     71  C   UNL A   1      45.007  31.346  28.587  1.00  0.00     0.034 A 
BRANCH  58  72
ATOM     72  C   UNL A   1      39.478  28.904  29.859  1.00  0.00     0.023 A 
ATOM     73  C   UNL A   1      39.187  28.479  31.170  1.00  0.00     0.012 A 
ATOM     74  C   UNL A   1      38.483  29.562  29.108  1.00  0.00     0.148 A 
ATOM     75  C   UNL A   1      37.918  28.674  31.714  1.00  0.00     0.002 A 
ATOM     76  C   UNL A   1      37.237  29.795  29.674  1.00  0.00     0.091 A 
ATOM     77  F   UNL A   1      38.773  29.939  27.854  1.00  0.00    -0.205 F 
ATOM     78  C   UNL A   1      36.948  29.341  30.972  1.00  0.00     0.022 A 
BRANCH  76  79
ATOM     79  S   UNL A   1      35.945  30.715  28.830  1.00  0.00     0.127 S 
ATOM     80  O   UNL A   1      36.728  31.628  27.998  1.00  0.00    -0.237 OA
ATOM     81  O   UNL A   1      35.252  29.659  28.091  1.00  0.00    -0.237 OA
ATOM     82  O   UNL A   1      35.153  31.348  29.875  1.00  0.00    -0.744 OA
ENDBRANCH  76  79
ENDBRANCH  58  72
BRANCH  59  83
ATOM     83  C   UNL A   1      48.389  27.221  25.712  1.00  0.00     0.023 A 
ATOM     84  C   UNL A   1      49.500  26.825  26.483  1.00  0.00     0.012 A 
ATOM     85  C   UNL A   1      48.551  27.418  24.327  1.00  0.00     0.148 A 
ATOM     86  C   UNL A   1      50.754  26.663  25.893  1.00  0.00     0.002 A 
ATOM     87  C   UNL A   1      49.789  27.198  23.736  1.00  0.00     0.091 A 
ATOM     88  F   UNL A   1      47.487  27.814  23.615  1.00  0.00    -0.205 F 
ATOM     89  C   UNL A   1      50.896  26.839  24.519  1.00  0.00     0.022 A 
BRANCH  87  90
ATOM     90  S   UNL A   1      50.038  27.278  21.958  1.00  0.00     0.127 S 
ATOM     91  O   UNL A   1      49.003  26.371  21.469  1.00  0.00    -0.237 OA
ATOM     92  O   UNL A   1      49.796  28.695  21.687  1.00  0.00    -0.237 OA
ATOM     93  O   UNL A   1      51.411  26.849  21.734  1.00  0.00    -0.744 OA
ENDBRANCH  87  90
ENDBRANCH  59  83
BRANCH  71  94
ATOM     94  C   UNL A   1      45.505  32.744  28.862  1.00  0.00     0.023 A 
ATOM     95  C   UNL A   1      46.214  33.019  30.048  1.00  0.00     0.012 A 
ATOM     96  C   UNL A   1      45.323  33.773  27.914  1.00  0.00     0.148 A 
ATOM     97  C   UNL A   1      46.695  34.302  30.308  1.00  0.00     0.002 A 
ATOM     98  C   UNL A   1      45.851  35.036  28.157  1.00  0.00     0.091 A 
ATOM     99  F   UNL A   1      44.634  33.500  26.797  1.00  0.00    -0.205 F 
ATOM    100  C   UNL A   1      46.523  35.307  29.358  1.00  0.00     0.022 A 
BRANCH  98 101
ATOM    101  S   UNL A   1      45.763  36.364  26.948  1.00  0.00     0.127 S 
ATOM    102  O   UNL A   1      44.320  36.576  26.843  1.00  0.00    -0.237 OA
ATOM    103  O   UNL A   1      46.490  37.443  27.619  1.00  0.00    -0.237 OA
ATOM    104  O   UNL A   1      46.411  35.856  25.747  1.00  0.00    -0.744 OA
ENDBRANCH  98 101
ENDBRANCH  71  94
ENDBRANCH  45  46
ENDBRANCH  38  40
ENDBRANCH  37  38
ENDBRANCH  36  37
ENDBRANCH  35  36
ENDBRANCH  34  35
ENDBRANCH  33  34
ENDBRANCH   1  33
TORSDOF 25
ENDMDL
MODEL 2
REMARK VINA RESULT:     -10.8      3.184      7.974
REMARK SMILES CCN(C(=O)Cc1c(C(=O)OCCOCCOCCOC(=O)c2ccc(-c3c4nc(c(-c5cccc(S(=O)(=O)[O-])c5F)c5ccc([nH]5)c(-c5cccc(S(=O)(=O)[O-])c5F)c5nc(c(-c6cccc(S(=O)(=O)[O-])c6F)c6ccc3[nH]6)C=C5)C=C4)cc2)[nH]c2ccc(Cl)cc12)c1ccc(C)c(C)c1
REMARK SMILES IDX 15 1 14 2 13 3 12 4 11 5 9 6 10 7 8 8 7 9 93 10 86 11 87 12
REMARK SMILES IDX 92 13 88 15 90 16 89 17 91 18 6 19 4 20 5 21 3 22 2 23 1 24
REMARK SMILES IDX 94 25 95 26 101 27 96 28 99 29 97 30 100 31 98 32 16 33
REMARK SMILES IDX 17 34 18 35 19 36 20 37 21 38 22 39 23 40 24 41 85 42 25 43
REMARK SMILES IDX 84 44 26 45 27 46 28 47 78 48 29 49 83 50 77 51 79 52 30 53
REMARK SMILES IDX 82 54 76 55 75 56 31 58 63 59 43 60 62 61 44 62 47 63 61 64
REMARK SMILES IDX 80 65 45 66 46 67 60 69 81 70 48 71 32 72 33 73 41 74 34 75
REMARK SMILES IDX 36 76 42 77 35 78 37 79 38 80 39 81 40 82 64 83 65 84 73 85
REMARK SMILES IDX 66 86 68 87 74 88 67 89 69 90 70 91 71 92 72 93 49 94 50 95
REMARK SMILES IDX 58 96 51 97 53 98 59 99 52 100 54 101 55 102 56 103 57 104
REMARK H PARENT 86 14 79 57 47 68
REMARK Flexibility Score: inf
ROOT
ATOM      1  C   UNL A   1      39.063  22.813  26.516  1.00  0.00     0.188 C 
ENDROOT
BRANCH   1   2
ATOM      2  O   UNL A   1      37.973  23.295  25.766  1.00  0.00    -0.376 OA
BRANCH   2   3
ATOM      3  C   UNL A   1      36.834  22.513  25.472  1.00  0.00     0.202 C 
BRANCH   3   4
ATOM      4  C   UNL A   1      36.126  22.435  24.114  1.00  0.00     0.261 C 
BRANCH   4   5
ATOM      5  O   UNL A   1      35.921  23.654  23.410  1.00  0.00    -0.459 OA
BRANCH   5   6
ATOM      6  C   UNL A   1      34.643  23.914  23.051  1.00  0.00     0.355 C 
ATOM      7  O   UNL A   1      33.964  23.207  22.297  1.00  0.00    -0.244 OA
BRANCH   6   8
ATOM      8  C   UNL A   1      34.143  25.084  23.722  1.00  0.00     0.129 A 
ATOM      9  C   UNL A   1      33.704  25.293  25.031  1.00  0.00     0.002 A 
ATOM     10  C   UNL A   1      33.350  26.683  25.138  1.00  0.00     0.005 A 
ATOM     11  N   UNL A   1      34.089  26.298  23.077  1.00  0.00    -0.349 N 
ATOM     12  C   UNL A   1      33.609  27.278  23.906  1.00  0.00     0.046 A 
ATOM     13  C   UNL A   1      32.867  27.492  26.187  1.00  0.00     0.031 A 
ATOM     14  H   UNL A   1      34.361  26.444  22.142  1.00  0.00     0.167 HD
ATOM     15  C   UNL A   1      33.413  28.642  23.660  1.00  0.00     0.028 A 
ATOM     16  C   UNL A   1      32.677  28.859  25.960  1.00  0.00     0.041 A 
ATOM     17  C   UNL A   1      32.944  29.425  24.717  1.00  0.00     0.022 A 
ATOM     18  Cl  UNL A   1      32.117  29.859  27.246  1.00  0.00    -0.084 Cl
BRANCH   9  19
ATOM     19  C   UNL A   1      33.668  24.306  26.164  1.00  0.00     0.139 C 
BRANCH  19  20
ATOM     20  C   UNL A   1      32.319  23.594  26.279  1.00  0.00     0.231 C 
ATOM     21  O   UNL A   1      31.647  23.778  27.302  1.00  0.00    -0.274 OA
BRANCH  20  22
ATOM     22  N   UNL A   1      31.910  22.757  25.232  1.00  0.00    -0.312 N 
BRANCH  22  23
ATOM     23  C   UNL A   1      30.724  22.978  24.378  1.00  0.00     0.122 C 
ATOM     24  C   UNL A   1      30.696  24.291  23.602  1.00  0.00     0.028 C 
ENDBRANCH  22  23
BRANCH  22  25
ATOM     25  C   UNL A   1      32.520  21.481  25.063  1.00  0.00     0.044 A 
ATOM     26  C   UNL A   1      33.244  20.884  26.090  1.00  0.00     0.026 A 
ATOM     27  C   UNL A   1      32.278  20.758  23.894  1.00  0.00     0.030 A 
ATOM     28  C   UNL A   1      33.648  19.553  25.965  1.00  0.00     0.006 A 
ATOM     29  C   UNL A   1      32.634  19.412  23.767  1.00  0.00    -0.046 A 
ATOM     30  C   UNL A   1      33.327  18.798  24.821  1.00  0.00    -0.048 A 
ATOM     31  C   UNL A   1      32.237  18.696  22.506  1.00  0.00     0.044 C 
ATOM     32  C   UNL A   1      33.768  17.364  24.772  1.00  0.00     0.044 C 
ENDBRANCH  22  25
ENDBRANCH  20  22
ENDBRANCH  19  20
ENDBRANCH   9  19
ENDBRANCH   6   8
ENDBRANCH   5   6
ENDBRANCH   4   5
ENDBRANCH   3   4
ENDBRANCH   2   3
ENDBRANCH   1   2
BRANCH   1  33
ATOM     33  C   UNL A   1      39.578  21.378  26.275  1.00  0.00     0.188 C 
BRANCH  33  34
ATOM     34  O   UNL A   1      40.376  20.735  27.247  1.00  0.00    -0.376 OA
BRANCH  34  35
ATOM     35  C   UNL A   1      41.771  20.978  27.265  1.00  0.00     0.202 C 
BRANCH  35  36
ATOM     36  C   UNL A   1      42.604  21.173  25.984  1.00  0.00     0.261 C 
BRANCH  36  37
ATOM     37  O   UNL A   1      42.313  22.331  25.188  1.00  0.00    -0.460 OA
BRANCH  37  38
ATOM     38  C   UNL A   1      43.330  23.221  25.046  1.00  0.00     0.338 C 
ATOM     39  O   UNL A   1      44.262  23.142  24.264  1.00  0.00    -0.246 OA
BRANCH  38  40
ATOM     40  C   UNL A   1      43.040  24.445  25.829  1.00  0.00     0.060 A 
ATOM     41  C   UNL A   1      42.766  25.631  25.130  1.00  0.00     0.016 A 
ATOM     42  C   UNL A   1      43.067  24.444  27.224  1.00  0.00     0.016 A 
ATOM     43  C   UNL A   1      42.560  26.826  25.821  1.00  0.00     0.010 A 
ATOM     44  C   UNL A   1      42.884  25.650  27.916  1.00  0.00     0.010 A 
ATOM     45  C   UNL A   1      42.673  26.853  27.217  1.00  0.00    -0.014 A 
BRANCH  45  46
ATOM     46  C   UNL A   1      42.786  28.164  27.908  1.00  0.00     0.031 A 
ATOM     47  C   UNL A   1      44.148  28.799  28.019  1.00  0.00     0.074 A 
ATOM     48  C   UNL A   1      41.709  28.803  28.402  1.00  0.00     0.049 A 
ATOM     49  N   UNL A   1      44.491  29.943  28.554  1.00  0.00    -0.248 NA
ATOM     50  C   UNL A   1      45.275  28.040  27.450  1.00  0.00     0.031 C 
ATOM     51  C   UNL A   1      40.336  28.306  28.363  1.00  0.00     0.029 A 
ATOM     52  N   UNL A   1      41.613  30.009  29.054  1.00  0.00    -0.354 N 
ATOM     53  C   UNL A   1      45.871  30.028  28.411  1.00  0.00     0.074 A 
ATOM     54  C   UNL A   1      46.305  28.815  27.753  1.00  0.00     0.031 C 
ATOM     55  C   UNL A   1      39.536  29.187  28.990  1.00  0.00     0.029 A 
ATOM     56  C   UNL A   1      40.342  30.301  29.489  1.00  0.00     0.049 A 
ATOM     57  H   UNL A   1      42.382  30.606  29.197  1.00  0.00     0.167 HD
ATOM     58  C   UNL A   1      46.706  31.031  28.776  1.00  0.00     0.034 A 
ATOM     59  C   UNL A   1      39.886  31.340  30.221  1.00  0.00     0.034 A 
ATOM     60  C   UNL A   1      46.280  32.245  29.416  1.00  0.00     0.049 A 
ATOM     61  C   UNL A   1      40.840  32.433  30.639  1.00  0.00     0.074 A 
ATOM     62  C   UNL A   1      47.047  33.340  29.777  1.00  0.00     0.029 A 
ATOM     63  N   UNL A   1      44.982  32.520  29.810  1.00  0.00    -0.354 N 
ATOM     64  N   UNL A   1      42.119  32.561  30.377  1.00  0.00    -0.248 NA
ATOM     65  C   UNL A   1      40.277  33.545  31.422  1.00  0.00     0.031 C 
ATOM     66  C   UNL A   1      46.216  34.262  30.422  1.00  0.00     0.029 A 
ATOM     67  C   UNL A   1      44.925  33.759  30.427  1.00  0.00     0.049 A 
ATOM     68  H   UNL A   1      44.211  31.923  29.672  1.00  0.00     0.167 HD
ATOM     69  C   UNL A   1      42.503  33.779  30.933  1.00  0.00     0.074 A 
ATOM     70  C   UNL A   1      41.316  34.362  31.520  1.00  0.00     0.031 C 
ATOM     71  C   UNL A   1      43.731  34.355  30.968  1.00  0.00     0.034 A 
BRANCH  58  72
ATOM     72  C   UNL A   1      48.172  30.861  28.473  1.00  0.00     0.023 A 
ATOM     73  C   UNL A   1      48.702  31.370  27.270  1.00  0.00     0.012 A 
ATOM     74  C   UNL A   1      49.032  30.243  29.401  1.00  0.00     0.148 A 
ATOM     75  C   UNL A   1      50.058  31.236  26.979  1.00  0.00     0.002 A 
ATOM     76  C   UNL A   1      50.390  30.156  29.126  1.00  0.00     0.091 A 
ATOM     77  F   UNL A   1      48.504  29.745  30.529  1.00  0.00    -0.205 F 
ATOM     78  C   UNL A   1      50.904  30.640  27.911  1.00  0.00     0.022 A 
BRANCH  76  79
ATOM     79  S   UNL A   1      51.574  29.477  30.294  1.00  0.00     0.127 S 
ATOM     80  O   UNL A   1      52.671  29.087  29.410  1.00  0.00    -0.237 OA
ATOM     81  O   UNL A   1      51.858  30.631  31.148  1.00  0.00    -0.237 OA
ATOM     82  O   UNL A   1      50.893  28.378  30.965  1.00  0.00    -0.744 OA
ENDBRANCH  76  79
ENDBRANCH  58  72
BRANCH  59  83
ATOM     83  C   UNL A   1      38.444  31.420  30.591  1.00  0.00     0.023 A 
ATOM     84  C   UNL A   1      37.986  30.787  31.764  1.00  0.00     0.012 A 
ATOM     85  C   UNL A   1      37.521  32.109  29.781  1.00  0.00     0.148 A 
ATOM     86  C   UNL A   1      36.633  30.809  32.104  1.00  0.00     0.002 A 
ATOM     87  C   UNL A   1      36.185  32.177  30.156  1.00  0.00     0.091 A 
ATOM     88  F   UNL A   1      37.971  32.688  28.659  1.00  0.00    -0.205 F 
ATOM     89  C   UNL A   1      35.735  31.512  31.307  1.00  0.00     0.022 A 
BRANCH  87  90
ATOM     90  S   UNL A   1      34.980  33.164  29.260  1.00  0.00     0.127 S 
ATOM     91  O   UNL A   1      33.917  33.313  30.251  1.00  0.00    -0.237 OA
ATOM     92  O   UNL A   1      35.740  34.382  28.981  1.00  0.00    -0.237 OA
ATOM     93  O   UNL A   1      34.636  32.386  28.078  1.00  0.00    -0.744 OA
ENDBRANCH  87  90
ENDBRANCH  59  83
BRANCH  71  94
ATOM     94  C   UNL A   1      43.856  35.705  31.630  1.00  0.00     0.023 A 
ATOM     95  C   UNL A   1      44.027  35.792  33.027  1.00  0.00     0.012 A 
ATOM     96  C   UNL A   1      43.866  36.888  30.862  1.00  0.00     0.148 A 
ATOM     97  C   UNL A   1      44.161  37.032  33.651  1.00  0.00     0.002 A 
ATOM     98  C   UNL A   1      44.053  38.116  31.485  1.00  0.00     0.091 A 
ATOM     99  F   UNL A   1      43.687  36.791  29.536  1.00  0.00    -0.205 F 
ATOM    100  C   UNL A   1      44.185  38.191  32.880  1.00  0.00     0.022 A 
BRANCH  98 101
ATOM    101  S   UNL A   1      44.195  39.652  30.563  1.00  0.00     0.127 S 
ATOM    102  O   UNL A   1      45.417  39.425  29.793  1.00  0.00    -0.237 OA
ATOM    103  O   UNL A   1      42.965  39.652  29.768  1.00  0.00    -0.237 OA
ATOM    104  O   UNL A   1      44.269  40.712  31.558  1.00  0.00    -0.744 OA
ENDBRANCH  98 101
ENDBRANCH  71  94
ENDBRANCH  45  46
ENDBRANCH  38  40
ENDBRANCH  37  38
ENDBRANCH  36  37
ENDBRANCH  35  36
ENDBRANCH  34  35
ENDBRANCH  33  34
ENDBRANCH   1  33
TORSDOF 25
ENDMDL
MODEL 3
REMARK VINA RESULT:     -10.8      1.849      2.948
REMARK SMILES CCN(C(=O)Cc1c(C(=O)OCCOCCOCCOC(=O)c2ccc(-c3c4nc(c(-c5cccc(S(=O)(=O)[O-])c5F)c5ccc([nH]5)c(-c5cccc(S(=O)(=O)[O-])c5F)c5nc(c(-c6cccc(S(=O)(=O)[O-])c6F)c6ccc3[nH]6)C=C5)C=C4)cc2)[nH]c2ccc(Cl)cc12)c1ccc(C)c(C)c1
REMARK SMILES IDX 15 1 14 2 13 3 12 4 11 5 9 6 10 7 8 8 7 9 93 10 86 11 87 12
REMARK SMILES IDX 92 13 88 15 90 16 89 17 91 18 6 19 4 20 5 21 3 22 2 23 1 24
REMARK SMILES IDX 94 25 95 26 101 27 96 28 99 29 97 30 100 31 98 32 16 33
REMARK SMILES IDX 17 34 18 35 19 36 20 37 21 38 22 39 23 40 24 41 85 42 25 43
REMARK SMILES IDX 84 44 26 45 27 46 28 47 78 48 29 49 83 50 77 51 79 52 30 53
REMARK SMILES IDX 82 54 76 55 75 56 31 58 63 59 43 60 62 61 44 62 47 63 61 64
REMARK SMILES IDX 80 65 45 66 46 67 60 69 81 70 48 71 32 72 33 73 41 74 34 75
REMARK SMILES IDX 36 76 42 77 35 78 37 79 38 80 39 81 40 82 64 83 65 84 73 85
REMARK SMILES IDX 66 86 68 87 74 88 67 89 69 90 70 91 71 92 72 93 49 94 50 95
REMARK SMILES IDX 58 96 51 97 53 98 59 99 52 100 54 101 55 102 56 103 57 104
REMARK H PARENT 86 14 79 57 47 68
REMARK Flexibility Score: inf
ROOT
ATOM      1  C   UNL A   1      37.363  23.155  25.961  1.00  0.00     0.188 C 
ENDROOT
BRANCH   1   2
ATOM      2  O   UNL A   1      36.221  23.514  25.218  1.00  0.00    -0.376 OA
BRANCH   2   3
ATOM      3  C   UNL A   1      36.085  23.243  23.838  1.00  0.00     0.202 C 
BRANCH   3   4
ATOM      4  C   UNL A   1      34.776  23.288  23.041  1.00  0.00     0.261 C 
BRANCH   4   5
ATOM      5  O   UNL A   1      34.152  24.556  22.876  1.00  0.00    -0.459 OA
BRANCH   5   6
ATOM      6  C   UNL A   1      33.255  24.640  21.866  1.00  0.00     0.355 C 
ATOM      7  O   UNL A   1      33.221  23.882  20.888  1.00  0.00    -0.244 OA
BRANCH   6   8
ATOM      8  C   UNL A   1      32.291  25.679  22.111  1.00  0.00     0.129 A 
ATOM      9  C   UNL A   1      31.015  25.653  22.676  1.00  0.00     0.002 A 
ATOM     10  C   UNL A   1      30.536  27.008  22.693  1.00  0.00     0.005 A 
ATOM     11  N   UNL A   1      32.584  26.993  21.830  1.00  0.00    -0.349 N 
ATOM     12  C   UNL A   1      31.541  27.815  22.165  1.00  0.00     0.046 A 
ATOM     13  C   UNL A   1      29.348  27.621  23.145  1.00  0.00     0.031 A 
ATOM     14  H   UNL A   1      33.433  27.303  21.439  1.00  0.00     0.167 HD
ATOM     15  C   UNL A   1      31.428  29.206  22.063  1.00  0.00     0.028 A 
ATOM     16  C   UNL A   1      29.226  29.012  23.059  1.00  0.00     0.041 A 
ATOM     17  C   UNL A   1      30.248  29.793  22.527  1.00  0.00     0.022 A 
ATOM     18  Cl  UNL A   1      27.792  29.770  23.639  1.00  0.00    -0.084 Cl
BRANCH   9  19
ATOM     19  C   UNL A   1      30.279  24.472  23.245  1.00  0.00     0.139 C 
BRANCH  19  20
ATOM     20  C   UNL A   1      31.164  23.605  24.142  1.00  0.00     0.231 C 
ATOM     21  O   UNL A   1      31.591  22.538  23.685  1.00  0.00    -0.274 OA
BRANCH  20  22
ATOM     22  N   UNL A   1      31.439  24.049  25.443  1.00  0.00    -0.312 N 
BRANCH  22  23
ATOM     23  C   UNL A   1      31.384  23.209  26.659  1.00  0.00     0.122 C 
ATOM     24  C   UNL A   1      30.009  22.661  27.029  1.00  0.00     0.028 C 
ENDBRANCH  22  23
BRANCH  22  25
ATOM     25  C   UNL A   1      31.586  25.441  25.703  1.00  0.00     0.044 A 
ATOM     26  C   UNL A   1      30.522  26.208  26.165  1.00  0.00     0.026 A 
ATOM     27  C   UNL A   1      32.854  26.021  25.618  1.00  0.00     0.030 A 
ATOM     28  C   UNL A   1      30.752  27.512  26.606  1.00  0.00     0.006 A 
ATOM     29  C   UNL A   1      33.113  27.309  26.095  1.00  0.00    -0.046 A 
ATOM     30  C   UNL A   1      32.046  28.066  26.601  1.00  0.00    -0.048 A 
ATOM     31  C   UNL A   1      34.533  27.802  26.051  1.00  0.00     0.044 C 
ATOM     32  C   UNL A   1      32.220  29.464  27.120  1.00  0.00     0.044 C 
ENDBRANCH  22  25
ENDBRANCH  20  22
ENDBRANCH  19  20
ENDBRANCH   9  19
ENDBRANCH   6   8
ENDBRANCH   5   6
ENDBRANCH   4   5
ENDBRANCH   3   4
ENDBRANCH   2   3
ENDBRANCH   1   2
BRANCH   1  33
ATOM     33  C   UNL A   1      38.320  22.075  25.413  1.00  0.00     0.188 C 
BRANCH  33  34
ATOM     34  O   UNL A   1      37.897  20.731  25.319  1.00  0.00    -0.376 OA
BRANCH  34  35
ATOM     35  C   UNL A   1      38.859  19.696  25.403  1.00  0.00     0.202 C 
BRANCH  35  36
ATOM     36  C   UNL A   1      40.301  19.930  25.894  1.00  0.00     0.261 C 
BRANCH  36  37
ATOM     37  O   UNL A   1      41.207  18.820  25.809  1.00  0.00    -0.460 OA
BRANCH  37  38
ATOM     38  C   UNL A   1      42.516  19.108  26.029  1.00  0.00     0.338 C 
ATOM     39  O   UNL A   1      43.465  18.363  25.850  1.00  0.00    -0.246 OA
BRANCH  38  40
ATOM     40  C   UNL A   1      42.673  20.554  26.314  1.00  0.00     0.060 A 
ATOM     41  C   UNL A   1      42.930  21.419  25.239  1.00  0.00     0.016 A 
ATOM     42  C   UNL A   1      42.602  21.055  27.614  1.00  0.00     0.016 A 
ATOM     43  C   UNL A   1      43.159  22.776  25.464  1.00  0.00     0.010 A 
ATOM     44  C   UNL A   1      42.855  22.415  27.842  1.00  0.00     0.010 A 
ATOM     45  C   UNL A   1      43.177  23.273  26.773  1.00  0.00    -0.014 A 
BRANCH  45  46
ATOM     46  C   UNL A   1      43.744  24.624  27.026  1.00  0.00     0.031 A 
ATOM     47  C   UNL A   1      42.837  25.685  27.594  1.00  0.00     0.074 A 
ATOM     48  C   UNL A   1      45.038  24.907  26.792  1.00  0.00     0.049 A 
ATOM     49  N   UNL A   1      43.108  26.923  27.918  1.00  0.00    -0.248 NA
ATOM     50  C   UNL A   1      41.435  25.295  27.827  1.00  0.00     0.031 C 
ATOM     51  C   UNL A   1      46.025  23.978  26.246  1.00  0.00     0.029 A 
ATOM     52  N   UNL A   1      45.738  26.076  26.970  1.00  0.00    -0.354 N 
ATOM     53  C   UNL A   1      41.909  27.467  28.366  1.00  0.00     0.074 A 
ATOM     54  C   UNL A   1      40.907  26.431  28.258  1.00  0.00     0.031 C 
ATOM     55  C   UNL A   1      47.198  24.621  26.107  1.00  0.00     0.029 A 
ATOM     56  C   UNL A   1      47.042  26.010  26.538  1.00  0.00     0.049 A 
ATOM     57  H   UNL A   1      45.343  26.885  27.368  1.00  0.00     0.167 HD
ATOM     58  C   UNL A   1      41.663  28.711  28.842  1.00  0.00     0.034 A 
ATOM     59  C   UNL A   1      47.993  26.966  26.481  1.00  0.00     0.034 A 
ATOM     60  C   UNL A   1      42.657  29.742  28.966  1.00  0.00     0.049 A 
ATOM     61  C   UNL A   1      47.687  28.353  26.993  1.00  0.00     0.074 A 
ATOM     62  C   UNL A   1      42.512  31.017  29.485  1.00  0.00     0.029 A 
ATOM     63  N   UNL A   1      43.973  29.628  28.550  1.00  0.00    -0.354 N 
ATOM     64  N   UNL A   1      46.585  28.811  27.537  1.00  0.00    -0.248 NA
ATOM     65  C   UNL A   1      48.772  29.345  26.917  1.00  0.00     0.031 C 
ATOM     66  C   UNL A   1      43.734  31.686  29.350  1.00  0.00     0.029 A 
ATOM     67  C   UNL A   1      44.649  30.814  28.783  1.00  0.00     0.049 A 
ATOM     68  H   UNL A   1      44.370  28.821  28.147  1.00  0.00     0.167 HD
ATOM     69  C   UNL A   1      46.856  30.129  27.897  1.00  0.00     0.074 A 
ATOM     70  C   UNL A   1      48.233  30.386  27.535  1.00  0.00     0.031 C 
ATOM     71  C   UNL A   1      46.033  31.048  28.463  1.00  0.00     0.034 A 
BRANCH  58  72
ATOM     72  C   UNL A   1      40.256  29.022  29.283  1.00  0.00     0.023 A 
ATOM     73  C   UNL A   1      39.294  29.414  28.331  1.00  0.00     0.012 A 
ATOM     74  C   UNL A   1      39.877  28.878  30.632  1.00  0.00     0.148 A 
ATOM     75  C   UNL A   1      37.984  29.690  28.719  1.00  0.00     0.002 A 
ATOM     76  C   UNL A   1      38.559  29.108  31.003  1.00  0.00     0.091 A 
ATOM     77  F   UNL A   1      40.813  28.526  31.525  1.00  0.00    -0.205 F 
ATOM     78  C   UNL A   1      37.613  29.527  30.051  1.00  0.00     0.022 A 
BRANCH  76  79
ATOM     79  S   UNL A   1      37.964  28.850  32.678  1.00  0.00     0.127 S 
ATOM     80  O   UNL A   1      36.594  29.352  32.585  1.00  0.00    -0.237 OA
ATOM     81  O   UNL A   1      38.074  27.398  32.821  1.00  0.00    -0.237 OA
ATOM     82  O   UNL A   1      38.851  29.616  33.542  1.00  0.00    -0.744 OA
ENDBRANCH  76  79
ENDBRANCH  58  72
BRANCH  59  83
ATOM     83  C   UNL A   1      49.346  26.646  25.939  1.00  0.00     0.023 A 
ATOM     84  C   UNL A   1      50.259  25.917  26.725  1.00  0.00     0.012 A 
ATOM     85  C   UNL A   1      49.734  27.072  24.654  1.00  0.00     0.148 A 
ATOM     86  C   UNL A   1      51.546  25.648  26.256  1.00  0.00     0.002 A 
ATOM     87  C   UNL A   1      50.997  26.751  24.170  1.00  0.00     0.091 A 
ATOM     88  F   UNL A   1      48.858  27.783  23.930  1.00  0.00    -0.205 F 
ATOM     89  C   UNL A   1      51.911  26.055  24.976  1.00  0.00     0.022 A 
BRANCH  87  90
ATOM     90  S   UNL A   1      51.510  27.124  22.489  1.00  0.00     0.127 S 
ATOM     91  O   UNL A   1      51.692  28.572  22.546  1.00  0.00    -0.237 OA
ATOM     92  O   UNL A   1      52.745  26.349  22.376  1.00  0.00    -0.237 OA
ATOM     93  O   UNL A   1      50.427  26.656  21.635  1.00  0.00    -0.744 OA
ENDBRANCH  87  90
ENDBRANCH  59  83
BRANCH  71  94
ATOM     94  C   UNL A   1      46.604  32.413  28.763  1.00  0.00     0.023 A 
ATOM     95  C   UNL A   1      47.194  32.670  30.017  1.00  0.00     0.012 A 
ATOM     96  C   UNL A   1      46.611  33.424  27.779  1.00  0.00     0.148 A 
ATOM     97  C   UNL A   1      47.741  33.921  30.302  1.00  0.00     0.002 A 
ATOM     98  C   UNL A   1      47.205  34.650  28.053  1.00  0.00     0.091 A 
ATOM     99  F   UNL A   1      46.034  33.169  26.596  1.00  0.00    -0.205 F 
ATOM    100  C   UNL A   1      47.756  34.906  29.318  1.00  0.00     0.022 A 
BRANCH  98 101
ATOM    101  S   UNL A   1      47.358  35.943  26.814  1.00  0.00     0.127 S 
ATOM    102  O   UNL A   1      47.286  35.176  25.572  1.00  0.00    -0.237 OA
ATOM    103  O   UNL A   1      46.183  36.775  27.086  1.00  0.00    -0.237 OA
ATOM    104  O   UNL A   1      48.632  36.598  27.073  1.00  0.00    -0.744 OA
ENDBRANCH  98 101
ENDBRANCH  71  94
ENDBRANCH  45  46
ENDBRANCH  38  40
ENDBRANCH  37  38
ENDBRANCH  36  37
ENDBRANCH  35  36
ENDBRANCH  34  35
ENDBRANCH  33  34
ENDBRANCH   1  33
TORSDOF 25
ENDMDL
