MODEL 1
REMARK VINA RESULT:     -10.3      0.000      0.000
REMARK SMILES C[NH2+]C[C@H]1CCCN(c2ccc(C(=O)OCCOCCOCCOC(=O)c3ccc(-c4c5nc(c(-c6cccc(S(=O)(=O)[O-])c6F)c6ccc([nH]6)c(-c6cccc(S(=O)(=O)[O-])c6F)c6nc(c(-c7cccc(S(=O)(=O)[O-])c7F)c7ccc4[nH]7)C=C6)C=C5)cc3)c(F)c2F)C1
REMARK SMILES IDX 19 1 18 2 17 3 16 4 15 5 13 6 14 7 12 8 9 9 10 10 92 11
REMARK SMILES IDX 11 12 90 13 93 14 91 15 8 16 4 17 5 18 94 19 6 20 7 21 3 22
REMARK SMILES IDX 2 23 1 24 20 27 21 28 22 29 23 30 24 31 25 32 26 33 27 34
REMARK SMILES IDX 28 35 89 36 29 37 88 38 30 39 31 40 32 41 82 42 33 43 87 44
REMARK SMILES IDX 81 45 83 46 34 47 86 48 80 49 79 50 35 52 67 53 47 54 66 55
REMARK SMILES IDX 48 56 51 57 65 58 84 59 49 60 50 61 64 63 85 64 52 65 36 66
REMARK SMILES IDX 37 67 45 68 38 69 40 70 46 71 39 72 41 73 42 74 43 75 44 76
REMARK SMILES IDX 68 77 69 78 77 79 70 80 72 81 78 82 71 83 73 84 74 85 75 86
REMARK SMILES IDX 76 87 53 88 54 89 62 90 55 91 57 92 63 93 56 94 58 95 59 96
REMARK SMILES IDX 60 97 61 98
REMARK H PARENT 2 25 2 26 83 51 51 62
REMARK Flexibility Score: inf
ROOT
ATOM      1  C   UNL A   1      33.527  28.498  26.844  1.00  0.00     0.188 C 
ENDROOT
BRANCH   1   2
ATOM      2  O   UNL A   1      33.704  27.930  25.564  1.00  0.00    -0.376 OA
BRANCH   2   3
ATOM      3  C   UNL A   1      33.777  28.746  24.408  1.00  0.00     0.202 C 
BRANCH   3   4
ATOM      4  C   UNL A   1      32.607  28.974  23.439  1.00  0.00     0.261 C 
BRANCH   4   5
ATOM      5  O   UNL A   1      31.331  28.513  23.889  1.00  0.00    -0.460 OA
BRANCH   5   6
ATOM      6  C   UNL A   1      30.707  27.650  23.044  1.00  0.00     0.341 C 
ATOM      7  O   UNL A   1      30.101  27.918  22.033  1.00  0.00    -0.246 OA
BRANCH   6   8
ATOM      8  C   UNL A   1      31.011  26.265  23.431  1.00  0.00     0.099 A 
ATOM      9  C   UNL A   1      31.787  23.722  24.344  1.00  0.00     0.076 A 
ATOM     10  C   UNL A   1      30.965  24.534  25.132  1.00  0.00     0.030 A 
ATOM     11  C   UNL A   1      32.127  24.184  23.053  1.00  0.00     0.182 A 
ATOM     12  C   UNL A   1      30.599  25.812  24.693  1.00  0.00     0.021 A 
ATOM     13  C   UNL A   1      31.740  25.438  22.596  1.00  0.00     0.175 A 
ATOM     14  F   UNL A   1      32.887  23.420  22.249  1.00  0.00    -0.201 F 
ATOM     15  F   UNL A   1      32.133  25.848  21.380  1.00  0.00    -0.203 F 
BRANCH   9  16
ATOM     16  N   UNL A   1      32.356  22.578  24.867  1.00  0.00    -0.369 N 
ATOM     17  C   UNL A   1      34.604  21.709  24.706  1.00  0.00     0.064 C 
ATOM     18  C   UNL A   1      34.040  20.283  24.852  1.00  0.00     0.013 C 
ATOM     19  C   UNL A   1      33.690  22.688  25.441  1.00  0.00     0.126 C 
ATOM     20  C   UNL A   1      32.576  20.210  24.377  1.00  0.00     0.022 C 
ATOM     21  C   UNL A   1      31.682  21.297  24.998  1.00  0.00     0.116 C 
BRANCH  17  22
ATOM     22  C   UNL A   1      36.040  21.863  25.233  1.00  0.00     0.265 C 
BRANCH  22  23
ATOM     23  N   UNL A   1      37.059  21.994  24.187  1.00  0.00    -0.348 N 
ATOM     24  C   UNL A   1      36.637  22.913  23.131  1.00  0.00     0.330 C 
ATOM     25  H   UNL A   1      37.919  22.346  24.606  1.00  0.00     0.346 HD
ATOM     26  H   UNL A   1      37.205  21.076  23.769  1.00  0.00     0.346 HD
ENDBRANCH  22  23
ENDBRANCH  17  22
ENDBRANCH   9  16
ENDBRANCH   6   8
ENDBRANCH   5   6
ENDBRANCH   4   5
ENDBRANCH   3   4
ENDBRANCH   2   3
ENDBRANCH   1   2
BRANCH   1  27
ATOM     27  C   UNL A   1      32.247  29.304  27.148  1.00  0.00     0.188 C 
BRANCH  27  28
ATOM     28  O   UNL A   1      32.180  30.687  26.877  1.00  0.00    -0.376 OA
BRANCH  28  29
ATOM     29  C   UNL A   1      33.121  31.576  27.451  1.00  0.00     0.202 C 
BRANCH  29  30
ATOM     30  C   UNL A   1      33.053  33.106  27.324  1.00  0.00     0.261 C 
BRANCH  30  31
ATOM     31  O   UNL A   1      32.362  33.814  28.356  1.00  0.00    -0.460 OA
BRANCH  31  32
ATOM     32  C   UNL A   1      33.037  34.868  28.880  1.00  0.00     0.338 C 
ATOM     33  O   UNL A   1      32.716  36.044  28.842  1.00  0.00    -0.246 OA
BRANCH  32  34
ATOM     34  C   UNL A   1      34.162  34.365  29.687  1.00  0.00     0.060 A 
ATOM     35  C   UNL A   1      35.467  34.578  29.223  1.00  0.00     0.016 A 
ATOM     36  C   UNL A   1      33.929  33.649  30.861  1.00  0.00     0.016 A 
ATOM     37  C   UNL A   1      36.550  34.055  29.927  1.00  0.00     0.010 A 
ATOM     38  C   UNL A   1      35.015  33.107  31.553  1.00  0.00     0.010 A 
ATOM     39  C   UNL A   1      36.326  33.283  31.074  1.00  0.00    -0.014 A 
BRANCH  39  40
ATOM     40  C   UNL A   1      37.443  32.517  31.674  1.00  0.00     0.031 A 
ATOM     41  C   UNL A   1      37.986  32.959  33.004  1.00  0.00     0.074 A 
ATOM     42  C   UNL A   1      37.975  31.455  31.043  1.00  0.00     0.049 A 
ATOM     43  N   UNL A   1      38.988  32.477  33.692  1.00  0.00    -0.248 NA
ATOM     44  C   UNL A   1      37.311  34.102  33.643  1.00  0.00     0.031 C 
ATOM     45  C   UNL A   1      37.529  30.926  29.755  1.00  0.00     0.029 A 
ATOM     46  N   UNL A   1      39.029  30.649  31.393  1.00  0.00    -0.354 N 
ATOM     47  C   UNL A   1      39.086  33.275  34.825  1.00  0.00     0.074 A 
ATOM     48  C   UNL A   1      38.046  34.277  34.730  1.00  0.00     0.031 C 
ATOM     49  C   UNL A   1      38.329  29.903  29.406  1.00  0.00     0.029 A 
ATOM     50  C   UNL A   1      39.357  29.724  30.431  1.00  0.00     0.049 A 
ATOM     51  H   UNL A   1      39.505  30.727  32.252  1.00  0.00     0.167 HD
ATOM     52  C   UNL A   1      39.956  33.177  35.858  1.00  0.00     0.034 A 
ATOM     53  C   UNL A   1      40.386  28.856  30.372  1.00  0.00     0.034 A 
ATOM     54  C   UNL A   1      40.982  32.175  35.954  1.00  0.00     0.049 A 
ATOM     55  C   UNL A   1      41.362  28.788  31.521  1.00  0.00     0.074 A 
ATOM     56  C   UNL A   1      41.882  31.965  36.983  1.00  0.00     0.029 A 
ATOM     57  N   UNL A   1      41.257  31.229  34.980  1.00  0.00    -0.354 N 
ATOM     58  N   UNL A   1      41.370  29.469  32.640  1.00  0.00    -0.248 NA
ATOM     59  C   UNL A   1      42.451  27.806  31.411  1.00  0.00     0.031 C 
ATOM     60  C   UNL A   1      42.726  30.911  36.616  1.00  0.00     0.029 A 
ATOM     61  C   UNL A   1      42.323  30.440  35.377  1.00  0.00     0.049 A 
ATOM     62  H   UNL A   1      40.768  31.132  34.133  1.00  0.00     0.167 HD
ATOM     63  C   UNL A   1      42.436  28.972  33.384  1.00  0.00     0.074 A 
ATOM     64  C   UNL A   1      43.040  27.919  32.594  1.00  0.00     0.031 C 
ATOM     65  C   UNL A   1      42.881  29.357  34.606  1.00  0.00     0.034 A 
BRANCH  52  66
ATOM     66  C   UNL A   1      39.826  34.177  36.977  1.00  0.00     0.023 A 
ATOM     67  C   UNL A   1      40.239  35.510  36.776  1.00  0.00     0.012 A 
ATOM     68  C   UNL A   1      39.249  33.809  38.207  1.00  0.00     0.148 A 
ATOM     69  C   UNL A   1      40.109  36.454  37.794  1.00  0.00     0.002 A 
ATOM     70  C   UNL A   1      39.079  34.765  39.201  1.00  0.00     0.091 A 
ATOM     71  F   UNL A   1      38.884  32.531  38.386  1.00  0.00    -0.205 F 
ATOM     72  C   UNL A   1      39.520  36.084  39.000  1.00  0.00     0.022 A 
BRANCH  70  73
ATOM     73  S   UNL A   1      38.259  34.409  40.758  1.00  0.00     0.127 S 
ATOM     74  O   UNL A   1      39.309  33.698  41.488  1.00  0.00    -0.237 OA
ATOM     75  O   UNL A   1      37.967  35.751  41.265  1.00  0.00    -0.237 OA
ATOM     76  O   UNL A   1      37.086  33.616  40.423  1.00  0.00    -0.744 OA
ENDBRANCH  70  73
ENDBRANCH  52  66
BRANCH  53  77
ATOM     77  C   UNL A   1      40.539  27.957  29.193  1.00  0.00     0.023 A 
ATOM     78  C   UNL A   1      39.770  26.780  29.111  1.00  0.00     0.012 A 
ATOM     79  C   UNL A   1      41.441  28.262  28.155  1.00  0.00     0.148 A 
ATOM     80  C   UNL A   1      39.919  25.907  28.032  1.00  0.00     0.002 A 
ATOM     81  C   UNL A   1      41.545  27.417  27.057  1.00  0.00     0.091 A 
ATOM     82  F   UNL A   1      42.176  29.379  28.261  1.00  0.00    -0.205 F 
ATOM     83  C   UNL A   1      40.798  26.229  27.003  1.00  0.00     0.022 A 
BRANCH  81  84
ATOM     84  S   UNL A   1      42.561  27.810  25.629  1.00  0.00     0.127 S 
ATOM     85  O   UNL A   1      41.898  29.004  25.110  1.00  0.00    -0.237 OA
ATOM     86  O   UNL A   1      43.866  28.049  26.247  1.00  0.00    -0.237 OA
ATOM     87  O   UNL A   1      42.506  26.634  24.771  1.00  0.00    -0.744 OA
ENDBRANCH  81  84
ENDBRANCH  53  77
BRANCH  65  88
ATOM     88  C   UNL A   1      44.046  28.609  35.201  1.00  0.00     0.023 A 
ATOM     89  C   UNL A   1      45.366  28.981  34.879  1.00  0.00     0.012 A 
ATOM     90  C   UNL A   1      43.829  27.585  36.145  1.00  0.00     0.148 A 
ATOM     91  C   UNL A   1      46.450  28.325  35.463  1.00  0.00     0.002 A 
ATOM     92  C   UNL A   1      44.913  26.972  36.762  1.00  0.00     0.091 A 
ATOM     93  F   UNL A   1      42.565  27.233  36.427  1.00  0.00    -0.205 F 
ATOM     94  C   UNL A   1      46.224  27.330  36.411  1.00  0.00     0.022 A 
BRANCH  92  95
ATOM     95  S   UNL A   1      44.718  25.752  38.066  1.00  0.00     0.127 S 
ATOM     96  O   UNL A   1      46.106  25.501  38.450  1.00  0.00    -0.237 OA
ATOM     97  O   UNL A   1      43.931  26.482  39.060  1.00  0.00    -0.237 OA
ATOM     98  O   UNL A   1      44.026  24.622  37.459  1.00  0.00    -0.744 OA
ENDBRANCH  92  95
ENDBRANCH  65  88
ENDBRANCH  39  40
ENDBRANCH  32  34
ENDBRANCH  31  32
ENDBRANCH  30  31
ENDBRANCH  29  30
ENDBRANCH  28  29
ENDBRANCH  27  28
ENDBRANCH   1  27
TORSDOF 23
ENDMDL
MODEL 2
REMARK VINA RESULT:      -9.7      1.306      7.453
REMARK SMILES C[NH2+]C[C@H]1CCCN(c2ccc(C(=O)OCCOCCOCCOC(=O)c3ccc(-c4c5nc(c(-c6cccc(S(=O)(=O)[O-])c6F)c6ccc([nH]6)c(-c6cccc(S(=O)(=O)[O-])c6F)c6nc(c(-c7cccc(S(=O)(=O)[O-])c7F)c7ccc4[nH]7)C=C6)C=C5)cc3)c(F)c2F)C1
REMARK SMILES IDX 19 1 18 2 17 3 16 4 15 5 13 6 14 7 12 8 9 9 10 10 92 11
REMARK SMILES IDX 11 12 90 13 93 14 91 15 8 16 4 17 5 18 94 19 6 20 7 21 3 22
REMARK SMILES IDX 2 23 1 24 20 27 21 28 22 29 23 30 24 31 25 32 26 33 27 34
REMARK SMILES IDX 28 35 89 36 29 37 88 38 30 39 31 40 32 41 82 42 33 43 87 44
REMARK SMILES IDX 81 45 83 46 34 47 86 48 80 49 79 50 35 52 67 53 47 54 66 55
REMARK SMILES IDX 48 56 51 57 65 58 84 59 49 60 50 61 64 63 85 64 52 65 36 66
REMARK SMILES IDX 37 67 45 68 38 69 40 70 46 71 39 72 41 73 42 74 43 75 44 76
REMARK SMILES IDX 68 77 69 78 77 79 70 80 72 81 78 82 71 83 73 84 74 85 75 86
REMARK SMILES IDX 76 87 53 88 54 89 62 90 55 91 57 92 63 93 56 94 58 95 59 96
REMARK SMILES IDX 60 97 61 98
REMARK H PARENT 2 25 2 26 83 51 51 62
REMARK Flexibility Score: inf
ROOT
ATOM      1  C   UNL A   1      33.825  28.262  26.410  1.00  0.00     0.188 C 
ENDROOT
BRANCH   1   2
ATOM      2  O   UNL A   1      33.454  27.850  25.112  1.00  0.00    -0.376 OA
BRANCH   2   3
ATOM      3  C   UNL A   1      32.977  28.785  24.158  1.00  0.00     0.202 C 
BRANCH   3   4
ATOM      4  C   UNL A   1      31.530  29.295  24.103  1.00  0.00     0.261 C 
BRANCH   4   5
ATOM      5  O   UNL A   1      30.515  28.296  24.217  1.00  0.00    -0.460 OA
BRANCH   5   6
ATOM      6  C   UNL A   1      30.384  27.491  23.131  1.00  0.00     0.341 C 
ATOM      7  O   UNL A   1      30.139  27.822  21.993  1.00  0.00    -0.246 OA
BRANCH   6   8
ATOM      8  C   UNL A   1      30.758  26.113  23.481  1.00  0.00     0.099 A 
ATOM      9  C   UNL A   1      31.655  23.590  24.336  1.00  0.00     0.076 A 
ATOM     10  C   UNL A   1      30.753  24.320  25.117  1.00  0.00     0.030 A 
ATOM     11  C   UNL A   1      32.016  24.120  23.077  1.00  0.00     0.182 A 
ATOM     12  C   UNL A   1      30.326  25.588  24.708  1.00  0.00     0.021 A 
ATOM     13  C   UNL A   1      31.570  25.364  22.649  1.00  0.00     0.175 A 
ATOM     14  F   UNL A   1      32.853  23.434  22.280  1.00  0.00    -0.201 F 
ATOM     15  F   UNL A   1      31.984  25.842  21.466  1.00  0.00    -0.203 F 
BRANCH   9  16
ATOM     16  N   UNL A   1      32.273  22.464  24.842  1.00  0.00    -0.369 N 
ATOM     17  C   UNL A   1      34.601  22.001  25.293  1.00  0.00     0.064 C 
ATOM     18  C   UNL A   1      34.330  20.506  25.038  1.00  0.00     0.013 C 
ATOM     19  C   UNL A   1      33.329  22.657  25.826  1.00  0.00     0.126 C 
ATOM     20  C   UNL A   1      33.117  20.309  24.109  1.00  0.00     0.022 C 
ATOM     21  C   UNL A   1      31.874  21.095  24.559  1.00  0.00     0.116 C 
BRANCH  17  22
ATOM     22  C   UNL A   1      35.756  22.261  26.273  1.00  0.00     0.265 C 
BRANCH  22  23
ATOM     23  N   UNL A   1      37.015  21.599  25.916  1.00  0.00    -0.348 N 
ATOM     24  C   UNL A   1      38.101  22.561  25.733  1.00  0.00     0.330 C 
ATOM     25  H   UNL A   1      37.270  20.951  26.661  1.00  0.00     0.346 HD
ATOM     26  H   UNL A   1      36.876  21.106  25.034  1.00  0.00     0.346 HD
ENDBRANCH  22  23
ENDBRANCH  17  22
ENDBRANCH   9  16
ENDBRANCH   6   8
ENDBRANCH   5   6
ENDBRANCH   4   5
ENDBRANCH   3   4
ENDBRANCH   2   3
ENDBRANCH   1   2
BRANCH   1  27
ATOM     27  C   UNL A   1      32.775  28.927  27.325  1.00  0.00     0.188 C 
BRANCH  27  28
ATOM     28  O   UNL A   1      32.538  30.317  27.266  1.00  0.00    -0.376 OA
BRANCH  28  29
ATOM     29  C   UNL A   1      33.589  31.234  27.508  1.00  0.00     0.202 C 
BRANCH  29  30
ATOM     30  C   UNL A   1      33.459  32.757  27.353  1.00  0.00     0.261 C 
BRANCH  30  31
ATOM     31  O   UNL A   1      32.680  33.447  28.332  1.00  0.00    -0.460 OA
BRANCH  31  32
ATOM     32  C   UNL A   1      33.236  34.588  28.809  1.00  0.00     0.338 C 
ATOM     33  O   UNL A   1      32.794  35.721  28.716  1.00  0.00    -0.246 OA
BRANCH  32  34
ATOM     34  C   UNL A   1      34.400  34.243  29.644  1.00  0.00     0.060 A 
ATOM     35  C   UNL A   1      35.684  34.482  29.135  1.00  0.00     0.016 A 
ATOM     36  C   UNL A   1      34.227  33.645  30.892  1.00  0.00     0.016 A 
ATOM     37  C   UNL A   1      36.806  34.104  29.869  1.00  0.00     0.010 A 
ATOM     38  C   UNL A   1      35.353  33.246  31.616  1.00  0.00     0.010 A 
ATOM     39  C   UNL A   1      36.645  33.448  31.096  1.00  0.00    -0.014 A 
BRANCH  39  40
ATOM     40  C   UNL A   1      37.815  32.819  31.753  1.00  0.00     0.031 A 
ATOM     41  C   UNL A   1      38.473  31.646  31.081  1.00  0.00     0.074 A 
ATOM     42  C   UNL A   1      38.277  33.275  32.931  1.00  0.00     0.049 A 
ATOM     43  N   UNL A   1      39.471  30.909  31.492  1.00  0.00    -0.248 NA
ATOM     44  C   UNL A   1      37.929  31.248  29.772  1.00  0.00     0.031 C 
ATOM     45  C   UNL A   1      37.729  34.408  33.673  1.00  0.00     0.029 A 
ATOM     46  N   UNL A   1      39.299  32.814  33.722  1.00  0.00    -0.354 N 
ATOM     47  C   UNL A   1      39.654  29.942  30.513  1.00  0.00     0.074 A 
ATOM     48  C   UNL A   1      38.660  30.180  29.489  1.00  0.00     0.031 C 
ATOM     49  C   UNL A   1      38.400  34.533  34.832  1.00  0.00     0.029 A 
ATOM     50  C   UNL A   1      39.404  33.474  34.923  1.00  0.00     0.049 A 
ATOM     51  H   UNL A   1      39.900  32.081  33.454  1.00  0.00     0.167 HD
ATOM     52  C   UNL A   1      40.574  28.949  30.463  1.00  0.00     0.034 A 
ATOM     53  C   UNL A   1      40.198  33.230  35.984  1.00  0.00     0.034 A 
ATOM     54  C   UNL A   1      41.567  28.720  31.476  1.00  0.00     0.049 A 
ATOM     55  C   UNL A   1      41.193  32.098  35.918  1.00  0.00     0.074 A 
ATOM     56  C   UNL A   1      42.571  27.770  31.494  1.00  0.00     0.029 A 
ATOM     57  N   UNL A   1      41.669  29.435  32.659  1.00  0.00    -0.354 N 
ATOM     58  N   UNL A   1      41.434  31.266  34.934  1.00  0.00    -0.248 NA
ATOM     59  C   UNL A   1      42.048  31.894  37.097  1.00  0.00     0.031 C 
ATOM     60  C   UNL A   1      43.262  27.888  32.705  1.00  0.00     0.029 A 
ATOM     61  C   UNL A   1      42.713  28.938  33.422  1.00  0.00     0.049 A 
ATOM     62  H   UNL A   1      41.087  30.184  32.918  1.00  0.00     0.167 HD
ATOM     63  C   UNL A   1      42.493  30.468  35.358  1.00  0.00     0.074 A 
ATOM     64  C   UNL A   1      42.858  30.929  36.682  1.00  0.00     0.031 C 
ATOM     65  C   UNL A   1      43.103  29.441  34.714  1.00  0.00     0.034 A 
BRANCH  52  66
ATOM     66  C   UNL A   1      40.556  28.041  29.262  1.00  0.00     0.023 A 
ATOM     67  C   UNL A   1      39.607  27.002  29.184  1.00  0.00     0.012 A 
ATOM     68  C   UNL A   1      41.444  28.249  28.189  1.00  0.00     0.148 A 
ATOM     69  C   UNL A   1      39.563  26.162  28.071  1.00  0.00     0.002 A 
ATOM     70  C   UNL A   1      41.364  27.439  27.063  1.00  0.00     0.091 A 
ATOM     71  F   UNL A   1      42.354  29.228  28.293  1.00  0.00    -0.205 F 
ATOM     72  C   UNL A   1      40.433  26.388  27.008  1.00  0.00     0.022 A 
BRANCH  70  73
ATOM     73  S   UNL A   1      42.385  27.699  25.608  1.00  0.00     0.127 S 
ATOM     74  O   UNL A   1      43.721  27.781  26.197  1.00  0.00    -0.237 OA
ATOM     75  O   UNL A   1      42.133  26.482  24.836  1.00  0.00    -0.237 OA
ATOM     76  O   UNL A   1      41.899  28.924  24.990  1.00  0.00    -0.744 OA
ENDBRANCH  70  73
ENDBRANCH  52  66
BRANCH  53  77
ATOM     77  C   UNL A   1      40.108  34.089  37.199  1.00  0.00     0.023 A 
ATOM     78  C   UNL A   1      39.068  33.877  38.126  1.00  0.00     0.012 A 
ATOM     79  C   UNL A   1      41.044  35.113  37.440  1.00  0.00     0.148 A 
ATOM     80  C   UNL A   1      38.944  34.690  39.254  1.00  0.00     0.002 A 
ATOM     81  C   UNL A   1      40.948  35.883  38.593  1.00  0.00     0.091 A 
ATOM     82  F   UNL A   1      42.016  35.309  36.537  1.00  0.00    -0.205 F 
ATOM     83  C   UNL A   1      39.887  35.685  39.491  1.00  0.00     0.022 A 
BRANCH  81  84
ATOM     84  S   UNL A   1      42.183  37.105  39.044  1.00  0.00     0.127 S 
ATOM     85  O   UNL A   1      41.360  38.162  39.625  1.00  0.00    -0.237 OA
ATOM     86  O   UNL A   1      43.002  36.363  40.003  1.00  0.00    -0.237 OA
ATOM     87  O   UNL A   1      42.868  37.448  37.805  1.00  0.00    -0.744 OA
ENDBRANCH  81  84
ENDBRANCH  53  77
BRANCH  65  88
ATOM     88  C   UNL A   1      44.266  28.771  35.399  1.00  0.00     0.023 A 
ATOM     89  C   UNL A   1      45.578  29.236  35.184  1.00  0.00     0.012 A 
ATOM     90  C   UNL A   1      44.047  27.727  36.320  1.00  0.00     0.148 A 
ATOM     91  C   UNL A   1      46.656  28.652  35.851  1.00  0.00     0.002 A 
ATOM     92  C   UNL A   1      45.118  27.186  37.020  1.00  0.00     0.091 A 
ATOM     93  F   UNL A   1      42.792  27.286  36.500  1.00  0.00    -0.205 F 
ATOM     94  C   UNL A   1      46.425  27.637  36.776  1.00  0.00     0.022 A 
BRANCH  92  95
ATOM     95  S   UNL A   1      44.906  25.945  38.301  1.00  0.00     0.127 S 
ATOM     96  O   UNL A   1      44.777  24.720  37.513  1.00  0.00    -0.237 OA
ATOM     97  O   UNL A   1      46.156  26.058  39.054  1.00  0.00    -0.237 OA
ATOM     98  O   UNL A   1      43.716  26.335  39.045  1.00  0.00    -0.744 OA
ENDBRANCH  92  95
ENDBRANCH  65  88
ENDBRANCH  39  40
ENDBRANCH  32  34
ENDBRANCH  31  32
ENDBRANCH  30  31
ENDBRANCH  29  30
ENDBRANCH  28  29
ENDBRANCH  27  28
ENDBRANCH   1  27
TORSDOF 23
ENDMDL
MODEL 3
REMARK VINA RESULT:      -9.7      1.195      7.464
REMARK SMILES C[NH2+]C[C@H]1CCCN(c2ccc(C(=O)OCCOCCOCCOC(=O)c3ccc(-c4c5nc(c(-c6cccc(S(=O)(=O)[O-])c6F)c6ccc([nH]6)c(-c6cccc(S(=O)(=O)[O-])c6F)c6nc(c(-c7cccc(S(=O)(=O)[O-])c7F)c7ccc4[nH]7)C=C6)C=C5)cc3)c(F)c2F)C1
REMARK SMILES IDX 19 1 18 2 17 3 16 4 15 5 13 6 14 7 12 8 9 9 10 10 92 11
REMARK SMILES IDX 11 12 90 13 93 14 91 15 8 16 4 17 5 18 94 19 6 20 7 21 3 22
REMARK SMILES IDX 2 23 1 24 20 27 21 28 22 29 23 30 24 31 25 32 26 33 27 34
REMARK SMILES IDX 28 35 89 36 29 37 88 38 30 39 31 40 32 41 82 42 33 43 87 44
REMARK SMILES IDX 81 45 83 46 34 47 86 48 80 49 79 50 35 52 67 53 47 54 66 55
REMARK SMILES IDX 48 56 51 57 65 58 84 59 49 60 50 61 64 63 85 64 52 65 36 66
REMARK SMILES IDX 37 67 45 68 38 69 40 70 46 71 39 72 41 73 42 74 43 75 44 76
REMARK SMILES IDX 68 77 69 78 77 79 70 80 72 81 78 82 71 83 73 84 74 85 75 86
REMARK SMILES IDX 76 87 53 88 54 89 62 90 55 91 57 92 63 93 56 94 58 95 59 96
REMARK SMILES IDX 60 97 61 98
REMARK H PARENT 2 25 2 26 83 51 51 62
REMARK Flexibility Score: inf
ROOT
ATOM      1  C   UNL A   1      33.963  28.266  26.490  1.00  0.00     0.188 C 
ENDROOT
BRANCH   1   2
ATOM      2  O   UNL A   1      33.685  27.868  25.165  1.00  0.00    -0.376 OA
BRANCH   2   3
ATOM      3  C   UNL A   1      33.293  28.814  24.185  1.00  0.00     0.202 C 
BRANCH   3   4
ATOM      4  C   UNL A   1      31.846  29.286  23.975  1.00  0.00     0.261 C 
BRANCH   4   5
ATOM      5  O   UNL A   1      30.829  28.374  24.395  1.00  0.00    -0.460 OA
BRANCH   5   6
ATOM      6  C   UNL A   1      30.385  27.532  23.426  1.00  0.00     0.341 C 
ATOM      7  O   UNL A   1      29.884  27.827  22.365  1.00  0.00    -0.246 OA
BRANCH   6   8
ATOM      8  C   UNL A   1      30.752  26.148  23.759  1.00  0.00     0.099 A 
ATOM      9  C   UNL A   1      31.657  23.610  24.561  1.00  0.00     0.076 A 
ATOM     10  C   UNL A   1      30.855  24.376  25.414  1.00  0.00     0.030 A 
ATOM     11  C   UNL A   1      31.910  24.115  23.265  1.00  0.00     0.182 A 
ATOM     12  C   UNL A   1      30.426  25.651  25.028  1.00  0.00     0.021 A 
ATOM     13  C   UNL A   1      31.459  25.366  22.863  1.00  0.00     0.175 A 
ATOM     14  F   UNL A   1      32.647  23.395  22.402  1.00  0.00    -0.201 F 
ATOM     15  F   UNL A   1      31.771  25.818  21.639  1.00  0.00    -0.203 F 
BRANCH   9  16
ATOM     16  N   UNL A   1      32.289  22.473  25.022  1.00  0.00    -0.369 N 
ATOM     17  C   UNL A   1      34.631  21.890  25.117  1.00  0.00     0.064 C 
ATOM     18  C   UNL A   1      34.244  20.404  24.991  1.00  0.00     0.013 C 
ATOM     19  C   UNL A   1      33.500  22.646  25.811  1.00  0.00     0.126 C 
ATOM     20  C   UNL A   1      32.887  20.239  24.282  1.00  0.00     0.022 C 
ATOM     21  C   UNL A   1      31.777  21.120  24.882  1.00  0.00     0.116 C 
BRANCH  17  22
ATOM     22  C   UNL A   1      35.944  22.124  25.883  1.00  0.00     0.265 C 
BRANCH  22  23
ATOM     23  N   UNL A   1      37.023  21.193  25.536  1.00  0.00    -0.348 N 
ATOM     24  C   UNL A   1      38.302  21.882  25.376  1.00  0.00     0.330 C 
ATOM     25  H   UNL A   1      37.112  20.500  26.278  1.00  0.00     0.346 HD
ATOM     26  H   UNL A   1      36.787  20.751  24.648  1.00  0.00     0.346 HD
ENDBRANCH  22  23
ENDBRANCH  17  22
ENDBRANCH   9  16
ENDBRANCH   6   8
ENDBRANCH   5   6
ENDBRANCH   4   5
ENDBRANCH   3   4
ENDBRANCH   2   3
ENDBRANCH   1   2
BRANCH   1  27
ATOM     27  C   UNL A   1      32.829  28.844  27.364  1.00  0.00     0.188 C 
BRANCH  27  28
ATOM     28  O   UNL A   1      32.507  30.217  27.319  1.00  0.00    -0.376 OA
BRANCH  28  29
ATOM     29  C   UNL A   1      33.493  31.193  27.603  1.00  0.00     0.202 C 
BRANCH  29  30
ATOM     30  C   UNL A   1      33.356  32.684  27.255  1.00  0.00     0.261 C 
BRANCH  30  31
ATOM     31  O   UNL A   1      32.484  33.466  28.074  1.00  0.00    -0.460 OA
BRANCH  31  32
ATOM     32  C   UNL A   1      33.030  34.603  28.572  1.00  0.00     0.338 C 
ATOM     33  O   UNL A   1      32.594  35.738  28.475  1.00  0.00    -0.246 OA
BRANCH  32  34
ATOM     34  C   UNL A   1      34.172  34.250  29.434  1.00  0.00     0.060 A 
ATOM     35  C   UNL A   1      35.464  34.589  29.007  1.00  0.00     0.016 A 
ATOM     36  C   UNL A   1      33.974  33.550  30.624  1.00  0.00     0.016 A 
ATOM     37  C   UNL A   1      36.569  34.209  29.765  1.00  0.00     0.010 A 
ATOM     38  C   UNL A   1      35.085  33.151  31.371  1.00  0.00     0.010 A 
ATOM     39  C   UNL A   1      36.387  33.453  30.930  1.00  0.00    -0.014 A 
BRANCH  39  40
ATOM     40  C   UNL A   1      37.556  32.832  31.594  1.00  0.00     0.031 A 
ATOM     41  C   UNL A   1      38.344  31.795  30.842  1.00  0.00     0.074 A 
ATOM     42  C   UNL A   1      37.905  33.173  32.848  1.00  0.00     0.049 A 
ATOM     43  N   UNL A   1      39.368  31.085  31.238  1.00  0.00    -0.248 NA
ATOM     44  C   UNL A   1      37.919  31.521  29.459  1.00  0.00     0.031 C 
ATOM     45  C   UNL A   1      37.225  34.168  33.673  1.00  0.00     0.029 A 
ATOM     46  N   UNL A   1      38.906  32.692  33.653  1.00  0.00    -0.354 N 
ATOM     47  C   UNL A   1      39.687  30.257  30.169  1.00  0.00     0.074 A 
ATOM     48  C   UNL A   1      38.746  30.548  29.110  1.00  0.00     0.031 C 
ATOM     49  C   UNL A   1      37.808  34.199  34.884  1.00  0.00     0.029 A 
ATOM     50  C   UNL A   1      38.883  33.208  34.927  1.00  0.00     0.049 A 
ATOM     51  H   UNL A   1      39.578  32.038  33.348  1.00  0.00     0.167 HD
ATOM     52  C   UNL A   1      40.682  29.343  30.073  1.00  0.00     0.034 A 
ATOM     53  C   UNL A   1      39.623  32.893  36.008  1.00  0.00     0.034 A 
ATOM     54  C   UNL A   1      41.622  29.062  31.123  1.00  0.00     0.049 A 
ATOM     55  C   UNL A   1      40.704  31.848  35.885  1.00  0.00     0.074 A 
ATOM     56  C   UNL A   1      42.693  28.188  31.105  1.00  0.00     0.029 A 
ATOM     57  N   UNL A   1      41.593  29.635  32.385  1.00  0.00    -0.354 N 
ATOM     58  N   UNL A   1      41.071  31.159  34.832  1.00  0.00    -0.248 NA
ATOM     59  C   UNL A   1      41.493  31.563  37.092  1.00  0.00     0.031 C 
ATOM     60  C   UNL A   1      43.293  28.206  32.369  1.00  0.00     0.029 A 
ATOM     61  C   UNL A   1      42.620  29.123  33.159  1.00  0.00     0.049 A 
ATOM     62  H   UNL A   1      40.939  30.306  32.685  1.00  0.00     0.167 HD
ATOM     63  C   UNL A   1      42.159  30.390  35.238  1.00  0.00     0.074 A 
ATOM     64  C   UNL A   1      42.400  30.713  36.629  1.00  0.00     0.031 C 
ATOM     65  C   UNL A   1      42.885  29.493  34.527  1.00  0.00     0.034 A 
BRANCH  52  66
ATOM     66  C   UNL A   1      40.812  28.587  28.777  1.00  0.00     0.023 A 
ATOM     67  C   UNL A   1      41.393  29.213  27.656  1.00  0.00     0.012 A 
ATOM     68  C   UNL A   1      40.406  27.242  28.685  1.00  0.00     0.148 A 
ATOM     69  C   UNL A   1      41.538  28.523  26.453  1.00  0.00     0.002 A 
ATOM     70  C   UNL A   1      40.596  26.545  27.498  1.00  0.00     0.091 A 
ATOM     71  F   UNL A   1      39.834  26.672  29.755  1.00  0.00    -0.205 F 
ATOM     72  C   UNL A   1      41.151  27.188  26.378  1.00  0.00     0.022 A 
BRANCH  70  73
ATOM     73  S   UNL A   1      40.205  24.801  27.324  1.00  0.00     0.127 S 
ATOM     74  O   UNL A   1      38.750  24.810  27.473  1.00  0.00    -0.237 OA
ATOM     75  O   UNL A   1      40.676  24.515  25.968  1.00  0.00    -0.237 OA
ATOM     76  O   UNL A   1      40.937  24.118  28.380  1.00  0.00    -0.744 OA
ENDBRANCH  70  73
ENDBRANCH  52  66
BRANCH  53  77
ATOM     77  C   UNL A   1      39.388  33.592  37.303  1.00  0.00     0.023 A 
ATOM     78  C   UNL A   1      39.931  34.875  37.510  1.00  0.00     0.012 A 
ATOM     79  C   UNL A   1      38.631  32.993  38.329  1.00  0.00     0.148 A 
ATOM     80  C   UNL A   1      39.752  35.536  38.727  1.00  0.00     0.002 A 
ATOM     81  C   UNL A   1      38.409  33.679  39.517  1.00  0.00     0.091 A 
ATOM     82  F   UNL A   1      38.137  31.764  38.118  1.00  0.00    -0.205 F 
ATOM     83  C   UNL A   1      38.985  34.942  39.725  1.00  0.00     0.022 A 
BRANCH  81  84
ATOM     84  S   UNL A   1      37.337  33.047  40.811  1.00  0.00     0.127 S 
ATOM     85  O   UNL A   1      37.450  34.088  41.829  1.00  0.00    -0.237 OA
ATOM     86  O   UNL A   1      36.044  32.992  40.127  1.00  0.00    -0.237 OA
ATOM     87  O   UNL A   1      37.881  31.746  41.174  1.00  0.00    -0.744 OA
ENDBRANCH  81  84
ENDBRANCH  53  77
BRANCH  65  88
ATOM     88  C   UNL A   1      44.050  28.826  35.213  1.00  0.00     0.023 A 
ATOM     89  C   UNL A   1      45.347  29.362  35.087  1.00  0.00     0.012 A 
ATOM     90  C   UNL A   1      43.843  27.711  36.050  1.00  0.00     0.148 A 
ATOM     91  C   UNL A   1      46.423  28.779  35.758  1.00  0.00     0.002 A 
ATOM     92  C   UNL A   1      44.909  27.168  36.756  1.00  0.00     0.091 A 
ATOM     93  F   UNL A   1      42.603  27.205  36.144  1.00  0.00    -0.205 F 
ATOM     94  C   UNL A   1      46.202  27.692  36.600  1.00  0.00     0.022 A 
BRANCH  92  95
ATOM     95  S   UNL A   1      44.703  25.832  37.939  1.00  0.00     0.127 S 
ATOM     96  O   UNL A   1      44.180  24.761  37.092  1.00  0.00    -0.237 OA
ATOM     97  O   UNL A   1      46.071  25.623  38.413  1.00  0.00    -0.237 OA
ATOM     98  O   UNL A   1      43.782  26.331  38.952  1.00  0.00    -0.744 OA
ENDBRANCH  92  95
ENDBRANCH  65  88
ENDBRANCH  39  40
ENDBRANCH  32  34
ENDBRANCH  31  32
ENDBRANCH  30  31
ENDBRANCH  29  30
ENDBRANCH  28  29
ENDBRANCH  27  28
ENDBRANCH   1  27
TORSDOF 23
ENDMDL
