MODEL 1
REMARK VINA RESULT:      -7.7      0.000      0.000
REMARK SMILES O=C(OCCOCCOCCOC(=O)c1ccc(S(=O)(=O)[O-])cc1N1C(=O)/C(=C\C=C\c2ccccc2)[NH+]=C1c1ccccc1)c1ccc(-c2c3nc(c(-c4cccc(S(=O)(=O)[O-])c4F)c4ccc([nH]4)c(-c4cccc(S(=O)(=O)[O-])c4F)c4nc(c(-c5cccc(S(=O)(=O)[O-])c5F)c5ccc2[nH]5)C=C4)C=C3)cc1
REMARK SMILES IDX 7 1 6 2 5 3 4 4 3 5 2 6 1 7 46 8 47 9 108 10 48 11 107 12
REMARK SMILES IDX 49 13 50 14 51 15 101 16 52 17 106 18 100 19 102 20 53 21
REMARK SMILES IDX 105 22 99 23 98 24 54 26 86 27 66 28 85 29 67 30 70 31 84 32
REMARK SMILES IDX 103 33 68 34 69 35 83 37 104 38 71 39 55 40 56 41 64 42
REMARK SMILES IDX 57 43 59 44 65 45 58 46 60 47 61 48 62 49 63 50 87 51 88 52
REMARK SMILES IDX 96 53 89 54 91 55 97 56 90 57 92 58 93 59 94 60 95 61 72 62
REMARK SMILES IDX 73 63 81 64 74 65 76 66 82 67 75 68 77 69 78 70 79 71 80 72
REMARK SMILES IDX 8 73 9 74 10 75 11 76 12 77 13 78 14 79 15 80 16 81 24 82
REMARK SMILES IDX 17 83 23 84 18 85 25 86 26 87 39 88 27 89 28 90 38 91 29 92
REMARK SMILES IDX 40 94 41 95 45 96 42 97 44 98 43 99 30 100 31 101 32 102
REMARK SMILES IDX 33 103 37 104 34 105 36 106 35 107 19 108 20 109 21 110
REMARK SMILES IDX 22 111
REMARK H PARENT 102 25 70 36 38 93
REMARK Flexibility Score: inf
ROOT
ATOM      1  C   UNL A   1      43.116  36.199  27.818  1.00  0.00     0.188 C 
ENDROOT
BRANCH   1   2
ATOM      2  O   UNL A   1      43.310  37.080  28.930  1.00  0.00    -0.376 OA
BRANCH   2   3
ATOM      3  C   UNL A   1      44.132  38.202  28.605  1.00  0.00     0.202 C 
BRANCH   3   4
ATOM      4  C   UNL A   1      44.322  39.181  29.779  1.00  0.00     0.261 C 
BRANCH   4   5
ATOM      5  O   UNL A   1      45.593  39.061  30.445  1.00  0.00    -0.460 OA
BRANCH   5   6
ATOM      6  C   UNL A   1      45.884  38.789  31.743  1.00  0.00     0.338 C 
ATOM      7  O   UNL A   1      47.040  38.998  32.116  1.00  0.00    -0.246 OA
BRANCH   6   8
ATOM      8  C   UNL A   1      44.916  38.245  32.756  1.00  0.00     0.060 A 
ATOM      9  C   UNL A   1      43.826  38.925  33.295  1.00  0.00     0.016 A 
ATOM     10  C   UNL A   1      45.101  36.907  33.166  1.00  0.00     0.016 A 
ATOM     11  C   UNL A   1      42.969  38.324  34.214  1.00  0.00     0.010 A 
ATOM     12  C   UNL A   1      44.236  36.292  34.087  1.00  0.00     0.010 A 
ATOM     13  C   UNL A   1      43.169  37.009  34.628  1.00  0.00    -0.014 A 
BRANCH  13  14
ATOM     14  C   UNL A   1      42.326  36.476  35.722  1.00  0.00     0.031 A 
ATOM     15  C   UNL A   1      41.284  35.465  35.382  1.00  0.00     0.074 A 
ATOM     16  C   UNL A   1      42.577  36.772  37.010  1.00  0.00     0.049 A 
ATOM     17  N   UNL A   1      40.542  34.761  36.190  1.00  0.00    -0.248 NA
ATOM     18  C   UNL A   1      41.092  35.163  33.954  1.00  0.00     0.031 C 
ATOM     19  C   UNL A   1      43.699  37.586  37.441  1.00  0.00     0.029 A 
ATOM     20  N   UNL A   1      41.980  36.379  38.187  1.00  0.00    -0.354 N 
ATOM     21  C   UNL A   1      39.747  33.979  35.371  1.00  0.00     0.074 A 
ATOM     22  C   UNL A   1      40.143  34.240  34.004  1.00  0.00     0.031 C 
ATOM     23  C   UNL A   1      43.734  37.589  38.781  1.00  0.00     0.029 A 
ATOM     24  C   UNL A   1      42.622  36.842  39.315  1.00  0.00     0.049 A 
ATOM     25  H   UNL A   1      41.170  35.820  38.219  1.00  0.00     0.167 HD
ATOM     26  C   UNL A   1      38.752  33.144  35.737  1.00  0.00     0.034 A 
ATOM     27  C   UNL A   1      42.385  36.675  40.632  1.00  0.00     0.034 A 
ATOM     28  C   UNL A   1      38.355  32.916  37.096  1.00  0.00     0.049 A 
ATOM     29  C   UNL A   1      41.202  35.831  40.982  1.00  0.00     0.074 A 
ATOM     30  C   UNL A   1      37.330  32.118  37.566  1.00  0.00     0.029 A 
ATOM     31  N   UNL A   1      38.938  33.518  38.202  1.00  0.00    -0.354 N 
ATOM     32  N   UNL A   1      40.513  35.036  40.204  1.00  0.00    -0.248 NA
ATOM     33  C   UNL A   1      40.759  35.855  42.382  1.00  0.00     0.031 C 
ATOM     34  C   UNL A   1      37.260  32.277  38.953  1.00  0.00     0.029 A 
ATOM     35  C   UNL A   1      38.262  33.148  39.350  1.00  0.00     0.049 A 
ATOM     36  H   UNL A   1      39.719  34.118  38.174  1.00  0.00     0.167 HD
ATOM     37  C   UNL A   1      39.556  34.458  41.017  1.00  0.00     0.074 A 
ATOM     38  C   UNL A   1      39.794  34.947  42.362  1.00  0.00     0.031 C 
ATOM     39  C   UNL A   1      38.547  33.625  40.675  1.00  0.00     0.034 A 
BRANCH  26  40
ATOM     40  C   UNL A   1      37.963  32.507  34.635  1.00  0.00     0.023 A 
ATOM     41  C   UNL A   1      38.295  31.223  34.165  1.00  0.00     0.012 A 
ATOM     42  C   UNL A   1      36.871  33.198  34.079  1.00  0.00     0.148 A 
ATOM     43  C   UNL A   1      37.552  30.639  33.139  1.00  0.00     0.002 A 
ATOM     44  C   UNL A   1      36.115  32.597  33.084  1.00  0.00     0.091 A 
ATOM     45  F   UNL A   1      36.604  34.433  34.527  1.00  0.00    -0.205 F 
ATOM     46  C   UNL A   1      36.458  31.322  32.606  1.00  0.00     0.022 A 
BRANCH  44  47
ATOM     47  S   UNL A   1      34.664  33.377  32.372  1.00  0.00     0.127 S 
ATOM     48  O   UNL A   1      34.357  32.470  31.265  1.00  0.00    -0.237 OA
ATOM     49  O   UNL A   1      33.718  33.324  33.486  1.00  0.00    -0.237 OA
ATOM     50  O   UNL A   1      35.075  34.715  31.976  1.00  0.00    -0.744 OA
ENDBRANCH  44  47
ENDBRANCH  26  40
BRANCH  27  51
ATOM     51  C   UNL A   1      43.258  37.242  41.718  1.00  0.00     0.023 A 
ATOM     52  C   UNL A   1      44.261  36.439  42.305  1.00  0.00     0.012 A 
ATOM     53  C   UNL A   1      43.110  38.548  42.209  1.00  0.00     0.148 A 
ATOM     54  C   UNL A   1      45.069  36.911  43.349  1.00  0.00     0.002 A 
ATOM     55  C   UNL A   1      43.941  39.023  43.228  1.00  0.00     0.091 A 
ATOM     56  F   UNL A   1      42.188  39.358  41.665  1.00  0.00    -0.205 F 
ATOM     57  C   UNL A   1      44.914  38.211  43.810  1.00  0.00     0.022 A 
BRANCH  55  58
ATOM     58  S   UNL A   1      43.823  40.748  43.683  1.00  0.00     0.127 S 
ATOM     59  O   UNL A   1      44.738  40.836  44.812  1.00  0.00    -0.237 OA
ATOM     60  O   UNL A   1      44.233  41.460  42.477  1.00  0.00    -0.237 OA
ATOM     61  O   UNL A   1      42.402  40.839  44.008  1.00  0.00    -0.744 OA
ENDBRANCH  55  58
ENDBRANCH  27  51
BRANCH  39  62
ATOM     62  C   UNL A   1      37.632  33.200  41.781  1.00  0.00     0.023 A 
ATOM     63  C   UNL A   1      36.370  33.810  41.909  1.00  0.00     0.012 A 
ATOM     64  C   UNL A   1      38.003  32.160  42.651  1.00  0.00     0.148 A 
ATOM     65  C   UNL A   1      35.493  33.405  42.910  1.00  0.00     0.002 A 
ATOM     66  C   UNL A   1      37.103  31.726  43.611  1.00  0.00     0.091 A 
ATOM     67  F   UNL A   1      39.224  31.621  42.520  1.00  0.00    -0.205 F 
ATOM     68  C   UNL A   1      35.853  32.354  43.751  1.00  0.00     0.022 A 
BRANCH  66  69
ATOM     69  S   UNL A   1      37.441  30.319  44.671  1.00  0.00     0.127 S 
ATOM     70  O   UNL A   1      38.468  30.858  45.561  1.00  0.00    -0.237 OA
ATOM     71  O   UNL A   1      36.142  30.089  45.301  1.00  0.00    -0.237 OA
ATOM     72  O   UNL A   1      37.884  29.247  43.788  1.00  0.00    -0.744 OA
ENDBRANCH  66  69
ENDBRANCH  39  62
ENDBRANCH  13  14
ENDBRANCH   6   8
ENDBRANCH   5   6
ENDBRANCH   4   5
ENDBRANCH   3   4
ENDBRANCH   2   3
ENDBRANCH   1   2
BRANCH   1  73
ATOM     73  C   UNL A   1      43.038  34.739  28.244  1.00  0.00     0.188 C 
BRANCH  73  74
ATOM     74  O   UNL A   1      43.932  33.947  27.467  1.00  0.00    -0.376 OA
BRANCH  74  75
ATOM     75  C   UNL A   1      44.611  32.945  28.231  1.00  0.00     0.202 C 
BRANCH  75  76
ATOM     76  C   UNL A   1      43.920  31.565  28.273  1.00  0.00     0.261 C 
BRANCH  76  77
ATOM     77  O   UNL A   1      43.085  31.261  29.407  1.00  0.00    -0.460 OA
BRANCH  77  78
ATOM     78  C   UNL A   1      43.288  30.064  29.994  1.00  0.00     0.342 C 
ATOM     79  O   UNL A   1      43.853  29.101  29.509  1.00  0.00    -0.246 OA
BRANCH  78  80
ATOM     80  C   UNL A   1      42.771  30.105  31.371  1.00  0.00     0.107 A 
ATOM     81  C   UNL A   1      43.719  30.296  32.384  1.00  0.00     0.021 A 
ATOM     82  C   UNL A   1      41.413  29.853  31.662  1.00  0.00     0.152 A 
ATOM     83  C   UNL A   1      43.334  30.218  33.714  1.00  0.00     0.020 A 
ATOM     84  C   UNL A   1      41.070  29.642  33.017  1.00  0.00     0.072 A 
ATOM     85  C   UNL A   1      42.019  29.868  34.042  1.00  0.00     0.059 A 
BRANCH  82  86
ATOM     86  N   UNL A   1      40.486  29.672  30.592  1.00  0.00    -0.153 N 
ATOM     87  C   UNL A   1      40.535  28.522  29.832  1.00  0.00     0.385 C 
ATOM     88  C   UNL A   1      39.808  30.604  29.833  1.00  0.00     0.295 C 
ATOM     89  O   UNL A   1      40.965  27.418  30.118  1.00  0.00    -0.236 OA
ATOM     90  C   UNL A   1      39.991  28.964  28.513  1.00  0.00     0.215 C 
ATOM     91  N   UNL A   1      39.450  30.211  28.642  1.00  0.00    -0.233 N 
ATOM     92  C   UNL A   1      40.161  28.398  27.312  1.00  0.00     0.060 C 
ATOM     93  H   UNL A   1      38.909  30.703  27.983  1.00  0.00     0.312 HD
BRANCH  88  94
ATOM     94  C   UNL A   1      39.428  31.973  30.198  1.00  0.00     0.065 A 
ATOM     95  C   UNL A   1      38.130  32.376  29.844  1.00  0.00     0.017 A 
ATOM     96  C   UNL A   1      40.394  32.937  30.492  1.00  0.00     0.017 A 
ATOM     97  C   UNL A   1      37.774  33.726  29.873  1.00  0.00     0.001 A 
ATOM     98  C   UNL A   1      40.029  34.291  30.514  1.00  0.00     0.001 A 
ATOM     99  C   UNL A   1      38.720  34.681  30.226  1.00  0.00     0.000 A 
ENDBRANCH  88  94
BRANCH  92 100
ATOM    100  C   UNL A   1      40.953  27.227  27.047  1.00  0.00     0.005 C 
ATOM    101  C   UNL A   1      40.470  26.113  26.478  1.00  0.00     0.008 C 
BRANCH 101 102
ATOM    102  C   UNL A   1      41.314  24.936  26.229  1.00  0.00    -0.026 A 
ATOM    103  C   UNL A   1      40.949  23.699  26.770  1.00  0.00     0.008 A 
ATOM    104  C   UNL A   1      42.507  25.027  25.495  1.00  0.00     0.008 A 
ATOM    105  C   UNL A   1      41.744  22.571  26.553  1.00  0.00     0.001 A 
ATOM    106  C   UNL A   1      43.297  23.901  25.274  1.00  0.00     0.001 A 
ATOM    107  C   UNL A   1      42.914  22.671  25.802  1.00  0.00     0.000 A 
ENDBRANCH 101 102
ENDBRANCH  92 100
ENDBRANCH  82  86
BRANCH  85 108
ATOM    108  S   UNL A   1      41.664  29.815  35.806  1.00  0.00     0.124 S 
ATOM    109  O   UNL A   1      41.863  31.171  36.290  1.00  0.00    -0.237 OA
ATOM    110  O   UNL A   1      40.370  29.187  35.948  1.00  0.00    -0.237 OA
ATOM    111  O   UNL A   1      42.753  28.911  36.547  1.00  0.00    -0.744 OA
ENDBRANCH  85 108
ENDBRANCH  78  80
ENDBRANCH  77  78
ENDBRANCH  76  77
ENDBRANCH  75  76
ENDBRANCH  74  75
ENDBRANCH  73  74
ENDBRANCH   1  73
TORSDOF 25
ENDMDL
MODEL 2
REMARK VINA RESULT:      -7.5      5.085      9.875
REMARK SMILES O=C(OCCOCCOCCOC(=O)c1ccc(S(=O)(=O)[O-])cc1N1C(=O)/C(=C\C=C\c2ccccc2)[NH+]=C1c1ccccc1)c1ccc(-c2c3nc(c(-c4cccc(S(=O)(=O)[O-])c4F)c4ccc([nH]4)c(-c4cccc(S(=O)(=O)[O-])c4F)c4nc(c(-c5cccc(S(=O)(=O)[O-])c5F)c5ccc2[nH]5)C=C4)C=C3)cc1
REMARK SMILES IDX 7 1 6 2 5 3 4 4 3 5 2 6 1 7 46 8 47 9 108 10 48 11 107 12
REMARK SMILES IDX 49 13 50 14 51 15 101 16 52 17 106 18 100 19 102 20 53 21
REMARK SMILES IDX 105 22 99 23 98 24 54 26 86 27 66 28 85 29 67 30 70 31 84 32
REMARK SMILES IDX 103 33 68 34 69 35 83 37 104 38 71 39 55 40 56 41 64 42
REMARK SMILES IDX 57 43 59 44 65 45 58 46 60 47 61 48 62 49 63 50 87 51 88 52
REMARK SMILES IDX 96 53 89 54 91 55 97 56 90 57 92 58 93 59 94 60 95 61 72 62
REMARK SMILES IDX 73 63 81 64 74 65 76 66 82 67 75 68 77 69 78 70 79 71 80 72
REMARK SMILES IDX 8 73 9 74 10 75 11 76 12 77 13 78 14 79 15 80 16 81 24 82
REMARK SMILES IDX 17 83 23 84 18 85 25 86 26 87 39 88 27 89 28 90 38 91 29 92
REMARK SMILES IDX 40 94 41 95 45 96 42 97 44 98 43 99 30 100 31 101 32 102
REMARK SMILES IDX 33 103 37 104 34 105 36 106 35 107 19 108 20 109 21 110
REMARK SMILES IDX 22 111
REMARK H PARENT 102 25 70 36 38 93
REMARK Flexibility Score: inf
ROOT
ATOM      1  C   UNL A   1      38.115  29.383  29.103  1.00  0.00     0.188 C 
ENDROOT
BRANCH   1   2
ATOM      2  O   UNL A   1      37.896  30.789  29.266  1.00  0.00    -0.376 OA
BRANCH   2   3
ATOM      3  C   UNL A   1      36.551  31.096  29.637  1.00  0.00     0.202 C 
BRANCH   3   4
ATOM      4  C   UNL A   1      36.164  32.563  29.370  1.00  0.00     0.261 C 
BRANCH   4   5
ATOM      5  O   UNL A   1      35.358  33.155  30.407  1.00  0.00    -0.460 OA
BRANCH   5   6
ATOM      6  C   UNL A   1      35.267  32.857  31.728  1.00  0.00     0.338 C 
ATOM      7  O   UNL A   1      34.135  32.748  32.203  1.00  0.00    -0.246 OA
BRANCH   6   8
ATOM      8  C   UNL A   1      36.432  32.663  32.659  1.00  0.00     0.060 A 
ATOM      9  C   UNL A   1      36.800  31.466  33.270  1.00  0.00     0.016 A 
ATOM     10  C   UNL A   1      37.254  33.785  32.901  1.00  0.00     0.016 A 
ATOM     11  C   UNL A   1      37.915  31.382  34.101  1.00  0.00     0.010 A 
ATOM     12  C   UNL A   1      38.383  33.705  33.732  1.00  0.00     0.010 A 
ATOM     13  C   UNL A   1      38.710  32.498  34.350  1.00  0.00    -0.014 A 
BRANCH  13  14
ATOM     14  C   UNL A   1      39.784  32.389  35.364  1.00  0.00     0.031 A 
ATOM     15  C   UNL A   1      39.424  32.583  36.798  1.00  0.00     0.074 A 
ATOM     16  C   UNL A   1      41.023  31.981  35.034  1.00  0.00     0.049 A 
ATOM     17  N   UNL A   1      40.162  32.388  37.854  1.00  0.00    -0.248 NA
ATOM     18  C   UNL A   1      38.039  32.991  37.086  1.00  0.00     0.031 C 
ATOM     19  C   UNL A   1      41.402  31.575  33.692  1.00  0.00     0.029 A 
ATOM     20  N   UNL A   1      42.159  31.763  35.781  1.00  0.00    -0.354 N 
ATOM     21  C   UNL A   1      39.357  32.712  38.931  1.00  0.00     0.074 A 
ATOM     22  C   UNL A   1      38.050  33.050  38.410  1.00  0.00     0.031 C 
ATOM     23  C   UNL A   1      42.660  31.114  33.726  1.00  0.00     0.029 A 
ATOM     24  C   UNL A   1      43.207  31.240  35.054  1.00  0.00     0.049 A 
ATOM     25  H   UNL A   1      42.216  31.961  36.743  1.00  0.00     0.167 HD
ATOM     26  C   UNL A   1      39.698  32.756  40.235  1.00  0.00     0.034 A 
ATOM     27  C   UNL A   1      44.457  30.868  35.396  1.00  0.00     0.034 A 
ATOM     28  C   UNL A   1      41.006  32.443  40.734  1.00  0.00     0.049 A 
ATOM     29  C   UNL A   1      44.821  31.041  36.836  1.00  0.00     0.074 A 
ATOM     30  C   UNL A   1      41.462  32.496  42.037  1.00  0.00     0.029 A 
ATOM     31  N   UNL A   1      42.081  32.057  39.945  1.00  0.00    -0.354 N 
ATOM     32  N   UNL A   1      44.028  31.271  37.852  1.00  0.00    -0.248 NA
ATOM     33  C   UNL A   1      46.241  30.908  37.184  1.00  0.00     0.031 C 
ATOM     34  C   UNL A   1      42.826  32.192  42.031  1.00  0.00     0.029 A 
ATOM     35  C   UNL A   1      43.213  31.919  40.728  1.00  0.00     0.049 A 
ATOM     36  H   UNL A   1      42.044  31.904  38.973  1.00  0.00     0.167 HD
ATOM     37  C   UNL A   1      44.849  31.304  38.963  1.00  0.00     0.074 A 
ATOM     38  C   UNL A   1      46.193  31.010  38.504  1.00  0.00     0.031 C 
ATOM     39  C   UNL A   1      44.526  31.589  40.245  1.00  0.00     0.034 A 
BRANCH  26  40
ATOM     40  C   UNL A   1      38.662  33.261  41.191  1.00  0.00     0.023 A 
ATOM     41  C   UNL A   1      38.672  34.602  41.617  1.00  0.00     0.012 A 
ATOM     42  C   UNL A   1      37.664  32.384  41.654  1.00  0.00     0.148 A 
ATOM     43  C   UNL A   1      37.700  35.061  42.507  1.00  0.00     0.002 A 
ATOM     44  C   UNL A   1      36.682  32.856  42.512  1.00  0.00     0.091 A 
ATOM     45  F   UNL A   1      37.706  31.105  41.255  1.00  0.00    -0.205 F 
ATOM     46  C   UNL A   1      36.702  34.191  42.946  1.00  0.00     0.022 A 
BRANCH  44  47
ATOM     47  S   UNL A   1      35.331  31.826  43.091  1.00  0.00     0.127 S 
ATOM     48  O   UNL A   1      36.029  30.905  43.989  1.00  0.00    -0.237 OA
ATOM     49  O   UNL A   1      34.475  32.803  43.763  1.00  0.00    -0.237 OA
ATOM     50  O   UNL A   1      34.752  31.211  41.906  1.00  0.00    -0.744 OA
ENDBRANCH  44  47
ENDBRANCH  26  40
BRANCH  27  51
ATOM     51  C   UNL A   1      45.444  30.265  34.434  1.00  0.00     0.023 A 
ATOM     52  C   UNL A   1      46.061  31.079  33.459  1.00  0.00     0.012 A 
ATOM     53  C   UNL A   1      45.771  28.900  34.434  1.00  0.00     0.148 A 
ATOM     54  C   UNL A   1      46.953  30.553  32.514  1.00  0.00     0.002 A 
ATOM     55  C   UNL A   1      46.686  28.388  33.510  1.00  0.00     0.091 A 
ATOM     56  F   UNL A   1      45.229  28.091  35.359  1.00  0.00    -0.205 F 
ATOM     57  C   UNL A   1      47.273  29.202  32.542  1.00  0.00     0.022 A 
BRANCH  55  58
ATOM     58  S   UNL A   1      47.197  26.683  33.677  1.00  0.00     0.127 S 
ATOM     59  O   UNL A   1      48.079  26.508  32.533  1.00  0.00    -0.237 OA
ATOM     60  O   UNL A   1      47.838  26.634  34.987  1.00  0.00    -0.237 OA
ATOM     61  O   UNL A   1      45.903  26.010  33.592  1.00  0.00    -0.744 OA
ENDBRANCH  55  58
ENDBRANCH  27  51
BRANCH  39  62
ATOM     62  C   UNL A   1      45.653  31.595  41.230  1.00  0.00     0.023 A 
ATOM     63  C   UNL A   1      46.383  32.780  41.439  1.00  0.00     0.012 A 
ATOM     64  C   UNL A   1      45.945  30.446  41.983  1.00  0.00     0.148 A 
ATOM     65  C   UNL A   1      47.412  32.814  42.375  1.00  0.00     0.002 A 
ATOM     66  C   UNL A   1      46.936  30.502  42.950  1.00  0.00     0.091 A 
ATOM     67  F   UNL A   1      45.249  29.326  41.737  1.00  0.00    -0.205 F 
ATOM     68  C   UNL A   1      47.679  31.680  43.140  1.00  0.00     0.022 A 
BRANCH  66  69
ATOM     69  S   UNL A   1      47.281  29.125  44.047  1.00  0.00     0.127 S 
ATOM     70  O   UNL A   1      47.541  28.047  43.095  1.00  0.00    -0.237 OA
ATOM     71  O   UNL A   1      48.458  29.599  44.773  1.00  0.00    -0.237 OA
ATOM     72  O   UNL A   1      46.089  28.956  44.868  1.00  0.00    -0.744 OA
ENDBRANCH  66  69
ENDBRANCH  39  62
ENDBRANCH  13  14
ENDBRANCH   6   8
ENDBRANCH   5   6
ENDBRANCH   4   5
ENDBRANCH   3   4
ENDBRANCH   2   3
ENDBRANCH   1   2
BRANCH   1  73
ATOM     73  C   UNL A   1      39.164  29.082  28.041  1.00  0.00     0.188 C 
BRANCH  73  74
ATOM     74  O   UNL A   1      39.960  27.966  28.431  1.00  0.00    -0.376 OA
BRANCH  74  75
ATOM     75  C   UNL A   1      40.488  27.230  27.322  1.00  0.00     0.202 C 
BRANCH  75  76
ATOM     76  C   UNL A   1      42.028  27.173  27.240  1.00  0.00     0.261 C 
BRANCH  76  77
ATOM     77  O   UNL A   1      42.641  25.913  26.904  1.00  0.00    -0.460 OA
BRANCH  77  78
ATOM     78  C   UNL A   1      43.787  25.977  26.197  1.00  0.00     0.342 C 
ATOM     79  O   UNL A   1      44.422  26.980  25.927  1.00  0.00    -0.246 OA
BRANCH  78  80
ATOM     80  C   UNL A   1      44.213  24.615  25.840  1.00  0.00     0.107 A 
ATOM     81  C   UNL A   1      43.445  23.959  24.870  1.00  0.00     0.021 A 
ATOM     82  C   UNL A   1      45.267  23.964  26.518  1.00  0.00     0.152 A 
ATOM     83  C   UNL A   1      43.699  22.629  24.570  1.00  0.00     0.020 A 
ATOM     84  C   UNL A   1      45.418  22.576  26.296  1.00  0.00     0.072 A 
ATOM     85  C   UNL A   1      44.666  21.922  25.293  1.00  0.00     0.059 A 
BRANCH  82  86
ATOM     86  N   UNL A   1      46.024  24.679  27.493  1.00  0.00    -0.153 N 
ATOM     87  C   UNL A   1      45.457  24.977  28.715  1.00  0.00     0.385 C 
ATOM     88  C   UNL A   1      47.078  25.557  27.336  1.00  0.00     0.295 C 
ATOM     89  O   UNL A   1      44.552  24.419  29.310  1.00  0.00    -0.236 OA
ATOM     90  C   UNL A   1      46.175  26.220  29.127  1.00  0.00     0.215 C 
ATOM     91  N   UNL A   1      47.236  26.428  28.294  1.00  0.00    -0.233 N 
ATOM     92  C   UNL A   1      45.786  27.152  30.007  1.00  0.00     0.060 C 
ATOM     93  H   UNL A   1      47.960  27.088  28.393  1.00  0.00     0.312 HD
BRANCH  88  94
ATOM     94  C   UNL A   1      48.048  25.627  26.239  1.00  0.00     0.065 A 
ATOM     95  C   UNL A   1      49.405  25.620  26.604  1.00  0.00     0.017 A 
ATOM     96  C   UNL A   1      47.676  26.082  24.972  1.00  0.00     0.017 A 
ATOM     97  C   UNL A   1      50.389  25.977  25.680  1.00  0.00     0.001 A 
ATOM     98  C   UNL A   1      48.672  26.444  24.053  1.00  0.00     0.001 A 
ATOM     99  C   UNL A   1      50.022  26.372  24.399  1.00  0.00     0.000 A 
ENDBRANCH  88  94
BRANCH  92 100
ATOM    100  C   UNL A   1      44.543  27.148  30.730  1.00  0.00     0.005 C 
ATOM    101  C   UNL A   1      43.906  28.260  31.125  1.00  0.00     0.008 C 
BRANCH 101 102
ATOM    102  C   UNL A   1      42.639  28.210  31.867  1.00  0.00    -0.026 A 
ATOM    103  C   UNL A   1      42.618  27.684  33.163  1.00  0.00     0.008 A 
ATOM    104  C   UNL A   1      41.432  28.640  31.294  1.00  0.00     0.008 A 
ATOM    105  C   UNL A   1      41.421  27.618  33.881  1.00  0.00     0.001 A 
ATOM    106  C   UNL A   1      40.239  28.580  32.011  1.00  0.00     0.001 A 
ATOM    107  C   UNL A   1      40.234  28.071  33.307  1.00  0.00     0.000 A 
ENDBRANCH 101 102
ENDBRANCH  92 100
ENDBRANCH  82  86
BRANCH  85 108
ATOM    108  S   UNL A   1      44.891  20.209  24.787  1.00  0.00     0.124 S 
ATOM    109  O   UNL A   1      44.144  19.412  25.745  1.00  0.00    -0.237 OA
ATOM    110  O   UNL A   1      44.552  20.145  23.383  1.00  0.00    -0.237 OA
ATOM    111  O   UNL A   1      46.424  19.795  24.959  1.00  0.00    -0.744 OA
ENDBRANCH  85 108
ENDBRANCH  78  80
ENDBRANCH  77  78
ENDBRANCH  76  77
ENDBRANCH  75  76
ENDBRANCH  74  75
ENDBRANCH  73  74
ENDBRANCH   1  73
TORSDOF 25
ENDMDL
MODEL 3
REMARK VINA RESULT:      -7.4      6.567     11.410
REMARK SMILES O=C(OCCOCCOCCOC(=O)c1ccc(S(=O)(=O)[O-])cc1N1C(=O)/C(=C\C=C\c2ccccc2)[NH+]=C1c1ccccc1)c1ccc(-c2c3nc(c(-c4cccc(S(=O)(=O)[O-])c4F)c4ccc([nH]4)c(-c4cccc(S(=O)(=O)[O-])c4F)c4nc(c(-c5cccc(S(=O)(=O)[O-])c5F)c5ccc2[nH]5)C=C4)C=C3)cc1
REMARK SMILES IDX 7 1 6 2 5 3 4 4 3 5 2 6 1 7 46 8 47 9 108 10 48 11 107 12
REMARK SMILES IDX 49 13 50 14 51 15 101 16 52 17 106 18 100 19 102 20 53 21
REMARK SMILES IDX 105 22 99 23 98 24 54 26 86 27 66 28 85 29 67 30 70 31 84 32
REMARK SMILES IDX 103 33 68 34 69 35 83 37 104 38 71 39 55 40 56 41 64 42
REMARK SMILES IDX 57 43 59 44 65 45 58 46 60 47 61 48 62 49 63 50 87 51 88 52
REMARK SMILES IDX 96 53 89 54 91 55 97 56 90 57 92 58 93 59 94 60 95 61 72 62
REMARK SMILES IDX 73 63 81 64 74 65 76 66 82 67 75 68 77 69 78 70 79 71 80 72
REMARK SMILES IDX 8 73 9 74 10 75 11 76 12 77 13 78 14 79 15 80 16 81 24 82
REMARK SMILES IDX 17 83 23 84 18 85 25 86 26 87 39 88 27 89 28 90 38 91 29 92
REMARK SMILES IDX 40 94 41 95 45 96 42 97 44 98 43 99 30 100 31 101 32 102
REMARK SMILES IDX 33 103 37 104 34 105 36 106 35 107 19 108 20 109 21 110
REMARK SMILES IDX 22 111
REMARK H PARENT 102 25 70 36 38 93
REMARK Flexibility Score: inf
ROOT
ATOM      1  C   UNL A   1      44.676  43.165  22.730  1.00  0.00     0.188 C 
ENDROOT
BRANCH   1   2
ATOM      2  O   UNL A   1      43.324  43.636  22.715  1.00  0.00    -0.376 OA
BRANCH   2   3
ATOM      3  C   UNL A   1      42.616  43.312  23.913  1.00  0.00     0.202 C 
BRANCH   3   4
ATOM      4  C   UNL A   1      42.311  41.809  24.054  1.00  0.00     0.261 C 
BRANCH   4   5
ATOM      5  O   UNL A   1      42.458  41.303  25.394  1.00  0.00    -0.460 OA
BRANCH   5   6
ATOM      6  C   UNL A   1      41.595  40.593  26.166  1.00  0.00     0.338 C 
ATOM      7  O   UNL A   1      40.474  41.071  26.341  1.00  0.00    -0.246 OA
BRANCH   6   8
ATOM      8  C   UNL A   1      41.902  39.280  26.831  1.00  0.00     0.060 A 
ATOM      9  C   UNL A   1      41.983  38.041  26.198  1.00  0.00     0.016 A 
ATOM     10  C   UNL A   1      42.177  39.311  28.215  1.00  0.00     0.016 A 
ATOM     11  C   UNL A   1      42.298  36.879  26.900  1.00  0.00     0.010 A 
ATOM     12  C   UNL A   1      42.502  38.145  28.928  1.00  0.00     0.010 A 
ATOM     13  C   UNL A   1      42.549  36.915  28.270  1.00  0.00    -0.014 A 
BRANCH  13  14
ATOM     14  C   UNL A   1      42.721  35.633  28.991  1.00  0.00     0.031 A 
ATOM     15  C   UNL A   1      41.498  34.866  29.368  1.00  0.00     0.074 A 
ATOM     16  C   UNL A   1      43.936  35.088  29.177  1.00  0.00     0.049 A 
ATOM     17  N   UNL A   1      41.415  33.664  29.864  1.00  0.00    -0.248 NA
ATOM     18  C   UNL A   1      40.201  35.509  29.098  1.00  0.00     0.031 C 
ATOM     19  C   UNL A   1      45.162  35.671  28.661  1.00  0.00     0.029 A 
ATOM     20  N   UNL A   1      44.348  33.914  29.765  1.00  0.00    -0.354 N 
ATOM     21  C   UNL A   1      40.062  33.427  30.029  1.00  0.00     0.074 A 
ATOM     22  C   UNL A   1      39.354  34.580  29.516  1.00  0.00     0.031 C 
ATOM     23  C   UNL A   1      46.173  34.828  28.913  1.00  0.00     0.029 A 
ATOM     24  C   UNL A   1      45.702  33.684  29.653  1.00  0.00     0.049 A 
ATOM     25  H   UNL A   1      43.733  33.297  30.222  1.00  0.00     0.167 HD
ATOM     26  C   UNL A   1      39.474  32.352  30.593  1.00  0.00     0.034 A 
ATOM     27  C   UNL A   1      46.491  32.668  30.060  1.00  0.00     0.034 A 
ATOM     28  C   UNL A   1      40.192  31.228  31.120  1.00  0.00     0.049 A 
ATOM     29  C   UNL A   1      45.803  31.553  30.779  1.00  0.00     0.074 A 
ATOM     30  C   UNL A   1      39.686  30.107  31.748  1.00  0.00     0.029 A 
ATOM     31  N   UNL A   1      41.574  31.101  31.117  1.00  0.00    -0.354 N 
ATOM     32  N   UNL A   1      44.520  31.305  30.856  1.00  0.00    -0.248 NA
ATOM     33  C   UNL A   1      46.659  30.578  31.469  1.00  0.00     0.031 C 
ATOM     34  C   UNL A   1      40.764  29.325  32.171  1.00  0.00     0.029 A 
ATOM     35  C   UNL A   1      41.941  29.943  31.778  1.00  0.00     0.049 A 
ATOM     36  H   UNL A   1      42.200  31.739  30.704  1.00  0.00     0.167 HD
ATOM     37  C   UNL A   1      44.410  30.143  31.596  1.00  0.00     0.074 A 
ATOM     38  C   UNL A   1      45.760  29.702  31.892  1.00  0.00     0.031 C 
ATOM     39  C   UNL A   1      43.291  29.516  32.024  1.00  0.00     0.034 A 
BRANCH  26  40
ATOM     40  C   UNL A   1      37.986  32.403  30.759  1.00  0.00     0.023 A 
ATOM     41  C   UNL A   1      37.138  31.789  29.819  1.00  0.00     0.012 A 
ATOM     42  C   UNL A   1      37.438  33.061  31.876  1.00  0.00     0.148 A 
ATOM     43  C   UNL A   1      35.754  31.843  29.985  1.00  0.00     0.002 A 
ATOM     44  C   UNL A   1      36.063  33.079  32.053  1.00  0.00     0.091 A 
ATOM     45  F   UNL A   1      38.274  33.664  32.732  1.00  0.00    -0.205 F 
ATOM     46  C   UNL A   1      35.218  32.478  31.105  1.00  0.00     0.022 A 
BRANCH  44  47
ATOM     47  S   UNL A   1      35.286  33.831  33.485  1.00  0.00     0.127 S 
ATOM     48  O   UNL A   1      33.871  33.556  33.229  1.00  0.00    -0.237 OA
ATOM     49  O   UNL A   1      35.869  33.060  34.582  1.00  0.00    -0.237 OA
ATOM     50  O   UNL A   1      35.656  35.238  33.456  1.00  0.00    -0.744 OA
ENDBRANCH  44  47
ENDBRANCH  26  40
BRANCH  27  51
ATOM     51  C   UNL A   1      47.969  32.595  29.786  1.00  0.00     0.023 A 
ATOM     52  C   UNL A   1      48.889  32.883  30.818  1.00  0.00     0.012 A 
ATOM     53  C   UNL A   1      48.494  32.274  28.525  1.00  0.00     0.148 A 
ATOM     54  C   UNL A   1      50.273  32.870  30.598  1.00  0.00     0.002 A 
ATOM     55  C   UNL A   1      49.876  32.231  28.321  1.00  0.00     0.091 A 
ATOM     56  F   UNL A   1      47.658  31.967  27.520  1.00  0.00    -0.205 F 
ATOM     57  C   UNL A   1      50.772  32.536  29.345  1.00  0.00     0.022 A 
BRANCH  55  58
ATOM     58  S   UNL A   1      50.483  31.642  26.746  1.00  0.00     0.127 S 
ATOM     59  O   UNL A   1      49.833  30.345  26.626  1.00  0.00    -0.237 OA
ATOM     60  O   UNL A   1      50.046  32.661  25.797  1.00  0.00    -0.237 OA
ATOM     61  O   UNL A   1      51.919  31.610  27.010  1.00  0.00    -0.744 OA
ENDBRANCH  55  58
ENDBRANCH  27  51
BRANCH  39  62
ATOM     62  C   UNL A   1      43.493  28.290  32.858  1.00  0.00     0.023 A 
ATOM     63  C   UNL A   1      43.582  27.032  32.231  1.00  0.00     0.012 A 
ATOM     64  C   UNL A   1      43.651  28.395  34.251  1.00  0.00     0.148 A 
ATOM     65  C   UNL A   1      43.804  25.885  32.987  1.00  0.00     0.002 A 
ATOM     66  C   UNL A   1      43.924  27.256  34.991  1.00  0.00     0.091 A 
ATOM     67  F   UNL A   1      43.531  29.604  34.818  1.00  0.00    -0.205 F 
ATOM     68  C   UNL A   1      43.989  25.999  34.364  1.00  0.00     0.022 A 
BRANCH  66  69
ATOM     69  S   UNL A   1      44.273  27.319  36.749  1.00  0.00     0.127 S 
ATOM     70  O   UNL A   1      44.461  25.904  37.064  1.00  0.00    -0.237 OA
ATOM     71  O   UNL A   1      45.492  28.124  36.791  1.00  0.00    -0.237 OA
ATOM     72  O   UNL A   1      43.111  27.944  37.367  1.00  0.00    -0.744 OA
ENDBRANCH  66  69
ENDBRANCH  39  62
ENDBRANCH  13  14
ENDBRANCH   6   8
ENDBRANCH   5   6
ENDBRANCH   4   5
ENDBRANCH   3   4
ENDBRANCH   2   3
ENDBRANCH   1   2
BRANCH   1  73
ATOM     73  C   UNL A   1      45.513  43.847  23.803  1.00  0.00     0.188 C 
BRANCH  73  74
ATOM     74  O   UNL A   1      45.838  42.926  24.841  1.00  0.00    -0.376 OA
BRANCH  74  75
ATOM     75  C   UNL A   1      46.196  41.628  24.355  1.00  0.00     0.202 C 
BRANCH  75  76
ATOM     76  C   UNL A   1      46.093  40.485  25.387  1.00  0.00     0.261 C 
BRANCH  76  77
ATOM     77  O   UNL A   1      47.198  39.566  25.491  1.00  0.00    -0.460 OA
BRANCH  77  78
ATOM     78  C   UNL A   1      47.203  38.759  26.571  1.00  0.00     0.342 C 
ATOM     79  O   UNL A   1      46.232  38.348  27.179  1.00  0.00    -0.246 OA
BRANCH  78  80
ATOM     80  C   UNL A   1      48.590  38.381  26.886  1.00  0.00     0.107 A 
ATOM     81  C   UNL A   1      49.283  37.678  25.893  1.00  0.00     0.021 A 
ATOM     82  C   UNL A   1      49.152  38.612  28.160  1.00  0.00     0.152 A 
ATOM     83  C   UNL A   1      50.547  37.172  26.157  1.00  0.00     0.020 A 
ATOM     84  C   UNL A   1      50.379  37.973  28.452  1.00  0.00     0.072 A 
ATOM     85  C   UNL A   1      51.094  37.293  27.439  1.00  0.00     0.059 A 
BRANCH  82  86
ATOM     86  N   UNL A   1      48.407  39.340  29.136  1.00  0.00    -0.153 N 
ATOM     87  C   UNL A   1      47.637  38.658  30.056  1.00  0.00     0.385 C 
ATOM     88  C   UNL A   1      47.912  40.628  29.102  1.00  0.00     0.295 C 
ATOM     89  O   UNL A   1      47.751  37.520  30.475  1.00  0.00    -0.236 OA
ATOM     90  C   UNL A   1      46.556  39.636  30.383  1.00  0.00     0.215 C 
ATOM     91  N   UNL A   1      46.875  40.855  29.859  1.00  0.00    -0.233 N 
ATOM     92  C   UNL A   1      45.345  39.393  30.899  1.00  0.00     0.060 C 
ATOM     93  H   UNL A   1      46.422  41.716  30.017  1.00  0.00     0.312 HD
BRANCH  88  94
ATOM     94  C   UNL A   1      48.410  41.774  28.335  1.00  0.00     0.065 A 
ATOM     95  C   UNL A   1      49.785  42.046  28.440  1.00  0.00     0.017 A 
ATOM     96  C   UNL A   1      47.544  42.766  27.871  1.00  0.00     0.017 A 
ATOM     97  C   UNL A   1      50.301  43.267  28.001  1.00  0.00     0.001 A 
ATOM     98  C   UNL A   1      48.071  43.991  27.438  1.00  0.00     0.001 A 
ATOM     99  C   UNL A   1      49.446  44.232  27.482  1.00  0.00     0.000 A 
ENDBRANCH  88  94
BRANCH  92 100
ATOM    100  C   UNL A   1      44.823  38.094  31.225  1.00  0.00     0.005 C 
ATOM    101  C   UNL A   1      44.955  37.516  32.428  1.00  0.00     0.008 C 
BRANCH 101 102
ATOM    102  C   UNL A   1      44.409  36.183  32.717  1.00  0.00    -0.026 A 
ATOM    103  C   UNL A   1      43.026  35.979  32.676  1.00  0.00     0.008 A 
ATOM    104  C   UNL A   1      45.239  35.109  33.077  1.00  0.00     0.008 A 
ATOM    105  C   UNL A   1      42.487  34.722  32.959  1.00  0.00     0.001 A 
ATOM    106  C   UNL A   1      44.703  33.853  33.353  1.00  0.00     0.001 A 
ATOM    107  C   UNL A   1      43.326  33.659  33.292  1.00  0.00     0.000 A 
ENDBRANCH 101 102
ENDBRANCH  92 100
ENDBRANCH  82  86
BRANCH  85 108
ATOM    108  S   UNL A   1      52.743  36.597  27.630  1.00  0.00     0.124 S 
ATOM    109  O   UNL A   1      53.392  36.759  26.340  1.00  0.00    -0.237 OA
ATOM    110  O   UNL A   1      53.319  37.216  28.803  1.00  0.00    -0.237 OA
ATOM    111  O   UNL A   1      52.637  35.024  27.885  1.00  0.00    -0.744 OA
ENDBRANCH  85 108
ENDBRANCH  78  80
ENDBRANCH  77  78
ENDBRANCH  76  77
ENDBRANCH  75  76
ENDBRANCH  74  75
ENDBRANCH  73  74
ENDBRANCH   1  73
TORSDOF 25
ENDMDL
