MODEL 1
REMARK VINA RESULT:     -10.6      0.000      0.000
REMARK SMILES CC1=C2C(=O)CC(C)(C)CC2=N[C@@H]1C(=O)OCCOCCOCCOC(=O)c1ccc(-c2c3nc(c(-c4cccc(S(=O)(=O)[O-])c4F)c4ccc([nH]4)c(-c4cccc(S(=O)(=O)[O-])c4F)c4nc(c(-c5cccc(S(=O)(=O)[O-])c5F)c5ccc2[nH]5)C=C4)C=C3)cc1
REMARK SMILES IDX 22 1 21 2 20 3 19 4 18 5 17 6 16 7 14 8 15 9 13 10 1 11 2 12
REMARK SMILES IDX 3 13 4 14 11 15 12 16 5 17 6 18 10 19 7 20 8 21 9 22 23 23
REMARK SMILES IDX 24 24 25 25 26 26 27 27 28 28 29 29 90 30 30 31 89 32 31 33
REMARK SMILES IDX 32 34 33 35 83 36 34 37 88 38 82 39 84 40 35 41 87 42 81 43
REMARK SMILES IDX 80 44 36 46 68 47 48 48 67 49 49 50 52 51 66 52 85 53 50 54
REMARK SMILES IDX 51 55 65 57 86 58 53 59 37 60 38 61 46 62 39 63 41 64 47 65
REMARK SMILES IDX 40 66 42 67 43 68 44 69 45 70 69 71 70 72 78 73 71 74 73 75
REMARK SMILES IDX 79 76 72 77 74 78 75 79 76 80 77 81 54 82 55 83 63 84 56 85
REMARK SMILES IDX 58 86 64 87 57 88 59 89 60 90 61 91 62 92
REMARK H PARENT 84 45 52 56
REMARK Flexibility Score: inf
ROOT
ATOM      1  O   UNL A   1      37.028  23.694  26.058  1.00  0.00    -0.376 OA
ENDROOT
BRANCH   1   2
ATOM      2  C   UNL A   1      35.922  24.304  25.421  1.00  0.00     0.188 C 
BRANCH   2   3
ATOM      3  C   UNL A   1      34.551  23.659  25.725  1.00  0.00     0.188 C 
BRANCH   3   4
ATOM      4  O   UNL A   1      33.988  22.762  24.776  1.00  0.00    -0.376 OA
BRANCH   4   5
ATOM      5  C   UNL A   1      33.241  21.653  25.269  1.00  0.00     0.202 C 
BRANCH   5   6
ATOM      6  C   UNL A   1      31.784  21.892  25.717  1.00  0.00     0.261 C 
BRANCH   6   7
ATOM      7  O   UNL A   1      31.163  23.067  25.147  1.00  0.00    -0.461 OA
BRANCH   7   8
ATOM      8  C   UNL A   1      30.502  23.862  26.021  1.00  0.00     0.335 C 
ATOM      9  O   UNL A   1      30.207  23.501  27.160  1.00  0.00    -0.249 OA
BRANCH   8  10
ATOM     10  C   UNL A   1      30.313  25.343  25.551  1.00  0.00     0.242 C 
ATOM     11  C   UNL A   1      31.396  25.614  23.117  1.00  0.00     0.043 C 
ATOM     12  C   UNL A   1      30.995  26.138  24.450  1.00  0.00    -0.025 C 
ATOM     13  C   UNL A   1      31.133  27.414  24.842  1.00  0.00     0.040 C 
ATOM     14  C   UNL A   1      31.534  28.699  24.221  1.00  0.00     0.165 C 
ATOM     15  C   UNL A   1      31.156  27.229  26.287  1.00  0.00     0.048 C 
ATOM     16  N   UNL A   1      30.590  26.168  26.777  1.00  0.00    -0.269 NA
ATOM     17  O   UNL A   1      31.239  28.962  23.058  1.00  0.00    -0.294 OA
ATOM     18  C   UNL A   1      32.220  29.710  25.140  1.00  0.00     0.088 C 
ATOM     19  C   UNL A   1      31.959  28.181  27.125  1.00  0.00     0.063 C 
ATOM     20  C   UNL A   1      32.978  28.982  26.270  1.00  0.00    -0.023 C 
ATOM     21  C   UNL A   1      34.067  28.103  25.624  1.00  0.00     0.012 C 
ATOM     22  C   UNL A   1      33.716  29.960  27.200  1.00  0.00     0.012 C 
ENDBRANCH   8  10
ENDBRANCH   7   8
ENDBRANCH   6   7
ENDBRANCH   5   6
ENDBRANCH   4   5
ENDBRANCH   3   4
ENDBRANCH   2   3
ENDBRANCH   1   2
BRANCH   1  23
ATOM     23  C   UNL A   1      37.994  22.968  25.320  1.00  0.00     0.202 C 
BRANCH  23  24
ATOM     24  C   UNL A   1      38.013  21.438  25.331  1.00  0.00     0.261 C 
BRANCH  24  25
ATOM     25  O   UNL A   1      38.700  20.842  26.415  1.00  0.00    -0.460 OA
BRANCH  25  26
ATOM     26  C   UNL A   1      39.767  20.150  26.021  1.00  0.00     0.338 C 
ATOM     27  O   UNL A   1      39.772  19.107  25.337  1.00  0.00    -0.246 OA
BRANCH  26  28
ATOM     28  C   UNL A   1      40.975  20.768  26.512  1.00  0.00     0.060 A 
ATOM     29  C   UNL A   1      41.123  20.771  27.899  1.00  0.00     0.016 A 
ATOM     30  C   UNL A   1      41.612  21.685  25.670  1.00  0.00     0.016 A 
ATOM     31  C   UNL A   1      41.676  21.871  28.479  1.00  0.00     0.010 A 
ATOM     32  C   UNL A   1      42.163  22.795  26.254  1.00  0.00     0.010 A 
ATOM     33  C   UNL A   1      42.066  22.920  27.642  1.00  0.00    -0.014 A 
BRANCH  33  34
ATOM     34  C   UNL A   1      42.355  24.171  28.304  1.00  0.00     0.031 A 
ATOM     35  C   UNL A   1      41.350  25.221  28.023  1.00  0.00     0.074 A 
ATOM     36  C   UNL A   1      43.418  24.273  29.125  1.00  0.00     0.049 A 
ATOM     37  N   UNL A   1      41.537  26.426  27.595  1.00  0.00    -0.248 NA
ATOM     38  C   UNL A   1      39.937  24.799  28.059  1.00  0.00     0.031 C 
ATOM     39  C   UNL A   1      44.291  23.187  29.588  1.00  0.00     0.029 A 
ATOM     40  N   UNL A   1      43.807  25.333  29.882  1.00  0.00    -0.354 N 
ATOM     41  C   UNL A   1      40.261  26.981  27.539  1.00  0.00     0.074 A 
ATOM     42  C   UNL A   1      39.323  25.897  27.629  1.00  0.00     0.031 C 
ATOM     43  C   UNL A   1      44.853  23.558  30.758  1.00  0.00     0.029 A 
ATOM     44  C   UNL A   1      44.467  24.930  31.038  1.00  0.00     0.049 A 
ATOM     45  H   UNL A   1      43.642  26.273  29.642  1.00  0.00     0.167 HD
ATOM     46  C   UNL A   1      40.056  28.310  27.724  1.00  0.00     0.034 A 
ATOM     47  C   UNL A   1      44.535  25.622  32.198  1.00  0.00     0.034 A 
ATOM     48  C   UNL A   1      41.228  29.086  27.435  1.00  0.00     0.049 A 
ATOM     49  C   UNL A   1      44.176  27.030  31.906  1.00  0.00     0.074 A 
ATOM     50  C   UNL A   1      42.024  29.267  26.323  1.00  0.00     0.029 A 
ATOM     51  N   UNL A   1      41.938  29.577  28.501  1.00  0.00    -0.354 N 
ATOM     52  N   UNL A   1      44.902  27.832  31.177  1.00  0.00    -0.248 NA
ATOM     53  C   UNL A   1      42.794  27.441  32.096  1.00  0.00     0.031 C 
ATOM     54  C   UNL A   1      43.340  29.454  26.834  1.00  0.00     0.029 A 
ATOM     55  C   UNL A   1      43.267  29.397  28.229  1.00  0.00     0.049 A 
ATOM     56  H   UNL A   1      41.561  29.985  29.314  1.00  0.00     0.167 HD
ATOM     57  C   UNL A   1      43.982  28.602  30.477  1.00  0.00     0.074 A 
ATOM     58  C   UNL A   1      42.716  28.408  31.179  1.00  0.00     0.031 C 
ATOM     59  C   UNL A   1      44.265  29.084  29.230  1.00  0.00     0.034 A 
BRANCH  46  60
ATOM     60  C   UNL A   1      38.902  28.847  28.534  1.00  0.00     0.023 A 
ATOM     61  C   UNL A   1      37.973  29.674  27.874  1.00  0.00     0.012 A 
ATOM     62  C   UNL A   1      38.838  28.808  29.948  1.00  0.00     0.148 A 
ATOM     63  C   UNL A   1      37.054  30.452  28.588  1.00  0.00     0.002 A 
ATOM     64  C   UNL A   1      37.864  29.508  30.646  1.00  0.00     0.091 A 
ATOM     65  F   UNL A   1      39.801  28.210  30.657  1.00  0.00    -0.205 F 
ATOM     66  C   UNL A   1      36.989  30.360  29.974  1.00  0.00     0.022 A 
BRANCH  64  67
ATOM     67  S   UNL A   1      37.720  29.349  32.430  1.00  0.00     0.127 S 
ATOM     68  O   UNL A   1      37.674  27.900  32.593  1.00  0.00    -0.237 OA
ATOM     69  O   UNL A   1      38.953  29.988  32.893  1.00  0.00    -0.237 OA
ATOM     70  O   UNL A   1      36.508  30.083  32.778  1.00  0.00    -0.744 OA
ENDBRANCH  64  67
ENDBRANCH  46  60
BRANCH  47  71
ATOM     71  C   UNL A   1      44.582  25.079  33.575  1.00  0.00     0.023 A 
ATOM     72  C   UNL A   1      43.381  24.746  34.225  1.00  0.00     0.012 A 
ATOM     73  C   UNL A   1      45.800  24.683  34.176  1.00  0.00     0.148 A 
ATOM     74  C   UNL A   1      43.390  24.035  35.431  1.00  0.00     0.002 A 
ATOM     75  C   UNL A   1      45.805  24.001  35.389  1.00  0.00     0.091 A 
ATOM     76  F   UNL A   1      46.950  24.892  33.519  1.00  0.00    -0.205 F 
ATOM     77  C   UNL A   1      44.600  23.665  36.014  1.00  0.00     0.022 A 
BRANCH  75  78
ATOM     78  S   UNL A   1      47.334  23.515  36.203  1.00  0.00     0.127 S 
ATOM     79  O   UNL A   1      46.844  22.962  37.467  1.00  0.00    -0.237 OA
ATOM     80  O   UNL A   1      47.873  22.528  35.273  1.00  0.00    -0.237 OA
ATOM     81  O   UNL A   1      48.109  24.742  36.352  1.00  0.00    -0.744 OA
ENDBRANCH  75  78
ENDBRANCH  47  71
BRANCH  59  82
ATOM     82  C   UNL A   1      45.687  28.990  28.734  1.00  0.00     0.023 A 
ATOM     83  C   UNL A   1      46.652  29.964  29.066  1.00  0.00     0.012 A 
ATOM     84  C   UNL A   1      46.108  27.806  28.103  1.00  0.00     0.148 A 
ATOM     85  C   UNL A   1      48.000  29.773  28.754  1.00  0.00     0.002 A 
ATOM     86  C   UNL A   1      47.457  27.600  27.838  1.00  0.00     0.091 A 
ATOM     87  F   UNL A   1      45.182  26.883  27.801  1.00  0.00    -0.205 F 
ATOM     88  C   UNL A   1      48.406  28.585  28.153  1.00  0.00     0.022 A 
BRANCH  86  89
ATOM     89  S   UNL A   1      48.055  26.031  27.201  1.00  0.00     0.127 S 
ATOM     90  O   UNL A   1      49.493  26.266  27.107  1.00  0.00    -0.237 OA
ATOM     91  O   UNL A   1      47.657  25.089  28.250  1.00  0.00    -0.237 OA
ATOM     92  O   UNL A   1      47.362  25.830  25.934  1.00  0.00    -0.744 OA
ENDBRANCH  86  89
ENDBRANCH  59  82
ENDBRANCH  33  34
ENDBRANCH  26  28
ENDBRANCH  25  26
ENDBRANCH  24  25
ENDBRANCH  23  24
ENDBRANCH   1  23
TORSDOF 20
ENDMDL
MODEL 2
REMARK VINA RESULT:     -10.1      3.885      5.114
REMARK SMILES CC1=C2C(=O)CC(C)(C)CC2=N[C@@H]1C(=O)OCCOCCOCCOC(=O)c1ccc(-c2c3nc(c(-c4cccc(S(=O)(=O)[O-])c4F)c4ccc([nH]4)c(-c4cccc(S(=O)(=O)[O-])c4F)c4nc(c(-c5cccc(S(=O)(=O)[O-])c5F)c5ccc2[nH]5)C=C4)C=C3)cc1
REMARK SMILES IDX 22 1 21 2 20 3 19 4 18 5 17 6 16 7 14 8 15 9 13 10 1 11 2 12
REMARK SMILES IDX 3 13 4 14 11 15 12 16 5 17 6 18 10 19 7 20 8 21 9 22 23 23
REMARK SMILES IDX 24 24 25 25 26 26 27 27 28 28 29 29 90 30 30 31 89 32 31 33
REMARK SMILES IDX 32 34 33 35 83 36 34 37 88 38 82 39 84 40 35 41 87 42 81 43
REMARK SMILES IDX 80 44 36 46 68 47 48 48 67 49 49 50 52 51 66 52 85 53 50 54
REMARK SMILES IDX 51 55 65 57 86 58 53 59 37 60 38 61 46 62 39 63 41 64 47 65
REMARK SMILES IDX 40 66 42 67 43 68 44 69 45 70 69 71 70 72 78 73 71 74 73 75
REMARK SMILES IDX 79 76 72 77 74 78 75 79 76 80 77 81 54 82 55 83 63 84 56 85
REMARK SMILES IDX 58 86 64 87 57 88 59 89 60 90 61 91 62 92
REMARK H PARENT 84 45 52 56
REMARK Flexibility Score: inf
ROOT
ATOM      1  O   UNL A   1      38.242  21.691  25.985  1.00  0.00    -0.376 OA
ENDROOT
BRANCH   1   2
ATOM      2  C   UNL A   1      37.512  21.057  24.952  1.00  0.00     0.188 C 
BRANCH   2   3
ATOM      3  C   UNL A   1      36.018  20.811  25.260  1.00  0.00     0.188 C 
BRANCH   3   4
ATOM      4  O   UNL A   1      35.043  21.638  24.636  1.00  0.00    -0.376 OA
BRANCH   4   5
ATOM      5  C   UNL A   1      33.716  21.131  24.519  1.00  0.00     0.202 C 
BRANCH   5   6
ATOM      6  C   UNL A   1      32.650  21.630  25.517  1.00  0.00     0.261 C 
BRANCH   6   7
ATOM      7  O   UNL A   1      33.033  22.803  26.272  1.00  0.00    -0.461 OA
BRANCH   7   8
ATOM      8  C   UNL A   1      32.024  23.642  26.601  1.00  0.00     0.335 C 
ATOM      9  O   UNL A   1      31.363  23.521  27.632  1.00  0.00    -0.249 OA
BRANCH   8  10
ATOM     10  C   UNL A   1      31.881  24.896  25.674  1.00  0.00     0.242 C 
ATOM     11  C   UNL A   1      34.089  25.107  24.175  1.00  0.00     0.043 C 
ATOM     12  C   UNL A   1      32.918  25.682  24.889  1.00  0.00    -0.025 C 
ATOM     13  C   UNL A   1      32.583  26.981  24.886  1.00  0.00     0.040 C 
ATOM     14  C   UNL A   1      33.036  28.213  24.196  1.00  0.00     0.165 C 
ATOM     15  C   UNL A   1      31.812  27.042  26.121  1.00  0.00     0.048 C 
ATOM     16  N   UNL A   1      31.263  25.948  26.552  1.00  0.00    -0.269 NA
ATOM     17  O   UNL A   1      33.415  28.184  23.028  1.00  0.00    -0.294 OA
ATOM     18  C   UNL A   1      32.888  29.519  24.976  1.00  0.00     0.088 C 
ATOM     19  C   UNL A   1      31.815  28.317  26.913  1.00  0.00     0.063 C 
ATOM     20  C   UNL A   1      32.981  29.253  26.493  1.00  0.00    -0.023 C 
ATOM     21  C   UNL A   1      34.377  28.670  26.791  1.00  0.00     0.012 C 
ATOM     22  C   UNL A   1      32.875  30.546  27.319  1.00  0.00     0.012 C 
ENDBRANCH   8  10
ENDBRANCH   7   8
ENDBRANCH   6   7
ENDBRANCH   5   6
ENDBRANCH   4   5
ENDBRANCH   3   4
ENDBRANCH   2   3
ENDBRANCH   1   2
BRANCH   1  23
ATOM     23  C   UNL A   1      39.638  21.500  26.125  1.00  0.00     0.202 C 
BRANCH  23  24
ATOM     24  C   UNL A   1      40.563  22.663  26.492  1.00  0.00     0.261 C 
BRANCH  24  25
ATOM     25  O   UNL A   1      39.989  23.953  26.403  1.00  0.00    -0.460 OA
BRANCH  25  26
ATOM     26  C   UNL A   1      40.846  24.915  26.739  1.00  0.00     0.338 C 
ATOM     27  O   UNL A   1      42.092  24.840  26.740  1.00  0.00    -0.246 OA
BRANCH  26  28
ATOM     28  C   UNL A   1      40.135  26.106  27.135  1.00  0.00     0.060 A 
ATOM     29  C   UNL A   1      40.692  27.307  26.698  1.00  0.00     0.016 A 
ATOM     30  C   UNL A   1      39.297  26.009  28.251  1.00  0.00     0.016 A 
ATOM     31  C   UNL A   1      40.652  28.373  27.543  1.00  0.00     0.010 A 
ATOM     32  C   UNL A   1      39.263  27.081  29.104  1.00  0.00     0.010 A 
ATOM     33  C   UNL A   1      40.047  28.193  28.789  1.00  0.00    -0.014 A 
BRANCH  33  34
ATOM     34  C   UNL A   1      40.296  29.233  29.759  1.00  0.00     0.031 A 
ATOM     35  C   UNL A   1      39.247  30.278  29.771  1.00  0.00     0.074 A 
ATOM     36  C   UNL A   1      41.366  29.158  30.573  1.00  0.00     0.049 A 
ATOM     37  N   UNL A   1      39.381  31.560  29.679  1.00  0.00    -0.248 NA
ATOM     38  C   UNL A   1      37.852  29.804  29.699  1.00  0.00     0.031 C 
ATOM     39  C   UNL A   1      42.287  28.025  30.728  1.00  0.00     0.029 A 
ATOM     40  N   UNL A   1      41.724  29.993  31.584  1.00  0.00    -0.354 N 
ATOM     41  C   UNL A   1      38.083  32.056  29.778  1.00  0.00     0.074 A 
ATOM     42  C   UNL A   1      37.190  30.950  29.579  1.00  0.00     0.031 C 
ATOM     43  C   UNL A   1      42.851  28.094  31.952  1.00  0.00     0.029 A 
ATOM     44  C   UNL A   1      42.416  29.325  32.589  1.00  0.00     0.049 A 
ATOM     45  H   UNL A   1      41.519  30.956  31.604  1.00  0.00     0.167 HD
ATOM     46  C   UNL A   1      37.829  33.278  30.310  1.00  0.00     0.034 A 
ATOM     47  C   UNL A   1      42.473  29.685  33.891  1.00  0.00     0.034 A 
ATOM     48  C   UNL A   1      38.965  34.152  30.235  1.00  0.00     0.049 A 
ATOM     49  C   UNL A   1      42.056  31.105  33.986  1.00  0.00     0.074 A 
ATOM     50  C   UNL A   1      39.737  34.654  29.208  1.00  0.00     0.029 A 
ATOM     51  N   UNL A   1      39.671  34.371  31.391  1.00  0.00    -0.354 N 
ATOM     52  N   UNL A   1      42.740  32.101  33.495  1.00  0.00    -0.248 NA
ATOM     53  C   UNL A   1      40.662  31.392  34.283  1.00  0.00     0.031 C 
ATOM     54  C   UNL A   1      41.052  34.753  29.746  1.00  0.00     0.029 A 
ATOM     55  C   UNL A   1      41.003  34.325  31.075  1.00  0.00     0.049 A 
ATOM     56  H   UNL A   1      39.290  34.531  32.284  1.00  0.00     0.167 HD
ATOM     57  C   UNL A   1      41.780  32.990  33.028  1.00  0.00     0.074 A 
ATOM     58  C   UNL A   1      40.533  32.565  33.658  1.00  0.00     0.031 C 
ATOM     59  C   UNL A   1      42.026  33.798  31.954  1.00  0.00     0.034 A 
BRANCH  46  60
ATOM     60  C   UNL A   1      36.667  33.533  31.239  1.00  0.00     0.023 A 
ATOM     61  C   UNL A   1      36.603  32.772  32.423  1.00  0.00     0.012 A 
ATOM     62  C   UNL A   1      35.511  34.268  30.883  1.00  0.00     0.148 A 
ATOM     63  C   UNL A   1      35.434  32.717  33.190  1.00  0.00     0.002 A 
ATOM     64  C   UNL A   1      34.387  34.284  31.697  1.00  0.00     0.091 A 
ATOM     65  F   UNL A   1      35.418  34.852  29.684  1.00  0.00    -0.205 F 
ATOM     66  C   UNL A   1      34.329  33.483  32.835  1.00  0.00     0.022 A 
BRANCH  64  67
ATOM     67  S   UNL A   1      32.976  35.320  31.292  1.00  0.00     0.127 S 
ATOM     68  O   UNL A   1      32.606  34.811  29.976  1.00  0.00    -0.237 OA
ATOM     69  O   UNL A   1      32.040  34.995  32.370  1.00  0.00    -0.237 OA
ATOM     70  O   UNL A   1      33.484  36.686  31.344  1.00  0.00    -0.744 OA
ENDBRANCH  64  67
ENDBRANCH  46  60
BRANCH  47  71
ATOM     71  C   UNL A   1      42.562  28.799  35.074  1.00  0.00     0.023 A 
ATOM     72  C   UNL A   1      41.643  27.744  35.213  1.00  0.00     0.012 A 
ATOM     73  C   UNL A   1      43.669  28.843  35.954  1.00  0.00     0.148 A 
ATOM     74  C   UNL A   1      41.823  26.759  36.192  1.00  0.00     0.002 A 
ATOM     75  C   UNL A   1      43.827  27.878  36.944  1.00  0.00     0.091 A 
ATOM     76  F   UNL A   1      44.614  29.774  35.768  1.00  0.00    -0.205 F 
ATOM     77  C   UNL A   1      42.912  26.827  37.059  1.00  0.00     0.022 A 
BRANCH  75  78
ATOM     78  S   UNL A   1      45.200  27.922  38.107  1.00  0.00     0.127 S 
ATOM     79  O   UNL A   1      44.686  27.117  39.216  1.00  0.00    -0.237 OA
ATOM     80  O   UNL A   1      46.269  27.293  37.339  1.00  0.00    -0.237 OA
ATOM     81  O   UNL A   1      45.393  29.330  38.435  1.00  0.00    -0.744 OA
ENDBRANCH  75  78
ENDBRANCH  47  71
BRANCH  59  82
ATOM     82  C   UNL A   1      43.443  33.899  31.445  1.00  0.00     0.023 A 
ATOM     83  C   UNL A   1      44.369  34.802  32.009  1.00  0.00     0.012 A 
ATOM     84  C   UNL A   1      43.906  32.933  30.535  1.00  0.00     0.148 A 
ATOM     85  C   UNL A   1      45.720  34.759  31.656  1.00  0.00     0.002 A 
ATOM     86  C   UNL A   1      45.260  32.863  30.222  1.00  0.00     0.091 A 
ATOM     87  F   UNL A   1      43.019  32.073  30.013  1.00  0.00    -0.205 F 
ATOM     88  C   UNL A   1      46.169  33.780  30.773  1.00  0.00     0.022 A 
BRANCH  86  89
ATOM     89  S   UNL A   1      45.917  31.535  29.209  1.00  0.00     0.127 S 
ATOM     90  O   UNL A   1      47.310  31.940  29.036  1.00  0.00    -0.237 OA
ATOM     91  O   UNL A   1      45.724  30.359  30.060  1.00  0.00    -0.237 OA
ATOM     92  O   UNL A   1      45.106  31.525  27.997  1.00  0.00    -0.744 OA
ENDBRANCH  86  89
ENDBRANCH  59  82
ENDBRANCH  33  34
ENDBRANCH  26  28
ENDBRANCH  25  26
ENDBRANCH  24  25
ENDBRANCH  23  24
ENDBRANCH   1  23
TORSDOF 20
ENDMDL
MODEL 3
REMARK VINA RESULT:     -10.0      2.534      7.353
REMARK SMILES CC1=C2C(=O)CC(C)(C)CC2=N[C@@H]1C(=O)OCCOCCOCCOC(=O)c1ccc(-c2c3nc(c(-c4cccc(S(=O)(=O)[O-])c4F)c4ccc([nH]4)c(-c4cccc(S(=O)(=O)[O-])c4F)c4nc(c(-c5cccc(S(=O)(=O)[O-])c5F)c5ccc2[nH]5)C=C4)C=C3)cc1
REMARK SMILES IDX 22 1 21 2 20 3 19 4 18 5 17 6 16 7 14 8 15 9 13 10 1 11 2 12
REMARK SMILES IDX 3 13 4 14 11 15 12 16 5 17 6 18 10 19 7 20 8 21 9 22 23 23
REMARK SMILES IDX 24 24 25 25 26 26 27 27 28 28 29 29 90 30 30 31 89 32 31 33
REMARK SMILES IDX 32 34 33 35 83 36 34 37 88 38 82 39 84 40 35 41 87 42 81 43
REMARK SMILES IDX 80 44 36 46 68 47 48 48 67 49 49 50 52 51 66 52 85 53 50 54
REMARK SMILES IDX 51 55 65 57 86 58 53 59 37 60 38 61 46 62 39 63 41 64 47 65
REMARK SMILES IDX 40 66 42 67 43 68 44 69 45 70 69 71 70 72 78 73 71 74 73 75
REMARK SMILES IDX 79 76 72 77 74 78 75 79 76 80 77 81 54 82 55 83 63 84 56 85
REMARK SMILES IDX 58 86 64 87 57 88 59 89 60 90 61 91 62 92
REMARK H PARENT 84 45 52 56
REMARK Flexibility Score: inf
ROOT
ATOM      1  O   UNL A   1      35.050  31.477  27.575  1.00  0.00    -0.376 OA
ENDROOT
BRANCH   1   2
ATOM      2  C   UNL A   1      33.714  31.015  27.638  1.00  0.00     0.188 C 
BRANCH   2   3
ATOM      3  C   UNL A   1      33.482  29.599  27.062  1.00  0.00     0.188 C 
BRANCH   3   4
ATOM      4  O   UNL A   1      32.167  29.225  26.669  1.00  0.00    -0.376 OA
BRANCH   4   5
ATOM      5  C   UNL A   1      31.449  30.113  25.815  1.00  0.00     0.202 C 
BRANCH   5   6
ATOM      6  C   UNL A   1      30.939  29.575  24.462  1.00  0.00     0.261 C 
BRANCH   6   7
ATOM      7  O   UNL A   1      31.475  28.286  24.084  1.00  0.00    -0.461 OA
BRANCH   7   8
ATOM      8  C   UNL A   1      32.449  28.311  23.144  1.00  0.00     0.335 C 
ATOM      9  O   UNL A   1      32.605  29.253  22.368  1.00  0.00    -0.249 OA
BRANCH   8  10
ATOM     10  C   UNL A   1      33.488  27.144  23.242  1.00  0.00     0.242 C 
ATOM     11  C   UNL A   1      32.909  25.323  21.367  1.00  0.00     0.043 C 
ATOM     12  C   UNL A   1      33.458  25.729  22.688  1.00  0.00    -0.025 C 
ATOM     13  C   UNL A   1      34.061  24.899  23.553  1.00  0.00     0.040 C 
ATOM     14  C   UNL A   1      34.515  23.487  23.560  1.00  0.00     0.165 C 
ATOM     15  C   UNL A   1      33.848  25.635  24.792  1.00  0.00     0.048 C 
ATOM     16  N   UNL A   1      33.667  26.918  24.718  1.00  0.00    -0.269 NA
ATOM     17  O   UNL A   1      34.977  22.964  22.549  1.00  0.00    -0.294 OA
ATOM     18  C   UNL A   1      34.487  22.774  24.912  1.00  0.00     0.088 C 
ATOM     19  C   UNL A   1      33.696  24.865  26.073  1.00  0.00     0.063 C 
ATOM     20  C   UNL A   1      33.382  23.368  25.810  1.00  0.00    -0.023 C 
ATOM     21  C   UNL A   1      32.025  23.134  25.115  1.00  0.00     0.012 C 
ATOM     22  C   UNL A   1      33.291  22.655  27.170  1.00  0.00     0.012 C 
ENDBRANCH   8  10
ENDBRANCH   7   8
ENDBRANCH   6   7
ENDBRANCH   5   6
ENDBRANCH   4   5
ENDBRANCH   3   4
ENDBRANCH   2   3
ENDBRANCH   1   2
BRANCH   1  23
ATOM     23  C   UNL A   1      35.453  32.656  28.248  1.00  0.00     0.202 C 
BRANCH  23  24
ATOM     24  C   UNL A   1      35.936  32.613  29.700  1.00  0.00     0.261 C 
BRANCH  24  25
ATOM     25  O   UNL A   1      37.219  32.052  29.901  1.00  0.00    -0.460 OA
BRANCH  25  26
ATOM     26  C   UNL A   1      37.161  30.817  30.396  1.00  0.00     0.338 C 
ATOM     27  O   UNL A   1      36.658  30.470  31.483  1.00  0.00    -0.246 OA
BRANCH  26  28
ATOM     28  C   UNL A   1      37.791  29.885  29.493  1.00  0.00     0.060 A 
ATOM     29  C   UNL A   1      37.773  28.552  29.903  1.00  0.00     0.016 A 
ATOM     30  C   UNL A   1      38.733  30.400  28.597  1.00  0.00     0.016 A 
ATOM     31  C   UNL A   1      38.872  27.791  29.647  1.00  0.00     0.010 A 
ATOM     32  C   UNL A   1      39.842  29.636  28.345  1.00  0.00     0.010 A 
ATOM     33  C   UNL A   1      39.941  28.397  28.983  1.00  0.00    -0.014 A 
BRANCH  33  34
ATOM     34  C   UNL A   1      41.185  27.663  29.006  1.00  0.00     0.031 A 
ATOM     35  C   UNL A   1      41.977  27.903  30.234  1.00  0.00     0.074 A 
ATOM     36  C   UNL A   1      41.493  26.821  28.002  1.00  0.00     0.049 A 
ATOM     37  N   UNL A   1      43.214  28.262  30.342  1.00  0.00    -0.248 NA
ATOM     38  C   UNL A   1      41.226  27.913  31.504  1.00  0.00     0.031 C 
ATOM     39  C   UNL A   1      40.625  26.403  26.894  1.00  0.00     0.029 A 
ATOM     40  N   UNL A   1      42.571  26.001  27.882  1.00  0.00    -0.354 N 
ATOM     41  C   UNL A   1      43.448  28.308  31.714  1.00  0.00     0.074 A 
ATOM     42  C   UNL A   1      42.166  28.292  32.363  1.00  0.00     0.031 C 
ATOM     43  C   UNL A   1      41.053  25.207  26.441  1.00  0.00     0.029 A 
ATOM     44  C   UNL A   1      42.274  24.858  27.147  1.00  0.00     0.049 A 
ATOM     45  H   UNL A   1      43.456  26.193  28.267  1.00  0.00     0.167 HD
ATOM     46  C   UNL A   1      44.675  28.054  32.234  1.00  0.00     0.034 A 
ATOM     47  C   UNL A   1      42.895  23.662  27.251  1.00  0.00     0.034 A 
ATOM     48  C   UNL A   1      45.726  28.282  31.284  1.00  0.00     0.049 A 
ATOM     49  C   UNL A   1      44.190  23.883  27.937  1.00  0.00     0.074 A 
ATOM     50  C   UNL A   1      46.156  29.369  30.552  1.00  0.00     0.029 A 
ATOM     51  N   UNL A   1      46.312  27.179  30.715  1.00  0.00    -0.354 N 
ATOM     52  N   UNL A   1      45.183  24.554  27.424  1.00  0.00    -0.248 NA
ATOM     53  C   UNL A   1      44.244  23.692  29.379  1.00  0.00     0.031 C 
ATOM     54  C   UNL A   1      46.625  28.827  29.321  1.00  0.00     0.029 A 
ATOM     55  C   UNL A   1      46.473  27.440  29.381  1.00  0.00     0.049 A 
ATOM     56  H   UNL A   1      46.570  26.352  31.181  1.00  0.00     0.167 HD
ATOM     57  C   UNL A   1      45.747  25.226  28.501  1.00  0.00     0.074 A 
ATOM     58  C   UNL A   1      45.215  24.557  29.685  1.00  0.00     0.031 C 
ATOM     59  C   UNL A   1      46.353  26.440  28.340  1.00  0.00     0.034 A 
BRANCH  46  60
ATOM     60  C   UNL A   1      44.873  27.234  33.485  1.00  0.00     0.023 A 
ATOM     61  C   UNL A   1      45.692  27.776  34.495  1.00  0.00     0.012 A 
ATOM     62  C   UNL A   1      44.526  25.867  33.602  1.00  0.00     0.148 A 
ATOM     63  C   UNL A   1      46.173  26.985  35.545  1.00  0.00     0.002 A 
ATOM     64  C   UNL A   1      44.929  25.111  34.695  1.00  0.00     0.091 A 
ATOM     65  F   UNL A   1      43.923  25.229  32.594  1.00  0.00    -0.205 F 
ATOM     66  C   UNL A   1      45.781  25.655  35.653  1.00  0.00     0.022 A 
BRANCH  64  67
ATOM     67  S   UNL A   1      44.377  23.412  34.888  1.00  0.00     0.127 S 
ATOM     68  O   UNL A   1      45.058  22.754  33.777  1.00  0.00    -0.237 OA
ATOM     69  O   UNL A   1      44.889  23.075  36.217  1.00  0.00    -0.237 OA
ATOM     70  O   UNL A   1      42.922  23.477  34.814  1.00  0.00    -0.744 OA
ENDBRANCH  64  67
ENDBRANCH  46  60
BRANCH  47  71
ATOM     71  C   UNL A   1      42.303  22.315  27.077  1.00  0.00     0.023 A 
ATOM     72  C   UNL A   1      40.922  22.140  27.276  1.00  0.00     0.012 A 
ATOM     73  C   UNL A   1      43.038  21.248  26.509  1.00  0.00     0.148 A 
ATOM     74  C   UNL A   1      40.290  20.944  26.915  1.00  0.00     0.002 A 
ATOM     75  C   UNL A   1      42.410  20.051  26.178  1.00  0.00     0.091 A 
ATOM     76  F   UNL A   1      44.330  21.434  26.208  1.00  0.00    -0.205 F 
ATOM     77  C   UNL A   1      41.033  19.899  26.369  1.00  0.00     0.022 A 
BRANCH  75  78
ATOM     78  S   UNL A   1      43.317  18.658  25.490  1.00  0.00     0.127 S 
ATOM     79  O   UNL A   1      42.347  17.569  25.617  1.00  0.00    -0.237 OA
ATOM     80  O   UNL A   1      43.562  19.101  24.121  1.00  0.00    -0.237 OA
ATOM     81  O   UNL A   1      44.498  18.502  26.331  1.00  0.00    -0.744 OA
ENDBRANCH  75  78
ENDBRANCH  47  71
BRANCH  59  82
ATOM     82  C   UNL A   1      46.632  26.918  26.936  1.00  0.00     0.023 A 
ATOM     83  C   UNL A   1      45.701  27.701  26.222  1.00  0.00     0.012 A 
ATOM     84  C   UNL A   1      47.925  26.754  26.408  1.00  0.00     0.148 A 
ATOM     85  C   UNL A   1      46.042  28.287  25.001  1.00  0.00     0.002 A 
ATOM     86  C   UNL A   1      48.275  27.379  25.216  1.00  0.00     0.091 A 
ATOM     87  F   UNL A   1      48.805  26.016  27.101  1.00  0.00    -0.205 F 
ATOM     88  C   UNL A   1      47.334  28.138  24.504  1.00  0.00     0.022 A 
BRANCH  86  89
ATOM     89  S   UNL A   1      49.962  27.344  24.605  1.00  0.00     0.127 S 
ATOM     90  O   UNL A   1      49.765  27.198  23.165  1.00  0.00    -0.237 OA
ATOM     91  O   UNL A   1      50.480  28.649  25.021  1.00  0.00    -0.237 OA
ATOM     92  O   UNL A   1      50.602  26.217  25.273  1.00  0.00    -0.744 OA
ENDBRANCH  86  89
ENDBRANCH  59  82
ENDBRANCH  33  34
ENDBRANCH  26  28
ENDBRANCH  25  26
ENDBRANCH  24  25
ENDBRANCH  23  24
ENDBRANCH   1  23
TORSDOF 20
ENDMDL
