MODEL 1
REMARK VINA RESULT:     -10.1      0.000      0.000
REMARK SMILES Cc1ccc(OCCC(=O)N2C[C@H](O)C[C@@H]2C(=O)OCCOCCOCCOC(=O)c2ccc(-c3c4nc(c(-c5cccc(S(=O)(=O)[O-])c5F)c5ccc([nH]5)c(-c5cccc(S(=O)(=O)[O-])c5F)c5nc(c(-c6cccc(S(=O)(=O)[O-])c6F)c6ccc3[nH]6)C=C5)C=C4)cc2)cc1
REMARK SMILES IDX 23 1 22 2 21 3 20 4 19 5 17 6 18 7 16 8 11 9 12 10 13 11
REMARK SMILES IDX 15 12 9 13 10 14 8 15 7 16 6 17 5 18 1 19 2 20 3 21 95 22
REMARK SMILES IDX 4 23 94 24 14 25 24 27 25 28 26 29 27 30 28 31 29 32 30 33
REMARK SMILES IDX 31 34 32 35 93 36 33 37 92 38 34 39 35 40 36 41 86 42 37 43
REMARK SMILES IDX 91 44 85 45 87 46 38 47 90 48 84 49 83 50 39 52 71 53 51 54
REMARK SMILES IDX 70 55 52 56 55 57 69 58 88 59 53 60 54 61 68 63 89 64 56 65
REMARK SMILES IDX 40 66 41 67 49 68 42 69 44 70 50 71 43 72 45 73 46 74 47 75
REMARK SMILES IDX 48 76 72 77 73 78 81 79 74 80 76 81 82 82 75 83 77 84 78 85
REMARK SMILES IDX 79 86 80 87 57 88 58 89 66 90 59 91 61 92 67 93 60 94 62 95
REMARK SMILES IDX 63 96 64 97 65 98
REMARK H PARENT 14 26 87 51 55 62
REMARK Flexibility Score: inf
ROOT
ATOM      1  C   UNL A   1      31.011  29.195  24.483  1.00  0.00     0.188 C 
ENDROOT
BRANCH   1   2
ATOM      2  O   UNL A   1      30.862  27.837  24.859  1.00  0.00    -0.376 OA
BRANCH   2   3
ATOM      3  C   UNL A   1      30.299  27.023  23.836  1.00  0.00     0.202 C 
BRANCH   3   4
ATOM      4  C   UNL A   1      30.901  27.086  22.366  1.00  0.00     0.261 C 
BRANCH   4   5
ATOM      5  O   UNL A   1      31.418  25.956  21.421  1.00  0.00    -0.462 OA
BRANCH   5   6
ATOM      6  C   UNL A   1      32.545  25.103  21.480  1.00  0.00     0.329 C 
ATOM      7  O   UNL A   1      33.283  25.036  20.498  1.00  0.00    -0.250 OA
BRANCH   6   8
ATOM      8  C   UNL A   1      33.072  24.320  22.790  1.00  0.00     0.197 C 
ATOM      9  N   UNL A   1      32.338  23.923  24.071  1.00  0.00    -0.326 N 
ATOM     10  C   UNL A   1      32.849  24.696  25.170  1.00  0.00     0.152 C 
ATOM     11  C   UNL A   1      34.051  25.469  24.669  1.00  0.00     0.136 C 
ATOM     12  C   UNL A   1      34.354  24.952  23.278  1.00  0.00     0.070 C 
BRANCH   9  13
ATOM     13  C   UNL A   1      31.933  22.624  24.464  1.00  0.00     0.226 C 
ATOM     14  O   UNL A   1      31.009  22.426  25.249  1.00  0.00    -0.275 OA
BRANCH  13  15
ATOM     15  C   UNL A   1      32.755  21.440  23.872  1.00  0.00     0.141 C 
BRANCH  15  16
ATOM     16  C   UNL A   1      34.231  21.288  24.292  1.00  0.00     0.239 C 
BRANCH  16  17
ATOM     17  O   UNL A   1      34.500  20.220  25.227  1.00  0.00    -0.493 OA
BRANCH  17  18
ATOM     18  C   UNL A   1      34.000  18.984  24.915  1.00  0.00     0.119 A 
ATOM     19  C   UNL A   1      32.885  14.880  25.385  1.00  0.00     0.044 C 
ATOM     20  C   UNL A   1      33.161  16.322  25.068  1.00  0.00    -0.051 A 
ATOM     21  C   UNL A   1      32.335  17.344  25.555  1.00  0.00     0.007 A 
ATOM     22  C   UNL A   1      34.309  16.663  24.347  1.00  0.00     0.007 A 
ATOM     23  C   UNL A   1      32.750  18.678  25.470  1.00  0.00     0.046 A 
ATOM     24  C   UNL A   1      34.718  17.992  24.255  1.00  0.00     0.046 A 
ENDBRANCH  17  18
ENDBRANCH  16  17
ENDBRANCH  15  16
ENDBRANCH  13  15
ENDBRANCH   9  13
BRANCH  11  25
ATOM     25  O   UNL A   1      33.774  26.858  24.672  1.00  0.00    -0.391 OA
ATOM     26  H   UNL A   1      32.931  27.020  24.219  1.00  0.00     0.211 HD
ENDBRANCH  11  25
ENDBRANCH   6   8
ENDBRANCH   5   6
ENDBRANCH   4   5
ENDBRANCH   3   4
ENDBRANCH   2   3
ENDBRANCH   1   2
BRANCH   1  27
ATOM     27  C   UNL A   1      32.386  29.787  24.845  1.00  0.00     0.188 C 
BRANCH  27  28
ATOM     28  O   UNL A   1      32.398  30.430  26.124  1.00  0.00    -0.376 OA
BRANCH  28  29
ATOM     29  C   UNL A   1      32.609  29.569  27.244  1.00  0.00     0.202 C 
BRANCH  29  30
ATOM     30  C   UNL A   1      34.098  29.335  27.519  1.00  0.00     0.261 C 
BRANCH  30  31
ATOM     31  O   UNL A   1      34.802  30.574  27.284  1.00  0.00    -0.460 OA
BRANCH  31  32
ATOM     32  C   UNL A   1      35.105  31.256  28.419  1.00  0.00     0.338 C 
ATOM     33  O   UNL A   1      34.328  31.918  29.070  1.00  0.00    -0.246 OA
BRANCH  32  34
ATOM     34  C   UNL A   1      36.592  31.343  28.495  1.00  0.00     0.060 A 
ATOM     35  C   UNL A   1      37.247  30.277  27.954  1.00  0.00     0.016 A 
ATOM     36  C   UNL A   1      37.356  32.250  29.231  1.00  0.00     0.016 A 
ATOM     37  C   UNL A   1      38.592  30.063  28.288  1.00  0.00     0.010 A 
ATOM     38  C   UNL A   1      38.717  31.967  29.582  1.00  0.00     0.010 A 
ATOM     39  C   UNL A   1      39.345  30.769  29.229  1.00  0.00    -0.014 A 
BRANCH  39  40
ATOM     40  C   UNL A   1      40.641  30.316  29.963  1.00  0.00     0.031 A 
ATOM     41  C   UNL A   1      41.167  29.020  29.475  1.00  0.00     0.074 A 
ATOM     42  C   UNL A   1      41.386  30.673  31.078  1.00  0.00     0.049 A 
ATOM     43  N   UNL A   1      42.040  28.816  28.542  1.00  0.00    -0.248 NA
ATOM     44  C   UNL A   1      40.639  27.821  30.122  1.00  0.00     0.031 C 
ATOM     45  C   UNL A   1      42.815  30.376  31.255  1.00  0.00     0.029 A 
ATOM     46  N   UNL A   1      41.114  31.296  32.310  1.00  0.00    -0.354 N 
ATOM     47  C   UNL A   1      42.179  27.433  28.481  1.00  0.00     0.074 A 
ATOM     48  C   UNL A   1      41.141  26.879  29.336  1.00  0.00     0.031 C 
ATOM     49  C   UNL A   1      43.221  30.685  32.503  1.00  0.00     0.029 A 
ATOM     50  C   UNL A   1      42.067  31.049  33.308  1.00  0.00     0.049 A 
ATOM     51  H   UNL A   1      40.320  31.859  32.458  1.00  0.00     0.167 HD
ATOM     52  C   UNL A   1      43.386  26.835  28.637  1.00  0.00     0.034 A 
ATOM     53  C   UNL A   1      41.750  30.676  34.602  1.00  0.00     0.034 A 
ATOM     54  C   UNL A   1      44.058  27.051  29.914  1.00  0.00     0.049 A 
ATOM     55  C   UNL A   1      42.294  29.282  34.849  1.00  0.00     0.074 A 
ATOM     56  C   UNL A   1      45.114  27.843  30.331  1.00  0.00     0.029 A 
ATOM     57  N   UNL A   1      43.534  26.491  31.080  1.00  0.00    -0.354 N 
ATOM     58  N   UNL A   1      42.901  28.599  33.919  1.00  0.00    -0.248 NA
ATOM     59  C   UNL A   1      42.119  28.505  36.073  1.00  0.00     0.031 C 
ATOM     60  C   UNL A   1      45.185  27.786  31.757  1.00  0.00     0.029 A 
ATOM     61  C   UNL A   1      44.202  26.927  32.216  1.00  0.00     0.049 A 
ATOM     62  H   UNL A   1      42.779  25.861  31.094  1.00  0.00     0.167 HD
ATOM     63  C   UNL A   1      43.141  27.335  34.344  1.00  0.00     0.074 A 
ATOM     64  C   UNL A   1      42.567  27.300  35.681  1.00  0.00     0.031 C 
ATOM     65  C   UNL A   1      43.806  26.448  33.549  1.00  0.00     0.034 A 
BRANCH  52  66
ATOM     66  C   UNL A   1      43.874  26.188  27.374  1.00  0.00     0.023 A 
ATOM     67  C   UNL A   1      44.613  26.938  26.450  1.00  0.00     0.012 A 
ATOM     68  C   UNL A   1      43.621  24.815  27.061  1.00  0.00     0.148 A 
ATOM     69  C   UNL A   1      45.053  26.368  25.248  1.00  0.00     0.002 A 
ATOM     70  C   UNL A   1      44.048  24.258  25.861  1.00  0.00     0.091 A 
ATOM     71  F   UNL A   1      42.954  24.050  27.940  1.00  0.00    -0.205 F 
ATOM     72  C   UNL A   1      44.768  25.035  24.951  1.00  0.00     0.022 A 
BRANCH  70  73
ATOM     73  S   UNL A   1      43.700  22.546  25.416  1.00  0.00     0.127 S 
ATOM     74  O   UNL A   1      42.408  22.320  26.064  1.00  0.00    -0.237 OA
ATOM     75  O   UNL A   1      43.644  22.600  23.955  1.00  0.00    -0.237 OA
ATOM     76  O   UNL A   1      44.802  21.750  25.944  1.00  0.00    -0.744 OA
ENDBRANCH  70  73
ENDBRANCH  52  66
BRANCH  53  77
ATOM     77  C   UNL A   1      40.504  31.216  35.311  1.00  0.00     0.023 A 
ATOM     78  C   UNL A   1      39.260  30.632  34.987  1.00  0.00     0.012 A 
ATOM     79  C   UNL A   1      40.489  32.159  36.374  1.00  0.00     0.148 A 
ATOM     80  C   UNL A   1      38.103  30.859  35.752  1.00  0.00     0.002 A 
ATOM     81  C   UNL A   1      39.349  32.335  37.176  1.00  0.00     0.091 A 
ATOM     82  F   UNL A   1      41.592  32.868  36.641  1.00  0.00    -0.205 F 
ATOM     83  C   UNL A   1      38.159  31.668  36.878  1.00  0.00     0.022 A 
BRANCH  81  84
ATOM     84  S   UNL A   1      39.384  33.257  38.730  1.00  0.00     0.127 S 
ATOM     85  O   UNL A   1      40.561  32.703  39.393  1.00  0.00    -0.237 OA
ATOM     86  O   UNL A   1      39.542  34.638  38.271  1.00  0.00    -0.237 OA
ATOM     87  O   UNL A   1      38.105  32.986  39.373  1.00  0.00    -0.744 OA
ENDBRANCH  81  84
ENDBRANCH  53  77
BRANCH  65  88
ATOM     88  C   UNL A   1      44.228  25.082  34.030  1.00  0.00     0.023 A 
ATOM     89  C   UNL A   1      43.288  24.057  34.264  1.00  0.00     0.012 A 
ATOM     90  C   UNL A   1      45.567  24.814  34.389  1.00  0.00     0.148 A 
ATOM     91  C   UNL A   1      43.663  22.793  34.721  1.00  0.00     0.002 A 
ATOM     92  C   UNL A   1      45.924  23.589  34.938  1.00  0.00     0.091 A 
ATOM     93  F   UNL A   1      46.504  25.747  34.198  1.00  0.00    -0.205 F 
ATOM     94  C   UNL A   1      44.985  22.562  35.067  1.00  0.00     0.022 A 
BRANCH  92  95
ATOM     95  S   UNL A   1      47.560  23.282  35.608  1.00  0.00     0.127 S 
ATOM     96  O   UNL A   1      48.413  23.692  34.491  1.00  0.00    -0.237 OA
ATOM     97  O   UNL A   1      47.583  24.182  36.759  1.00  0.00    -0.237 OA
ATOM     98  O   UNL A   1      47.613  21.862  35.926  1.00  0.00    -0.744 OA
ENDBRANCH  92  95
ENDBRANCH  65  88
ENDBRANCH  39  40
ENDBRANCH  32  34
ENDBRANCH  31  32
ENDBRANCH  30  31
ENDBRANCH  29  30
ENDBRANCH  28  29
ENDBRANCH  27  28
ENDBRANCH   1  27
TORSDOF 26
ENDMDL
MODEL 2
REMARK VINA RESULT:     -10.1      4.530      8.087
REMARK SMILES Cc1ccc(OCCC(=O)N2C[C@H](O)C[C@@H]2C(=O)OCCOCCOCCOC(=O)c2ccc(-c3c4nc(c(-c5cccc(S(=O)(=O)[O-])c5F)c5ccc([nH]5)c(-c5cccc(S(=O)(=O)[O-])c5F)c5nc(c(-c6cccc(S(=O)(=O)[O-])c6F)c6ccc3[nH]6)C=C5)C=C4)cc2)cc1
REMARK SMILES IDX 23 1 22 2 21 3 20 4 19 5 17 6 18 7 16 8 11 9 12 10 13 11
REMARK SMILES IDX 15 12 9 13 10 14 8 15 7 16 6 17 5 18 1 19 2 20 3 21 95 22
REMARK SMILES IDX 4 23 94 24 14 25 24 27 25 28 26 29 27 30 28 31 29 32 30 33
REMARK SMILES IDX 31 34 32 35 93 36 33 37 92 38 34 39 35 40 36 41 86 42 37 43
REMARK SMILES IDX 91 44 85 45 87 46 38 47 90 48 84 49 83 50 39 52 71 53 51 54
REMARK SMILES IDX 70 55 52 56 55 57 69 58 88 59 53 60 54 61 68 63 89 64 56 65
REMARK SMILES IDX 40 66 41 67 49 68 42 69 44 70 50 71 43 72 45 73 46 74 47 75
REMARK SMILES IDX 48 76 72 77 73 78 81 79 74 80 76 81 82 82 75 83 77 84 78 85
REMARK SMILES IDX 79 86 80 87 57 88 58 89 66 90 59 91 61 92 67 93 60 94 62 95
REMARK SMILES IDX 63 96 64 97 65 98
REMARK H PARENT 14 26 87 51 55 62
REMARK Flexibility Score: inf
ROOT
ATOM      1  C   UNL A   1      36.358  23.712  24.472  1.00  0.00     0.188 C 
ENDROOT
BRANCH   1   2
ATOM      2  O   UNL A   1      35.136  24.135  25.052  1.00  0.00    -0.376 OA
BRANCH   2   3
ATOM      3  C   UNL A   1      34.405  25.046  24.238  1.00  0.00     0.202 C 
BRANCH   3   4
ATOM      4  C   UNL A   1      33.330  24.485  23.209  1.00  0.00     0.261 C 
BRANCH   4   5
ATOM      5  O   UNL A   1      33.135  23.059  22.606  1.00  0.00    -0.462 OA
BRANCH   5   6
ATOM      6  C   UNL A   1      32.442  21.915  23.065  1.00  0.00     0.329 C 
ATOM      7  O   UNL A   1      32.059  21.089  22.238  1.00  0.00    -0.250 OA
BRANCH   6   8
ATOM      8  C   UNL A   1      32.244  21.484  24.609  1.00  0.00     0.197 C 
ATOM      9  N   UNL A   1      32.874  22.043  25.884  1.00  0.00    -0.326 N 
ATOM     10  C   UNL A   1      33.768  21.064  26.440  1.00  0.00     0.152 C 
ATOM     11  C   UNL A   1      33.594  19.782  25.653  1.00  0.00     0.136 C 
ATOM     12  C   UNL A   1      32.402  19.988  24.742  1.00  0.00     0.070 C 
BRANCH   9  13
ATOM     13  C   UNL A   1      32.249  22.833  26.878  1.00  0.00     0.226 C 
ATOM     14  O   UNL A   1      32.415  22.643  28.080  1.00  0.00    -0.275 OA
BRANCH  13  15
ATOM     15  C   UNL A   1      31.293  23.952  26.366  1.00  0.00     0.141 C 
BRANCH  15  16
ATOM     16  C   UNL A   1      31.721  25.423  26.548  1.00  0.00     0.239 C 
BRANCH  16  17
ATOM     17  O   UNL A   1      30.665  26.397  26.395  1.00  0.00    -0.493 OA
BRANCH  17  18
ATOM     18  C   UNL A   1      30.607  27.065  25.200  1.00  0.00     0.119 A 
ATOM     19  C   UNL A   1      29.510  30.033  22.322  1.00  0.00     0.044 C 
ATOM     20  C   UNL A   1      30.038  28.946  23.214  1.00  0.00    -0.051 A 
ATOM     21  C   UNL A   1      31.053  29.200  24.145  1.00  0.00     0.007 A 
ATOM     22  C   UNL A   1      29.450  27.678  23.178  1.00  0.00     0.007 A 
ATOM     23  C   UNL A   1      31.346  28.254  25.134  1.00  0.00     0.046 A 
ATOM     24  C   UNL A   1      29.747  26.733  24.158  1.00  0.00     0.046 A 
ENDBRANCH  17  18
ENDBRANCH  16  17
ENDBRANCH  15  16
ENDBRANCH  13  15
ENDBRANCH   9  13
BRANCH  11  25
ATOM     25  O   UNL A   1      34.775  19.492  24.927  1.00  0.00    -0.391 OA
ATOM     26  H   UNL A   1      34.569  19.442  23.980  1.00  0.00     0.211 HD
ENDBRANCH  11  25
ENDBRANCH   6   8
ENDBRANCH   5   6
ENDBRANCH   4   5
ENDBRANCH   3   4
ENDBRANCH   2   3
ENDBRANCH   1   2
BRANCH   1  27
ATOM     27  C   UNL A   1      36.306  22.285  23.895  1.00  0.00     0.188 C 
BRANCH  27  28
ATOM     28  O   UNL A   1      37.328  21.433  24.423  1.00  0.00    -0.376 OA
BRANCH  28  29
ATOM     29  C   UNL A   1      37.759  21.736  25.751  1.00  0.00     0.202 C 
BRANCH  29  30
ATOM     30  C   UNL A   1      39.272  21.961  25.829  1.00  0.00     0.261 C 
BRANCH  30  31
ATOM     31  O   UNL A   1      39.826  21.001  26.754  1.00  0.00    -0.460 OA
BRANCH  31  32
ATOM     32  C   UNL A   1      40.958  20.397  26.304  1.00  0.00     0.338 C 
ATOM     33  O   UNL A   1      41.084  19.213  26.085  1.00  0.00    -0.246 OA
BRANCH  32  34
ATOM     34  C   UNL A   1      42.075  21.367  26.491  1.00  0.00     0.060 A 
ATOM     35  C   UNL A   1      42.030  22.058  27.664  1.00  0.00     0.016 A 
ATOM     36  C   UNL A   1      43.001  21.796  25.537  1.00  0.00     0.016 A 
ATOM     37  C   UNL A   1      42.784  23.235  27.792  1.00  0.00     0.010 A 
ATOM     38  C   UNL A   1      43.718  23.026  25.694  1.00  0.00     0.010 A 
ATOM     39  C   UNL A   1      43.519  23.872  26.790  1.00  0.00    -0.014 A 
BRANCH  39  40
ATOM     40  C   UNL A   1      43.978  25.358  26.728  1.00  0.00     0.031 A 
ATOM     41  C   UNL A   1      45.423  25.537  27.005  1.00  0.00     0.074 A 
ATOM     42  C   UNL A   1      43.409  26.622  26.660  1.00  0.00     0.049 A 
ATOM     43  N   UNL A   1      46.398  25.563  26.156  1.00  0.00    -0.248 NA
ATOM     44  C   UNL A   1      45.798  25.702  28.407  1.00  0.00     0.031 C 
ATOM     45  C   UNL A   1      44.090  27.814  26.134  1.00  0.00     0.029 A 
ATOM     46  N   UNL A   1      42.188  27.197  27.058  1.00  0.00    -0.354 N 
ATOM     47  C   UNL A   1      47.538  25.755  26.929  1.00  0.00     0.074 A 
ATOM     48  C   UNL A   1      47.119  25.627  28.316  1.00  0.00     0.031 C 
ATOM     49  C   UNL A   1      43.359  28.925  26.357  1.00  0.00     0.029 A 
ATOM     50  C   UNL A   1      42.221  28.591  27.197  1.00  0.00     0.049 A 
ATOM     51  H   UNL A   1      41.377  26.663  27.224  1.00  0.00     0.167 HD
ATOM     52  C   UNL A   1      48.375  26.800  26.710  1.00  0.00     0.034 A 
ATOM     53  C   UNL A   1      41.710  29.269  28.290  1.00  0.00     0.034 A 
ATOM     54  C   UNL A   1      47.801  28.134  26.858  1.00  0.00     0.049 A 
ATOM     55  C   UNL A   1      42.853  29.967  29.002  1.00  0.00     0.074 A 
ATOM     56  C   UNL A   1      47.383  29.112  25.972  1.00  0.00     0.029 A 
ATOM     57  N   UNL A   1      47.421  28.592  28.119  1.00  0.00    -0.354 N 
ATOM     58  N   UNL A   1      44.090  29.847  28.610  1.00  0.00    -0.248 NA
ATOM     59  C   UNL A   1      42.741  30.740  30.235  1.00  0.00     0.031 C 
ATOM     60  C   UNL A   1      46.711  30.133  26.711  1.00  0.00     0.029 A 
ATOM     61  C   UNL A   1      46.752  29.806  28.056  1.00  0.00     0.049 A 
ATOM     62  H   UNL A   1      47.606  28.110  28.957  1.00  0.00     0.167 HD
ATOM     63  C   UNL A   1      44.926  30.430  29.504  1.00  0.00     0.074 A 
ATOM     64  C   UNL A   1      44.036  30.918  30.548  1.00  0.00     0.031 C 
ATOM     65  C   UNL A   1      46.272  30.464  29.280  1.00  0.00     0.034 A 
BRANCH  52  66
ATOM     66  C   UNL A   1      49.713  26.365  26.189  1.00  0.00     0.023 A 
ATOM     67  C   UNL A   1      50.509  25.501  26.952  1.00  0.00     0.012 A 
ATOM     68  C   UNL A   1      50.226  26.794  24.925  1.00  0.00     0.148 A 
ATOM     69  C   UNL A   1      51.775  25.105  26.504  1.00  0.00     0.002 A 
ATOM     70  C   UNL A   1      51.490  26.410  24.490  1.00  0.00     0.091 A 
ATOM     71  F   UNL A   1      49.477  27.588  24.143  1.00  0.00    -0.205 F 
ATOM     72  C   UNL A   1      52.268  25.561  25.281  1.00  0.00     0.022 A 
BRANCH  70  73
ATOM     73  S   UNL A   1      52.185  26.975  22.926  1.00  0.00     0.127 S 
ATOM     74  O   UNL A   1      51.085  26.721  21.996  1.00  0.00    -0.237 OA
ATOM     75  O   UNL A   1      52.444  28.392  23.185  1.00  0.00    -0.237 OA
ATOM     76  O   UNL A   1      53.384  26.179  22.695  1.00  0.00    -0.744 OA
ENDBRANCH  70  73
ENDBRANCH  52  66
BRANCH  53  77
ATOM     77  C   UNL A   1      40.452  28.787  29.019  1.00  0.00     0.023 A 
ATOM     78  C   UNL A   1      40.615  27.829  30.043  1.00  0.00     0.012 A 
ATOM     79  C   UNL A   1      39.141  29.312  28.862  1.00  0.00     0.148 A 
ATOM     80  C   UNL A   1      39.583  27.513  30.944  1.00  0.00     0.002 A 
ATOM     81  C   UNL A   1      38.132  29.044  29.802  1.00  0.00     0.091 A 
ATOM     82  F   UNL A   1      38.870  30.106  27.820  1.00  0.00    -0.205 F 
ATOM     83  C   UNL A   1      38.359  28.159  30.858  1.00  0.00     0.022 A 
BRANCH  81  84
ATOM     84  S   UNL A   1      36.568  29.948  29.836  1.00  0.00     0.127 S 
ATOM     85  O   UNL A   1      37.005  31.332  29.673  1.00  0.00    -0.237 OA
ATOM     86  O   UNL A   1      35.861  29.397  28.678  1.00  0.00    -0.237 OA
ATOM     87  O   UNL A   1      35.956  29.621  31.118  1.00  0.00    -0.744 OA
ENDBRANCH  81  84
ENDBRANCH  53  77
BRANCH  65  88
ATOM     88  C   UNL A   1      47.224  31.227  30.165  1.00  0.00     0.023 A 
ATOM     89  C   UNL A   1      47.625  32.544  29.859  1.00  0.00     0.012 A 
ATOM     90  C   UNL A   1      47.855  30.609  31.267  1.00  0.00     0.148 A 
ATOM     91  C   UNL A   1      48.515  33.257  30.663  1.00  0.00     0.002 A 
ATOM     92  C   UNL A   1      48.816  31.285  32.007  1.00  0.00     0.091 A 
ATOM     93  F   UNL A   1      47.524  29.359  31.605  1.00  0.00    -0.205 F 
ATOM     94  C   UNL A   1      49.118  32.622  31.736  1.00  0.00     0.022 A 
BRANCH  92  95
ATOM     95  S   UNL A   1      49.796  30.471  33.272  1.00  0.00     0.127 S 
ATOM     96  O   UNL A   1      50.447  29.412  32.498  1.00  0.00    -0.237 OA
ATOM     97  O   UNL A   1      50.683  31.551  33.699  1.00  0.00    -0.237 OA
ATOM     98  O   UNL A   1      48.857  30.000  34.279  1.00  0.00    -0.744 OA
ENDBRANCH  92  95
ENDBRANCH  65  88
ENDBRANCH  39  40
ENDBRANCH  32  34
ENDBRANCH  31  32
ENDBRANCH  30  31
ENDBRANCH  29  30
ENDBRANCH  28  29
ENDBRANCH  27  28
ENDBRANCH   1  27
TORSDOF 26
ENDMDL
MODEL 3
REMARK VINA RESULT:     -10.0      2.668      4.281
REMARK SMILES Cc1ccc(OCCC(=O)N2C[C@H](O)C[C@@H]2C(=O)OCCOCCOCCOC(=O)c2ccc(-c3c4nc(c(-c5cccc(S(=O)(=O)[O-])c5F)c5ccc([nH]5)c(-c5cccc(S(=O)(=O)[O-])c5F)c5nc(c(-c6cccc(S(=O)(=O)[O-])c6F)c6ccc3[nH]6)C=C5)C=C4)cc2)cc1
REMARK SMILES IDX 23 1 22 2 21 3 20 4 19 5 17 6 18 7 16 8 11 9 12 10 13 11
REMARK SMILES IDX 15 12 9 13 10 14 8 15 7 16 6 17 5 18 1 19 2 20 3 21 95 22
REMARK SMILES IDX 4 23 94 24 14 25 24 27 25 28 26 29 27 30 28 31 29 32 30 33
REMARK SMILES IDX 31 34 32 35 93 36 33 37 92 38 34 39 35 40 36 41 86 42 37 43
REMARK SMILES IDX 91 44 85 45 87 46 38 47 90 48 84 49 83 50 39 52 71 53 51 54
REMARK SMILES IDX 70 55 52 56 55 57 69 58 88 59 53 60 54 61 68 63 89 64 56 65
REMARK SMILES IDX 40 66 41 67 49 68 42 69 44 70 50 71 43 72 45 73 46 74 47 75
REMARK SMILES IDX 48 76 72 77 73 78 81 79 74 80 76 81 82 82 75 83 77 84 78 85
REMARK SMILES IDX 79 86 80 87 57 88 58 89 66 90 59 91 61 92 67 93 60 94 62 95
REMARK SMILES IDX 63 96 64 97 65 98
REMARK H PARENT 14 26 87 51 55 62
REMARK Flexibility Score: inf
ROOT
ATOM      1  C   UNL A   1      30.668  26.647  23.786  1.00  0.00     0.188 C 
ENDROOT
BRANCH   1   2
ATOM      2  O   UNL A   1      30.052  26.179  24.973  1.00  0.00    -0.376 OA
BRANCH   2   3
ATOM      3  C   UNL A   1      30.261  24.792  25.214  1.00  0.00     0.202 C 
BRANCH   3   4
ATOM      4  C   UNL A   1      31.064  24.335  26.509  1.00  0.00     0.261 C 
BRANCH   4   5
ATOM      5  O   UNL A   1      32.500  23.747  26.668  1.00  0.00    -0.462 OA
BRANCH   5   6
ATOM      6  C   UNL A   1      32.997  22.422  26.659  1.00  0.00     0.329 C 
ATOM      7  O   UNL A   1      33.060  21.811  27.725  1.00  0.00    -0.250 OA
BRANCH   6   8
ATOM      8  C   UNL A   1      33.338  21.548  25.344  1.00  0.00     0.197 C 
ATOM      9  N   UNL A   1      32.433  21.064  24.212  1.00  0.00    -0.326 N 
ATOM     10  C   UNL A   1      32.300  19.635  24.289  1.00  0.00     0.152 C 
ATOM     11  C   UNL A   1      33.263  19.139  25.346  1.00  0.00     0.136 C 
ATOM     12  C   UNL A   1      34.124  20.321  25.741  1.00  0.00     0.070 C 
BRANCH   9  13
ATOM     13  C   UNL A   1      32.390  21.543  22.880  1.00  0.00     0.226 C 
ATOM     14  O   UNL A   1      31.681  21.036  22.014  1.00  0.00    -0.275 OA
BRANCH  13  15
ATOM     15  C   UNL A   1      33.331  22.740  22.549  1.00  0.00     0.141 C 
BRANCH  15  16
ATOM     16  C   UNL A   1      33.195  24.031  23.381  1.00  0.00     0.239 C 
BRANCH  16  17
ATOM     17  O   UNL A   1      34.408  24.803  23.527  1.00  0.00    -0.493 OA
BRANCH  17  18
ATOM     18  C   UNL A   1      35.512  24.139  23.994  1.00  0.00     0.119 A 
ATOM     19  C   UNL A   1      37.946  20.919  25.411  1.00  0.00     0.044 C 
ATOM     20  C   UNL A   1      37.255  22.143  24.882  1.00  0.00    -0.051 A 
ATOM     21  C   UNL A   1      37.031  22.314  23.510  1.00  0.00     0.007 A 
ATOM     22  C   UNL A   1      36.748  23.090  25.776  1.00  0.00     0.007 A 
ATOM     23  C   UNL A   1      36.165  23.320  23.063  1.00  0.00     0.046 A 
ATOM     24  C   UNL A   1      35.893  24.096  25.332  1.00  0.00     0.046 A 
ENDBRANCH  17  18
ENDBRANCH  16  17
ENDBRANCH  15  16
ENDBRANCH  13  15
ENDBRANCH   9  13
BRANCH  11  25
ATOM     25  O   UNL A   1      32.547  18.610  26.448  1.00  0.00    -0.391 OA
ATOM     26  H   UNL A   1      32.273  17.701  26.249  1.00  0.00     0.211 HD
ENDBRANCH  11  25
ENDBRANCH   6   8
ENDBRANCH   5   6
ENDBRANCH   4   5
ENDBRANCH   3   4
ENDBRANCH   2   3
ENDBRANCH   1   2
BRANCH   1  27
ATOM     27  C   UNL A   1      31.683  27.781  24.025  1.00  0.00     0.188 C 
BRANCH  27  28
ATOM     28  O   UNL A   1      31.354  28.980  23.316  1.00  0.00    -0.376 OA
BRANCH  28  29
ATOM     29  C   UNL A   1      30.844  30.049  24.114  1.00  0.00     0.202 C 
BRANCH  29  30
ATOM     30  C   UNL A   1      31.028  29.788  25.613  1.00  0.00     0.261 C 
BRANCH  30  31
ATOM     31  O   UNL A   1      32.306  30.330  26.013  1.00  0.00    -0.460 OA
BRANCH  31  32
ATOM     32  C   UNL A   1      32.882  29.666  27.048  1.00  0.00     0.338 C 
ATOM     33  O   UNL A   1      32.301  28.962  27.843  1.00  0.00    -0.246 OA
BRANCH  32  34
ATOM     34  C   UNL A   1      34.241  30.249  27.241  1.00  0.00     0.060 A 
ATOM     35  C   UNL A   1      35.258  29.478  26.764  1.00  0.00     0.016 A 
ATOM     36  C   UNL A   1      34.593  31.347  28.029  1.00  0.00     0.016 A 
ATOM     37  C   UNL A   1      36.567  29.725  27.206  1.00  0.00     0.010 A 
ATOM     38  C   UNL A   1      35.937  31.534  28.490  1.00  0.00     0.010 A 
ATOM     39  C   UNL A   1      36.960  30.626  28.198  1.00  0.00    -0.014 A 
BRANCH  39  40
ATOM     40  C   UNL A   1      38.272  30.624  29.037  1.00  0.00     0.031 A 
ATOM     41  C   UNL A   1      39.040  29.363  28.918  1.00  0.00     0.074 A 
ATOM     42  C   UNL A   1      38.879  31.390  30.020  1.00  0.00     0.049 A 
ATOM     43  N   UNL A   1      39.985  29.083  28.082  1.00  0.00    -0.248 NA
ATOM     44  C   UNL A   1      38.691  28.301  29.859  1.00  0.00     0.031 C 
ATOM     45  C   UNL A   1      40.326  31.414  30.282  1.00  0.00     0.029 A 
ATOM     46  N   UNL A   1      38.436  32.255  31.038  1.00  0.00    -0.354 N 
ATOM     47  C   UNL A   1      40.364  27.782  28.395  1.00  0.00     0.074 A 
ATOM     48  C   UNL A   1      39.391  27.293  29.359  1.00  0.00     0.031 C 
ATOM     49  C   UNL A   1      40.603  32.109  31.405  1.00  0.00     0.029 A 
ATOM     50  C   UNL A   1      39.359  32.456  32.073  1.00  0.00     0.049 A 
ATOM     51  H   UNL A   1      37.549  32.684  31.024  1.00  0.00     0.167 HD
ATOM     52  C   UNL A   1      41.646  27.475  28.715  1.00  0.00     0.034 A 
ATOM     53  C   UNL A   1      39.039  32.384  33.417  1.00  0.00     0.034 A 
ATOM     54  C   UNL A   1      42.198  28.137  29.893  1.00  0.00     0.049 A 
ATOM     55  C   UNL A   1      39.801  31.226  34.034  1.00  0.00     0.074 A 
ATOM     56  C   UNL A   1      43.076  29.188  30.091  1.00  0.00     0.029 A 
ATOM     57  N   UNL A   1      41.714  27.817  31.162  1.00  0.00    -0.354 N 
ATOM     58  N   UNL A   1      40.567  30.445  33.326  1.00  0.00    -0.248 NA
ATOM     59  C   UNL A   1      39.694  30.780  35.420  1.00  0.00     0.031 C 
ATOM     60  C   UNL A   1      43.076  29.521  31.479  1.00  0.00     0.029 A 
ATOM     61  C   UNL A   1      42.231  28.649  32.144  1.00  0.00     0.049 A 
ATOM     62  H   UNL A   1      41.079  27.086  31.339  1.00  0.00     0.167 HD
ATOM     63  C   UNL A   1      40.998  29.402  34.077  1.00  0.00     0.074 A 
ATOM     64  C   UNL A   1      40.364  29.616  35.369  1.00  0.00     0.031 C 
ATOM     65  C   UNL A   1      41.850  28.473  33.554  1.00  0.00     0.034 A 
BRANCH  52  66
ATOM     66  C   UNL A   1      42.308  26.619  27.676  1.00  0.00     0.023 A 
ATOM     67  C   UNL A   1      42.460  27.103  26.370  1.00  0.00     0.012 A 
ATOM     68  C   UNL A   1      42.806  25.308  27.958  1.00  0.00     0.148 A 
ATOM     69  C   UNL A   1      43.046  26.313  25.373  1.00  0.00     0.002 A 
ATOM     70  C   UNL A   1      43.374  24.521  26.962  1.00  0.00     0.091 A 
ATOM     71  F   UNL A   1      42.720  24.823  29.207  1.00  0.00    -0.205 F 
ATOM     72  C   UNL A   1      43.497  25.024  25.664  1.00  0.00     0.022 A 
BRANCH  70  73
ATOM     73  S   UNL A   1      43.964  22.847  27.274  1.00  0.00     0.127 S 
ATOM     74  O   UNL A   1      42.731  22.155  27.648  1.00  0.00    -0.237 OA
ATOM     75  O   UNL A   1      44.510  22.452  25.975  1.00  0.00    -0.237 OA
ATOM     76  O   UNL A   1      44.959  22.951  28.335  1.00  0.00    -0.744 OA
ENDBRANCH  70  73
ENDBRANCH  52  66
BRANCH  53  77
ATOM     77  C   UNL A   1      37.681  32.856  33.946  1.00  0.00     0.023 A 
ATOM     78  C   UNL A   1      37.663  33.563  35.169  1.00  0.00     0.012 A 
ATOM     79  C   UNL A   1      36.441  32.776  33.258  1.00  0.00     0.148 A 
ATOM     80  C   UNL A   1      36.529  34.264  35.613  1.00  0.00     0.002 A 
ATOM     81  C   UNL A   1      35.329  33.529  33.670  1.00  0.00     0.091 A 
ATOM     82  F   UNL A   1      36.338  31.997  32.174  1.00  0.00    -0.205 F 
ATOM     83  C   UNL A   1      35.378  34.291  34.839  1.00  0.00     0.022 A 
BRANCH  81  84
ATOM     84  S   UNL A   1      33.852  33.725  32.647  1.00  0.00     0.127 S 
ATOM     85  O   UNL A   1      34.303  33.225  31.351  1.00  0.00    -0.237 OA
ATOM     86  O   UNL A   1      32.883  32.860  33.324  1.00  0.00    -0.237 OA
ATOM     87  O   UNL A   1      33.524  35.144  32.702  1.00  0.00    -0.744 OA
ENDBRANCH  81  84
ENDBRANCH  53  77
BRANCH  65  88
ATOM     88  C   UNL A   1      42.473  27.382  34.387  1.00  0.00     0.023 A 
ATOM     89  C   UNL A   1      41.958  26.069  34.392  1.00  0.00     0.012 A 
ATOM     90  C   UNL A   1      43.518  27.660  35.295  1.00  0.00     0.148 A 
ATOM     91  C   UNL A   1      42.518  25.053  35.168  1.00  0.00     0.002 A 
ATOM     92  C   UNL A   1      44.008  26.673  36.139  1.00  0.00     0.091 A 
ATOM     93  F   UNL A   1      44.046  28.887  35.343  1.00  0.00    -0.205 F 
ATOM     94  C   UNL A   1      43.541  25.359  36.050  1.00  0.00     0.022 A 
BRANCH  92  95
ATOM     95  S   UNL A   1      45.177  27.031  37.453  1.00  0.00     0.127 S 
ATOM     96  O   UNL A   1      45.207  25.754  38.170  1.00  0.00    -0.237 OA
ATOM     97  O   UNL A   1      46.389  27.337  36.697  1.00  0.00    -0.237 OA
ATOM     98  O   UNL A   1      44.616  28.141  38.210  1.00  0.00    -0.744 OA
ENDBRANCH  92  95
ENDBRANCH  65  88
ENDBRANCH  39  40
ENDBRANCH  32  34
ENDBRANCH  31  32
ENDBRANCH  30  31
ENDBRANCH  29  30
ENDBRANCH  28  29
ENDBRANCH  27  28
ENDBRANCH   1  27
TORSDOF 26
ENDMDL
