MODEL 1
REMARK VINA RESULT:      -8.9      0.000      0.000
REMARK SMILES CN(CC(C)(C)O)S(=O)(=O)CCCC(=O)OCCOCCOCCOC(=O)c1ccc(-c2c3nc(c(-c4cccc(S(=O)(=O)[O-])c4F)c4ccc([nH]4)c(-c4cccc(S(=O)(=O)[O-])c4F)c4nc(c(-c5cccc(S(=O)(=O)[O-])c5F)c5ccc2[nH]5)C=C4)C=C3)cc1
REMARK SMILES IDX 18 1 17 2 16 3 14 4 15 5 13 6 12 7 11 8 8 9 9 10 10 11 2 12
REMARK SMILES IDX 1 13 3 14 4 15 5 16 6 17 7 18 19 20 20 21 21 22 22 23 23 24
REMARK SMILES IDX 24 25 25 26 26 27 27 28 28 29 29 30 90 31 30 32 89 33 31 34
REMARK SMILES IDX 32 35 33 36 83 37 34 38 88 39 82 40 84 41 35 42 87 43 81 44
REMARK SMILES IDX 80 45 36 47 68 48 48 49 67 50 49 51 52 52 66 53 85 54 50 55
REMARK SMILES IDX 51 56 65 58 86 59 53 60 37 61 38 62 46 63 39 64 41 65 47 66
REMARK SMILES IDX 40 67 42 68 43 69 44 70 45 71 69 72 70 73 78 74 71 75 73 76
REMARK SMILES IDX 79 77 72 78 74 79 75 80 76 81 77 82 54 83 55 84 63 85 56 86
REMARK SMILES IDX 58 87 64 88 57 89 59 90 60 91 61 92 62 93
REMARK H PARENT 7 19 84 46 52 57
REMARK Flexibility Score: inf
ROOT
ATOM      1  C   UNL A   1      34.336  24.535  24.932  1.00  0.00     0.202 C 
ENDROOT
BRANCH   1   2
ATOM      2  C   UNL A   1      34.152  23.771  26.255  1.00  0.00     0.261 C 
BRANCH   2   3
ATOM      3  O   UNL A   1      32.969  22.934  26.315  1.00  0.00    -0.463 OA
BRANCH   3   4
ATOM      4  C   UNL A   1      31.772  23.568  26.298  1.00  0.00     0.305 C 
ATOM      5  O   UNL A   1      31.367  24.262  27.225  1.00  0.00    -0.252 OA
BRANCH   4   6
ATOM      6  C   UNL A   1      30.947  23.401  25.025  1.00  0.00     0.124 C 
BRANCH   6   7
ATOM      7  C   UNL A   1      30.554  24.513  24.043  1.00  0.00     0.029 C 
BRANCH   7   8
ATOM      8  C   UNL A   1      31.113  25.918  24.209  1.00  0.00     0.155 C 
BRANCH   8   9
ATOM      9  S   UNL A   1      30.330  27.169  23.198  1.00  0.00     0.213 S 
ATOM     10  O   UNL A   1      28.901  27.047  23.368  1.00  0.00    -0.212 OA
ATOM     11  O   UNL A   1      30.900  27.083  21.868  1.00  0.00    -0.212 OA
BRANCH   9  12
ATOM     12  N   UNL A   1      30.830  28.609  23.888  1.00  0.00    -0.202 NA
ATOM     13  C   UNL A   1      32.271  28.907  23.868  1.00  0.00     0.124 C 
BRANCH  12  14
ATOM     14  C   UNL A   1      29.946  29.793  24.014  1.00  0.00     0.136 C 
BRANCH  14  15
ATOM     15  C   UNL A   1      29.304  30.419  22.761  1.00  0.00     0.073 C 
ATOM     16  C   UNL A   1      28.063  29.667  22.276  1.00  0.00     0.043 C 
ATOM     17  C   UNL A   1      28.872  31.850  23.135  1.00  0.00     0.043 C 
BRANCH  15  18
ATOM     18  O   UNL A   1      30.258  30.533  21.705  1.00  0.00    -0.389 OA
ATOM     19  H   UNL A   1      30.229  31.431  21.339  1.00  0.00     0.211 HD
ENDBRANCH  15  18
ENDBRANCH  14  15
ENDBRANCH  12  14
ENDBRANCH   9  12
ENDBRANCH   8   9
ENDBRANCH   7   8
ENDBRANCH   6   7
ENDBRANCH   4   6
ENDBRANCH   3   4
ENDBRANCH   2   3
ENDBRANCH   1   2
BRANCH   1  20
ATOM     20  O   UNL A   1      35.477  24.235  24.138  1.00  0.00    -0.376 OA
BRANCH  20  21
ATOM     21  C   UNL A   1      36.511  23.443  24.710  1.00  0.00     0.188 C 
BRANCH  21  22
ATOM     22  C   UNL A   1      36.802  22.074  24.071  1.00  0.00     0.188 C 
BRANCH  22  23
ATOM     23  O   UNL A   1      36.542  20.964  24.902  1.00  0.00    -0.376 OA
BRANCH  23  24
ATOM     24  C   UNL A   1      37.659  20.321  25.487  1.00  0.00     0.202 C 
BRANCH  24  25
ATOM     25  C   UNL A   1      38.969  21.109  25.672  1.00  0.00     0.261 C 
BRANCH  25  26
ATOM     26  O   UNL A   1      40.153  20.354  25.983  1.00  0.00    -0.460 OA
BRANCH  26  27
ATOM     27  C   UNL A   1      40.708  20.498  27.215  1.00  0.00     0.338 C 
ATOM     28  O   UNL A   1      41.064  19.606  27.956  1.00  0.00    -0.246 OA
BRANCH  27  29
ATOM     29  C   UNL A   1      41.069  21.937  27.360  1.00  0.00     0.060 A 
ATOM     30  C   UNL A   1      41.738  22.361  28.520  1.00  0.00     0.016 A 
ATOM     31  C   UNL A   1      40.845  22.838  26.318  1.00  0.00     0.016 A 
ATOM     32  C   UNL A   1      42.198  23.678  28.631  1.00  0.00     0.010 A 
ATOM     33  C   UNL A   1      41.275  24.164  26.446  1.00  0.00     0.010 A 
ATOM     34  C   UNL A   1      41.948  24.596  27.604  1.00  0.00    -0.014 A 
BRANCH  34  35
ATOM     35  C   UNL A   1      42.260  26.040  27.776  1.00  0.00     0.031 A 
ATOM     36  C   UNL A   1      43.641  26.522  27.425  1.00  0.00     0.074 A 
ATOM     37  C   UNL A   1      41.360  26.901  28.289  1.00  0.00     0.049 A 
ATOM     38  N   UNL A   1      44.180  27.698  27.608  1.00  0.00    -0.248 NA
ATOM     39  C   UNL A   1      44.536  25.542  26.785  1.00  0.00     0.031 C 
ATOM     40  C   UNL A   1      39.986  26.570  28.659  1.00  0.00     0.029 A 
ATOM     41  N   UNL A   1      41.490  28.227  28.627  1.00  0.00    -0.354 N 
ATOM     42  C   UNL A   1      45.486  27.591  27.148  1.00  0.00     0.074 A 
ATOM     43  C   UNL A   1      45.657  26.239  26.664  1.00  0.00     0.031 C 
ATOM     44  C   UNL A   1      39.413  27.651  29.220  1.00  0.00     0.029 A 
ATOM     45  C   UNL A   1      40.390  28.737  29.282  1.00  0.00     0.049 A 
ATOM     46  H   UNL A   1      42.290  28.761  28.420  1.00  0.00     0.167 HD
ATOM     47  C   UNL A   1      46.457  28.534  27.128  1.00  0.00     0.034 A 
ATOM     48  C   UNL A   1      40.212  29.922  29.903  1.00  0.00     0.034 A 
ATOM     49  C   UNL A   1      46.288  29.884  27.593  1.00  0.00     0.049 A 
ATOM     50  C   UNL A   1      41.329  30.938  29.905  1.00  0.00     0.074 A 
ATOM     51  C   UNL A   1      47.199  30.925  27.550  1.00  0.00     0.029 A 
ATOM     52  N   UNL A   1      45.149  30.375  28.210  1.00  0.00    -0.354 N 
ATOM     53  N   UNL A   1      42.512  30.870  29.343  1.00  0.00    -0.248 NA
ATOM     54  C   UNL A   1      41.079  32.207  30.609  1.00  0.00     0.031 C 
ATOM     55  C   UNL A   1      46.629  32.032  28.182  1.00  0.00     0.029 A 
ATOM     56  C   UNL A   1      45.346  31.695  28.580  1.00  0.00     0.049 A 
ATOM     57  H   UNL A   1      44.323  29.862  28.362  1.00  0.00     0.167 HD
ATOM     58  C   UNL A   1      43.131  32.091  29.600  1.00  0.00     0.074 A 
ATOM     59  C   UNL A   1      42.181  32.894  30.342  1.00  0.00     0.031 C 
ATOM     60  C   UNL A   1      44.379  32.505  29.273  1.00  0.00     0.034 A 
BRANCH  47  61
ATOM     61  C   UNL A   1      47.805  28.151  26.583  1.00  0.00     0.023 A 
ATOM     62  C   UNL A   1      48.860  27.852  27.466  1.00  0.00     0.012 A 
ATOM     63  C   UNL A   1      47.991  27.989  25.195  1.00  0.00     0.148 A 
ATOM     64  C   UNL A   1      50.088  27.409  26.975  1.00  0.00     0.002 A 
ATOM     65  C   UNL A   1      49.202  27.505  24.717  1.00  0.00     0.091 A 
ATOM     66  F   UNL A   1      46.977  28.300  24.375  1.00  0.00    -0.205 F 
ATOM     67  C   UNL A   1      50.253  27.222  25.604  1.00  0.00     0.022 A 
BRANCH  65  68
ATOM     68  S   UNL A   1      49.488  27.153  22.980  1.00  0.00     0.127 S 
ATOM     69  O   UNL A   1      49.480  28.496  22.402  1.00  0.00    -0.237 OA
ATOM     70  O   UNL A   1      50.802  26.511  23.012  1.00  0.00    -0.237 OA
ATOM     71  O   UNL A   1      48.394  26.290  22.555  1.00  0.00    -0.744 OA
ENDBRANCH  65  68
ENDBRANCH  47  61
BRANCH  48  72
ATOM     72  C   UNL A   1      38.929  30.226  30.607  1.00  0.00     0.023 A 
ATOM     73  C   UNL A   1      38.614  29.560  31.806  1.00  0.00     0.012 A 
ATOM     74  C   UNL A   1      38.002  31.141  30.068  1.00  0.00     0.148 A 
ATOM     75  C   UNL A   1      37.382  29.762  32.432  1.00  0.00     0.002 A 
ATOM     76  C   UNL A   1      36.804  31.385  30.728  1.00  0.00     0.091 A 
ATOM     77  F   UNL A   1      38.307  31.748  28.912  1.00  0.00    -0.205 F 
ATOM     78  C   UNL A   1      36.482  30.681  31.898  1.00  0.00     0.022 A 
BRANCH  76  79
ATOM     79  S   UNL A   1      35.640  32.636  30.177  1.00  0.00     0.127 S 
ATOM     80  O   UNL A   1      35.495  32.309  28.762  1.00  0.00    -0.237 OA
ATOM     81  O   UNL A   1      34.467  32.342  31.002  1.00  0.00    -0.237 OA
ATOM     82  O   UNL A   1      36.272  33.915  30.471  1.00  0.00    -0.744 OA
ENDBRANCH  76  79
ENDBRANCH  48  72
BRANCH  60  83
ATOM     83  C   UNL A   1      44.794  33.897  29.676  1.00  0.00     0.023 A 
ATOM     84  C   UNL A   1      45.499  34.100  30.880  1.00  0.00     0.012 A 
ATOM     85  C   UNL A   1      44.558  34.996  28.824  1.00  0.00     0.148 A 
ATOM     86  C   UNL A   1      45.929  35.374  31.246  1.00  0.00     0.002 A 
ATOM     87  C   UNL A   1      45.036  36.255  29.170  1.00  0.00     0.091 A 
ATOM     88  F   UNL A   1      43.879  34.787  27.687  1.00  0.00    -0.205 F 
ATOM     89  C   UNL A   1      45.710  36.448  30.387  1.00  0.00     0.022 A 
BRANCH  87  90
ATOM     90  S   UNL A   1      44.887  37.680  28.086  1.00  0.00     0.127 S 
ATOM     91  O   UNL A   1      45.563  37.208  26.879  1.00  0.00    -0.237 OA
ATOM     92  O   UNL A   1      43.436  37.819  27.959  1.00  0.00    -0.237 OA
ATOM     93  O   UNL A   1      45.544  38.782  28.775  1.00  0.00    -0.744 OA
ENDBRANCH  87  90
ENDBRANCH  60  83
ENDBRANCH  34  35
ENDBRANCH  27  29
ENDBRANCH  26  27
ENDBRANCH  25  26
ENDBRANCH  24  25
ENDBRANCH  23  24
ENDBRANCH  22  23
ENDBRANCH  21  22
ENDBRANCH  20  21
ENDBRANCH   1  20
TORSDOF 27
ENDMDL
MODEL 2
REMARK VINA RESULT:      -8.7      4.859      8.076
REMARK SMILES CN(CC(C)(C)O)S(=O)(=O)CCCC(=O)OCCOCCOCCOC(=O)c1ccc(-c2c3nc(c(-c4cccc(S(=O)(=O)[O-])c4F)c4ccc([nH]4)c(-c4cccc(S(=O)(=O)[O-])c4F)c4nc(c(-c5cccc(S(=O)(=O)[O-])c5F)c5ccc2[nH]5)C=C4)C=C3)cc1
REMARK SMILES IDX 18 1 17 2 16 3 14 4 15 5 13 6 12 7 11 8 8 9 9 10 10 11 2 12
REMARK SMILES IDX 1 13 3 14 4 15 5 16 6 17 7 18 19 20 20 21 21 22 22 23 23 24
REMARK SMILES IDX 24 25 25 26 26 27 27 28 28 29 29 30 90 31 30 32 89 33 31 34
REMARK SMILES IDX 32 35 33 36 83 37 34 38 88 39 82 40 84 41 35 42 87 43 81 44
REMARK SMILES IDX 80 45 36 47 68 48 48 49 67 50 49 51 52 52 66 53 85 54 50 55
REMARK SMILES IDX 51 56 65 58 86 59 53 60 37 61 38 62 46 63 39 64 41 65 47 66
REMARK SMILES IDX 40 67 42 68 43 69 44 70 45 71 69 72 70 73 78 74 71 75 73 76
REMARK SMILES IDX 79 77 72 78 74 79 75 80 76 81 77 82 54 83 55 84 63 85 56 86
REMARK SMILES IDX 58 87 64 88 57 89 59 90 60 91 61 92 62 93
REMARK H PARENT 7 19 84 46 52 57
REMARK Flexibility Score: inf
ROOT
ATOM      1  C   UNL A   1      36.041  22.691  23.605  1.00  0.00     0.202 C 
ENDROOT
BRANCH   1   2
ATOM      2  C   UNL A   1      36.128  22.057  25.004  1.00  0.00     0.261 C 
BRANCH   2   3
ATOM      3  O   UNL A   1      34.854  21.663  25.574  1.00  0.00    -0.463 OA
BRANCH   3   4
ATOM      4  C   UNL A   1      34.453  22.326  26.685  1.00  0.00     0.305 C 
ATOM      5  O   UNL A   1      35.219  22.959  27.404  1.00  0.00    -0.252 OA
BRANCH   4   6
ATOM      6  C   UNL A   1      32.958  22.274  26.988  1.00  0.00     0.124 C 
BRANCH   6   7
ATOM      7  C   UNL A   1      31.821  22.236  25.957  1.00  0.00     0.029 C 
BRANCH   7   8
ATOM      8  C   UNL A   1      30.475  22.867  26.275  1.00  0.00     0.155 C 
BRANCH   8   9
ATOM      9  S   UNL A   1      30.418  24.648  26.127  1.00  0.00     0.213 S 
ATOM     10  O   UNL A   1      31.654  25.178  26.656  1.00  0.00    -0.212 OA
ATOM     11  O   UNL A   1      29.156  25.098  26.680  1.00  0.00    -0.212 OA
BRANCH   9  12
ATOM     12  N   UNL A   1      30.388  24.912  24.475  1.00  0.00    -0.202 NA
ATOM     13  C   UNL A   1      30.650  23.758  23.599  1.00  0.00     0.124 C 
BRANCH  12  14
ATOM     14  C   UNL A   1      29.622  26.015  23.847  1.00  0.00     0.136 C 
BRANCH  14  15
ATOM     15  C   UNL A   1      30.284  27.387  23.617  1.00  0.00     0.073 C 
ATOM     16  C   UNL A   1      31.217  27.414  22.405  1.00  0.00     0.043 C 
ATOM     17  C   UNL A   1      29.154  28.404  23.365  1.00  0.00     0.043 C 
BRANCH  15  18
ATOM     18  O   UNL A   1      30.979  27.817  24.788  1.00  0.00    -0.389 OA
ATOM     19  H   UNL A   1      31.025  27.085  25.423  1.00  0.00     0.211 HD
ENDBRANCH  15  18
ENDBRANCH  14  15
ENDBRANCH  12  14
ENDBRANCH   9  12
ENDBRANCH   8   9
ENDBRANCH   7   8
ENDBRANCH   6   7
ENDBRANCH   4   6
ENDBRANCH   3   4
ENDBRANCH   2   3
ENDBRANCH   1   2
BRANCH   1  20
ATOM     20  O   UNL A   1      35.665  24.058  23.510  1.00  0.00    -0.376 OA
BRANCH  20  21
ATOM     21  C   UNL A   1      34.349  24.427  23.902  1.00  0.00     0.188 C 
BRANCH  21  22
ATOM     22  C   UNL A   1      34.027  25.928  24.013  1.00  0.00     0.188 C 
BRANCH  22  23
ATOM     23  O   UNL A   1      33.636  26.359  25.298  1.00  0.00    -0.376 OA
BRANCH  23  24
ATOM     24  C   UNL A   1      34.419  27.368  25.906  1.00  0.00     0.202 C 
BRANCH  24  25
ATOM     25  C   UNL A   1      33.720  28.489  26.697  1.00  0.00     0.261 C 
BRANCH  25  26
ATOM     26  O   UNL A   1      34.170  29.836  26.467  1.00  0.00    -0.460 OA
BRANCH  26  27
ATOM     27  C   UNL A   1      34.457  30.615  27.543  1.00  0.00     0.338 C 
ATOM     28  O   UNL A   1      33.689  31.346  28.132  1.00  0.00    -0.246 OA
BRANCH  27  29
ATOM     29  C   UNL A   1      35.794  30.185  28.043  1.00  0.00     0.060 A 
ATOM     30  C   UNL A   1      35.900  29.643  29.334  1.00  0.00     0.016 A 
ATOM     31  C   UNL A   1      36.912  30.218  27.208  1.00  0.00     0.016 A 
ATOM     32  C   UNL A   1      37.116  29.118  29.784  1.00  0.00     0.010 A 
ATOM     33  C   UNL A   1      38.137  29.724  27.674  1.00  0.00     0.010 A 
ATOM     34  C   UNL A   1      38.251  29.177  28.966  1.00  0.00    -0.014 A 
BRANCH  34  35
ATOM     35  C   UNL A   1      39.591  28.798  29.486  1.00  0.00     0.031 A 
ATOM     36  C   UNL A   1      40.319  27.657  28.831  1.00  0.00     0.074 A 
ATOM     37  C   UNL A   1      40.131  29.410  30.558  1.00  0.00     0.049 A 
ATOM     38  N   UNL A   1      41.431  27.070  29.186  1.00  0.00    -0.248 NA
ATOM     39  C   UNL A   1      39.707  27.101  27.611  1.00  0.00     0.031 C 
ATOM     40  C   UNL A   1      39.539  30.535  31.279  1.00  0.00     0.029 A 
ATOM     41  N   UNL A   1      41.286  29.136  31.251  1.00  0.00    -0.354 N 
ATOM     42  C   UNL A   1      41.632  26.050  28.264  1.00  0.00     0.074 A 
ATOM     43  C   UNL A   1      40.533  26.106  27.324  1.00  0.00     0.031 C 
ATOM     44  C   UNL A   1      40.310  30.823  32.345  1.00  0.00     0.029 A 
ATOM     45  C   UNL A   1      41.427  29.882  32.401  1.00  0.00     0.049 A 
ATOM     46  H   UNL A   1      41.949  28.472  30.955  1.00  0.00     0.167 HD
ATOM     47  C   UNL A   1      42.639  25.149  28.203  1.00  0.00     0.034 A 
ATOM     48  C   UNL A   1      42.323  29.782  33.405  1.00  0.00     0.034 A 
ATOM     49  C   UNL A   1      43.741  25.100  29.126  1.00  0.00     0.049 A 
ATOM     50  C   UNL A   1      43.410  28.737  33.334  1.00  0.00     0.074 A 
ATOM     51  C   UNL A   1      44.842  24.260  29.100  1.00  0.00     0.029 A 
ATOM     52  N   UNL A   1      43.872  25.897  30.250  1.00  0.00    -0.354 N 
ATOM     53  N   UNL A   1      43.665  27.870  32.383  1.00  0.00    -0.248 NA
ATOM     54  C   UNL A   1      44.350  28.670  34.466  1.00  0.00     0.031 C 
ATOM     55  C   UNL A   1      45.614  24.519  30.235  1.00  0.00     0.029 A 
ATOM     56  C   UNL A   1      45.019  25.548  30.944  1.00  0.00     0.049 A 
ATOM     57  H   UNL A   1      43.243  26.606  30.517  1.00  0.00     0.167 HD
ATOM     58  C   UNL A   1      44.805  27.179  32.788  1.00  0.00     0.074 A 
ATOM     59  C   UNL A   1      45.211  27.749  34.055  1.00  0.00     0.031 C 
ATOM     60  C   UNL A   1      45.446  26.152  32.178  1.00  0.00     0.034 A 
BRANCH  47  61
ATOM     61  C   UNL A   1      42.612  24.130  27.099  1.00  0.00     0.023 A 
ATOM     62  C   UNL A   1      43.324  24.367  25.906  1.00  0.00     0.012 A 
ATOM     63  C   UNL A   1      41.963  22.893  27.287  1.00  0.00     0.148 A 
ATOM     64  C   UNL A   1      43.379  23.392  24.911  1.00  0.00     0.002 A 
ATOM     65  C   UNL A   1      42.060  21.910  26.311  1.00  0.00     0.091 A 
ATOM     66  F   UNL A   1      41.275  22.701  28.422  1.00  0.00    -0.205 F 
ATOM     67  C   UNL A   1      42.761  22.161  25.120  1.00  0.00     0.022 A 
BRANCH  65  68
ATOM     68  S   UNL A   1      41.369  20.267  26.517  1.00  0.00     0.127 S 
ATOM     69  O   UNL A   1      41.948  19.559  25.376  1.00  0.00    -0.237 OA
ATOM     70  O   UNL A   1      41.909  19.871  27.818  1.00  0.00    -0.237 OA
ATOM     71  O   UNL A   1      39.922  20.427  26.477  1.00  0.00    -0.744 OA
ENDBRANCH  65  68
ENDBRANCH  47  61
BRANCH  48  72
ATOM     72  C   UNL A   1      42.233  30.681  34.596  1.00  0.00     0.023 A 
ATOM     73  C   UNL A   1      41.424  30.317  35.688  1.00  0.00     0.012 A 
ATOM     74  C   UNL A   1      42.913  31.915  34.629  1.00  0.00     0.148 A 
ATOM     75  C   UNL A   1      41.255  31.183  36.771  1.00  0.00     0.002 A 
ATOM     76  C   UNL A   1      42.790  32.746  35.736  1.00  0.00     0.091 A 
ATOM     77  F   UNL A   1      43.660  32.258  33.570  1.00  0.00    -0.205 F 
ATOM     78  C   UNL A   1      41.945  32.392  36.799  1.00  0.00     0.022 A 
BRANCH  76  79
ATOM     79  S   UNL A   1      43.734  34.264  35.910  1.00  0.00     0.127 S 
ATOM     80  O   UNL A   1      43.165  34.833  37.128  1.00  0.00    -0.237 OA
ATOM     81  O   UNL A   1      45.100  33.757  36.045  1.00  0.00    -0.237 OA
ATOM     82  O   UNL A   1      43.493  35.017  34.686  1.00  0.00    -0.744 OA
ENDBRANCH  76  79
ENDBRANCH  48  72
BRANCH  60  83
ATOM     83  C   UNL A   1      46.676  25.589  32.844  1.00  0.00     0.023 A 
ATOM     84  C   UNL A   1      47.939  26.161  32.588  1.00  0.00     0.012 A 
ATOM     85  C   UNL A   1      46.573  24.544  33.786  1.00  0.00     0.148 A 
ATOM     86  C   UNL A   1      49.080  25.682  33.229  1.00  0.00     0.002 A 
ATOM     87  C   UNL A   1      47.707  24.106  34.460  1.00  0.00     0.091 A 
ATOM     88  F   UNL A   1      45.365  24.005  34.010  1.00  0.00    -0.205 F 
ATOM     89  C   UNL A   1      48.963  24.664  34.173  1.00  0.00     0.022 A 
BRANCH  87  90
ATOM     90  S   UNL A   1      47.643  22.868  35.760  1.00  0.00     0.127 S 
ATOM     91  O   UNL A   1      49.057  22.529  35.918  1.00  0.00    -0.237 OA
ATOM     92  O   UNL A   1      47.068  23.621  36.876  1.00  0.00    -0.237 OA
ATOM     93  O   UNL A   1      46.800  21.794  35.255  1.00  0.00    -0.744 OA
ENDBRANCH  87  90
ENDBRANCH  60  83
ENDBRANCH  34  35
ENDBRANCH  27  29
ENDBRANCH  26  27
ENDBRANCH  25  26
ENDBRANCH  24  25
ENDBRANCH  23  24
ENDBRANCH  22  23
ENDBRANCH  21  22
ENDBRANCH  20  21
ENDBRANCH   1  20
TORSDOF 27
ENDMDL
MODEL 3
REMARK VINA RESULT:      -8.3      3.803      5.865
REMARK SMILES CN(CC(C)(C)O)S(=O)(=O)CCCC(=O)OCCOCCOCCOC(=O)c1ccc(-c2c3nc(c(-c4cccc(S(=O)(=O)[O-])c4F)c4ccc([nH]4)c(-c4cccc(S(=O)(=O)[O-])c4F)c4nc(c(-c5cccc(S(=O)(=O)[O-])c5F)c5ccc2[nH]5)C=C4)C=C3)cc1
REMARK SMILES IDX 18 1 17 2 16 3 14 4 15 5 13 6 12 7 11 8 8 9 9 10 10 11 2 12
REMARK SMILES IDX 1 13 3 14 4 15 5 16 6 17 7 18 19 20 20 21 21 22 22 23 23 24
REMARK SMILES IDX 24 25 25 26 26 27 27 28 28 29 29 30 90 31 30 32 89 33 31 34
REMARK SMILES IDX 32 35 33 36 83 37 34 38 88 39 82 40 84 41 35 42 87 43 81 44
REMARK SMILES IDX 80 45 36 47 68 48 48 49 67 50 49 51 52 52 66 53 85 54 50 55
REMARK SMILES IDX 51 56 65 58 86 59 53 60 37 61 38 62 46 63 39 64 41 65 47 66
REMARK SMILES IDX 40 67 42 68 43 69 44 70 45 71 69 72 70 73 78 74 71 75 73 76
REMARK SMILES IDX 79 77 72 78 74 79 75 80 76 81 77 82 54 83 55 84 63 85 56 86
REMARK SMILES IDX 58 87 64 88 57 89 59 90 60 91 61 92 62 93
REMARK H PARENT 7 19 84 46 52 57
REMARK Flexibility Score: inf
ROOT
ATOM      1  C   UNL A   1      37.685  21.066  24.905  1.00  0.00     0.202 C 
ENDROOT
BRANCH   1   2
ATOM      2  C   UNL A   1      36.183  20.774  25.068  1.00  0.00     0.261 C 
BRANCH   2   3
ATOM      3  O   UNL A   1      35.384  21.910  25.485  1.00  0.00    -0.463 OA
BRANCH   3   4
ATOM      4  C   UNL A   1      34.042  21.729  25.521  1.00  0.00     0.305 C 
ATOM      5  O   UNL A   1      33.410  21.589  26.563  1.00  0.00    -0.252 OA
BRANCH   4   6
ATOM      6  C   UNL A   1      33.331  21.744  24.170  1.00  0.00     0.124 C 
BRANCH   6   7
ATOM      7  C   UNL A   1      33.393  22.862  23.120  1.00  0.00     0.029 C 
BRANCH   7   8
ATOM      8  C   UNL A   1      33.172  24.310  23.527  1.00  0.00     0.155 C 
BRANCH   8   9
ATOM      9  S   UNL A   1      31.550  24.673  24.186  1.00  0.00     0.213 S 
ATOM     10  O   UNL A   1      31.590  24.452  25.614  1.00  0.00    -0.212 OA
ATOM     11  O   UNL A   1      30.576  23.961  23.382  1.00  0.00    -0.212 OA
BRANCH   9  12
ATOM     12  N   UNL A   1      31.360  26.311  23.904  1.00  0.00    -0.202 NA
ATOM     13  C   UNL A   1      31.159  26.741  22.511  1.00  0.00     0.124 C 
BRANCH  12  14
ATOM     14  C   UNL A   1      30.855  27.254  24.931  1.00  0.00     0.136 C 
BRANCH  14  15
ATOM     15  C   UNL A   1      31.832  28.178  25.684  1.00  0.00     0.073 C 
ATOM     16  C   UNL A   1      31.589  29.665  25.416  1.00  0.00     0.043 C 
ATOM     17  C   UNL A   1      31.627  27.930  27.190  1.00  0.00     0.043 C 
BRANCH  15  18
ATOM     18  O   UNL A   1      33.186  27.836  25.385  1.00  0.00    -0.389 OA
ATOM     19  H   UNL A   1      33.760  28.125  26.111  1.00  0.00     0.211 HD
ENDBRANCH  15  18
ENDBRANCH  14  15
ENDBRANCH  12  14
ENDBRANCH   9  12
ENDBRANCH   8   9
ENDBRANCH   7   8
ENDBRANCH   6   7
ENDBRANCH   4   6
ENDBRANCH   3   4
ENDBRANCH   2   3
ENDBRANCH   1   2
BRANCH   1  20
ATOM     20  O   UNL A   1      38.367  21.694  25.982  1.00  0.00    -0.376 OA
BRANCH  20  21
ATOM     21  C   UNL A   1      39.685  21.258  26.295  1.00  0.00     0.188 C 
BRANCH  21  22
ATOM     22  C   UNL A   1      40.645  22.277  26.931  1.00  0.00     0.188 C 
BRANCH  22  23
ATOM     23  O   UNL A   1      40.345  23.628  26.658  1.00  0.00    -0.376 OA
BRANCH  23  24
ATOM     24  C   UNL A   1      41.436  24.521  26.542  1.00  0.00     0.202 C 
BRANCH  24  25
ATOM     25  C   UNL A   1      41.230  25.876  25.839  1.00  0.00     0.261 C 
BRANCH  25  26
ATOM     26  O   UNL A   1      42.282  26.335  24.973  1.00  0.00    -0.460 OA
BRANCH  26  27
ATOM     27  C   UNL A   1      43.530  26.482  25.491  1.00  0.00     0.338 C 
ATOM     28  O   UNL A   1      44.515  25.840  25.195  1.00  0.00    -0.246 OA
BRANCH  27  29
ATOM     29  C   UNL A   1      43.530  27.758  26.262  1.00  0.00     0.060 A 
ATOM     30  C   UNL A   1      42.642  28.781  25.892  1.00  0.00     0.016 A 
ATOM     31  C   UNL A   1      44.321  27.903  27.402  1.00  0.00     0.016 A 
ATOM     32  C   UNL A   1      42.533  29.940  26.669  1.00  0.00     0.010 A 
ATOM     33  C   UNL A   1      44.235  29.078  28.158  1.00  0.00     0.010 A 
ATOM     34  C   UNL A   1      43.347  30.107  27.795  1.00  0.00    -0.014 A 
BRANCH  34  35
ATOM     35  C   UNL A   1      43.383  31.401  28.527  1.00  0.00     0.031 A 
ATOM     36  C   UNL A   1      44.452  32.397  28.171  1.00  0.00     0.074 A 
ATOM     37  C   UNL A   1      42.525  31.668  29.530  1.00  0.00     0.049 A 
ATOM     38  N   UNL A   1      44.759  33.527  28.751  1.00  0.00    -0.248 NA
ATOM     39  C   UNL A   1      45.292  32.071  27.005  1.00  0.00     0.031 C 
ATOM     40  C   UNL A   1      41.436  30.799  29.969  1.00  0.00     0.029 A 
ATOM     41  N   UNL A   1      42.468  32.740  30.391  1.00  0.00    -0.354 N 
ATOM     42  C   UNL A   1      45.850  34.027  28.052  1.00  0.00     0.074 A 
ATOM     43  C   UNL A   1      46.145  33.084  26.995  1.00  0.00     0.031 C 
ATOM     44  C   UNL A   1      40.849  31.347  31.050  1.00  0.00     0.029 A 
ATOM     45  C   UNL A   1      41.544  32.585  31.401  1.00  0.00     0.049 A 
ATOM     46  H   UNL A   1      43.033  33.540  30.295  1.00  0.00     0.167 HD
ATOM     47  C   UNL A   1      46.544  35.169  28.269  1.00  0.00     0.034 A 
ATOM     48  C   UNL A   1      41.320  33.328  32.505  1.00  0.00     0.034 A 
ATOM     49  C   UNL A   1      46.245  36.116  29.308  1.00  0.00     0.049 A 
ATOM     50  C   UNL A   1      42.140  34.572  32.745  1.00  0.00     0.074 A 
ATOM     51  C   UNL A   1      46.855  37.333  29.559  1.00  0.00     0.029 A 
ATOM     52  N   UNL A   1      45.276  35.946  30.283  1.00  0.00    -0.354 N 
ATOM     53  N   UNL A   1      43.077  35.105  31.997  1.00  0.00    -0.248 NA
ATOM     54  C   UNL A   1      41.857  35.334  33.973  1.00  0.00     0.031 C 
ATOM     55  C   UNL A   1      46.287  37.877  30.714  1.00  0.00     0.029 A 
ATOM     56  C   UNL A   1      45.293  37.021  31.156  1.00  0.00     0.049 A 
ATOM     57  H   UNL A   1      44.666  35.176  30.346  1.00  0.00     0.167 HD
ATOM     58  C   UNL A   1      43.471  36.271  32.648  1.00  0.00     0.074 A 
ATOM     59  C   UNL A   1      42.650  36.387  33.834  1.00  0.00     0.031 C 
ATOM     60  C   UNL A   1      44.440  37.157  32.307  1.00  0.00     0.034 A 
BRANCH  47  61
ATOM     61  C   UNL A   1      47.706  35.473  27.365  1.00  0.00     0.023 A 
ATOM     62  C   UNL A   1      47.519  36.290  26.232  1.00  0.00     0.012 A 
ATOM     63  C   UNL A   1      49.002  35.032  27.698  1.00  0.00     0.148 A 
ATOM     64  C   UNL A   1      48.605  36.653  25.436  1.00  0.00     0.002 A 
ATOM     65  C   UNL A   1      50.084  35.433  26.926  1.00  0.00     0.091 A 
ATOM     66  F   UNL A   1      49.149  34.238  28.768  1.00  0.00    -0.205 F 
ATOM     67  C   UNL A   1      49.886  36.237  25.791  1.00  0.00     0.022 A 
BRANCH  65  68
ATOM     68  S   UNL A   1      51.780  35.020  27.344  1.00  0.00     0.127 S 
ATOM     69  O   UNL A   1      51.879  35.530  28.710  1.00  0.00    -0.237 OA
ATOM     70  O   UNL A   1      51.773  33.561  27.236  1.00  0.00    -0.237 OA
ATOM     71  O   UNL A   1      52.616  35.703  26.366  1.00  0.00    -0.744 OA
ENDBRANCH  65  68
ENDBRANCH  47  61
BRANCH  48  72
ATOM     72  C   UNL A   1      40.284  32.916  33.500  1.00  0.00     0.023 A 
ATOM     73  C   UNL A   1      40.623  32.023  34.534  1.00  0.00     0.012 A 
ATOM     74  C   UNL A   1      38.955  33.373  33.400  1.00  0.00     0.148 A 
ATOM     75  C   UNL A   1      39.649  31.556  35.420  1.00  0.00     0.002 A 
ATOM     76  C   UNL A   1      38.004  32.953  34.322  1.00  0.00     0.091 A 
ATOM     77  F   UNL A   1      38.643  34.204  32.394  1.00  0.00    -0.205 F 
ATOM     78  C   UNL A   1      38.343  32.028  35.320  1.00  0.00     0.022 A 
BRANCH  76  79
ATOM     79  S   UNL A   1      36.329  33.601  34.340  1.00  0.00     0.127 S 
ATOM     80  O   UNL A   1      36.537  34.982  33.916  1.00  0.00    -0.237 OA
ATOM     81  O   UNL A   1      35.664  32.746  33.357  1.00  0.00    -0.237 OA
ATOM     82  O   UNL A   1      35.855  33.422  35.707  1.00  0.00    -0.744 OA
ENDBRANCH  76  79
ENDBRANCH  48  72
BRANCH  60  83
ATOM     83  C   UNL A   1      44.654  38.353  33.200  1.00  0.00     0.023 A 
ATOM     84  C   UNL A   1      45.686  38.338  34.159  1.00  0.00     0.012 A 
ATOM     85  C   UNL A   1      43.885  39.523  33.034  1.00  0.00     0.148 A 
ATOM     86  C   UNL A   1      45.927  39.452  34.962  1.00  0.00     0.002 A 
ATOM     87  C   UNL A   1      44.164  40.649  33.802  1.00  0.00     0.091 A 
ATOM     88  F   UNL A   1      42.901  39.517  32.124  1.00  0.00    -0.205 F 
ATOM     89  C   UNL A   1      45.176  40.610  34.775  1.00  0.00     0.022 A 
BRANCH  87  90
ATOM     90  S   UNL A   1      43.317  42.215  33.570  1.00  0.00     0.127 S 
ATOM     91  O   UNL A   1      43.629  42.519  32.174  1.00  0.00    -0.237 OA
ATOM     92  O   UNL A   1      41.922  41.850  33.817  1.00  0.00    -0.237 OA
ATOM     93  O   UNL A   1      43.887  43.132  34.547  1.00  0.00    -0.744 OA
ENDBRANCH  87  90
ENDBRANCH  60  83
ENDBRANCH  34  35
ENDBRANCH  27  29
ENDBRANCH  26  27
ENDBRANCH  25  26
ENDBRANCH  24  25
ENDBRANCH  23  24
ENDBRANCH  22  23
ENDBRANCH  21  22
ENDBRANCH  20  21
ENDBRANCH   1  20
TORSDOF 27
ENDMDL
