MODEL 1
REMARK VINA RESULT:     -10.3      0.000      0.000
REMARK SMILES C[NH2+][C@@]1(C(=O)OCCOCCOCCOC(=O)c2ccc(-c3c4nc(c(-c5cccc(S(=O)(=O)[O-])c5F)c5ccc([nH]5)c(-c5cccc(S(=O)(=O)[O-])c5F)c5nc(c(-c6cccc(S(=O)(=O)[O-])c6F)c6ccc3[nH]6)C=C5)C=C4)cc2)CC[C@H](n2ccc(C)n2)C1
REMARK SMILES IDX 11 1 10 2 9 3 8 4 7 5 6 6 4 7 5 8 3 9 81 10 90 11 82 12
REMARK SMILES IDX 83 13 2 14 1 15 84 18 85 19 89 20 86 21 87 22 88 23 12 24
REMARK SMILES IDX 13 25 14 26 15 27 16 28 17 29 18 30 19 31 80 32 20 33 79 34
REMARK SMILES IDX 21 35 22 36 23 37 73 38 24 39 78 40 72 41 74 42 25 43 77 44
REMARK SMILES IDX 71 45 70 46 26 48 58 49 38 50 57 51 39 52 42 53 56 54 75 55
REMARK SMILES IDX 40 56 41 57 55 59 76 60 43 61 27 62 28 63 36 64 29 65 31 66
REMARK SMILES IDX 37 67 30 68 32 69 33 70 34 71 35 72 59 73 60 74 68 75 61 76
REMARK SMILES IDX 63 77 69 78 62 79 64 80 65 81 66 82 67 83 44 84 45 85 53 86
REMARK SMILES IDX 46 87 48 88 54 89 47 90 49 91 50 92 51 93 52 94
REMARK H PARENT 2 16 2 17 74 47 42 58
REMARK Flexibility Score: inf
ROOT
ATOM      1  C   UNL A   1      31.876  28.629  23.127  1.00  0.00     0.188 C 
ENDROOT
BRANCH   1   2
ATOM      2  C   UNL A   1      33.230  28.177  23.691  1.00  0.00     0.188 C 
BRANCH   2   3
ATOM      3  O   UNL A   1      33.912  27.119  23.045  1.00  0.00    -0.376 OA
BRANCH   3   4
ATOM      4  C   UNL A   1      33.412  26.677  21.788  1.00  0.00     0.202 C 
BRANCH   4   5
ATOM      5  C   UNL A   1      32.772  25.288  21.686  1.00  0.00     0.261 C 
BRANCH   5   6
ATOM      6  O   UNL A   1      33.586  24.201  22.179  1.00  0.00    -0.459 OA
BRANCH   6   7
ATOM      7  C   UNL A   1      33.002  23.395  23.105  1.00  0.00     0.368 C 
ATOM      8  O   UNL A   1      32.015  22.695  22.885  1.00  0.00    -0.245 OA
BRANCH   7   9
ATOM      9  C   UNL A   1      33.638  23.476  24.524  1.00  0.00     0.196 C 
ATOM     10  C   UNL A   1      35.155  23.307  24.330  1.00  0.00     0.083 C 
ATOM     11  C   UNL A   1      33.314  22.344  25.509  1.00  0.00     0.108 C 
ATOM     12  C   UNL A   1      35.342  21.802  24.242  1.00  0.00     0.034 C 
ATOM     13  C   UNL A   1      34.348  21.218  25.258  1.00  0.00     0.114 C 
BRANCH   9  14
ATOM     14  N   UNL A   1      33.427  24.845  25.066  1.00  0.00    -0.334 N 
ATOM     15  C   UNL A   1      32.368  24.976  26.056  1.00  0.00     0.331 C 
ATOM     16  H   UNL A   1      34.299  25.149  25.499  1.00  0.00     0.347 HD
ATOM     17  H   UNL A   1      33.138  25.416  24.272  1.00  0.00     0.347 HD
ENDBRANCH   9  14
BRANCH  13  18
ATOM     18  N   UNL A   1      33.793  19.934  24.865  1.00  0.00    -0.269 N 
ATOM     19  C   UNL A   1      32.477  19.637  24.628  1.00  0.00     0.109 A 
ATOM     20  N   UNL A   1      34.610  18.911  24.566  1.00  0.00    -0.178 NA
ATOM     21  C   UNL A   1      32.441  18.303  24.295  1.00  0.00     0.045 A 
ATOM     22  C   UNL A   1      33.791  17.893  24.293  1.00  0.00     0.059 A 
ATOM     23  C   UNL A   1      34.336  16.541  24.023  1.00  0.00     0.069 C 
ENDBRANCH  13  18
ENDBRANCH   7   9
ENDBRANCH   6   7
ENDBRANCH   5   6
ENDBRANCH   4   5
ENDBRANCH   3   4
ENDBRANCH   2   3
ENDBRANCH   1   2
BRANCH   1  24
ATOM     24  O   UNL A   1      31.040  29.441  23.938  1.00  0.00    -0.376 OA
BRANCH  24  25
ATOM     25  C   UNL A   1      31.333  29.386  25.336  1.00  0.00     0.202 C 
BRANCH  25  26
ATOM     26  C   UNL A   1      31.587  30.763  25.961  1.00  0.00     0.261 C 
BRANCH  26  27
ATOM     27  O   UNL A   1      32.573  30.664  26.997  1.00  0.00    -0.460 OA
BRANCH  27  28
ATOM     28  C   UNL A   1      33.208  31.829  27.316  1.00  0.00     0.338 C 
ATOM     29  O   UNL A   1      32.728  32.941  27.337  1.00  0.00    -0.246 OA
BRANCH  28  30
ATOM     30  C   UNL A   1      34.546  31.495  27.862  1.00  0.00     0.060 A 
ATOM     31  C   UNL A   1      34.797  30.155  28.191  1.00  0.00     0.016 A 
ATOM     32  C   UNL A   1      35.557  32.452  27.986  1.00  0.00     0.016 A 
ATOM     33  C   UNL A   1      36.044  29.776  28.690  1.00  0.00     0.010 A 
ATOM     34  C   UNL A   1      36.803  32.076  28.494  1.00  0.00     0.010 A 
ATOM     35  C   UNL A   1      37.038  30.745  28.883  1.00  0.00    -0.014 A 
BRANCH  35  36
ATOM     36  C   UNL A   1      38.238  30.426  29.692  1.00  0.00     0.031 A 
ATOM     37  C   UNL A   1      39.221  29.439  29.125  1.00  0.00     0.074 A 
ATOM     38  C   UNL A   1      38.438  30.966  30.907  1.00  0.00     0.049 A 
ATOM     39  N   UNL A   1      40.303  28.942  29.662  1.00  0.00    -0.248 NA
ATOM     40  C   UNL A   1      38.938  28.939  27.767  1.00  0.00     0.031 C 
ATOM     41  C   UNL A   1      37.561  31.937  31.558  1.00  0.00     0.029 A 
ATOM     42  N   UNL A   1      39.436  30.742  31.823  1.00  0.00    -0.354 N 
ATOM     43  C   UNL A   1      40.814  28.054  28.724  1.00  0.00     0.074 A 
ATOM     44  C   UNL A   1      39.920  28.071  27.588  1.00  0.00     0.031 C 
ATOM     45  C   UNL A   1      38.042  32.199  32.787  1.00  0.00     0.029 A 
ATOM     46  C   UNL A   1      39.242  31.397  33.017  1.00  0.00     0.049 A 
ATOM     47  H   UNL A   1      40.214  30.169  31.642  1.00  0.00     0.167 HD
ATOM     48  C   UNL A   1      41.934  27.297  28.795  1.00  0.00     0.034 A 
ATOM     49  C   UNL A   1      39.941  31.328  34.169  1.00  0.00     0.034 A 
ATOM     50  C   UNL A   1      42.821  27.282  29.924  1.00  0.00     0.049 A 
ATOM     51  C   UNL A   1      41.166  30.449  34.236  1.00  0.00     0.074 A 
ATOM     52  C   UNL A   1      44.000  26.575  30.081  1.00  0.00     0.029 A 
ATOM     53  N   UNL A   1      42.618  27.992  31.095  1.00  0.00    -0.354 N 
ATOM     54  N   UNL A   1      41.704  29.703  33.300  1.00  0.00    -0.248 NA
ATOM     55  C   UNL A   1      41.899  30.425  35.512  1.00  0.00     0.031 C 
ATOM     56  C   UNL A   1      44.494  26.835  31.363  1.00  0.00     0.029 A 
ATOM     57  C   UNL A   1      43.643  27.732  31.989  1.00  0.00     0.049 A 
ATOM     58  H   UNL A   1      41.858  28.593  31.268  1.00  0.00     0.167 HD
ATOM     59  C   UNL A   1      42.855  29.155  33.860  1.00  0.00     0.074 A 
ATOM     60  C   UNL A   1      42.946  29.667  35.211  1.00  0.00     0.031 C 
ATOM     61  C   UNL A   1      43.749  28.296  33.310  1.00  0.00     0.034 A 
BRANCH  48  62
ATOM     62  C   UNL A   1      42.262  26.432  27.608  1.00  0.00     0.023 A 
ATOM     63  C   UNL A   1      42.977  26.976  26.522  1.00  0.00     0.012 A 
ATOM     64  C   UNL A   1      41.889  25.074  27.582  1.00  0.00     0.148 A 
ATOM     65  C   UNL A   1      43.288  26.191  25.413  1.00  0.00     0.002 A 
ATOM     66  C   UNL A   1      42.243  24.286  26.493  1.00  0.00     0.091 A 
ATOM     67  F   UNL A   1      41.187  24.584  28.613  1.00  0.00    -0.205 F 
ATOM     68  C   UNL A   1      42.930  24.845  25.403  1.00  0.00     0.022 A 
BRANCH  66  69
ATOM     69  S   UNL A   1      41.893  22.527  26.419  1.00  0.00     0.127 S 
ATOM     70  O   UNL A   1      42.530  22.152  25.156  1.00  0.00    -0.237 OA
ATOM     71  O   UNL A   1      42.572  22.029  27.615  1.00  0.00    -0.237 OA
ATOM     72  O   UNL A   1      40.443  22.402  26.446  1.00  0.00    -0.744 OA
ENDBRANCH  66  69
ENDBRANCH  48  62
BRANCH  49  73
ATOM     73  C   UNL A   1      39.519  32.132  35.352  1.00  0.00     0.023 A 
ATOM     74  C   UNL A   1      38.690  31.548  36.330  1.00  0.00     0.012 A 
ATOM     75  C   UNL A   1      39.927  33.471  35.511  1.00  0.00     0.148 A 
ATOM     76  C   UNL A   1      38.250  32.291  37.426  1.00  0.00     0.002 A 
ATOM     77  C   UNL A   1      39.527  34.190  36.633  1.00  0.00     0.091 A 
ATOM     78  F   UNL A   1      40.699  34.016  34.561  1.00  0.00    -0.205 F 
ATOM     79  C   UNL A   1      38.675  33.607  37.582  1.00  0.00     0.022 A 
BRANCH  77  80
ATOM     80  S   UNL A   1      40.118  35.850  36.976  1.00  0.00     0.127 S 
ATOM     81  O   UNL A   1      39.437  36.157  38.231  1.00  0.00    -0.237 OA
ATOM     82  O   UNL A   1      41.561  35.636  37.095  1.00  0.00    -0.237 OA
ATOM     83  O   UNL A   1      39.723  36.655  35.829  1.00  0.00    -0.744 OA
ENDBRANCH  77  80
ENDBRANCH  49  73
BRANCH  61  84
ATOM     84  C   UNL A   1      44.936  27.885  34.143  1.00  0.00     0.023 A 
ATOM     85  C   UNL A   1      46.114  28.658  34.121  1.00  0.00     0.012 A 
ATOM     86  C   UNL A   1      44.850  26.782  35.016  1.00  0.00     0.148 A 
ATOM     87  C   UNL A   1      47.197  28.322  34.933  1.00  0.00     0.002 A 
ATOM     88  C   UNL A   1      45.914  26.483  35.859  1.00  0.00     0.091 A 
ATOM     89  F   UNL A   1      43.727  26.049  35.010  1.00  0.00    -0.205 F 
ATOM     90  C   UNL A   1      47.092  27.244  35.809  1.00  0.00     0.022 A 
BRANCH  88  91
ATOM     91  S   UNL A   1      45.830  25.178  37.090  1.00  0.00     0.127 S 
ATOM     92  O   UNL A   1      46.524  24.084  36.414  1.00  0.00    -0.237 OA
ATOM     93  O   UNL A   1      46.562  25.764  38.214  1.00  0.00    -0.237 OA
ATOM     94  O   UNL A   1      44.413  24.955  37.345  1.00  0.00    -0.744 OA
ENDBRANCH  88  91
ENDBRANCH  61  84
ENDBRANCH  35  36
ENDBRANCH  28  30
ENDBRANCH  27  28
ENDBRANCH  26  27
ENDBRANCH  25  26
ENDBRANCH  24  25
ENDBRANCH   1  24
TORSDOF 22
ENDMDL
MODEL 2
REMARK VINA RESULT:      -9.9      1.722      2.387
REMARK SMILES C[NH2+][C@@]1(C(=O)OCCOCCOCCOC(=O)c2ccc(-c3c4nc(c(-c5cccc(S(=O)(=O)[O-])c5F)c5ccc([nH]5)c(-c5cccc(S(=O)(=O)[O-])c5F)c5nc(c(-c6cccc(S(=O)(=O)[O-])c6F)c6ccc3[nH]6)C=C5)C=C4)cc2)CC[C@H](n2ccc(C)n2)C1
REMARK SMILES IDX 11 1 10 2 9 3 8 4 7 5 6 6 4 7 5 8 3 9 81 10 90 11 82 12
REMARK SMILES IDX 83 13 2 14 1 15 84 18 85 19 89 20 86 21 87 22 88 23 12 24
REMARK SMILES IDX 13 25 14 26 15 27 16 28 17 29 18 30 19 31 80 32 20 33 79 34
REMARK SMILES IDX 21 35 22 36 23 37 73 38 24 39 78 40 72 41 74 42 25 43 77 44
REMARK SMILES IDX 71 45 70 46 26 48 58 49 38 50 57 51 39 52 42 53 56 54 75 55
REMARK SMILES IDX 40 56 41 57 55 59 76 60 43 61 27 62 28 63 36 64 29 65 31 66
REMARK SMILES IDX 37 67 30 68 32 69 33 70 34 71 35 72 59 73 60 74 68 75 61 76
REMARK SMILES IDX 63 77 69 78 62 79 64 80 65 81 66 82 67 83 44 84 45 85 53 86
REMARK SMILES IDX 46 87 48 88 54 89 47 90 49 91 50 92 51 93 52 94
REMARK H PARENT 2 16 2 17 74 47 42 58
REMARK Flexibility Score: inf
ROOT
ATOM      1  C   UNL A   1      31.860  28.053  24.493  1.00  0.00     0.188 C 
ENDROOT
BRANCH   1   2
ATOM      2  C   UNL A   1      32.117  27.393  23.132  1.00  0.00     0.188 C 
BRANCH   2   3
ATOM      3  O   UNL A   1      33.401  26.863  22.869  1.00  0.00    -0.376 OA
BRANCH   3   4
ATOM      4  C   UNL A   1      33.509  25.460  22.656  1.00  0.00     0.202 C 
BRANCH   4   5
ATOM      5  C   UNL A   1      32.327  24.556  23.028  1.00  0.00     0.261 C 
BRANCH   5   6
ATOM      6  O   UNL A   1      32.625  23.527  23.997  1.00  0.00    -0.459 OA
BRANCH   6   7
ATOM      7  C   UNL A   1      32.118  23.722  25.244  1.00  0.00     0.368 C 
ATOM      8  O   UNL A   1      31.864  24.827  25.721  1.00  0.00    -0.245 OA
BRANCH   7   9
ATOM      9  C   UNL A   1      31.947  22.420  26.080  1.00  0.00     0.196 C 
ATOM     10  C   UNL A   1      32.184  22.812  27.549  1.00  0.00     0.083 C 
ATOM     11  C   UNL A   1      32.986  21.307  25.876  1.00  0.00     0.108 C 
ATOM     12  C   UNL A   1      33.697  22.800  27.685  1.00  0.00     0.034 C 
ATOM     13  C   UNL A   1      34.164  21.608  26.835  1.00  0.00     0.114 C 
BRANCH   9  14
ATOM     14  N   UNL A   1      30.533  21.968  25.982  1.00  0.00    -0.334 N 
ATOM     15  C   UNL A   1      29.618  22.538  26.961  1.00  0.00     0.331 C 
ATOM     16  H   UNL A   1      30.189  22.213  25.053  1.00  0.00     0.347 HD
ATOM     17  H   UNL A   1      30.549  20.965  26.167  1.00  0.00     0.347 HD
ENDBRANCH   9  14
BRANCH  13  18
ATOM     18  N   UNL A   1      35.454  21.810  26.199  1.00  0.00    -0.269 N 
ATOM     19  C   UNL A   1      36.092  20.966  25.329  1.00  0.00     0.109 A 
ATOM     20  N   UNL A   1      36.097  22.982  26.336  1.00  0.00    -0.178 NA
ATOM     21  C   UNL A   1      37.280  21.577  25.005  1.00  0.00     0.045 A 
ATOM     22  C   UNL A   1      37.244  22.818  25.675  1.00  0.00     0.059 A 
ATOM     23  C   UNL A   1      38.282  23.876  25.697  1.00  0.00     0.069 C 
ENDBRANCH  13  18
ENDBRANCH   7   9
ENDBRANCH   6   7
ENDBRANCH   5   6
ENDBRANCH   4   5
ENDBRANCH   3   4
ENDBRANCH   2   3
ENDBRANCH   1   2
BRANCH   1  24
ATOM     24  O   UNL A   1      30.754  28.934  24.623  1.00  0.00    -0.376 OA
BRANCH  24  25
ATOM     25  C   UNL A   1      31.103  30.279  24.962  1.00  0.00     0.202 C 
BRANCH  25  26
ATOM     26  C   UNL A   1      31.574  30.439  26.413  1.00  0.00     0.261 C 
BRANCH  26  27
ATOM     27  O   UNL A   1      32.990  30.659  26.454  1.00  0.00    -0.460 OA
BRANCH  27  28
ATOM     28  C   UNL A   1      33.400  31.700  27.234  1.00  0.00     0.338 C 
ATOM     29  O   UNL A   1      32.744  32.658  27.579  1.00  0.00    -0.246 OA
BRANCH  28  30
ATOM     30  C   UNL A   1      34.732  31.366  27.793  1.00  0.00     0.060 A 
ATOM     31  C   UNL A   1      34.988  30.022  28.102  1.00  0.00     0.016 A 
ATOM     32  C   UNL A   1      35.735  32.327  27.950  1.00  0.00     0.016 A 
ATOM     33  C   UNL A   1      36.230  29.642  28.614  1.00  0.00     0.010 A 
ATOM     34  C   UNL A   1      36.975  31.950  28.470  1.00  0.00     0.010 A 
ATOM     35  C   UNL A   1      37.214  30.614  28.838  1.00  0.00    -0.014 A 
BRANCH  35  36
ATOM     36  C   UNL A   1      38.405  30.289  29.659  1.00  0.00     0.031 A 
ATOM     37  C   UNL A   1      39.373  29.275  29.115  1.00  0.00     0.074 A 
ATOM     38  C   UNL A   1      38.608  30.848  30.865  1.00  0.00     0.049 A 
ATOM     39  N   UNL A   1      40.443  28.769  29.667  1.00  0.00    -0.248 NA
ATOM     40  C   UNL A   1      39.088  28.756  27.766  1.00  0.00     0.031 C 
ATOM     41  C   UNL A   1      37.745  31.846  31.494  1.00  0.00     0.029 A 
ATOM     42  N   UNL A   1      39.597  30.623  31.790  1.00  0.00    -0.354 N 
ATOM     43  C   UNL A   1      40.944  27.855  28.748  1.00  0.00     0.074 A 
ATOM     44  C   UNL A   1      40.056  27.867  27.608  1.00  0.00     0.031 C 
ATOM     45  C   UNL A   1      38.224  32.122  32.720  1.00  0.00     0.029 A 
ATOM     46  C   UNL A   1      39.408  31.303  32.972  1.00  0.00     0.049 A 
ATOM     47  H   UNL A   1      40.366  30.033  31.625  1.00  0.00     0.167 HD
ATOM     48  C   UNL A   1      42.049  27.081  28.839  1.00  0.00     0.034 A 
ATOM     49  C   UNL A   1      40.101  31.243  34.128  1.00  0.00     0.034 A 
ATOM     50  C   UNL A   1      42.931  27.070  29.972  1.00  0.00     0.049 A 
ATOM     51  C   UNL A   1      41.309  30.344  34.218  1.00  0.00     0.074 A 
ATOM     52  C   UNL A   1      44.096  26.345  30.149  1.00  0.00     0.029 A 
ATOM     53  N   UNL A   1      42.734  27.805  31.130  1.00  0.00    -0.354 N 
ATOM     54  N   UNL A   1      41.839  29.572  33.299  1.00  0.00    -0.248 NA
ATOM     55  C   UNL A   1      42.035  30.330  35.498  1.00  0.00     0.031 C 
ATOM     56  C   UNL A   1      44.588  26.620  31.429  1.00  0.00     0.029 A 
ATOM     57  C   UNL A   1      43.749  27.543  32.033  1.00  0.00     0.049 A 
ATOM     58  H   UNL A   1      41.984  28.423  31.288  1.00  0.00     0.167 HD
ATOM     59  C   UNL A   1      42.977  29.014  33.874  1.00  0.00     0.074 A 
ATOM     60  C   UNL A   1      43.070  29.549  35.216  1.00  0.00     0.031 C 
ATOM     61  C   UNL A   1      43.859  28.129  33.345  1.00  0.00     0.034 A 
BRANCH  48  62
ATOM     62  C   UNL A   1      42.367  26.188  27.670  1.00  0.00     0.023 A 
ATOM     63  C   UNL A   1      43.052  26.713  26.555  1.00  0.00     0.012 A 
ATOM     64  C   UNL A   1      42.017  24.824  27.689  1.00  0.00     0.148 A 
ATOM     65  C   UNL A   1      43.353  25.903  25.461  1.00  0.00     0.002 A 
ATOM     66  C   UNL A   1      42.362  24.012  26.615  1.00  0.00     0.091 A 
ATOM     67  F   UNL A   1      41.344  24.351  28.747  1.00  0.00    -0.205 F 
ATOM     68  C   UNL A   1      43.018  24.552  25.496  1.00  0.00     0.022 A 
BRANCH  66  69
ATOM     69  S   UNL A   1      42.040  22.246  26.595  1.00  0.00     0.127 S 
ATOM     70  O   UNL A   1      42.480  21.881  25.249  1.00  0.00    -0.237 OA
ATOM     71  O   UNL A   1      42.908  21.765  27.671  1.00  0.00    -0.237 OA
ATOM     72  O   UNL A   1      40.615  22.093  26.849  1.00  0.00    -0.744 OA
ENDBRANCH  66  69
ENDBRANCH  48  62
BRANCH  49  73
ATOM     73  C   UNL A   1      39.687  32.076  35.294  1.00  0.00     0.023 A 
ATOM     74  C   UNL A   1      40.120  33.414  35.382  1.00  0.00     0.012 A 
ATOM     75  C   UNL A   1      38.874  31.550  36.317  1.00  0.00     0.148 A 
ATOM     76  C   UNL A   1      39.779  34.201  36.482  1.00  0.00     0.002 A 
ATOM     77  C   UNL A   1      38.494  32.357  37.385  1.00  0.00     0.091 A 
ATOM     78  F   UNL A   1      38.488  30.270  36.226  1.00  0.00    -0.205 F 
ATOM     79  C   UNL A   1      38.959  33.677  37.478  1.00  0.00     0.022 A 
BRANCH  77  80
ATOM     80  S   UNL A   1      37.348  31.804  38.652  1.00  0.00     0.127 S 
ATOM     81  O   UNL A   1      38.158  31.925  39.861  1.00  0.00    -0.237 OA
ATOM     82  O   UNL A   1      36.270  32.786  38.531  1.00  0.00    -0.237 OA
ATOM     83  O   UNL A   1      36.970  30.449  38.278  1.00  0.00    -0.744 OA
ENDBRANCH  77  80
ENDBRANCH  49  73
BRANCH  61  84
ATOM     84  C   UNL A   1      45.034  27.713  34.191  1.00  0.00     0.023 A 
ATOM     85  C   UNL A   1      46.228  28.462  34.158  1.00  0.00     0.012 A 
ATOM     86  C   UNL A   1      44.923  26.630  35.087  1.00  0.00     0.148 A 
ATOM     87  C   UNL A   1      47.301  28.121  34.982  1.00  0.00     0.002 A 
ATOM     88  C   UNL A   1      45.977  26.329  35.941  1.00  0.00     0.091 A 
ATOM     89  F   UNL A   1      43.785  25.920  35.093  1.00  0.00    -0.205 F 
ATOM     90  C   UNL A   1      47.171  27.065  35.880  1.00  0.00     0.022 A 
BRANCH  88  91
ATOM     91  S   UNL A   1      45.862  25.052  37.199  1.00  0.00     0.127 S 
ATOM     92  O   UNL A   1      44.595  25.384  37.846  1.00  0.00    -0.237 OA
ATOM     93  O   UNL A   1      45.836  23.828  36.397  1.00  0.00    -0.237 OA
ATOM     94  O   UNL A   1      47.047  25.201  38.033  1.00  0.00    -0.744 OA
ENDBRANCH  88  91
ENDBRANCH  61  84
ENDBRANCH  35  36
ENDBRANCH  28  30
ENDBRANCH  27  28
ENDBRANCH  26  27
ENDBRANCH  25  26
ENDBRANCH  24  25
ENDBRANCH   1  24
TORSDOF 22
ENDMDL
MODEL 3
REMARK VINA RESULT:      -9.9      1.748      3.015
REMARK SMILES C[NH2+][C@@]1(C(=O)OCCOCCOCCOC(=O)c2ccc(-c3c4nc(c(-c5cccc(S(=O)(=O)[O-])c5F)c5ccc([nH]5)c(-c5cccc(S(=O)(=O)[O-])c5F)c5nc(c(-c6cccc(S(=O)(=O)[O-])c6F)c6ccc3[nH]6)C=C5)C=C4)cc2)CC[C@H](n2ccc(C)n2)C1
REMARK SMILES IDX 11 1 10 2 9 3 8 4 7 5 6 6 4 7 5 8 3 9 81 10 90 11 82 12
REMARK SMILES IDX 83 13 2 14 1 15 84 18 85 19 89 20 86 21 87 22 88 23 12 24
REMARK SMILES IDX 13 25 14 26 15 27 16 28 17 29 18 30 19 31 80 32 20 33 79 34
REMARK SMILES IDX 21 35 22 36 23 37 73 38 24 39 78 40 72 41 74 42 25 43 77 44
REMARK SMILES IDX 71 45 70 46 26 48 58 49 38 50 57 51 39 52 42 53 56 54 75 55
REMARK SMILES IDX 40 56 41 57 55 59 76 60 43 61 27 62 28 63 36 64 29 65 31 66
REMARK SMILES IDX 37 67 30 68 32 69 33 70 34 71 35 72 59 73 60 74 68 75 61 76
REMARK SMILES IDX 63 77 69 78 62 79 64 80 65 81 66 82 67 83 44 84 45 85 53 86
REMARK SMILES IDX 46 87 48 88 54 89 47 90 49 91 50 92 51 93 52 94
REMARK H PARENT 2 16 2 17 74 47 42 58
REMARK Flexibility Score: inf
ROOT
ATOM      1  C   UNL A   1      31.624  28.702  24.817  1.00  0.00     0.188 C 
ENDROOT
BRANCH   1   2
ATOM      2  C   UNL A   1      31.815  27.934  26.131  1.00  0.00     0.188 C 
BRANCH   2   3
ATOM      3  O   UNL A   1      31.900  26.523  26.084  1.00  0.00    -0.376 OA
BRANCH   3   4
ATOM      4  C   UNL A   1      30.866  25.818  25.406  1.00  0.00     0.202 C 
BRANCH   4   5
ATOM      5  C   UNL A   1      30.289  24.547  26.041  1.00  0.00     0.261 C 
BRANCH   5   6
ATOM      6  O   UNL A   1      30.966  23.322  25.683  1.00  0.00    -0.459 OA
BRANCH   6   7
ATOM      7  C   UNL A   1      31.973  22.936  26.511  1.00  0.00     0.368 C 
ATOM      8  O   UNL A   1      32.067  23.278  27.688  1.00  0.00    -0.245 OA
BRANCH   7   9
ATOM      9  C   UNL A   1      33.071  22.068  25.828  1.00  0.00     0.196 C 
ATOM     10  C   UNL A   1      34.423  22.624  26.305  1.00  0.00     0.083 C 
ATOM     11  C   UNL A   1      33.204  22.169  24.302  1.00  0.00     0.108 C 
ATOM     12  C   UNL A   1      34.670  23.809  25.385  1.00  0.00     0.034 C 
ATOM     13  C   UNL A   1      34.153  23.358  24.010  1.00  0.00     0.114 C 
BRANCH   9  14
ATOM     14  N   UNL A   1      32.975  20.677  26.348  1.00  0.00    -0.334 N 
ATOM     15  C   UNL A   1      32.889  19.630  25.340  1.00  0.00     0.331 C 
ATOM     16  H   UNL A   1      33.802  20.497  26.917  1.00  0.00     0.347 HD
ATOM     17  H   UNL A   1      32.098  20.636  26.868  1.00  0.00     0.347 HD
ENDBRANCH   9  14
BRANCH  13  18
ATOM     18  N   UNL A   1      33.584  24.433  23.215  1.00  0.00    -0.269 N 
ATOM     19  C   UNL A   1      32.481  24.373  22.406  1.00  0.00     0.109 A 
ATOM     20  N   UNL A   1      34.067  25.682  23.328  1.00  0.00    -0.178 NA
ATOM     21  C   UNL A   1      32.339  25.626  21.860  1.00  0.00     0.045 A 
ATOM     22  C   UNL A   1      33.364  26.397  22.449  1.00  0.00     0.059 A 
ATOM     23  C   UNL A   1      33.693  27.821  22.203  1.00  0.00     0.069 C 
ENDBRANCH  13  18
ENDBRANCH   7   9
ENDBRANCH   6   7
ENDBRANCH   5   6
ENDBRANCH   4   5
ENDBRANCH   3   4
ENDBRANCH   2   3
ENDBRANCH   1   2
BRANCH   1  24
ATOM     24  O   UNL A   1      31.592  30.120  24.857  1.00  0.00    -0.376 OA
BRANCH  24  25
ATOM     25  C   UNL A   1      31.011  30.668  26.043  1.00  0.00     0.202 C 
BRANCH  25  26
ATOM     26  C   UNL A   1      31.639  32.001  26.471  1.00  0.00     0.261 C 
BRANCH  26  27
ATOM     27  O   UNL A   1      32.719  31.771  27.385  1.00  0.00    -0.460 OA
BRANCH  27  28
ATOM     28  C   UNL A   1      33.536  32.840  27.608  1.00  0.00     0.338 C 
ATOM     29  O   UNL A   1      33.236  34.012  27.563  1.00  0.00    -0.246 OA
BRANCH  28  30
ATOM     30  C   UNL A   1      34.824  32.337  28.146  1.00  0.00     0.060 A 
ATOM     31  C   UNL A   1      34.881  30.992  28.542  1.00  0.00     0.016 A 
ATOM     32  C   UNL A   1      35.969  33.136  28.201  1.00  0.00     0.016 A 
ATOM     33  C   UNL A   1      36.070  30.456  29.039  1.00  0.00     0.010 A 
ATOM     34  C   UNL A   1      37.157  32.603  28.705  1.00  0.00     0.010 A 
ATOM     35  C   UNL A   1      37.201  31.273  29.160  1.00  0.00    -0.014 A 
BRANCH  35  36
ATOM     36  C   UNL A   1      38.362  30.819  29.963  1.00  0.00     0.031 A 
ATOM     37  C   UNL A   1      39.280  29.798  29.349  1.00  0.00     0.074 A 
ATOM     38  C   UNL A   1      38.579  31.268  31.212  1.00  0.00     0.049 A 
ATOM     39  N   UNL A   1      40.314  29.192  29.868  1.00  0.00    -0.248 NA
ATOM     40  C   UNL A   1      38.985  29.404  27.960  1.00  0.00     0.031 C 
ATOM     41  C   UNL A   1      37.764  32.259  31.910  1.00  0.00     0.029 A 
ATOM     42  N   UNL A   1      39.543  30.916  32.125  1.00  0.00    -0.354 N 
ATOM     43  C   UNL A   1      40.776  28.327  28.884  1.00  0.00     0.074 A 
ATOM     44  C   UNL A   1      39.905  28.478  27.740  1.00  0.00     0.031 C 
ATOM     45  C   UNL A   1      38.242  32.411  33.159  1.00  0.00     0.029 A 
ATOM     46  C   UNL A   1      39.376  31.510  33.355  1.00  0.00     0.049 A 
ATOM     47  H   UNL A   1      40.281  30.300  31.919  1.00  0.00     0.167 HD
ATOM     48  C   UNL A   1      41.836  27.488  28.922  1.00  0.00     0.034 A 
ATOM     49  C   UNL A   1      40.049  31.321  34.509  1.00  0.00     0.034 A 
ATOM     50  C   UNL A   1      42.701  27.339  30.059  1.00  0.00     0.049 A 
ATOM     51  C   UNL A   1      41.205  30.352  34.537  1.00  0.00     0.074 A 
ATOM     52  C   UNL A   1      43.823  26.539  30.187  1.00  0.00     0.029 A 
ATOM     53  N   UNL A   1      42.530  27.990  31.270  1.00  0.00    -0.354 N 
ATOM     54  N   UNL A   1      41.704  29.627  33.564  1.00  0.00    -0.248 NA
ATOM     55  C   UNL A   1      41.912  30.197  35.818  1.00  0.00     0.031 C 
ATOM     56  C   UNL A   1      44.312  26.685  31.489  1.00  0.00     0.029 A 
ATOM     57  C   UNL A   1      43.517  27.602  32.158  1.00  0.00     0.049 A 
ATOM     58  H   UNL A   1      41.812  28.634  31.470  1.00  0.00     0.167 HD
ATOM     59  C   UNL A   1      42.802  28.963  34.103  1.00  0.00     0.074 A 
ATOM     60  C   UNL A   1      42.907  29.384  35.484  1.00  0.00     0.031 C 
ATOM     61  C   UNL A   1      43.641  28.075  33.513  1.00  0.00     0.034 A 
BRANCH  48  62
ATOM     62  C   UNL A   1      42.121  26.674  27.689  1.00  0.00     0.023 A 
ATOM     63  C   UNL A   1      42.781  27.270  26.595  1.00  0.00     0.012 A 
ATOM     64  C   UNL A   1      41.763  25.314  27.625  1.00  0.00     0.148 A 
ATOM     65  C   UNL A   1      43.052  26.533  25.443  1.00  0.00     0.002 A 
ATOM     66  C   UNL A   1      42.076  24.574  26.491  1.00  0.00     0.091 A 
ATOM     67  F   UNL A   1      41.111  24.774  28.665  1.00  0.00    -0.205 F 
ATOM     68  C   UNL A   1      42.708  25.184  25.395  1.00  0.00     0.022 A 
BRANCH  66  69
ATOM     69  S   UNL A   1      41.742  22.815  26.361  1.00  0.00     0.127 S 
ATOM     70  O   UNL A   1      40.280  22.788  26.399  1.00  0.00    -0.237 OA
ATOM     71  O   UNL A   1      42.323  22.488  25.058  1.00  0.00    -0.237 OA
ATOM     72  O   UNL A   1      42.407  22.193  27.497  1.00  0.00    -0.744 OA
ENDBRANCH  66  69
ENDBRANCH  48  62
BRANCH  49  73
ATOM     73  C   UNL A   1      39.666  32.081  35.734  1.00  0.00     0.023 A 
ATOM     74  C   UNL A   1      40.232  33.349  35.971  1.00  0.00     0.012 A 
ATOM     75  C   UNL A   1      38.752  31.553  36.666  1.00  0.00     0.148 A 
ATOM     76  C   UNL A   1      39.919  34.062  37.129  1.00  0.00     0.002 A 
ATOM     77  C   UNL A   1      38.404  32.292  37.792  1.00  0.00     0.091 A 
ATOM     78  F   UNL A   1      38.239  30.337  36.434  1.00  0.00    -0.205 F 
ATOM     79  C   UNL A   1      39.000  33.539  38.034  1.00  0.00     0.022 A 
BRANCH  77  80
ATOM     80  S   UNL A   1      37.144  31.751  38.951  1.00  0.00     0.127 S 
ATOM     81  O   UNL A   1      36.835  30.413  38.454  1.00  0.00    -0.237 OA
ATOM     82  O   UNL A   1      37.871  31.783  40.221  1.00  0.00    -0.237 OA
ATOM     83  O   UNL A   1      36.069  32.727  38.850  1.00  0.00    -0.744 OA
ENDBRANCH  77  80
ENDBRANCH  49  73
BRANCH  61  84
ATOM     84  C   UNL A   1      44.781  27.529  34.333  1.00  0.00     0.023 A 
ATOM     85  C   UNL A   1      46.011  28.216  34.379  1.00  0.00     0.012 A 
ATOM     86  C   UNL A   1      44.602  26.381  35.132  1.00  0.00     0.148 A 
ATOM     87  C   UNL A   1      47.053  27.753  35.182  1.00  0.00     0.002 A 
ATOM     88  C   UNL A   1      45.627  25.955  35.968  1.00  0.00     0.091 A 
ATOM     89  F   UNL A   1      43.431  25.732  35.063  1.00  0.00    -0.205 F 
ATOM     90  C   UNL A   1      46.856  26.632  35.985  1.00  0.00     0.022 A 
BRANCH  88  91
ATOM     91  S   UNL A   1      45.429  24.583  37.111  1.00  0.00     0.127 S 
ATOM     92  O   UNL A   1      44.104  24.848  37.669  1.00  0.00    -0.237 OA
ATOM     93  O   UNL A   1      45.494  23.424  36.219  1.00  0.00    -0.237 OA
ATOM     94  O   UNL A   1      46.535  24.681  38.054  1.00  0.00    -0.744 OA
ENDBRANCH  88  91
ENDBRANCH  61  84
ENDBRANCH  35  36
ENDBRANCH  28  30
ENDBRANCH  27  28
ENDBRANCH  26  27
ENDBRANCH  25  26
ENDBRANCH  24  25
ENDBRANCH   1  24
TORSDOF 22
ENDMDL
