MODEL 1
REMARK VINA RESULT:      -9.7      0.000      0.000
REMARK SMILES CC[C@@H](C)[C@H](NC(=O)[C@H](C)N1C(=O)N2CCC3=c4cc(OC)ccc4=N[C@@H]3[C@@]2(C)C1=O)C(=O)OCCOCCOCCOC(=O)c1ccc(-c2c3nc(c(-c4cccc(S(=O)(=O)[O-])c4F)c4ccc([nH]4)c(-c4cccc(S(=O)(=O)[O-])c4F)c4nc(c(-c5cccc(S(=O)(=O)[O-])c5F)c5ccc2[nH]5)C=C4)C=C3)cc1
REMARK SMILES IDX 38 1 37 2 36 3 35 4 34 5 32 6 33 7 5 8 3 9 4 10 2 11 1 12
REMARK SMILES IDX 6 13 7 14 8 16 9 17 10 18 11 19 12 20 30 21 14 22 13 23
REMARK SMILES IDX 28 24 31 25 15 26 27 27 29 28 16 29 17 30 26 31 18 32 25 33
REMARK SMILES IDX 19 34 24 35 20 36 23 37 21 38 22 39 39 40 40 41 41 42 42 43
REMARK SMILES IDX 43 44 44 45 45 46 46 47 47 48 108 49 48 50 107 51 49 52
REMARK SMILES IDX 50 53 51 54 101 55 52 56 106 57 100 58 102 59 53 60 105 61
REMARK SMILES IDX 99 62 98 63 54 65 86 66 66 67 85 68 67 69 70 70 84 71 103 72
REMARK SMILES IDX 68 73 69 74 83 76 104 77 71 78 55 79 56 80 64 81 57 82 59 83
REMARK SMILES IDX 65 84 58 85 60 86 61 87 62 88 63 89 87 90 88 91 96 92 89 93
REMARK SMILES IDX 91 94 97 95 90 96 92 97 93 98 94 99 95 100 72 101 73 102
REMARK SMILES IDX 81 103 74 104 76 105 82 106 75 107 77 108 78 109 79 110
REMARK SMILES IDX 80 111
REMARK H PARENT 6 15 102 64 70 75
REMARK Flexibility Score: inf
ROOT
ATOM      1  C   UNL A   1      38.616  23.216  26.437  1.00  0.00     0.188 C 
ENDROOT
BRANCH   1   2
ATOM      2  O   UNL A   1      37.887  23.005  25.242  1.00  0.00    -0.376 OA
BRANCH   2   3
ATOM      3  C   UNL A   1      37.486  21.702  24.850  1.00  0.00     0.202 C 
BRANCH   3   4
ATOM      4  C   UNL A   1      36.222  21.042  25.397  1.00  0.00     0.261 C 
BRANCH   4   5
ATOM      5  O   UNL A   1      35.036  21.318  24.648  1.00  0.00    -0.462 OA
BRANCH   5   6
ATOM      6  C   UNL A   1      33.965  21.885  25.276  1.00  0.00     0.328 C 
ATOM      7  O   UNL A   1      33.997  22.370  26.398  1.00  0.00    -0.250 OA
BRANCH   6   8
ATOM      8  C   UNL A   1      32.684  21.649  24.430  1.00  0.00     0.195 C 
BRANCH   8   9
ATOM      9  C   UNL A   1      32.249  20.161  24.486  1.00  0.00     0.019 C 
ATOM     10  C   UNL A   1      32.902  19.485  25.694  1.00  0.00     0.010 C 
BRANCH   9  11
ATOM     11  C   UNL A   1      32.520  19.398  23.164  1.00  0.00     0.002 C 
ATOM     12  C   UNL A   1      32.827  17.916  23.339  1.00  0.00     0.004 C 
ENDBRANCH   9  11
ENDBRANCH   8   9
BRANCH   8  13
ATOM     13  N   UNL A   1      32.970  22.070  23.058  1.00  0.00    -0.341 N 
ATOM     14  C   UNL A   1      33.012  23.296  22.475  1.00  0.00     0.243 C 
ATOM     15  H   UNL A   1      33.170  21.327  22.445  1.00  0.00     0.164 HD
ATOM     16  O   UNL A   1      33.731  23.392  21.471  1.00  0.00    -0.273 OA
BRANCH  14  17
ATOM     17  C   UNL A   1      32.193  24.515  22.988  1.00  0.00     0.181 C 
ATOM     18  C   UNL A   1      32.198  25.658  21.989  1.00  0.00     0.042 C 
BRANCH  17  19
ATOM     19  N   UNL A   1      32.441  24.857  24.408  1.00  0.00    -0.250 N 
ATOM     20  C   UNL A   1      33.574  25.544  24.872  1.00  0.00     0.328 C 
ATOM     21  C   UNL A   1      31.356  25.303  25.112  1.00  0.00     0.259 C 
ATOM     22  N   UNL A   1      33.155  26.448  25.938  1.00  0.00    -0.307 N 
ATOM     23  O   UNL A   1      34.675  25.584  24.340  1.00  0.00    -0.248 OA
ATOM     24  C   UNL A   1      31.740  26.585  25.729  1.00  0.00     0.147 C 
ATOM     25  O   UNL A   1      30.218  24.853  25.158  1.00  0.00    -0.271 OA
ATOM     26  C   UNL A   1      33.823  27.778  26.294  1.00  0.00     0.127 C 
ATOM     27  C   UNL A   1      31.785  27.667  24.637  1.00  0.00     0.168 C 
ATOM     28  C   UNL A   1      31.001  26.767  27.058  1.00  0.00     0.048 C 
ATOM     29  C   UNL A   1      32.828  29.153  26.128  1.00  0.00     0.055 C 
ATOM     30  C   UNL A   1      31.579  29.003  25.197  1.00  0.00    -0.032 C 
ATOM     31  N   UNL A   1      31.380  27.583  23.236  1.00  0.00    -0.274 NA
ATOM     32  C   UNL A   1      30.947  29.722  24.232  1.00  0.00     0.005 A 
ATOM     33  C   UNL A   1      31.377  28.877  23.025  1.00  0.00     0.066 A 
ATOM     34  C   UNL A   1      29.436  29.649  24.014  1.00  0.00     0.056 A 
ATOM     35  C   UNL A   1      31.185  29.550  21.738  1.00  0.00     0.032 A 
ATOM     36  C   UNL A   1      28.990  29.585  22.722  1.00  0.00     0.119 A 
ATOM     37  C   UNL A   1      29.904  29.926  21.628  1.00  0.00     0.048 A 
BRANCH  36  38
ATOM     38  O   UNL A   1      27.864  28.852  22.367  1.00  0.00    -0.497 OA
ATOM     39  C   UNL A   1      27.016  28.559  23.507  1.00  0.00     0.278 C 
ENDBRANCH  36  38
ENDBRANCH  17  19
ENDBRANCH  14  17
ENDBRANCH   8  13
ENDBRANCH   6   8
ENDBRANCH   5   6
ENDBRANCH   4   5
ENDBRANCH   3   4
ENDBRANCH   2   3
ENDBRANCH   1   2
BRANCH   1  40
ATOM     40  C   UNL A   1      39.706  22.164  26.719  1.00  0.00     0.188 C 
BRANCH  40  41
ATOM     41  O   UNL A   1      40.725  22.004  25.731  1.00  0.00    -0.376 OA
BRANCH  41  42
ATOM     42  C   UNL A   1      41.989  22.622  25.986  1.00  0.00     0.202 C 
BRANCH  42  43
ATOM     43  C   UNL A   1      42.994  21.773  26.764  1.00  0.00     0.261 C 
BRANCH  43  44
ATOM     44  O   UNL A   1      43.839  22.622  27.557  1.00  0.00    -0.460 OA
BRANCH  44  45
ATOM     45  C   UNL A   1      44.978  23.026  26.952  1.00  0.00     0.338 C 
ATOM     46  O   UNL A   1      45.715  22.352  26.257  1.00  0.00    -0.246 OA
BRANCH  45  47
ATOM     47  C   UNL A   1      45.200  24.450  27.264  1.00  0.00     0.060 A 
ATOM     48  C   UNL A   1      44.859  25.417  26.320  1.00  0.00     0.016 A 
ATOM     49  C   UNL A   1      45.661  24.827  28.531  1.00  0.00     0.016 A 
ATOM     50  C   UNL A   1      44.969  26.771  26.653  1.00  0.00     0.010 A 
ATOM     51  C   UNL A   1      45.749  26.183  28.868  1.00  0.00     0.010 A 
ATOM     52  C   UNL A   1      45.390  27.169  27.938  1.00  0.00    -0.014 A 
BRANCH  52  53
ATOM     53  C   UNL A   1      45.280  28.599  28.334  1.00  0.00     0.031 A 
ATOM     54  C   UNL A   1      46.425  29.563  28.221  1.00  0.00     0.074 A 
ATOM     55  C   UNL A   1      44.112  29.029  28.853  1.00  0.00     0.049 A 
ATOM     56  N   UNL A   1      46.411  30.865  28.356  1.00  0.00    -0.248 NA
ATOM     57  C   UNL A   1      47.756  29.002  27.953  1.00  0.00     0.031 C 
ATOM     58  C   UNL A   1      42.962  28.174  29.148  1.00  0.00     0.029 A 
ATOM     59  N   UNL A   1      43.697  30.286  29.218  1.00  0.00    -0.354 N 
ATOM     60  C   UNL A   1      47.728  31.282  28.212  1.00  0.00     0.074 A 
ATOM     61  C   UNL A   1      48.521  30.087  28.003  1.00  0.00     0.031 C 
ATOM     62  C   UNL A   1      41.959  28.934  29.611  1.00  0.00     0.029 A 
ATOM     63  C   UNL A   1      42.388  30.331  29.633  1.00  0.00     0.049 A 
ATOM     64  H   UNL A   1      44.281  31.079  29.185  1.00  0.00     0.167 HD
ATOM     65  C   UNL A   1      48.221  32.545  28.222  1.00  0.00     0.034 A 
ATOM     66  C   UNL A   1      41.598  31.377  29.948  1.00  0.00     0.034 A 
ATOM     67  C   UNL A   1      47.416  33.729  28.368  1.00  0.00     0.049 A 
ATOM     68  C   UNL A   1      42.128  32.775  29.824  1.00  0.00     0.074 A 
ATOM     69  C   UNL A   1      47.800  35.053  28.221  1.00  0.00     0.029 A 
ATOM     70  N   UNL A   1      46.074  33.742  28.708  1.00  0.00    -0.354 N 
ATOM     71  N   UNL A   1      43.320  33.167  29.448  1.00  0.00    -0.248 NA
ATOM     72  C   UNL A   1      41.198  33.874  30.122  1.00  0.00     0.031 C 
ATOM     73  C   UNL A   1      46.691  35.864  28.481  1.00  0.00     0.029 A 
ATOM     74  C   UNL A   1      45.616  35.046  28.786  1.00  0.00     0.049 A 
ATOM     75  H   UNL A   1      45.525  32.940  28.870  1.00  0.00     0.167 HD
ATOM     76  C   UNL A   1      43.281  34.557  29.443  1.00  0.00     0.074 A 
ATOM     77  C   UNL A   1      41.942  34.939  29.841  1.00  0.00     0.031 C 
ATOM     78  C   UNL A   1      44.274  35.428  29.144  1.00  0.00     0.034 A 
BRANCH  65  79
ATOM     79  C   UNL A   1      49.693  32.737  27.968  1.00  0.00     0.023 A 
ATOM     80  C   UNL A   1      50.598  32.531  29.030  1.00  0.00     0.012 A 
ATOM     81  C   UNL A   1      50.189  32.991  26.674  1.00  0.00     0.148 A 
ATOM     82  C   UNL A   1      51.973  32.595  28.814  1.00  0.00     0.002 A 
ATOM     83  C   UNL A   1      51.564  33.023  26.460  1.00  0.00     0.091 A 
ATOM     84  F   UNL A   1      49.312  33.186  25.680  1.00  0.00    -0.205 F 
ATOM     85  C   UNL A   1      52.455  32.830  27.529  1.00  0.00     0.022 A 
BRANCH  83  86
ATOM     86  S   UNL A   1      52.295  33.252  24.835  1.00  0.00     0.127 S 
ATOM     87  O   UNL A   1      51.694  32.151  24.084  1.00  0.00    -0.237 OA
ATOM     88  O   UNL A   1      51.808  34.580  24.460  1.00  0.00    -0.237 OA
ATOM     89  O   UNL A   1      53.737  33.164  25.024  1.00  0.00    -0.744 OA
ENDBRANCH  83  86
ENDBRANCH  65  79
BRANCH  66  90
ATOM     90  C   UNL A   1      40.167  31.114  30.253  1.00  0.00     0.023 A 
ATOM     91  C   UNL A   1      39.256  31.023  29.182  1.00  0.00     0.012 A 
ATOM     92  C   UNL A   1      39.734  30.829  31.560  1.00  0.00     0.148 A 
ATOM     93  C   UNL A   1      37.933  30.647  29.409  1.00  0.00     0.002 A 
ATOM     94  C   UNL A   1      38.422  30.421  31.774  1.00  0.00     0.091 A 
ATOM     95  F   UNL A   1      40.626  30.916  32.556  1.00  0.00    -0.205 F 
ATOM     96  C   UNL A   1      37.519  30.336  30.701  1.00  0.00     0.022 A 
BRANCH  94  97
ATOM     97  S   UNL A   1      37.818  29.893  33.381  1.00  0.00     0.127 S 
ATOM     98  O   UNL A   1      36.765  30.873  33.642  1.00  0.00    -0.237 OA
ATOM     99  O   UNL A   1      37.342  28.541  33.089  1.00  0.00    -0.237 OA
ATOM    100  O   UNL A   1      38.963  29.957  34.278  1.00  0.00    -0.744 OA
ENDBRANCH  94  97
ENDBRANCH  66  90
BRANCH  78 101
ATOM    101  C   UNL A   1      43.980  36.901  29.239  1.00  0.00     0.023 A 
ATOM    102  C   UNL A   1      44.109  37.545  30.485  1.00  0.00     0.012 A 
ATOM    103  C   UNL A   1      43.706  37.663  28.087  1.00  0.00     0.148 A 
ATOM    104  C   UNL A   1      43.964  38.929  30.584  1.00  0.00     0.002 A 
ATOM    105  C   UNL A   1      43.593  39.046  28.188  1.00  0.00     0.091 A 
ATOM    106  F   UNL A   1      43.578  37.025  26.915  1.00  0.00    -0.205 F 
ATOM    107  C   UNL A   1      43.718  39.678  29.437  1.00  0.00     0.022 A 
BRANCH 105 108
ATOM    108  S   UNL A   1      43.351  40.107  26.759  1.00  0.00     0.127 S 
ATOM    109  O   UNL A   1      43.455  41.438  27.356  1.00  0.00    -0.237 OA
ATOM    110  O   UNL A   1      44.476  39.733  25.901  1.00  0.00    -0.237 OA
ATOM    111  O   UNL A   1      42.040  39.770  26.222  1.00  0.00    -0.744 OA
ENDBRANCH 105 108
ENDBRANCH  78 101
ENDBRANCH  52  53
ENDBRANCH  45  47
ENDBRANCH  44  45
ENDBRANCH  43  44
ENDBRANCH  42  43
ENDBRANCH  41  42
ENDBRANCH  40  41
ENDBRANCH   1  40
TORSDOF 26
ENDMDL
MODEL 2
REMARK VINA RESULT:      -9.4      6.187     16.229
REMARK SMILES CC[C@@H](C)[C@H](NC(=O)[C@H](C)N1C(=O)N2CCC3=c4cc(OC)ccc4=N[C@@H]3[C@@]2(C)C1=O)C(=O)OCCOCCOCCOC(=O)c1ccc(-c2c3nc(c(-c4cccc(S(=O)(=O)[O-])c4F)c4ccc([nH]4)c(-c4cccc(S(=O)(=O)[O-])c4F)c4nc(c(-c5cccc(S(=O)(=O)[O-])c5F)c5ccc2[nH]5)C=C4)C=C3)cc1
REMARK SMILES IDX 38 1 37 2 36 3 35 4 34 5 32 6 33 7 5 8 3 9 4 10 2 11 1 12
REMARK SMILES IDX 6 13 7 14 8 16 9 17 10 18 11 19 12 20 30 21 14 22 13 23
REMARK SMILES IDX 28 24 31 25 15 26 27 27 29 28 16 29 17 30 26 31 18 32 25 33
REMARK SMILES IDX 19 34 24 35 20 36 23 37 21 38 22 39 39 40 40 41 41 42 42 43
REMARK SMILES IDX 43 44 44 45 45 46 46 47 47 48 108 49 48 50 107 51 49 52
REMARK SMILES IDX 50 53 51 54 101 55 52 56 106 57 100 58 102 59 53 60 105 61
REMARK SMILES IDX 99 62 98 63 54 65 86 66 66 67 85 68 67 69 70 70 84 71 103 72
REMARK SMILES IDX 68 73 69 74 83 76 104 77 71 78 55 79 56 80 64 81 57 82 59 83
REMARK SMILES IDX 65 84 58 85 60 86 61 87 62 88 63 89 87 90 88 91 96 92 89 93
REMARK SMILES IDX 91 94 97 95 90 96 92 97 93 98 94 99 95 100 72 101 73 102
REMARK SMILES IDX 81 103 74 104 76 105 82 106 75 107 77 108 78 109 79 110
REMARK SMILES IDX 80 111
REMARK H PARENT 6 15 102 64 70 75
REMARK Flexibility Score: inf
ROOT
ATOM      1  C   UNL A   1      44.345  43.430  31.902  1.00  0.00     0.188 C 
ENDROOT
BRANCH   1   2
ATOM      2  O   UNL A   1      43.760  42.808  30.773  1.00  0.00    -0.376 OA
BRANCH   2   3
ATOM      3  C   UNL A   1      43.452  41.424  30.778  1.00  0.00     0.202 C 
BRANCH   3   4
ATOM      4  C   UNL A   1      43.026  40.682  29.512  1.00  0.00     0.261 C 
BRANCH   4   5
ATOM      5  O   UNL A   1      42.964  39.260  29.650  1.00  0.00    -0.462 OA
BRANCH   5   6
ATOM      6  C   UNL A   1      44.044  38.506  29.291  1.00  0.00     0.328 C 
ATOM      7  O   UNL A   1      45.058  38.385  29.963  1.00  0.00    -0.250 OA
BRANCH   6   8
ATOM      8  C   UNL A   1      43.856  37.990  27.838  1.00  0.00     0.195 C 
BRANCH   8   9
ATOM      9  C   UNL A   1      42.673  36.990  27.755  1.00  0.00     0.019 C 
ATOM     10  C   UNL A   1      42.670  36.100  29.001  1.00  0.00     0.010 C 
BRANCH   9  11
ATOM     11  C   UNL A   1      42.663  36.168  26.441  1.00  0.00     0.002 C 
ATOM     12  C   UNL A   1      43.095  34.716  26.599  1.00  0.00     0.004 C 
ENDBRANCH   9  11
ENDBRANCH   8   9
BRANCH   8  13
ATOM     13  N   UNL A   1      45.111  37.367  27.419  1.00  0.00    -0.341 N 
ATOM     14  C   UNL A   1      46.237  37.882  26.858  1.00  0.00     0.243 C 
ATOM     15  H   UNL A   1      45.148  36.396  27.571  1.00  0.00     0.164 HD
ATOM     16  O   UNL A   1      47.279  37.243  27.056  1.00  0.00    -0.273 OA
BRANCH  14  17
ATOM     17  C   UNL A   1      46.245  39.170  25.985  1.00  0.00     0.181 C 
ATOM     18  C   UNL A   1      47.216  39.057  24.824  1.00  0.00     0.042 C 
BRANCH  17  19
ATOM     19  N   UNL A   1      46.267  40.429  26.765  1.00  0.00    -0.250 N 
ATOM     20  C   UNL A   1      47.427  41.170  27.044  1.00  0.00     0.328 C 
ATOM     21  C   UNL A   1      45.253  41.310  26.503  1.00  0.00     0.259 C 
ATOM     22  N   UNL A   1      47.093  42.588  26.967  1.00  0.00    -0.307 N 
ATOM     23  O   UNL A   1      48.572  40.743  27.100  1.00  0.00    -0.248 OA
ATOM     24  C   UNL A   1      45.879  42.609  26.196  1.00  0.00     0.147 C 
ATOM     25  O   UNL A   1      44.051  41.105  26.393  1.00  0.00    -0.271 OA
ATOM     26  C   UNL A   1      48.054  43.711  26.570  1.00  0.00     0.127 C 
ATOM     27  C   UNL A   1      46.510  42.536  24.796  1.00  0.00     0.168 C 
ATOM     28  C   UNL A   1      44.961  43.750  26.644  1.00  0.00     0.048 C 
ATOM     29  C   UNL A   1      47.614  44.577  25.169  1.00  0.00     0.055 C 
ATOM     30  C   UNL A   1      46.622  43.864  24.190  1.00  0.00    -0.032 C 
ATOM     31  N   UNL A   1      46.422  41.475  23.796  1.00  0.00    -0.274 NA
ATOM     32  C   UNL A   1      46.485  43.678  22.850  1.00  0.00     0.005 A 
ATOM     33  C   UNL A   1      46.879  42.196  22.801  1.00  0.00     0.066 A 
ATOM     34  C   UNL A   1      45.119  43.555  22.176  1.00  0.00     0.056 A 
ATOM     35  C   UNL A   1      47.204  41.717  21.455  1.00  0.00     0.032 A 
ATOM     36  C   UNL A   1      44.975  42.590  21.218  1.00  0.00     0.119 A 
ATOM     37  C   UNL A   1      46.169  41.965  20.642  1.00  0.00     0.048 A 
BRANCH  36  38
ATOM     38  O   UNL A   1      43.783  41.897  21.043  1.00  0.00    -0.497 OA
ATOM     39  C   UNL A   1      42.869  42.591  20.154  1.00  0.00     0.278 C 
ENDBRANCH  36  38
ENDBRANCH  17  19
ENDBRANCH  14  17
ENDBRANCH   8  13
ENDBRANCH   6   8
ENDBRANCH   5   6
ENDBRANCH   4   5
ENDBRANCH   3   4
ENDBRANCH   2   3
ENDBRANCH   1   2
BRANCH   1  40
ATOM     40  C   UNL A   1      43.342  43.870  32.986  1.00  0.00     0.188 C 
BRANCH  40  41
ATOM     41  O   UNL A   1      43.799  43.851  34.339  1.00  0.00    -0.376 OA
BRANCH  41  42
ATOM     42  C   UNL A   1      43.572  42.656  35.090  1.00  0.00     0.202 C 
BRANCH  42  43
ATOM     43  C   UNL A   1      44.693  41.617  35.035  1.00  0.00     0.261 C 
BRANCH  43  44
ATOM     44  O   UNL A   1      44.186  40.380  34.509  1.00  0.00    -0.460 OA
BRANCH  44  45
ATOM     45  C   UNL A   1      44.289  39.319  35.338  1.00  0.00     0.338 C 
ATOM     46  O   UNL A   1      44.728  39.317  36.473  1.00  0.00    -0.246 OA
BRANCH  45  47
ATOM     47  C   UNL A   1      43.769  38.125  34.644  1.00  0.00     0.060 A 
ATOM     48  C   UNL A   1      43.785  38.084  33.251  1.00  0.00     0.016 A 
ATOM     49  C   UNL A   1      43.354  37.010  35.382  1.00  0.00     0.016 A 
ATOM     50  C   UNL A   1      43.392  36.913  32.594  1.00  0.00     0.010 A 
ATOM     51  C   UNL A   1      42.982  35.833  34.722  1.00  0.00     0.010 A 
ATOM     52  C   UNL A   1      43.012  35.768  33.321  1.00  0.00    -0.014 A 
BRANCH  52  53
ATOM     53  C   UNL A   1      42.820  34.477  32.606  1.00  0.00     0.031 A 
ATOM     54  C   UNL A   1      41.465  33.941  32.247  1.00  0.00     0.074 A 
ATOM     55  C   UNL A   1      43.913  33.746  32.306  1.00  0.00     0.049 A 
ATOM     56  N   UNL A   1      41.168  32.931  31.469  1.00  0.00    -0.248 NA
ATOM     57  C   UNL A   1      40.298  34.594  32.854  1.00  0.00     0.031 C 
ATOM     58  C   UNL A   1      45.279  34.075  32.714  1.00  0.00     0.029 A 
ATOM     59  N   UNL A   1      44.049  32.582  31.589  1.00  0.00    -0.354 N 
ATOM     60  C   UNL A   1      39.785  32.809  31.507  1.00  0.00     0.074 A 
ATOM     61  C   UNL A   1      39.302  33.837  32.407  1.00  0.00     0.031 C 
ATOM     62  C   UNL A   1      46.120  33.160  32.209  1.00  0.00     0.029 A 
ATOM     63  C   UNL A   1      45.357  32.188  31.431  1.00  0.00     0.049 A 
ATOM     64  H   UNL A   1      43.285  32.080  31.223  1.00  0.00     0.167 HD
ATOM     65  C   UNL A   1      38.993  31.942  30.830  1.00  0.00     0.034 A 
ATOM     66  C   UNL A   1      45.894  31.189  30.703  1.00  0.00     0.034 A 
ATOM     67  C   UNL A   1      39.478  30.965  29.889  1.00  0.00     0.049 A 
ATOM     68  C   UNL A   1      45.008  30.324  29.856  1.00  0.00     0.074 A 
ATOM     69  C   UNL A   1      38.745  30.161  29.031  1.00  0.00     0.029 A 
ATOM     70  N   UNL A   1      40.810  30.645  29.692  1.00  0.00    -0.354 N 
ATOM     71  N   UNL A   1      43.706  30.378  29.714  1.00  0.00    -0.248 NA
ATOM     72  C   UNL A   1      45.661  29.292  29.037  1.00  0.00     0.031 C 
ATOM     73  C   UNL A   1      39.635  29.349  28.321  1.00  0.00     0.029 A 
ATOM     74  C   UNL A   1      40.923  29.650  28.735  1.00  0.00     0.049 A 
ATOM     75  H   UNL A   1      41.567  31.063  30.162  1.00  0.00     0.167 HD
ATOM     76  C   UNL A   1      43.384  29.405  28.775  1.00  0.00     0.074 A 
ATOM     77  C   UNL A   1      44.629  28.783  28.372  1.00  0.00     0.031 C 
ATOM     78  C   UNL A   1      42.162  29.057  28.304  1.00  0.00     0.034 A 
BRANCH  65  79
ATOM     79  C   UNL A   1      37.501  32.065  30.990  1.00  0.00     0.023 A 
ATOM     80  C   UNL A   1      36.898  31.546  32.155  1.00  0.00     0.012 A 
ATOM     81  C   UNL A   1      36.719  32.791  30.071  1.00  0.00     0.148 A 
ATOM     82  C   UNL A   1      35.538  31.730  32.394  1.00  0.00     0.002 A 
ATOM     83  C   UNL A   1      35.367  32.997  30.330  1.00  0.00     0.091 A 
ATOM     84  F   UNL A   1      37.311  33.273  28.969  1.00  0.00    -0.205 F 
ATOM     85  C   UNL A   1      34.776  32.463  31.488  1.00  0.00     0.022 A 
BRANCH  83  86
ATOM     86  S   UNL A   1      34.306  33.983  29.267  1.00  0.00     0.127 S 
ATOM     87  O   UNL A   1      33.677  32.952  28.443  1.00  0.00    -0.237 OA
ATOM     88  O   UNL A   1      33.409  34.621  30.232  1.00  0.00    -0.237 OA
ATOM     89  O   UNL A   1      35.186  34.900  28.556  1.00  0.00    -0.744 OA
ENDBRANCH  83  86
ENDBRANCH  65  79
BRANCH  66  90
ATOM     90  C   UNL A   1      47.375  31.082  30.636  1.00  0.00     0.023 A 
ATOM     91  C   UNL A   1      48.062  30.532  31.736  1.00  0.00     0.012 A 
ATOM     92  C   UNL A   1      48.083  31.395  29.461  1.00  0.00     0.148 A 
ATOM     93  C   UNL A   1      49.433  30.290  31.666  1.00  0.00     0.002 A 
ATOM     94  C   UNL A   1      49.443  31.120  29.386  1.00  0.00     0.091 A 
ATOM     95  F   UNL A   1      47.400  31.910  28.429  1.00  0.00    -0.205 F 
ATOM     96  C   UNL A   1      50.120  30.573  30.489  1.00  0.00     0.022 A 
BRANCH  94  97
ATOM     97  S   UNL A   1      50.399  31.344  27.882  1.00  0.00     0.127 S 
ATOM     98  O   UNL A   1      50.480  32.801  27.793  1.00  0.00    -0.237 OA
ATOM     99  O   UNL A   1      51.655  30.678  28.226  1.00  0.00    -0.237 OA
ATOM    100  O   UNL A   1      49.635  30.698  26.824  1.00  0.00    -0.744 OA
ENDBRANCH  94  97
ENDBRANCH  66  90
BRANCH  78 101
ATOM    101  C   UNL A   1      42.078  27.941  27.298  1.00  0.00     0.023 A 
ATOM    102  C   UNL A   1      42.299  28.229  25.937  1.00  0.00     0.012 A 
ATOM    103  C   UNL A   1      41.910  26.605  27.708  1.00  0.00     0.148 A 
ATOM    104  C   UNL A   1      42.350  27.200  24.997  1.00  0.00     0.002 A 
ATOM    105  C   UNL A   1      41.992  25.582  26.770  1.00  0.00     0.091 A 
ATOM    106  F   UNL A   1      41.690  26.358  29.008  1.00  0.00    -0.205 F 
ATOM    107  C   UNL A   1      42.208  25.879  25.413  1.00  0.00     0.022 A 
BRANCH 105 108
ATOM    108  S   UNL A   1      41.897  23.844  27.217  1.00  0.00     0.127 S 
ATOM    109  O   UNL A   1      42.802  23.782  28.363  1.00  0.00    -0.237 OA
ATOM    110  O   UNL A   1      40.481  23.687  27.549  1.00  0.00    -0.237 OA
ATOM    111  O   UNL A   1      42.332  23.099  26.043  1.00  0.00    -0.744 OA
ENDBRANCH 105 108
ENDBRANCH  78 101
ENDBRANCH  52  53
ENDBRANCH  45  47
ENDBRANCH  44  45
ENDBRANCH  43  44
ENDBRANCH  42  43
ENDBRANCH  41  42
ENDBRANCH  40  41
ENDBRANCH   1  40
TORSDOF 26
ENDMDL
MODEL 3
REMARK VINA RESULT:      -9.1      7.080      9.893
REMARK SMILES CC[C@@H](C)[C@H](NC(=O)[C@H](C)N1C(=O)N2CCC3=c4cc(OC)ccc4=N[C@@H]3[C@@]2(C)C1=O)C(=O)OCCOCCOCCOC(=O)c1ccc(-c2c3nc(c(-c4cccc(S(=O)(=O)[O-])c4F)c4ccc([nH]4)c(-c4cccc(S(=O)(=O)[O-])c4F)c4nc(c(-c5cccc(S(=O)(=O)[O-])c5F)c5ccc2[nH]5)C=C4)C=C3)cc1
REMARK SMILES IDX 38 1 37 2 36 3 35 4 34 5 32 6 33 7 5 8 3 9 4 10 2 11 1 12
REMARK SMILES IDX 6 13 7 14 8 16 9 17 10 18 11 19 12 20 30 21 14 22 13 23
REMARK SMILES IDX 28 24 31 25 15 26 27 27 29 28 16 29 17 30 26 31 18 32 25 33
REMARK SMILES IDX 19 34 24 35 20 36 23 37 21 38 22 39 39 40 40 41 41 42 42 43
REMARK SMILES IDX 43 44 44 45 45 46 46 47 47 48 108 49 48 50 107 51 49 52
REMARK SMILES IDX 50 53 51 54 101 55 52 56 106 57 100 58 102 59 53 60 105 61
REMARK SMILES IDX 99 62 98 63 54 65 86 66 66 67 85 68 67 69 70 70 84 71 103 72
REMARK SMILES IDX 68 73 69 74 83 76 104 77 71 78 55 79 56 80 64 81 57 82 59 83
REMARK SMILES IDX 65 84 58 85 60 86 61 87 62 88 63 89 87 90 88 91 96 92 89 93
REMARK SMILES IDX 91 94 97 95 90 96 92 97 93 98 94 99 95 100 72 101 73 102
REMARK SMILES IDX 81 103 74 104 76 105 82 106 75 107 77 108 78 109 79 110
REMARK SMILES IDX 80 111
REMARK H PARENT 6 15 102 64 70 75
REMARK Flexibility Score: inf
ROOT
ATOM      1  C   UNL A   1      37.337  23.676  25.830  1.00  0.00     0.188 C 
ENDROOT
BRANCH   1   2
ATOM      2  O   UNL A   1      37.767  22.694  24.906  1.00  0.00    -0.376 OA
BRANCH   2   3
ATOM      3  C   UNL A   1      37.643  21.312  25.197  1.00  0.00     0.202 C 
BRANCH   3   4
ATOM      4  C   UNL A   1      36.330  20.554  25.002  1.00  0.00     0.261 C 
BRANCH   4   5
ATOM      5  O   UNL A   1      35.262  21.344  24.473  1.00  0.00    -0.462 OA
BRANCH   5   6
ATOM      6  C   UNL A   1      34.242  21.727  25.296  1.00  0.00     0.328 C 
ATOM      7  O   UNL A   1      34.376  22.017  26.476  1.00  0.00    -0.250 OA
BRANCH   6   8
ATOM      8  C   UNL A   1      32.887  21.556  24.555  1.00  0.00     0.195 C 
BRANCH   8   9
ATOM      9  C   UNL A   1      32.467  20.063  24.508  1.00  0.00     0.019 C 
ATOM     10  C   UNL A   1      32.787  19.401  25.851  1.00  0.00     0.010 C 
BRANCH   9  11
ATOM     11  C   UNL A   1      33.082  19.296  23.310  1.00  0.00     0.002 C 
ATOM     12  C   UNL A   1      32.114  18.365  22.590  1.00  0.00     0.004 C 
ENDBRANCH   9  11
ENDBRANCH   8   9
BRANCH   8  13
ATOM     13  N   UNL A   1      33.040  22.109  23.210  1.00  0.00    -0.341 N 
ATOM     14  C   UNL A   1      32.856  23.362  22.718  1.00  0.00     0.243 C 
ATOM     15  H   UNL A   1      33.329  21.453  22.537  1.00  0.00     0.164 HD
ATOM     16  O   UNL A   1      33.504  23.642  21.701  1.00  0.00    -0.273 OA
BRANCH  14  17
ATOM     17  C   UNL A   1      31.875  24.392  23.347  1.00  0.00     0.181 C 
ATOM     18  C   UNL A   1      31.505  25.490  22.366  1.00  0.00     0.042 C 
BRANCH  17  19
ATOM     19  N   UNL A   1      32.234  24.808  24.723  1.00  0.00    -0.250 N 
ATOM     20  C   UNL A   1      33.449  25.416  25.076  1.00  0.00     0.328 C 
ATOM     21  C   UNL A   1      31.235  25.403  25.445  1.00  0.00     0.259 C 
ATOM     22  N   UNL A   1      33.175  26.429  26.091  1.00  0.00    -0.307 N 
ATOM     23  O   UNL A   1      34.517  25.315  24.488  1.00  0.00    -0.248 OA
ATOM     24  C   UNL A   1      31.768  26.683  25.944  1.00  0.00     0.147 C 
ATOM     25  O   UNL A   1      30.066  25.066  25.583  1.00  0.00    -0.271 OA
ATOM     26  C   UNL A   1      33.980  27.711  26.312  1.00  0.00     0.127 C 
ATOM     27  C   UNL A   1      31.849  27.677  24.773  1.00  0.00     0.168 C 
ATOM     28  C   UNL A   1      31.127  27.027  27.292  1.00  0.00     0.048 C 
ATOM     29  C   UNL A   1      33.106  29.159  26.094  1.00  0.00     0.055 C 
ATOM     30  C   UNL A   1      31.796  29.062  25.241  1.00  0.00    -0.032 C 
ATOM     31  N   UNL A   1      31.358  27.533  23.404  1.00  0.00    -0.274 NA
ATOM     32  C   UNL A   1      31.178  29.768  24.257  1.00  0.00     0.005 A 
ATOM     33  C   UNL A   1      31.460  28.804  23.097  1.00  0.00     0.066 A 
ATOM     34  C   UNL A   1      29.657  29.823  24.122  1.00  0.00     0.056 A 
ATOM     35  C   UNL A   1      31.256  29.400  21.774  1.00  0.00     0.032 A 
ATOM     36  C   UNL A   1      29.133  29.711  22.863  1.00  0.00     0.119 A 
ATOM     37  C   UNL A   1      30.010  29.886  21.701  1.00  0.00     0.048 A 
BRANCH  36  38
ATOM     38  O   UNL A   1      27.927  29.064  22.621  1.00  0.00    -0.497 OA
ATOM     39  C   UNL A   1      27.774  27.867  23.428  1.00  0.00     0.278 C 
ENDBRANCH  36  38
ENDBRANCH  17  19
ENDBRANCH  14  17
ENDBRANCH   8  13
ENDBRANCH   6   8
ENDBRANCH   5   6
ENDBRANCH   4   5
ENDBRANCH   3   4
ENDBRANCH   2   3
ENDBRANCH   1   2
BRANCH   1  40
ATOM     40  C   UNL A   1      38.464  24.304  26.671  1.00  0.00     0.188 C 
BRANCH  40  41
ATOM     41  O   UNL A   1      39.693  23.581  26.752  1.00  0.00    -0.376 OA
BRANCH  41  42
ATOM     42  C   UNL A   1      40.886  24.269  26.368  1.00  0.00     0.202 C 
BRANCH  42  43
ATOM     43  C   UNL A   1      42.188  23.490  26.554  1.00  0.00     0.261 C 
BRANCH  43  44
ATOM     44  O   UNL A   1      42.699  23.705  27.879  1.00  0.00    -0.460 OA
BRANCH  44  45
ATOM     45  C   UNL A   1      44.046  23.707  27.982  1.00  0.00     0.338 C 
ATOM     46  O   UNL A   1      44.849  23.557  27.080  1.00  0.00    -0.246 OA
BRANCH  45  47
ATOM     47  C   UNL A   1      44.412  23.929  29.394  1.00  0.00     0.060 A 
ATOM     48  C   UNL A   1      45.318  24.939  29.714  1.00  0.00     0.016 A 
ATOM     49  C   UNL A   1      43.783  23.194  30.406  1.00  0.00     0.016 A 
ATOM     50  C   UNL A   1      45.586  25.222  31.057  1.00  0.00     0.010 A 
ATOM     51  C   UNL A   1      44.037  23.494  31.749  1.00  0.00     0.010 A 
ATOM     52  C   UNL A   1      44.930  24.521  32.089  1.00  0.00    -0.014 A 
BRANCH  52  53
ATOM     53  C   UNL A   1      45.063  24.993  33.494  1.00  0.00     0.031 A 
ATOM     54  C   UNL A   1      45.821  24.229  34.539  1.00  0.00     0.074 A 
ATOM     55  C   UNL A   1      44.440  26.137  33.843  1.00  0.00     0.049 A 
ATOM     56  N   UNL A   1      46.167  24.615  35.741  1.00  0.00    -0.248 NA
ATOM     57  C   UNL A   1      46.217  22.852  34.215  1.00  0.00     0.031 C 
ATOM     58  C   UNL A   1      43.557  26.911  32.969  1.00  0.00     0.029 A 
ATOM     59  N   UNL A   1      44.456  26.849  35.017  1.00  0.00    -0.354 N 
ATOM     60  C   UNL A   1      46.801  23.528  36.328  1.00  0.00     0.074 A 
ATOM     61  C   UNL A   1      46.770  22.455  35.355  1.00  0.00     0.031 C 
ATOM     62  C   UNL A   1      43.147  28.009  33.621  1.00  0.00     0.029 A 
ATOM     63  C   UNL A   1      43.748  28.026  34.953  1.00  0.00     0.049 A 
ATOM     64  H   UNL A   1      44.928  26.546  35.827  1.00  0.00     0.167 HD
ATOM     65  C   UNL A   1      47.380  23.446  37.551  1.00  0.00     0.034 A 
ATOM     66  C   UNL A   1      43.630  29.034  35.841  1.00  0.00     0.034 A 
ATOM     67  C   UNL A   1      47.461  24.538  38.486  1.00  0.00     0.049 A 
ATOM     68  C   UNL A   1      44.389  28.979  37.134  1.00  0.00     0.074 A 
ATOM     69  C   UNL A   1      48.173  24.602  39.673  1.00  0.00     0.029 A 
ATOM     70  N   UNL A   1      46.799  25.747  38.355  1.00  0.00    -0.354 N 
ATOM     71  N   UNL A   1      45.188  28.039  37.575  1.00  0.00    -0.248 NA
ATOM     72  C   UNL A   1      44.269  30.138  38.032  1.00  0.00     0.031 C 
ATOM     73  C   UNL A   1      47.935  25.848  40.262  1.00  0.00     0.029 A 
ATOM     74  C   UNL A   1      47.076  26.560  39.441  1.00  0.00     0.049 A 
ATOM     75  H   UNL A   1      46.218  25.993  37.600  1.00  0.00     0.167 HD
ATOM     76  C   UNL A   1      45.683  28.499  38.790  1.00  0.00     0.074 A 
ATOM     77  C   UNL A   1      45.104  29.808  39.011  1.00  0.00     0.031 C 
ATOM     78  C   UNL A   1      46.533  27.878  39.644  1.00  0.00     0.034 A 
BRANCH  65  79
ATOM     79  C   UNL A   1      48.074  22.163  37.926  1.00  0.00     0.023 A 
ATOM     80  C   UNL A   1      49.436  22.005  37.594  1.00  0.00     0.012 A 
ATOM     81  C   UNL A   1      47.434  21.180  38.705  1.00  0.00     0.148 A 
ATOM     82  C   UNL A   1      50.144  20.882  38.013  1.00  0.00     0.002 A 
ATOM     83  C   UNL A   1      48.155  20.075  39.146  1.00  0.00     0.091 A 
ATOM     84  F   UNL A   1      46.138  21.348  39.008  1.00  0.00    -0.205 F 
ATOM     85  C   UNL A   1      49.507  19.923  38.797  1.00  0.00     0.022 A 
BRANCH  83  86
ATOM     86  S   UNL A   1      47.454  18.812  40.216  1.00  0.00     0.127 S 
ATOM     87  O   UNL A   1      46.299  18.373  39.435  1.00  0.00    -0.237 OA
ATOM     88  O   UNL A   1      48.542  17.836  40.295  1.00  0.00    -0.237 OA
ATOM     89  O   UNL A   1      47.140  19.477  41.473  1.00  0.00    -0.744 OA
ENDBRANCH  83  86
ENDBRANCH  65  79
BRANCH  66  90
ATOM     90  C   UNL A   1      42.877  30.249  35.433  1.00  0.00     0.023 A 
ATOM     91  C   UNL A   1      43.591  31.328  34.876  1.00  0.00     0.012 A 
ATOM     92  C   UNL A   1      41.472  30.290  35.471  1.00  0.00     0.148 A 
ATOM     93  C   UNL A   1      42.914  32.431  34.358  1.00  0.00     0.002 A 
ATOM     94  C   UNL A   1      40.803  31.377  34.922  1.00  0.00     0.091 A 
ATOM     95  F   UNL A   1      40.822  29.244  36.000  1.00  0.00    -0.205 F 
ATOM     96  C   UNL A   1      41.522  32.451  34.371  1.00  0.00     0.022 A 
BRANCH  94  97
ATOM     97  S   UNL A   1      39.014  31.452  34.789  1.00  0.00     0.127 S 
ATOM     98  O   UNL A   1      38.600  30.405  35.720  1.00  0.00    -0.237 OA
ATOM     99  O   UNL A   1      38.739  32.818  35.236  1.00  0.00    -0.237 OA
ATOM    100  O   UNL A   1      38.707  31.195  33.388  1.00  0.00    -0.744 OA
ENDBRANCH  94  97
ENDBRANCH  66  90
BRANCH  78 101
ATOM    101  C   UNL A   1      46.900  28.585  40.920  1.00  0.00     0.023 A 
ATOM    102  C   UNL A   1      47.924  29.552  40.897  1.00  0.00     0.012 A 
ATOM    103  C   UNL A   1      46.157  28.388  42.100  1.00  0.00     0.148 A 
ATOM    104  C   UNL A   1      48.206  30.311  42.033  1.00  0.00     0.002 A 
ATOM    105  C   UNL A   1      46.422  29.170  43.219  1.00  0.00     0.091 A 
ATOM    106  F   UNL A   1      45.194  27.455  42.100  1.00  0.00    -0.205 F 
ATOM    107  C   UNL A   1      47.449  30.129  43.187  1.00  0.00     0.022 A 
BRANCH 105 108
ATOM    108  S   UNL A   1      45.455  29.064  44.730  1.00  0.00     0.127 S 
ATOM    109  O   UNL A   1      44.093  29.216  44.222  1.00  0.00    -0.237 OA
ATOM    110  O   UNL A   1      45.780  27.721  45.211  1.00  0.00    -0.237 OA
ATOM    111  O   UNL A   1      45.922  30.145  45.587  1.00  0.00    -0.744 OA
ENDBRANCH 105 108
ENDBRANCH  78 101
ENDBRANCH  52  53
ENDBRANCH  45  47
ENDBRANCH  44  45
ENDBRANCH  43  44
ENDBRANCH  42  43
ENDBRANCH  41  42
ENDBRANCH  40  41
ENDBRANCH   1  40
TORSDOF 26
ENDMDL
