MODEL 1
REMARK VINA RESULT:     -10.4      0.000      0.000
REMARK SMILES C[C@@H](C(=O)OCCOCCOCCOC(=O)c1ccc(-c2c3nc(c(-c4cccc(S(=O)(=O)[O-])c4F)c4ccc([nH]4)c(-c4cccc(S(=O)(=O)[O-])c4F)c4nc(c(-c5cccc(S(=O)(=O)[O-])c5F)c5ccc2[nH]5)C=C4)C=C3)cc1)c1ccc(Cc2ccsc2)cc1F
REMARK SMILES IDX 9 1 8 2 7 3 6 4 5 5 3 6 4 7 2 8 1 9 80 10 81 11 91 12 82 13
REMARK SMILES IDX 90 14 92 15 83 16 84 17 85 18 86 19 89 20 87 21 88 22 10 23
REMARK SMILES IDX 11 24 12 25 13 26 14 27 15 28 16 29 17 30 18 31 79 32 19 33
REMARK SMILES IDX 78 34 20 35 21 36 22 37 72 38 23 39 77 40 71 41 73 42 24 43
REMARK SMILES IDX 76 44 70 45 69 46 25 48 57 49 37 50 56 51 38 52 41 53 55 54
REMARK SMILES IDX 74 55 39 56 40 57 54 59 75 60 42 61 26 62 27 63 35 64 28 65
REMARK SMILES IDX 30 66 36 67 29 68 31 69 32 70 33 71 34 72 58 73 59 74 67 75
REMARK SMILES IDX 60 76 62 77 68 78 61 79 63 80 64 81 65 82 66 83 43 84 44 85
REMARK SMILES IDX 52 86 45 87 47 88 53 89 46 90 48 91 49 92 50 93 51 94
REMARK H PARENT 73 47 41 58
REMARK Flexibility Score: inf
ROOT
ATOM      1  C   UNL A   1      31.380  27.530  26.515  1.00  0.00     0.188 C 
ENDROOT
BRANCH   1   2
ATOM      2  O   UNL A   1      30.834  26.236  26.752  1.00  0.00    -0.376 OA
BRANCH   2   3
ATOM      3  C   UNL A   1      29.877  25.717  25.840  1.00  0.00     0.202 C 
BRANCH   3   4
ATOM      4  C   UNL A   1      30.225  25.670  24.345  1.00  0.00     0.261 C 
BRANCH   4   5
ATOM      5  O   UNL A   1      30.500  26.945  23.724  1.00  0.00    -0.463 OA
BRANCH   5   6
ATOM      6  C   UNL A   1      31.436  26.944  22.734  1.00  0.00     0.313 C 
ATOM      7  O   UNL A   1      31.165  26.785  21.547  1.00  0.00    -0.252 OA
BRANCH   6   8
ATOM      8  C   UNL A   1      32.888  27.093  23.218  1.00  0.00     0.129 C 
ATOM      9  C   UNL A   1      33.843  27.979  22.412  1.00  0.00     0.025 C 
BRANCH   8  10
ATOM     10  C   UNL A   1      33.485  25.740  23.587  1.00  0.00     0.002 A 
ATOM     11  C   UNL A   1      33.505  24.710  22.637  1.00  0.00     0.008 A 
ATOM     12  C   UNL A   1      34.108  25.492  24.815  1.00  0.00     0.127 A 
ATOM     13  C   UNL A   1      34.136  23.490  22.909  1.00  0.00     0.004 A 
ATOM     14  C   UNL A   1      34.734  24.276  25.095  1.00  0.00     0.043 A 
ATOM     15  F   UNL A   1      34.132  26.437  25.764  1.00  0.00    -0.207 F 
ATOM     16  C   UNL A   1      34.759  23.254  24.143  1.00  0.00    -0.041 A 
BRANCH  16  17
ATOM     17  C   UNL A   1      35.498  21.965  24.420  1.00  0.00     0.072 C 
BRANCH  17  18
ATOM     18  C   UNL A   1      34.481  20.877  24.614  1.00  0.00    -0.033 A 
ATOM     19  C   UNL A   1      33.054  21.040  24.544  1.00  0.00     0.015 A 
ATOM     20  C   UNL A   1      34.799  19.540  24.793  1.00  0.00     0.068 A 
ATOM     21  C   UNL A   1      32.368  19.857  24.701  1.00  0.00     0.065 A 
ATOM     22  S   UNL A   1      33.423  18.532  24.916  1.00  0.00    -0.152 S 
ENDBRANCH  17  18
ENDBRANCH  16  17
ENDBRANCH   8  10
ENDBRANCH   6   8
ENDBRANCH   5   6
ENDBRANCH   4   5
ENDBRANCH   3   4
ENDBRANCH   2   3
ENDBRANCH   1   2
BRANCH   1  23
ATOM     23  C   UNL A   1      31.413  28.542  27.677  1.00  0.00     0.188 C 
BRANCH  23  24
ATOM     24  O   UNL A   1      32.350  29.583  27.485  1.00  0.00    -0.376 OA
BRANCH  24  25
ATOM     25  C   UNL A   1      31.901  30.765  26.855  1.00  0.00     0.202 C 
BRANCH  25  26
ATOM     26  C   UNL A   1      32.841  31.980  26.828  1.00  0.00     0.261 C 
BRANCH  26  27
ATOM     27  O   UNL A   1      32.464  33.112  27.627  1.00  0.00    -0.460 OA
BRANCH  27  28
ATOM     28  C   UNL A   1      33.443  33.965  28.002  1.00  0.00     0.338 C 
ATOM     29  O   UNL A   1      33.350  35.180  28.100  1.00  0.00    -0.246 OA
BRANCH  28  30
ATOM     30  C   UNL A   1      34.603  33.164  28.464  1.00  0.00     0.060 A 
ATOM     31  C   UNL A   1      34.370  32.011  29.223  1.00  0.00     0.016 A 
ATOM     32  C   UNL A   1      35.914  33.539  28.151  1.00  0.00     0.016 A 
ATOM     33  C   UNL A   1      35.445  31.246  29.687  1.00  0.00     0.010 A 
ATOM     34  C   UNL A   1      36.990  32.775  28.623  1.00  0.00     0.010 A 
ATOM     35  C   UNL A   1      36.765  31.632  29.406  1.00  0.00    -0.014 A 
BRANCH  35  36
ATOM     36  C   UNL A   1      37.897  30.939  30.074  1.00  0.00     0.031 A 
ATOM     37  C   UNL A   1      38.245  31.330  31.484  1.00  0.00     0.074 A 
ATOM     38  C   UNL A   1      38.620  29.991  29.448  1.00  0.00     0.049 A 
ATOM     39  N   UNL A   1      39.199  30.883  32.258  1.00  0.00    -0.248 NA
ATOM     40  C   UNL A   1      37.402  32.367  32.099  1.00  0.00     0.031 C 
ATOM     41  C   UNL A   1      38.399  29.520  28.084  1.00  0.00     0.029 A 
ATOM     42  N   UNL A   1      39.708  29.269  29.881  1.00  0.00    -0.354 N 
ATOM     43  C   UNL A   1      39.088  31.598  33.444  1.00  0.00     0.074 A 
ATOM     44  C   UNL A   1      37.972  32.506  33.287  1.00  0.00     0.031 C 
ATOM     45  C   UNL A   1      39.336  28.603  27.782  1.00  0.00     0.029 A 
ATOM     46  C   UNL A   1      40.242  28.442  28.920  1.00  0.00     0.049 A 
ATOM     47  H   UNL A   1      40.070  29.338  30.794  1.00  0.00     0.167 HD
ATOM     48  C   UNL A   1      39.844  31.513  34.564  1.00  0.00     0.034 A 
ATOM     49  C   UNL A   1      41.348  27.668  28.945  1.00  0.00     0.034 A 
ATOM     50  C   UNL A   1      40.972  30.638  34.720  1.00  0.00     0.049 A 
ATOM     51  C   UNL A   1      42.201  27.624  30.193  1.00  0.00     0.074 A 
ATOM     52  C   UNL A   1      41.791  30.481  35.825  1.00  0.00     0.029 A 
ATOM     53  N   UNL A   1      41.462  29.793  33.737  1.00  0.00    -0.354 N 
ATOM     54  N   UNL A   1      42.017  28.223  31.344  1.00  0.00    -0.248 NA
ATOM     55  C   UNL A   1      43.406  26.780  30.148  1.00  0.00     0.031 C 
ATOM     56  C   UNL A   1      42.799  29.569  35.496  1.00  0.00     0.029 A 
ATOM     57  C   UNL A   1      42.580  29.122  34.203  1.00  0.00     0.049 A 
ATOM     58  H   UNL A   1      41.073  29.686  32.840  1.00  0.00     0.167 HD
ATOM     59  C   UNL A   1      43.062  27.804  32.166  1.00  0.00     0.074 A 
ATOM     60  C   UNL A   1      43.860  26.882  31.389  1.00  0.00     0.031 C 
ATOM     61  C   UNL A   1      43.341  28.164  33.444  1.00  0.00     0.034 A 
BRANCH  48  62
ATOM     62  C   UNL A   1      39.470  32.409  35.715  1.00  0.00     0.023 A 
ATOM     63  C   UNL A   1      38.652  31.912  36.751  1.00  0.00     0.012 A 
ATOM     64  C   UNL A   1      39.951  33.730  35.786  1.00  0.00     0.148 A 
ATOM     65  C   UNL A   1      38.288  32.730  37.820  1.00  0.00     0.002 A 
ATOM     66  C   UNL A   1      39.623  34.523  36.877  1.00  0.00     0.091 A 
ATOM     67  F   UNL A   1      40.709  34.188  34.779  1.00  0.00    -0.205 F 
ATOM     68  C   UNL A   1      38.781  34.031  37.887  1.00  0.00     0.022 A 
BRANCH  66  69
ATOM     69  S   UNL A   1      40.266  36.186  37.094  1.00  0.00     0.127 S 
ATOM     70  O   UNL A   1      39.487  36.656  38.239  1.00  0.00    -0.237 OA
ATOM     71  O   UNL A   1      41.678  35.933  37.379  1.00  0.00    -0.237 OA
ATOM     72  O   UNL A   1      40.013  36.882  35.841  1.00  0.00    -0.744 OA
ENDBRANCH  66  69
ENDBRANCH  48  62
BRANCH  49  73
ATOM     73  C   UNL A   1      41.730  26.858  27.751  1.00  0.00     0.023 A 
ATOM     74  C   UNL A   1      42.352  27.483  26.652  1.00  0.00     0.012 A 
ATOM     75  C   UNL A   1      41.458  25.478  27.690  1.00  0.00     0.148 A 
ATOM     76  C   UNL A   1      42.664  26.755  25.501  1.00  0.00     0.002 A 
ATOM     77  C   UNL A   1      41.825  24.747  26.566  1.00  0.00     0.091 A 
ATOM     78  F   UNL A   1      40.845  24.906  28.736  1.00  0.00    -0.205 F 
ATOM     79  C   UNL A   1      42.409  25.387  25.462  1.00  0.00     0.022 A 
BRANCH  77  80
ATOM     80  S   UNL A   1      41.648  22.963  26.475  1.00  0.00     0.127 S 
ATOM     81  O   UNL A   1      42.313  22.532  27.701  1.00  0.00    -0.237 OA
ATOM     82  O   UNL A   1      40.192  22.808  26.476  1.00  0.00    -0.237 OA
ATOM     83  O   UNL A   1      42.296  22.566  25.233  1.00  0.00    -0.744 OA
ENDBRANCH  77  80
ENDBRANCH  49  73
BRANCH  61  84
ATOM     84  C   UNL A   1      44.534  27.529  34.118  1.00  0.00     0.023 A 
ATOM     85  C   UNL A   1      45.782  28.183  34.114  1.00  0.00     0.012 A 
ATOM     86  C   UNL A   1      44.393  26.322  34.833  1.00  0.00     0.148 A 
ATOM     87  C   UNL A   1      46.875  27.631  34.783  1.00  0.00     0.002 A 
ATOM     88  C   UNL A   1      45.472  25.804  35.539  1.00  0.00     0.091 A 
ATOM     89  F   UNL A   1      43.202  25.705  34.814  1.00  0.00    -0.205 F 
ATOM     90  C   UNL A   1      46.718  26.450  35.504  1.00  0.00     0.022 A 
BRANCH  88  91
ATOM     91  S   UNL A   1      45.337  24.343  36.578  1.00  0.00     0.127 S 
ATOM     92  O   UNL A   1      44.791  23.362  35.641  1.00  0.00    -0.237 OA
ATOM     93  O   UNL A   1      46.728  24.109  36.964  1.00  0.00    -0.237 OA
ATOM     94  O   UNL A   1      44.456  24.712  37.679  1.00  0.00    -0.744 OA
ENDBRANCH  88  91
ENDBRANCH  61  84
ENDBRANCH  35  36
ENDBRANCH  28  30
ENDBRANCH  27  28
ENDBRANCH  26  27
ENDBRANCH  25  26
ENDBRANCH  24  25
ENDBRANCH  23  24
ENDBRANCH   1  23
TORSDOF 23
ENDMDL
MODEL 2
REMARK VINA RESULT:     -10.1      2.299      7.790
REMARK SMILES C[C@@H](C(=O)OCCOCCOCCOC(=O)c1ccc(-c2c3nc(c(-c4cccc(S(=O)(=O)[O-])c4F)c4ccc([nH]4)c(-c4cccc(S(=O)(=O)[O-])c4F)c4nc(c(-c5cccc(S(=O)(=O)[O-])c5F)c5ccc2[nH]5)C=C4)C=C3)cc1)c1ccc(Cc2ccsc2)cc1F
REMARK SMILES IDX 9 1 8 2 7 3 6 4 5 5 3 6 4 7 2 8 1 9 80 10 81 11 91 12 82 13
REMARK SMILES IDX 90 14 92 15 83 16 84 17 85 18 86 19 89 20 87 21 88 22 10 23
REMARK SMILES IDX 11 24 12 25 13 26 14 27 15 28 16 29 17 30 18 31 79 32 19 33
REMARK SMILES IDX 78 34 20 35 21 36 22 37 72 38 23 39 77 40 71 41 73 42 24 43
REMARK SMILES IDX 76 44 70 45 69 46 25 48 57 49 37 50 56 51 38 52 41 53 55 54
REMARK SMILES IDX 74 55 39 56 40 57 54 59 75 60 42 61 26 62 27 63 35 64 28 65
REMARK SMILES IDX 30 66 36 67 29 68 31 69 32 70 33 71 34 72 58 73 59 74 67 75
REMARK SMILES IDX 60 76 62 77 68 78 61 79 63 80 64 81 65 82 66 83 43 84 44 85
REMARK SMILES IDX 52 86 45 87 47 88 53 89 46 90 48 91 49 92 50 93 51 94
REMARK H PARENT 73 47 41 58
REMARK Flexibility Score: inf
ROOT
ATOM      1  C   UNL A   1      33.457  29.088  25.154  1.00  0.00     0.188 C 
ENDROOT
BRANCH   1   2
ATOM      2  O   UNL A   1      32.796  28.885  23.909  1.00  0.00    -0.376 OA
BRANCH   2   3
ATOM      3  C   UNL A   1      31.503  28.296  23.906  1.00  0.00     0.202 C 
BRANCH   3   4
ATOM      4  C   UNL A   1      30.914  27.805  22.575  1.00  0.00     0.261 C 
BRANCH   4   5
ATOM      5  O   UNL A   1      30.558  26.406  22.524  1.00  0.00    -0.463 OA
BRANCH   5   6
ATOM      6  C   UNL A   1      31.525  25.524  22.901  1.00  0.00     0.313 C 
ATOM      7  O   UNL A   1      32.653  25.508  22.416  1.00  0.00    -0.252 OA
BRANCH   6   8
ATOM      8  C   UNL A   1      31.081  24.488  23.948  1.00  0.00     0.129 C 
ATOM      9  C   UNL A   1      30.508  24.989  25.278  1.00  0.00     0.025 C 
BRANCH   8  10
ATOM     10  C   UNL A   1      32.130  23.394  24.116  1.00  0.00     0.002 A 
ATOM     11  C   UNL A   1      33.134  23.541  25.083  1.00  0.00     0.008 A 
ATOM     12  C   UNL A   1      32.092  22.188  23.407  1.00  0.00     0.127 A 
ATOM     13  C   UNL A   1      34.050  22.511  25.332  1.00  0.00     0.004 A 
ATOM     14  C   UNL A   1      33.006  21.161  23.647  1.00  0.00     0.043 A 
ATOM     15  F   UNL A   1      31.152  21.981  22.476  1.00  0.00    -0.207 F 
ATOM     16  C   UNL A   1      34.001  21.307  24.617  1.00  0.00    -0.041 A 
BRANCH  16  17
ATOM     17  C   UNL A   1      34.945  20.167  24.924  1.00  0.00     0.072 C 
BRANCH  17  18
ATOM     18  C   UNL A   1      34.170  18.884  24.839  1.00  0.00    -0.033 A 
ATOM     19  C   UNL A   1      32.891  18.634  25.447  1.00  0.00     0.015 A 
ATOM     20  C   UNL A   1      34.552  17.795  24.072  1.00  0.00     0.068 A 
ATOM     21  C   UNL A   1      32.386  17.389  25.149  1.00  0.00     0.065 A 
ATOM     22  S   UNL A   1      33.428  16.507  24.125  1.00  0.00    -0.152 S 
ENDBRANCH  17  18
ENDBRANCH  16  17
ENDBRANCH   8  10
ENDBRANCH   6   8
ENDBRANCH   5   6
ENDBRANCH   4   5
ENDBRANCH   3   4
ENDBRANCH   2   3
ENDBRANCH   1   2
BRANCH   1  23
ATOM     23  C   UNL A   1      32.605  29.174  26.436  1.00  0.00     0.188 C 
BRANCH  23  24
ATOM     24  O   UNL A   1      33.261  29.835  27.499  1.00  0.00    -0.376 OA
BRANCH  24  25
ATOM     25  C   UNL A   1      33.712  31.155  27.276  1.00  0.00     0.202 C 
BRANCH  25  26
ATOM     26  C   UNL A   1      32.812  32.319  27.716  1.00  0.00     0.261 C 
BRANCH  26  27
ATOM     27  O   UNL A   1      33.306  33.648  27.484  1.00  0.00    -0.460 OA
BRANCH  27  28
ATOM     28  C   UNL A   1      33.364  34.485  28.544  1.00  0.00     0.338 C 
ATOM     29  O   UNL A   1      32.531  35.324  28.853  1.00  0.00    -0.246 OA
BRANCH  28  30
ATOM     30  C   UNL A   1      34.520  34.089  29.385  1.00  0.00     0.060 A 
ATOM     31  C   UNL A   1      35.815  34.278  28.888  1.00  0.00     0.016 A 
ATOM     32  C   UNL A   1      34.335  33.538  30.658  1.00  0.00     0.016 A 
ATOM     33  C   UNL A   1      36.923  33.898  29.653  1.00  0.00     0.010 A 
ATOM     34  C   UNL A   1      35.446  33.151  31.418  1.00  0.00     0.010 A 
ATOM     35  C   UNL A   1      36.747  33.314  30.916  1.00  0.00    -0.014 A 
BRANCH  35  36
ATOM     36  C   UNL A   1      37.911  32.724  31.628  1.00  0.00     0.031 A 
ATOM     37  C   UNL A   1      38.614  31.551  31.001  1.00  0.00     0.074 A 
ATOM     38  C   UNL A   1      38.336  33.199  32.814  1.00  0.00     0.049 A 
ATOM     39  N   UNL A   1      39.632  30.861  31.443  1.00  0.00    -0.248 NA
ATOM     40  C   UNL A   1      38.093  31.098  29.702  1.00  0.00     0.031 C 
ATOM     41  C   UNL A   1      37.746  34.322  33.537  1.00  0.00     0.029 A 
ATOM     42  N   UNL A   1      39.359  32.773  33.630  1.00  0.00    -0.354 N 
ATOM     43  C   UNL A   1      39.863  29.877  30.490  1.00  0.00     0.074 A 
ATOM     44  C   UNL A   1      38.878  30.062  29.445  1.00  0.00     0.031 C 
ATOM     45  C   UNL A   1      38.403  34.484  34.700  1.00  0.00     0.029 A 
ATOM     46  C   UNL A   1      39.440  33.459  34.820  1.00  0.00     0.049 A 
ATOM     47  H   UNL A   1      39.976  32.047  33.384  1.00  0.00     0.167 HD
ATOM     48  C   UNL A   1      40.804  28.903  30.479  1.00  0.00     0.034 A 
ATOM     49  C   UNL A   1      40.238  33.264  35.891  1.00  0.00     0.034 A 
ATOM     50  C   UNL A   1      41.765  28.690  31.525  1.00  0.00     0.049 A 
ATOM     51  C   UNL A   1      41.252  32.142  35.874  1.00  0.00     0.074 A 
ATOM     52  C   UNL A   1      42.761  27.731  31.594  1.00  0.00     0.029 A 
ATOM     53  N   UNL A   1      41.836  29.424  32.698  1.00  0.00    -0.354 N 
ATOM     54  N   UNL A   1      41.529  31.291  34.917  1.00  0.00    -0.248 NA
ATOM     55  C   UNL A   1      42.074  31.967  37.083  1.00  0.00     0.031 C 
ATOM     56  C   UNL A   1      43.410  27.862  32.827  1.00  0.00     0.029 A 
ATOM     57  C   UNL A   1      42.849  28.932  33.504  1.00  0.00     0.049 A 
ATOM     58  H   UNL A   1      41.252  30.184  32.925  1.00  0.00     0.167 HD
ATOM     59  C   UNL A   1      42.576  30.504  35.394  1.00  0.00     0.074 A 
ATOM     60  C   UNL A   1      42.899  30.996  36.716  1.00  0.00     0.031 C 
ATOM     61  C   UNL A   1      43.203  29.460  34.797  1.00  0.00     0.034 A 
BRANCH  48  62
ATOM     62  C   UNL A   1      40.827  27.982  29.289  1.00  0.00     0.023 A 
ATOM     63  C   UNL A   1      39.994  26.844  29.269  1.00  0.00     0.012 A 
ATOM     64  C   UNL A   1      41.649  28.258  28.180  1.00  0.00     0.148 A 
ATOM     65  C   UNL A   1      40.009  25.975  28.178  1.00  0.00     0.002 A 
ATOM     66  C   UNL A   1      41.623  27.414  27.078  1.00  0.00     0.091 A 
ATOM     67  F   UNL A   1      42.449  29.333  28.230  1.00  0.00    -0.205 F 
ATOM     68  C   UNL A   1      40.816  26.265  27.081  1.00  0.00     0.022 A 
BRANCH  66  69
ATOM     69  S   UNL A   1      42.570  27.738  25.586  1.00  0.00     0.127 S 
ATOM     70  O   UNL A   1      43.926  27.861  26.119  1.00  0.00    -0.237 OA
ATOM     71  O   UNL A   1      42.329  26.527  24.803  1.00  0.00    -0.237 OA
ATOM     72  O   UNL A   1      42.013  28.955  25.013  1.00  0.00    -0.744 OA
ENDBRANCH  66  69
ENDBRANCH  48  62
BRANCH  49  73
ATOM     73  C   UNL A   1      40.125  34.149  37.087  1.00  0.00     0.023 A 
ATOM     74  C   UNL A   1      40.717  35.428  37.070  1.00  0.00     0.012 A 
ATOM     75  C   UNL A   1      39.455  33.721  38.250  1.00  0.00     0.148 A 
ATOM     76  C   UNL A   1      40.673  36.249  38.200  1.00  0.00     0.002 A 
ATOM     77  C   UNL A   1      39.364  34.565  39.349  1.00  0.00     0.091 A 
ATOM     78  F   UNL A   1      38.919  32.492  38.256  1.00  0.00    -0.205 F 
ATOM     79  C   UNL A   1      39.989  35.821  39.334  1.00  0.00     0.022 A 
BRANCH  77  80
ATOM     80  S   UNL A   1      38.402  34.150  40.808  1.00  0.00     0.127 S 
ATOM     81  O   UNL A   1      39.346  33.333  41.566  1.00  0.00    -0.237 OA
ATOM     82  O   UNL A   1      38.136  35.472  41.375  1.00  0.00    -0.237 OA
ATOM     83  O   UNL A   1      37.221  33.456  40.316  1.00  0.00    -0.744 OA
ENDBRANCH  77  80
ENDBRANCH  49  73
BRANCH  61  84
ATOM     84  C   UNL A   1      44.339  28.794  35.535  1.00  0.00     0.023 A 
ATOM     85  C   UNL A   1      45.645  29.318  35.448  1.00  0.00     0.012 A 
ATOM     86  C   UNL A   1      44.093  27.698  36.387  1.00  0.00     0.148 A 
ATOM     87  C   UNL A   1      46.690  28.742  36.171  1.00  0.00     0.002 A 
ATOM     88  C   UNL A   1      45.129  27.163  37.144  1.00  0.00     0.091 A 
ATOM     89  F   UNL A   1      42.849  27.202  36.447  1.00  0.00    -0.205 F 
ATOM     90  C   UNL A   1      46.431  27.674  37.027  1.00  0.00     0.022 A 
BRANCH  88  91
ATOM     91  S   UNL A   1      44.871  25.853  38.348  1.00  0.00     0.127 S 
ATOM     92  O   UNL A   1      46.221  25.665  38.877  1.00  0.00    -0.237 OA
ATOM     93  O   UNL A   1      43.931  26.473  39.282  1.00  0.00    -0.237 OA
ATOM     94  O   UNL A   1      44.329  24.723  37.604  1.00  0.00    -0.744 OA
ENDBRANCH  88  91
ENDBRANCH  61  84
ENDBRANCH  35  36
ENDBRANCH  28  30
ENDBRANCH  27  28
ENDBRANCH  26  27
ENDBRANCH  25  26
ENDBRANCH  24  25
ENDBRANCH  23  24
ENDBRANCH   1  23
TORSDOF 23
ENDMDL
MODEL 3
REMARK VINA RESULT:      -9.9      2.122      2.894
REMARK SMILES C[C@@H](C(=O)OCCOCCOCCOC(=O)c1ccc(-c2c3nc(c(-c4cccc(S(=O)(=O)[O-])c4F)c4ccc([nH]4)c(-c4cccc(S(=O)(=O)[O-])c4F)c4nc(c(-c5cccc(S(=O)(=O)[O-])c5F)c5ccc2[nH]5)C=C4)C=C3)cc1)c1ccc(Cc2ccsc2)cc1F
REMARK SMILES IDX 9 1 8 2 7 3 6 4 5 5 3 6 4 7 2 8 1 9 80 10 81 11 91 12 82 13
REMARK SMILES IDX 90 14 92 15 83 16 84 17 85 18 86 19 89 20 87 21 88 22 10 23
REMARK SMILES IDX 11 24 12 25 13 26 14 27 15 28 16 29 17 30 18 31 79 32 19 33
REMARK SMILES IDX 78 34 20 35 21 36 22 37 72 38 23 39 77 40 71 41 73 42 24 43
REMARK SMILES IDX 76 44 70 45 69 46 25 48 57 49 37 50 56 51 38 52 41 53 55 54
REMARK SMILES IDX 74 55 39 56 40 57 54 59 75 60 42 61 26 62 27 63 35 64 28 65
REMARK SMILES IDX 30 66 36 67 29 68 31 69 32 70 33 71 34 72 58 73 59 74 67 75
REMARK SMILES IDX 60 76 62 77 68 78 61 79 63 80 64 81 65 82 66 83 43 84 44 85
REMARK SMILES IDX 52 86 45 87 47 88 53 89 46 90 48 91 49 92 50 93 51 94
REMARK H PARENT 73 47 41 58
REMARK Flexibility Score: inf
ROOT
ATOM      1  C   UNL A   1      32.963  29.298  24.736  1.00  0.00     0.188 C 
ENDROOT
BRANCH   1   2
ATOM      2  O   UNL A   1      32.289  28.120  24.304  1.00  0.00    -0.376 OA
BRANCH   2   3
ATOM      3  C   UNL A   1      30.883  28.027  24.484  1.00  0.00     0.202 C 
BRANCH   3   4
ATOM      4  C   UNL A   1      30.267  26.665  24.833  1.00  0.00     0.261 C 
BRANCH   4   5
ATOM      5  O   UNL A   1      30.517  26.187  26.173  1.00  0.00    -0.463 OA
BRANCH   5   6
ATOM      6  C   UNL A   1      31.332  25.101  26.284  1.00  0.00     0.313 C 
ATOM      7  O   UNL A   1      32.545  25.180  26.454  1.00  0.00    -0.252 OA
BRANCH   6   8
ATOM      8  C   UNL A   1      30.627  23.745  26.114  1.00  0.00     0.129 C 
ATOM      9  C   UNL A   1      29.589  23.321  27.158  1.00  0.00     0.025 C 
BRANCH   8  10
ATOM     10  C   UNL A   1      31.628  22.645  25.776  1.00  0.00     0.002 A 
ATOM     11  C   UNL A   1      31.728  22.181  24.458  1.00  0.00     0.008 A 
ATOM     12  C   UNL A   1      32.532  22.126  26.710  1.00  0.00     0.127 A 
ATOM     13  C   UNL A   1      32.706  21.246  24.095  1.00  0.00     0.004 A 
ATOM     14  C   UNL A   1      33.505  21.190  26.356  1.00  0.00     0.043 A 
ATOM     15  F   UNL A   1      32.495  22.534  27.986  1.00  0.00    -0.207 F 
ATOM     16  C   UNL A   1      33.608  20.735  25.039  1.00  0.00    -0.041 A 
BRANCH  16  17
ATOM     17  C   UNL A   1      34.706  19.775  24.643  1.00  0.00     0.072 C 
BRANCH  17  18
ATOM     18  C   UNL A   1      34.157  18.380  24.724  1.00  0.00    -0.033 A 
ATOM     19  C   UNL A   1      34.782  17.199  24.192  1.00  0.00     0.015 A 
ATOM     20  C   UNL A   1      33.007  18.037  25.417  1.00  0.00     0.068 A 
ATOM     21  C   UNL A   1      34.083  16.047  24.468  1.00  0.00     0.065 A 
ATOM     22  S   UNL A   1      32.676  16.360  25.383  1.00  0.00    -0.152 S 
ENDBRANCH  17  18
ENDBRANCH  16  17
ENDBRANCH   8  10
ENDBRANCH   6   8
ENDBRANCH   5   6
ENDBRANCH   4   5
ENDBRANCH   3   4
ENDBRANCH   2   3
ENDBRANCH   1   2
BRANCH   1  23
ATOM     23  C   UNL A   1      32.309  30.162  25.832  1.00  0.00     0.188 C 
BRANCH  23  24
ATOM     24  O   UNL A   1      33.028  30.158  27.049  1.00  0.00    -0.376 OA
BRANCH  24  25
ATOM     25  C   UNL A   1      33.528  31.392  27.522  1.00  0.00     0.202 C 
BRANCH  25  26
ATOM     26  C   UNL A   1      32.563  32.584  27.615  1.00  0.00     0.261 C 
BRANCH  26  27
ATOM     27  O   UNL A   1      33.145  33.897  27.573  1.00  0.00    -0.460 OA
BRANCH  27  28
ATOM     28  C   UNL A   1      33.292  34.551  28.746  1.00  0.00     0.338 C 
ATOM     29  O   UNL A   1      32.523  35.375  29.220  1.00  0.00    -0.246 OA
BRANCH  28  30
ATOM     30  C   UNL A   1      34.451  33.964  29.463  1.00  0.00     0.060 A 
ATOM     31  C   UNL A   1      35.736  34.161  28.946  1.00  0.00     0.016 A 
ATOM     32  C   UNL A   1      34.278  33.228  30.640  1.00  0.00     0.016 A 
ATOM     33  C   UNL A   1      36.846  33.605  29.591  1.00  0.00     0.010 A 
ATOM     34  C   UNL A   1      35.390  32.665  31.280  1.00  0.00     0.010 A 
ATOM     35  C   UNL A   1      36.680  32.837  30.753  1.00  0.00    -0.014 A 
BRANCH  35  36
ATOM     36  C   UNL A   1      37.831  32.079  31.311  1.00  0.00     0.031 A 
ATOM     37  C   UNL A   1      38.438  32.548  32.604  1.00  0.00     0.074 A 
ATOM     38  C   UNL A   1      38.346  31.004  30.685  1.00  0.00     0.049 A 
ATOM     39  N   UNL A   1      39.454  32.063  33.268  1.00  0.00    -0.248 NA
ATOM     40  C   UNL A   1      37.812  33.724  33.229  1.00  0.00     0.031 C 
ATOM     41  C   UNL A   1      37.862  30.445  29.425  1.00  0.00     0.029 A 
ATOM     42  N   UNL A   1      39.412  30.202  31.021  1.00  0.00    -0.354 N 
ATOM     43  C   UNL A   1      39.607  32.885  34.377  1.00  0.00     0.074 A 
ATOM     44  C   UNL A   1      38.577  33.899  34.297  1.00  0.00     0.031 C 
ATOM     45  C   UNL A   1      38.643  29.404  29.082  1.00  0.00     0.029 A 
ATOM     46  C   UNL A   1      39.699  29.239  30.081  1.00  0.00     0.049 A 
ATOM     47  H   UNL A   1      39.921  30.307  31.857  1.00  0.00     0.167 HD
ATOM     48  C   UNL A   1      40.521  32.812  35.374  1.00  0.00     0.034 A 
ATOM     49  C   UNL A   1      40.712  28.348  30.020  1.00  0.00     0.034 A 
ATOM     50  C   UNL A   1      41.567  31.830  35.448  1.00  0.00     0.049 A 
ATOM     51  C   UNL A   1      41.745  28.315  31.123  1.00  0.00     0.074 A 
ATOM     52  C   UNL A   1      42.534  31.676  36.426  1.00  0.00     0.029 A 
ATOM     53  N   UNL A   1      41.806  30.853  34.495  1.00  0.00    -0.354 N 
ATOM     54  N   UNL A   1      41.810  29.028  32.220  1.00  0.00    -0.248 NA
ATOM     55  C   UNL A   1      42.838  27.338  30.984  1.00  0.00     0.031 C 
ATOM     56  C   UNL A   1      43.379  30.629  36.046  1.00  0.00     0.029 A 
ATOM     57  C   UNL A   1      42.912  30.101  34.853  1.00  0.00     0.049 A 
ATOM     58  H   UNL A   1      41.268  30.714  33.682  1.00  0.00     0.167 HD
ATOM     59  C   UNL A   1      42.926  28.565  32.914  1.00  0.00     0.074 A 
ATOM     60  C   UNL A   1      43.493  27.494  32.126  1.00  0.00     0.031 C 
ATOM     61  C   UNL A   1      43.442  28.999  34.092  1.00  0.00     0.034 A 
BRANCH  48  62
ATOM     62  C   UNL A   1      40.428  33.841  36.469  1.00  0.00     0.023 A 
ATOM     63  C   UNL A   1      40.919  35.144  36.246  1.00  0.00     0.012 A 
ATOM     64  C   UNL A   1      39.831  33.527  37.704  1.00  0.00     0.148 A 
ATOM     65  C   UNL A   1      40.849  36.108  37.252  1.00  0.00     0.002 A 
ATOM     66  C   UNL A   1      39.723  34.506  38.683  1.00  0.00     0.091 A 
ATOM     67  F   UNL A   1      39.391  32.276  37.902  1.00  0.00    -0.205 F 
ATOM     68  C   UNL A   1      40.245  35.791  38.465  1.00  0.00     0.022 A 
BRANCH  66  69
ATOM     69  S   UNL A   1      38.896  34.220  40.252  1.00  0.00     0.127 S 
ATOM     70  O   UNL A   1      37.557  33.830  39.812  1.00  0.00    -0.237 OA
ATOM     71  O   UNL A   1      39.691  33.132  40.822  1.00  0.00    -0.237 OA
ATOM     72  O   UNL A   1      38.971  35.477  40.982  1.00  0.00    -0.744 OA
ENDBRANCH  66  69
ENDBRANCH  48  62
BRANCH  49  73
ATOM     73  C   UNL A   1      40.814  27.400  28.872  1.00  0.00     0.023 A 
ATOM     74  C   UNL A   1      39.992  26.256  28.833  1.00  0.00     0.012 A 
ATOM     75  C   UNL A   1      41.739  27.613  27.831  1.00  0.00     0.148 A 
ATOM     76  C   UNL A   1      40.113  25.326  27.799  1.00  0.00     0.002 A 
ATOM     77  C   UNL A   1      41.813  26.714  26.774  1.00  0.00     0.091 A 
ATOM     78  F   UNL A   1      42.529  28.694  27.897  1.00  0.00    -0.205 F 
ATOM     79  C   UNL A   1      41.016  25.560  26.766  1.00  0.00     0.022 A 
BRANCH  77  80
ATOM     80  S   UNL A   1      42.858  26.995  25.341  1.00  0.00     0.127 S 
ATOM     81  O   UNL A   1      44.160  27.222  25.960  1.00  0.00    -0.237 OA
ATOM     82  O   UNL A   1      42.729  25.724  24.625  1.00  0.00    -0.237 OA
ATOM     83  O   UNL A   1      42.280  28.138  24.650  1.00  0.00    -0.744 OA
ENDBRANCH  77  80
ENDBRANCH  49  73
BRANCH  61  84
ATOM     84  C   UNL A   1      44.658  28.293  34.640  1.00  0.00     0.023 A 
ATOM     85  C   UNL A   1      45.948  28.802  34.388  1.00  0.00     0.012 A 
ATOM     86  C   UNL A   1      44.514  27.171  35.482  1.00  0.00     0.148 A 
ATOM     87  C   UNL A   1      47.073  28.187  34.938  1.00  0.00     0.002 A 
ATOM     88  C   UNL A   1      45.635  26.596  36.068  1.00  0.00     0.091 A 
ATOM     89  F   UNL A   1      43.281  26.691  35.700  1.00  0.00    -0.205 F 
ATOM     90  C   UNL A   1      46.917  27.094  35.786  1.00  0.00     0.022 A 
BRANCH  88  91
ATOM     91  S   UNL A   1      45.523  25.248  37.253  1.00  0.00     0.127 S 
ATOM     92  O   UNL A   1      45.051  25.943  38.450  1.00  0.00    -0.237 OA
ATOM     93  O   UNL A   1      44.535  24.369  36.628  1.00  0.00    -0.237 OA
ATOM     94  O   UNL A   1      46.863  24.683  37.348  1.00  0.00    -0.744 OA
ENDBRANCH  88  91
ENDBRANCH  61  84
ENDBRANCH  35  36
ENDBRANCH  28  30
ENDBRANCH  27  28
ENDBRANCH  26  27
ENDBRANCH  25  26
ENDBRANCH  24  25
ENDBRANCH  23  24
ENDBRANCH   1  23
TORSDOF 23
ENDMDL
