MODEL 1
REMARK VINA RESULT:      -9.5      0.000      0.000
REMARK SMILES O=C(N[C@@H](Cc1c[nH]c2ccccc12)C(=O)N[C@@H](CO)C(=O)OCCOCCOCCOC(=O)c1ccc(-c2c3nc(c(-c4cccc(S(=O)(=O)[O-])c4F)c4ccc([nH]4)c(-c4cccc(S(=O)(=O)[O-])c4F)c4nc(c(-c5cccc(S(=O)(=O)[O-])c5F)c5ccc2[nH]5)C=C4)C=C3)cc1)c1ccc(F)cc1
REMARK SMILES IDX 27 1 26 2 25 3 24 4 23 5 21 6 22 7 18 8 17 9 15 10 16 11
REMARK SMILES IDX 4 13 3 14 1 15 2 16 98 18 99 19 104 20 100 21 103 22 101 23
REMARK SMILES IDX 102 24 5 25 6 26 7 27 14 28 8 29 9 30 13 31 10 33 12 34
REMARK SMILES IDX 11 35 19 36 20 37 28 39 29 40 30 41 31 42 32 43 33 44 34 45
REMARK SMILES IDX 35 46 36 47 97 48 37 49 96 50 38 51 39 52 40 53 90 54 41 55
REMARK SMILES IDX 95 56 89 57 91 58 42 59 94 60 88 61 87 62 43 64 75 65 55 66
REMARK SMILES IDX 74 67 56 68 59 69 73 70 92 71 57 72 58 73 72 75 93 76 60 77
REMARK SMILES IDX 44 78 45 79 53 80 46 81 48 82 54 83 47 84 49 85 50 86 51 87
REMARK SMILES IDX 52 88 76 89 77 90 85 91 78 92 80 93 86 94 79 95 81 96 82 97
REMARK SMILES IDX 83 98 84 99 61 100 62 101 70 102 63 103 65 104 71 105 64 106
REMARK SMILES IDX 66 107 67 108 68 109 69 110
REMARK H PARENT 17 12 3 17 8 32 20 38 91 63 59 74
REMARK Flexibility Score: inf
ROOT
ATOM      1  C   UNL A   1      45.770  42.001  26.509  1.00  0.00     0.188 C 
ENDROOT
BRANCH   1   2
ATOM      2  O   UNL A   1      44.474  42.389  26.062  1.00  0.00    -0.376 OA
BRANCH   2   3
ATOM      3  C   UNL A   1      44.417  43.012  24.786  1.00  0.00     0.202 C 
BRANCH   3   4
ATOM      4  C   UNL A   1      43.084  42.792  24.063  1.00  0.00     0.261 C 
BRANCH   4   5
ATOM      5  O   UNL A   1      43.011  43.422  22.761  1.00  0.00    -0.462 OA
BRANCH   5   6
ATOM      6  C   UNL A   1      42.773  42.632  21.671  1.00  0.00     0.331 C 
ATOM      7  O   UNL A   1      42.120  41.596  21.717  1.00  0.00    -0.250 OA
BRANCH   6   8
ATOM      8  C   UNL A   1      43.402  43.206  20.356  1.00  0.00     0.218 C 
BRANCH   8   9
ATOM      9  N   UNL A   1      44.740  42.669  20.025  1.00  0.00    -0.339 N 
ATOM     10  C   UNL A   1      45.992  43.192  19.918  1.00  0.00     0.243 C 
ATOM     11  O   UNL A   1      46.891  42.342  19.821  1.00  0.00    -0.273 OA
ATOM     12  H   UNL A   1      44.721  41.703  19.838  1.00  0.00     0.164 HD
BRANCH  10  13
ATOM     13  C   UNL A   1      46.407  44.697  19.929  1.00  0.00     0.176 C 
BRANCH  13  14
ATOM     14  N   UNL A   1      47.053  45.168  18.703  1.00  0.00    -0.340 N 
ATOM     15  O   UNL A   1      48.754  45.993  17.471  1.00  0.00    -0.269 OA
ATOM     16  C   UNL A   1      48.390  45.463  18.518  1.00  0.00     0.251 C 
ATOM     17  H   UNL A   1      46.467  45.288  17.922  1.00  0.00     0.164 HD
BRANCH  16  18
ATOM     18  C   UNL A   1      49.407  45.172  19.566  1.00  0.00     0.040 A 
ATOM     19  C   UNL A   1      49.703  46.101  20.574  1.00  0.00     0.017 A 
ATOM     20  C   UNL A   1      50.018  43.908  19.586  1.00  0.00     0.017 A 
ATOM     21  C   UNL A   1      50.636  45.783  21.567  1.00  0.00     0.040 A 
ATOM     22  C   UNL A   1      50.947  43.593  20.585  1.00  0.00     0.040 A 
ATOM     23  C   UNL A   1      51.248  44.534  21.564  1.00  0.00     0.123 A 
ATOM     24  F   UNL A   1      52.127  44.231  22.528  1.00  0.00    -0.207 F 
ENDBRANCH  16  18
ENDBRANCH  13  14
BRANCH  13  25
ATOM     25  C   UNL A   1      45.499  45.751  20.605  1.00  0.00     0.072 C 
BRANCH  25  26
ATOM     26  C   UNL A   1      45.263  47.059  19.926  1.00  0.00    -0.020 A 
ATOM     27  C   UNL A   1      46.067  48.160  20.070  1.00  0.00     0.087 A 
ATOM     28  C   UNL A   1      44.382  47.387  18.834  1.00  0.00     0.003 A 
ATOM     29  N   UNL A   1      45.566  49.197  19.350  1.00  0.00    -0.361 N 
ATOM     30  C   UNL A   1      44.611  48.724  18.495  1.00  0.00     0.046 A 
ATOM     31  C   UNL A   1      43.460  46.671  18.045  1.00  0.00     0.010 A 
ATOM     32  H   UNL A   1      45.847  50.137  19.429  1.00  0.00     0.166 HD
ATOM     33  C   UNL A   1      43.985  49.385  17.436  1.00  0.00     0.026 A 
ATOM     34  C   UNL A   1      42.847  47.307  16.952  1.00  0.00     0.001 A 
ATOM     35  C   UNL A   1      43.112  48.640  16.650  1.00  0.00     0.002 A 
ENDBRANCH  25  26
ENDBRANCH  13  25
ENDBRANCH  10  13
ENDBRANCH   8   9
BRANCH   8  36
ATOM     36  C   UNL A   1      42.406  42.897  19.232  1.00  0.00     0.193 C 
BRANCH  36  37
ATOM     37  O   UNL A   1      42.991  43.098  17.943  1.00  0.00    -0.394 OA
ATOM     38  H   UNL A   1      43.306  42.249  17.595  1.00  0.00     0.210 HD
ENDBRANCH  36  37
ENDBRANCH   8  36
ENDBRANCH   6   8
ENDBRANCH   5   6
ENDBRANCH   4   5
ENDBRANCH   3   4
ENDBRANCH   2   3
ENDBRANCH   1   2
BRANCH   1  39
ATOM     39  C   UNL A   1      45.720  41.108  27.758  1.00  0.00     0.188 C 
BRANCH  39  40
ATOM     40  O   UNL A   1      44.526  41.138  28.542  1.00  0.00    -0.376 OA
BRANCH  40  41
ATOM     41  C   UNL A   1      43.967  39.884  28.909  1.00  0.00     0.202 C 
BRANCH  41  42
ATOM     42  C   UNL A   1      44.411  39.319  30.261  1.00  0.00     0.261 C 
BRANCH  42  43
ATOM     43  O   UNL A   1      44.201  37.899  30.383  1.00  0.00    -0.460 OA
BRANCH  43  44
ATOM     44  C   UNL A   1      45.271  37.195  30.822  1.00  0.00     0.338 C 
ATOM     45  O   UNL A   1      46.144  37.577  31.580  1.00  0.00    -0.246 OA
BRANCH  44  46
ATOM     46  C   UNL A   1      45.242  35.817  30.295  1.00  0.00     0.060 A 
ATOM     47  C   UNL A   1      44.829  35.602  28.976  1.00  0.00     0.016 A 
ATOM     48  C   UNL A   1      45.410  34.738  31.166  1.00  0.00     0.016 A 
ATOM     49  C   UNL A   1      44.543  34.306  28.538  1.00  0.00     0.010 A 
ATOM     50  C   UNL A   1      45.123  33.440  30.722  1.00  0.00     0.010 A 
ATOM     51  C   UNL A   1      44.651  33.220  29.416  1.00  0.00    -0.014 A 
BRANCH  51  52
ATOM     52  C   UNL A   1      44.107  31.895  29.018  1.00  0.00     0.031 A 
ATOM     53  C   UNL A   1      42.707  31.525  29.429  1.00  0.00     0.074 A 
ATOM     54  C   UNL A   1      44.828  31.029  28.282  1.00  0.00     0.049 A 
ATOM     55  N   UNL A   1      42.072  30.393  29.277  1.00  0.00    -0.248 NA
ATOM     56  C   UNL A   1      41.921  32.572  30.101  1.00  0.00     0.031 C 
ATOM     57  C   UNL A   1      46.180  31.273  27.787  1.00  0.00     0.029 A 
ATOM     58  N   UNL A   1      44.528  29.763  27.839  1.00  0.00    -0.354 N 
ATOM     59  C   UNL A   1      40.838  30.566  29.891  1.00  0.00     0.074 A 
ATOM     60  C   UNL A   1      40.802  31.924  30.391  1.00  0.00     0.031 C 
ATOM     61  C   UNL A   1      46.598  30.183  27.123  1.00  0.00     0.029 A 
ATOM     62  C   UNL A   1      45.560  29.156  27.162  1.00  0.00     0.049 A 
ATOM     63  H   UNL A   1      43.656  29.332  27.992  1.00  0.00     0.167 HD
ATOM     64  C   UNL A   1      39.828  29.676  30.032  1.00  0.00     0.034 A 
ATOM     65  C   UNL A   1      45.669  27.909  26.655  1.00  0.00     0.034 A 
ATOM     66  C   UNL A   1      39.839  28.339  29.504  1.00  0.00     0.049 A 
ATOM     67  C   UNL A   1      44.525  26.941  26.818  1.00  0.00     0.074 A 
ATOM     68  C   UNL A   1      38.854  27.371  29.599  1.00  0.00     0.029 A 
ATOM     69  N   UNL A   1      40.882  27.779  28.785  1.00  0.00    -0.354 N 
ATOM     70  N   UNL A   1      43.345  27.137  27.356  1.00  0.00    -0.248 NA
ATOM     71  C   UNL A   1      44.726  25.576  26.302  1.00  0.00     0.031 C 
ATOM     72  C   UNL A   1      39.308  26.220  28.946  1.00  0.00     0.029 A 
ATOM     73  C   UNL A   1      40.568  26.479  28.430  1.00  0.00     0.049 A 
ATOM     74  H   UNL A   1      41.723  28.238  28.560  1.00  0.00     0.167 HD
ATOM     75  C   UNL A   1      42.663  25.931  27.232  1.00  0.00     0.074 A 
ATOM     76  C   UNL A   1      43.544  25.020  26.533  1.00  0.00     0.031 C 
ATOM     77  C   UNL A   1      41.429  25.597  27.684  1.00  0.00     0.034 A 
BRANCH  64  78
ATOM     78  C   UNL A   1      38.617  30.121  30.803  1.00  0.00     0.023 A 
ATOM     79  C   UNL A   1      38.509  29.827  32.177  1.00  0.00     0.012 A 
ATOM     80  C   UNL A   1      37.607  30.873  30.171  1.00  0.00     0.148 A 
ATOM     81  C   UNL A   1      37.400  30.254  32.904  1.00  0.00     0.002 A 
ATOM     82  C   UNL A   1      36.524  31.328  30.912  1.00  0.00     0.091 A 
ATOM     83  F   UNL A   1      37.719  31.117  28.857  1.00  0.00    -0.205 F 
ATOM     84  C   UNL A   1      36.414  31.012  32.276  1.00  0.00     0.022 A 
BRANCH  82  85
ATOM     85  S   UNL A   1      35.242  32.369  30.205  1.00  0.00     0.127 S 
ATOM     86  O   UNL A   1      34.376  32.597  31.362  1.00  0.00    -0.237 OA
ATOM     87  O   UNL A   1      36.001  33.542  29.770  1.00  0.00    -0.237 OA
ATOM     88  O   UNL A   1      34.650  31.595  29.123  1.00  0.00    -0.744 OA
ENDBRANCH  82  85
ENDBRANCH  64  78
BRANCH  65  89
ATOM     89  C   UNL A   1      46.902  27.504  25.918  1.00  0.00     0.023 A 
ATOM     90  C   UNL A   1      46.956  27.659  24.518  1.00  0.00     0.012 A 
ATOM     91  C   UNL A   1      48.024  26.982  26.589  1.00  0.00     0.148 A 
ATOM     92  C   UNL A   1      48.090  27.277  23.800  1.00  0.00     0.002 A 
ATOM     93  C   UNL A   1      49.178  26.673  25.877  1.00  0.00     0.091 A 
ATOM     94  F   UNL A   1      47.948  26.806  27.916  1.00  0.00    -0.205 F 
ATOM     95  C   UNL A   1      49.206  26.798  24.481  1.00  0.00     0.022 A 
BRANCH  93  96
ATOM     96  S   UNL A   1      50.711  26.217  26.695  1.00  0.00     0.127 S 
ATOM     97  O   UNL A   1      51.698  26.477  25.651  1.00  0.00    -0.237 OA
ATOM     98  O   UNL A   1      50.740  27.150  27.822  1.00  0.00    -0.237 OA
ATOM     99  O   UNL A   1      50.543  24.823  27.083  1.00  0.00    -0.744 OA
ENDBRANCH  93  96
ENDBRANCH  65  89
BRANCH  77 100
ATOM    100  C   UNL A   1      40.939  24.196  27.429  1.00  0.00     0.023 A 
ATOM    101  C   UNL A   1      41.581  23.110  28.056  1.00  0.00     0.012 A 
ATOM    102  C   UNL A   1      39.796  23.961  26.639  1.00  0.00     0.148 A 
ATOM    103  C   UNL A   1      41.109  21.809  27.881  1.00  0.00     0.002 A 
ATOM    104  C   UNL A   1      39.306  22.666  26.503  1.00  0.00     0.091 A 
ATOM    105  F   UNL A   1      39.210  25.004  26.034  1.00  0.00    -0.205 F 
ATOM    106  C   UNL A   1      39.966  21.589  27.115  1.00  0.00     0.022 A 
BRANCH 104 107
ATOM    107  S   UNL A   1      37.790  22.301  25.611  1.00  0.00     0.127 S 
ATOM    108  O   UNL A   1      37.910  23.178  24.448  1.00  0.00    -0.237 OA
ATOM    109  O   UNL A   1      37.935  20.875  25.318  1.00  0.00    -0.237 OA
ATOM    110  O   UNL A   1      36.703  22.620  26.527  1.00  0.00    -0.744 OA
ENDBRANCH 104 107
ENDBRANCH  77 100
ENDBRANCH  51  52
ENDBRANCH  44  46
ENDBRANCH  43  44
ENDBRANCH  42  43
ENDBRANCH  41  42
ENDBRANCH  40  41
ENDBRANCH  39  40
ENDBRANCH   1  39
TORSDOF 28
ENDMDL
MODEL 2
REMARK VINA RESULT:      -9.3      1.666      2.990
REMARK SMILES O=C(N[C@@H](Cc1c[nH]c2ccccc12)C(=O)N[C@@H](CO)C(=O)OCCOCCOCCOC(=O)c1ccc(-c2c3nc(c(-c4cccc(S(=O)(=O)[O-])c4F)c4ccc([nH]4)c(-c4cccc(S(=O)(=O)[O-])c4F)c4nc(c(-c5cccc(S(=O)(=O)[O-])c5F)c5ccc2[nH]5)C=C4)C=C3)cc1)c1ccc(F)cc1
REMARK SMILES IDX 27 1 26 2 25 3 24 4 23 5 21 6 22 7 18 8 17 9 15 10 16 11
REMARK SMILES IDX 4 13 3 14 1 15 2 16 98 18 99 19 104 20 100 21 103 22 101 23
REMARK SMILES IDX 102 24 5 25 6 26 7 27 14 28 8 29 9 30 13 31 10 33 12 34
REMARK SMILES IDX 11 35 19 36 20 37 28 39 29 40 30 41 31 42 32 43 33 44 34 45
REMARK SMILES IDX 35 46 36 47 97 48 37 49 96 50 38 51 39 52 40 53 90 54 41 55
REMARK SMILES IDX 95 56 89 57 91 58 42 59 94 60 88 61 87 62 43 64 75 65 55 66
REMARK SMILES IDX 74 67 56 68 59 69 73 70 92 71 57 72 58 73 72 75 93 76 60 77
REMARK SMILES IDX 44 78 45 79 53 80 46 81 48 82 54 83 47 84 49 85 50 86 51 87
REMARK SMILES IDX 52 88 76 89 77 90 85 91 78 92 80 93 86 94 79 95 81 96 82 97
REMARK SMILES IDX 83 98 84 99 61 100 62 101 70 102 63 103 65 104 71 105 64 106
REMARK SMILES IDX 66 107 67 108 68 109 69 110
REMARK H PARENT 17 12 3 17 8 32 20 38 91 63 59 74
REMARK Flexibility Score: inf
ROOT
ATOM      1  C   UNL A   1      45.787  42.140  26.527  1.00  0.00     0.188 C 
ENDROOT
BRANCH   1   2
ATOM      2  O   UNL A   1      44.513  42.696  26.212  1.00  0.00    -0.376 OA
BRANCH   2   3
ATOM      3  C   UNL A   1      44.418  43.365  24.962  1.00  0.00     0.202 C 
BRANCH   3   4
ATOM      4  C   UNL A   1      43.375  42.750  24.023  1.00  0.00     0.261 C 
BRANCH   4   5
ATOM      5  O   UNL A   1      43.094  43.553  22.851  1.00  0.00    -0.462 OA
BRANCH   5   6
ATOM      6  C   UNL A   1      43.134  42.949  21.626  1.00  0.00     0.331 C 
ATOM      7  O   UNL A   1      43.071  41.735  21.469  1.00  0.00    -0.250 OA
BRANCH   6   8
ATOM      8  C   UNL A   1      43.245  43.973  20.446  1.00  0.00     0.218 C 
BRANCH   8   9
ATOM      9  N   UNL A   1      44.556  43.985  19.759  1.00  0.00    -0.339 N 
ATOM     10  C   UNL A   1      45.368  44.948  19.244  1.00  0.00     0.243 C 
ATOM     11  O   UNL A   1      46.499  44.545  18.932  1.00  0.00    -0.273 OA
ATOM     12  H   UNL A   1      44.930  43.082  19.649  1.00  0.00     0.164 HD
BRANCH  10  13
ATOM     13  C   UNL A   1      45.047  46.461  19.031  1.00  0.00     0.176 C 
BRANCH  13  14
ATOM     14  N   UNL A   1      43.891  46.734  18.177  1.00  0.00    -0.340 N 
ATOM     15  O   UNL A   1      42.630  47.963  16.766  1.00  0.00    -0.269 OA
ATOM     16  C   UNL A   1      43.721  47.789  17.302  1.00  0.00     0.251 C 
ATOM     17  H   UNL A   1      43.148  46.090  18.233  1.00  0.00     0.164 HD
BRANCH  16  18
ATOM     18  C   UNL A   1      44.827  48.741  17.003  1.00  0.00     0.040 A 
ATOM     19  C   UNL A   1      45.973  48.331  16.304  1.00  0.00     0.017 A 
ATOM     20  C   UNL A   1      44.676  50.090  17.359  1.00  0.00     0.017 A 
ATOM     21  C   UNL A   1      46.977  49.257  16.005  1.00  0.00     0.040 A 
ATOM     22  C   UNL A   1      45.683  51.014  17.052  1.00  0.00     0.040 A 
ATOM     23  C   UNL A   1      46.824  50.588  16.380  1.00  0.00     0.123 A 
ATOM     24  F   UNL A   1      47.783  51.472  16.075  1.00  0.00    -0.207 F 
ENDBRANCH  16  18
ENDBRANCH  13  14
BRANCH  13  25
ATOM     25  C   UNL A   1      45.217  47.465  20.196  1.00  0.00     0.072 C 
BRANCH  25  26
ATOM     26  C   UNL A   1      46.542  47.582  20.875  1.00  0.00    -0.020 A 
ATOM     27  C   UNL A   1      47.051  46.648  21.738  1.00  0.00     0.087 A 
ATOM     28  C   UNL A   1      47.639  48.477  20.609  1.00  0.00     0.003 A 
ATOM     29  N   UNL A   1      48.256  47.062  22.210  1.00  0.00    -0.361 N 
ATOM     30  C   UNL A   1      48.693  48.111  21.452  1.00  0.00     0.046 A 
ATOM     31  C   UNL A   1      47.879  49.518  19.691  1.00  0.00     0.010 A 
ATOM     32  H   UNL A   1      48.738  46.669  22.972  1.00  0.00     0.166 HD
ATOM     33  C   UNL A   1      49.954  48.712  21.440  1.00  0.00     0.026 A 
ATOM     34  C   UNL A   1      49.153  50.110  19.638  1.00  0.00     0.001 A 
ATOM     35  C   UNL A   1      50.174  49.708  20.494  1.00  0.00     0.002 A 
ENDBRANCH  25  26
ENDBRANCH  13  25
ENDBRANCH  10  13
ENDBRANCH   8   9
BRANCH   8  36
ATOM     36  C   UNL A   1      42.125  43.618  19.461  1.00  0.00     0.193 C 
BRANCH  36  37
ATOM     37  O   UNL A   1      40.889  43.376  20.139  1.00  0.00    -0.394 OA
ATOM     38  H   UNL A   1      40.264  42.952  19.531  1.00  0.00     0.210 HD
ENDBRANCH  36  37
ENDBRANCH   8  36
ENDBRANCH   6   8
ENDBRANCH   5   6
ENDBRANCH   4   5
ENDBRANCH   3   4
ENDBRANCH   2   3
ENDBRANCH   1   2
BRANCH   1  39
ATOM     39  C   UNL A   1      45.752  41.264  27.789  1.00  0.00     0.188 C 
BRANCH  39  40
ATOM     40  O   UNL A   1      44.631  41.411  28.662  1.00  0.00    -0.376 OA
BRANCH  40  41
ATOM     41  C   UNL A   1      43.883  40.237  28.949  1.00  0.00     0.202 C 
BRANCH  41  42
ATOM     42  C   UNL A   1      44.226  39.524  30.260  1.00  0.00     0.261 C 
BRANCH  42  43
ATOM     43  O   UNL A   1      44.122  38.090  30.173  1.00  0.00    -0.460 OA
BRANCH  43  44
ATOM     44  C   UNL A   1      45.234  37.409  30.543  1.00  0.00     0.338 C 
ATOM     45  O   UNL A   1      46.145  37.811  31.242  1.00  0.00    -0.246 OA
BRANCH  44  46
ATOM     46  C   UNL A   1      45.199  36.029  30.021  1.00  0.00     0.060 A 
ATOM     47  C   UNL A   1      44.704  35.802  28.733  1.00  0.00     0.016 A 
ATOM     48  C   UNL A   1      45.448  34.956  30.880  1.00  0.00     0.016 A 
ATOM     49  C   UNL A   1      44.418  34.499  28.316  1.00  0.00     0.010 A 
ATOM     50  C   UNL A   1      45.162  33.652  30.457  1.00  0.00     0.010 A 
ATOM     51  C   UNL A   1      44.608  33.418  29.186  1.00  0.00    -0.014 A 
BRANCH  51  52
ATOM     52  C   UNL A   1      44.068  32.080  28.827  1.00  0.00     0.031 A 
ATOM     53  C   UNL A   1      42.691  31.696  29.298  1.00  0.00     0.074 A 
ATOM     54  C   UNL A   1      44.771  31.216  28.073  1.00  0.00     0.049 A 
ATOM     55  N   UNL A   1      42.067  30.553  29.186  1.00  0.00    -0.248 NA
ATOM     56  C   UNL A   1      41.917  32.741  29.989  1.00  0.00     0.031 C 
ATOM     57  C   UNL A   1      46.099  31.471  27.521  1.00  0.00     0.029 A 
ATOM     58  N   UNL A   1      44.472  29.939  27.659  1.00  0.00    -0.354 N 
ATOM     59  C   UNL A   1      40.856  30.717  29.847  1.00  0.00     0.074 A 
ATOM     60  C   UNL A   1      40.821  32.081  30.332  1.00  0.00     0.031 C 
ATOM     61  C   UNL A   1      46.505  30.379  26.854  1.00  0.00     0.029 A 
ATOM     62  C   UNL A   1      45.485  29.338  26.948  1.00  0.00     0.049 A 
ATOM     63  H   UNL A   1      43.613  29.498  27.852  1.00  0.00     0.167 HD
ATOM     64  C   UNL A   1      39.866  29.815  30.040  1.00  0.00     0.034 A 
ATOM     65  C   UNL A   1      45.591  28.087  26.452  1.00  0.00     0.034 A 
ATOM     66  C   UNL A   1      39.875  28.471  29.529  1.00  0.00     0.049 A 
ATOM     67  C   UNL A   1      44.469  27.105  26.674  1.00  0.00     0.074 A 
ATOM     68  C   UNL A   1      38.908  27.491  29.675  1.00  0.00     0.029 A 
ATOM     69  N   UNL A   1      40.896  27.917  28.775  1.00  0.00    -0.354 N 
ATOM     70  N   UNL A   1      43.309  27.291  27.255  1.00  0.00    -0.248 NA
ATOM     71  C   UNL A   1      44.669  25.736  26.167  1.00  0.00     0.031 C 
ATOM     72  C   UNL A   1      39.353  26.338  29.019  1.00  0.00     0.029 A 
ATOM     73  C   UNL A   1      40.587  26.608  28.449  1.00  0.00     0.049 A 
ATOM     74  H   UNL A   1      41.721  28.385  28.510  1.00  0.00     0.167 HD
ATOM     75  C   UNL A   1      42.640  26.074  27.174  1.00  0.00     0.074 A 
ATOM     76  C   UNL A   1      43.505  25.167  26.452  1.00  0.00     0.031 C 
ATOM     77  C   UNL A   1      41.430  25.729  27.680  1.00  0.00     0.034 A 
BRANCH  64  78
ATOM     78  C   UNL A   1      38.680  30.253  30.854  1.00  0.00     0.023 A 
ATOM     79  C   UNL A   1      38.629  29.972  32.233  1.00  0.00     0.012 A 
ATOM     80  C   UNL A   1      37.636  30.985  30.254  1.00  0.00     0.148 A 
ATOM     81  C   UNL A   1      37.544  30.393  33.000  1.00  0.00     0.002 A 
ATOM     82  C   UNL A   1      36.578  31.435  31.033  1.00  0.00     0.091 A 
ATOM     83  F   UNL A   1      37.693  31.217  28.935  1.00  0.00    -0.205 F 
ATOM     84  C   UNL A   1      36.525  31.131  32.404  1.00  0.00     0.022 A 
BRANCH  82  85
ATOM     85  S   UNL A   1      35.255  32.452  30.367  1.00  0.00     0.127 S 
ATOM     86  O   UNL A   1      35.989  33.638  29.926  1.00  0.00    -0.237 OA
ATOM     87  O   UNL A   1      34.739  31.616  29.283  1.00  0.00    -0.237 OA
ATOM     88  O   UNL A   1      34.323  32.665  31.464  1.00  0.00    -0.744 OA
ENDBRANCH  82  85
ENDBRANCH  64  78
BRANCH  65  89
ATOM     89  C   UNL A   1      46.800  27.689  25.671  1.00  0.00     0.023 A 
ATOM     90  C   UNL A   1      46.808  27.860  24.272  1.00  0.00     0.012 A 
ATOM     91  C   UNL A   1      47.942  27.159  26.299  1.00  0.00     0.148 A 
ATOM     92  C   UNL A   1      47.919  27.486  23.514  1.00  0.00     0.002 A 
ATOM     93  C   UNL A   1      49.072  26.858  25.547  1.00  0.00     0.091 A 
ATOM     94  F   UNL A   1      47.909  26.968  27.626  1.00  0.00    -0.205 F 
ATOM     95  C   UNL A   1      49.055  26.999  24.153  1.00  0.00     0.022 A 
BRANCH  93  96
ATOM     96  S   UNL A   1      50.630  26.391  26.310  1.00  0.00     0.127 S 
ATOM     97  O   UNL A   1      51.580  26.639  25.230  1.00  0.00    -0.237 OA
ATOM     98  O   UNL A   1      50.708  27.328  27.431  1.00  0.00    -0.237 OA
ATOM     99  O   UNL A   1      50.465  25.000  26.709  1.00  0.00    -0.744 OA
ENDBRANCH  93  96
ENDBRANCH  65  89
BRANCH  77 100
ATOM    100  C   UNL A   1      40.950  24.318  27.462  1.00  0.00     0.023 A 
ATOM    101  C   UNL A   1      41.557  23.261  28.169  1.00  0.00     0.012 A 
ATOM    102  C   UNL A   1      39.849  24.048  26.626  1.00  0.00     0.148 A 
ATOM    103  C   UNL A   1      41.092  21.954  28.027  1.00  0.00     0.002 A 
ATOM    104  C   UNL A   1      39.364  22.749  26.523  1.00  0.00     0.091 A 
ATOM    105  F   UNL A   1      39.298  25.063  25.946  1.00  0.00    -0.205 F 
ATOM    106  C   UNL A   1      39.989  21.700  27.215  1.00  0.00     0.022 A 
BRANCH 104 107
ATOM    107  S   UNL A   1      37.894  22.344  25.570  1.00  0.00     0.127 S 
ATOM    108  O   UNL A   1      36.890  22.198  26.621  1.00  0.00    -0.237 OA
ATOM    109  O   UNL A   1      37.730  23.530  24.730  1.00  0.00    -0.237 OA
ATOM    110  O   UNL A   1      38.218  21.127  24.838  1.00  0.00    -0.744 OA
ENDBRANCH 104 107
ENDBRANCH  77 100
ENDBRANCH  51  52
ENDBRANCH  44  46
ENDBRANCH  43  44
ENDBRANCH  42  43
ENDBRANCH  41  42
ENDBRANCH  40  41
ENDBRANCH  39  40
ENDBRANCH   1  39
TORSDOF 28
ENDMDL
MODEL 3
REMARK VINA RESULT:      -9.0      7.537     14.776
REMARK SMILES O=C(N[C@@H](Cc1c[nH]c2ccccc12)C(=O)N[C@@H](CO)C(=O)OCCOCCOCCOC(=O)c1ccc(-c2c3nc(c(-c4cccc(S(=O)(=O)[O-])c4F)c4ccc([nH]4)c(-c4cccc(S(=O)(=O)[O-])c4F)c4nc(c(-c5cccc(S(=O)(=O)[O-])c5F)c5ccc2[nH]5)C=C4)C=C3)cc1)c1ccc(F)cc1
REMARK SMILES IDX 27 1 26 2 25 3 24 4 23 5 21 6 22 7 18 8 17 9 15 10 16 11
REMARK SMILES IDX 4 13 3 14 1 15 2 16 98 18 99 19 104 20 100 21 103 22 101 23
REMARK SMILES IDX 102 24 5 25 6 26 7 27 14 28 8 29 9 30 13 31 10 33 12 34
REMARK SMILES IDX 11 35 19 36 20 37 28 39 29 40 30 41 31 42 32 43 33 44 34 45
REMARK SMILES IDX 35 46 36 47 97 48 37 49 96 50 38 51 39 52 40 53 90 54 41 55
REMARK SMILES IDX 95 56 89 57 91 58 42 59 94 60 88 61 87 62 43 64 75 65 55 66
REMARK SMILES IDX 74 67 56 68 59 69 73 70 92 71 57 72 58 73 72 75 93 76 60 77
REMARK SMILES IDX 44 78 45 79 53 80 46 81 48 82 54 83 47 84 49 85 50 86 51 87
REMARK SMILES IDX 52 88 76 89 77 90 85 91 78 92 80 93 86 94 79 95 81 96 82 97
REMARK SMILES IDX 83 98 84 99 61 100 62 101 70 102 63 103 65 104 71 105 64 106
REMARK SMILES IDX 66 107 67 108 68 109 69 110
REMARK H PARENT 17 12 3 17 8 32 20 38 91 63 59 74
REMARK Flexibility Score: inf
ROOT
ATOM      1  C   UNL A   1      52.637  30.404  23.204  1.00  0.00     0.188 C 
ENDROOT
BRANCH   1   2
ATOM      2  O   UNL A   1      51.419  29.664  23.190  1.00  0.00    -0.376 OA
BRANCH   2   3
ATOM      3  C   UNL A   1      51.533  28.274  23.463  1.00  0.00     0.202 C 
BRANCH   3   4
ATOM      4  C   UNL A   1      50.304  27.469  23.029  1.00  0.00     0.261 C 
BRANCH   4   5
ATOM      5  O   UNL A   1      49.351  27.231  24.093  1.00  0.00    -0.462 OA
BRANCH   5   6
ATOM      6  C   UNL A   1      48.018  27.312  23.800  1.00  0.00     0.331 C 
ATOM      7  O   UNL A   1      47.578  27.880  22.807  1.00  0.00    -0.250 OA
BRANCH   6   8
ATOM      8  C   UNL A   1      47.119  26.581  24.854  1.00  0.00     0.218 C 
BRANCH   8   9
ATOM      9  N   UNL A   1      45.663  26.753  24.650  1.00  0.00    -0.339 N 
ATOM     10  C   UNL A   1      44.611  27.099  25.440  1.00  0.00     0.243 C 
ATOM     11  O   UNL A   1      43.563  27.332  24.817  1.00  0.00    -0.273 OA
ATOM     12  H   UNL A   1      45.391  26.575  23.721  1.00  0.00     0.164 HD
BRANCH  10  13
ATOM     13  C   UNL A   1      44.587  27.251  26.993  1.00  0.00     0.176 C 
BRANCH  13  14
ATOM     14  N   UNL A   1      45.785  26.769  27.680  1.00  0.00    -0.340 N 
ATOM     15  O   UNL A   1      46.961  25.394  29.029  1.00  0.00    -0.269 OA
ATOM     16  C   UNL A   1      45.936  25.587  28.379  1.00  0.00     0.251 C 
ATOM     17  H   UNL A   1      46.575  27.356  27.639  1.00  0.00     0.164 HD
BRANCH  16  18
ATOM     18  C   UNL A   1      44.876  24.541  28.382  1.00  0.00     0.040 A 
ATOM     19  C   UNL A   1      44.209  24.182  29.563  1.00  0.00     0.017 A 
ATOM     20  C   UNL A   1      44.487  23.966  27.162  1.00  0.00     0.017 A 
ATOM     21  C   UNL A   1      43.192  23.222  29.527  1.00  0.00     0.040 A 
ATOM     22  C   UNL A   1      43.465  23.010  27.132  1.00  0.00     0.040 A 
ATOM     23  C   UNL A   1      42.829  22.646  28.314  1.00  0.00     0.123 A 
ATOM     24  F   UNL A   1      41.842  21.741  28.284  1.00  0.00    -0.207 F 
ENDBRANCH  16  18
ENDBRANCH  13  14
BRANCH  13  25
ATOM     25  C   UNL A   1      43.950  28.502  27.644  1.00  0.00     0.072 C 
BRANCH  25  26
ATOM     26  C   UNL A   1      42.733  28.347  28.495  1.00  0.00    -0.020 A 
ATOM     27  C   UNL A   1      42.259  29.311  29.346  1.00  0.00     0.087 A 
ATOM     28  C   UNL A   1      41.688  27.357  28.439  1.00  0.00     0.003 A 
ATOM     29  N   UNL A   1      41.159  28.852  29.998  1.00  0.00    -0.361 N 
ATOM     30  C   UNL A   1      40.719  27.715  29.382  1.00  0.00     0.046 A 
ATOM     31  C   UNL A   1      41.423  26.229  27.638  1.00  0.00     0.010 A 
ATOM     32  H   UNL A   1      40.744  29.271  30.785  1.00  0.00     0.166 HD
ATOM     33  C   UNL A   1      39.520  27.026  29.576  1.00  0.00     0.026 A 
ATOM     34  C   UNL A   1      40.206  25.544  27.793  1.00  0.00     0.001 A 
ATOM     35  C   UNL A   1      39.268  25.942  28.742  1.00  0.00     0.002 A 
ENDBRANCH  25  26
ENDBRANCH  13  25
ENDBRANCH  10  13
ENDBRANCH   8   9
BRANCH   8  36
ATOM     36  C   UNL A   1      47.499  25.098  24.790  1.00  0.00     0.193 C 
BRANCH  36  37
ATOM     37  O   UNL A   1      47.658  24.655  23.440  1.00  0.00    -0.394 OA
ATOM     38  H   UNL A   1      46.886  24.130  23.178  1.00  0.00     0.210 HD
ENDBRANCH  36  37
ENDBRANCH   8  36
ENDBRANCH   6   8
ENDBRANCH   5   6
ENDBRANCH   4   5
ENDBRANCH   3   4
ENDBRANCH   2   3
ENDBRANCH   1   2
BRANCH   1  39
ATOM     39  C   UNL A   1      53.112  30.732  24.628  1.00  0.00     0.188 C 
BRANCH  39  40
ATOM     40  O   UNL A   1      54.212  29.981  25.144  1.00  0.00    -0.376 OA
BRANCH  40  41
ATOM     41  C   UNL A   1      54.350  29.934  26.558  1.00  0.00     0.202 C 
BRANCH  41  42
ATOM     42  C   UNL A   1      54.094  28.575  27.215  1.00  0.00     0.261 C 
BRANCH  42  43
ATOM     43  O   UNL A   1      52.904  28.548  28.025  1.00  0.00    -0.460 OA
BRANCH  43  44
ATOM     44  C   UNL A   1      51.814  28.007  27.429  1.00  0.00     0.338 C 
ATOM     45  O   UNL A   1      51.773  27.005  26.738  1.00  0.00    -0.246 OA
BRANCH  44  46
ATOM     46  C   UNL A   1      50.600  28.775  27.765  1.00  0.00     0.060 A 
ATOM     47  C   UNL A   1      50.657  29.724  28.791  1.00  0.00     0.016 A 
ATOM     48  C   UNL A   1      49.370  28.403  27.217  1.00  0.00     0.016 A 
ATOM     49  C   UNL A   1      49.477  30.272  29.301  1.00  0.00     0.010 A 
ATOM     50  C   UNL A   1      48.189  28.956  27.730  1.00  0.00     0.010 A 
ATOM     51  C   UNL A   1      48.233  29.866  28.801  1.00  0.00    -0.014 A 
BRANCH  51  52
ATOM     52  C   UNL A   1      46.989  30.259  29.515  1.00  0.00     0.031 A 
ATOM     53  C   UNL A   1      46.437  29.351  30.580  1.00  0.00     0.074 A 
ATOM     54  C   UNL A   1      46.360  31.418  29.245  1.00  0.00     0.049 A 
ATOM     55  N   UNL A   1      45.321  29.448  31.253  1.00  0.00    -0.248 NA
ATOM     56  C   UNL A   1      47.252  28.176  30.929  1.00  0.00     0.031 C 
ATOM     57  C   UNL A   1      46.803  32.406  28.266  1.00  0.00     0.029 A 
ATOM     58  N   UNL A   1      45.201  31.948  29.761  1.00  0.00    -0.354 N 
ATOM     59  C   UNL A   1      45.265  28.317  32.058  1.00  0.00     0.074 A 
ATOM     60  C   UNL A   1      46.476  27.563  31.810  1.00  0.00     0.031 C 
ATOM     61  C   UNL A   1      45.918  33.415  28.241  1.00  0.00     0.029 A 
ATOM     62  C   UNL A   1      44.833  33.140  29.180  1.00  0.00     0.049 A 
ATOM     63  H   UNL A   1      44.683  31.516  30.479  1.00  0.00     0.167 HD
ATOM     64  C   UNL A   1      44.294  27.935  32.920  1.00  0.00     0.034 A 
ATOM     65  C   UNL A   1      43.737  33.908  29.362  1.00  0.00     0.034 A 
ATOM     66  C   UNL A   1      43.108  28.697  33.201  1.00  0.00     0.049 A 
ATOM     67  C   UNL A   1      42.675  33.464  30.335  1.00  0.00     0.074 A 
ATOM     68  C   UNL A   1      42.072  28.385  34.066  1.00  0.00     0.029 A 
ATOM     69  N   UNL A   1      42.796  29.919  32.628  1.00  0.00    -0.354 N 
ATOM     70  N   UNL A   1      42.662  32.419  31.126  1.00  0.00    -0.248 NA
ATOM     71  C   UNL A   1      41.474  34.309  30.444  1.00  0.00     0.031 C 
ATOM     72  C   UNL A   1      41.127  29.415  34.005  1.00  0.00     0.029 A 
ATOM     73  C   UNL A   1      41.584  30.375  33.117  1.00  0.00     0.049 A 
ATOM     74  H   UNL A   1      43.354  30.393  31.970  1.00  0.00     0.167 HD
ATOM     75  C   UNL A   1      41.465  32.487  31.832  1.00  0.00     0.074 A 
ATOM     76  C   UNL A   1      40.796  33.697  31.405  1.00  0.00     0.031 C 
ATOM     77  C   UNL A   1      40.951  31.610  32.729  1.00  0.00     0.034 A 
BRANCH  64  78
ATOM     78  C   UNL A   1      44.471  26.618  33.622  1.00  0.00     0.023 A 
ATOM     79  C   UNL A   1      43.889  25.452  33.089  1.00  0.00     0.012 A 
ATOM     80  C   UNL A   1      45.255  26.533  34.790  1.00  0.00     0.148 A 
ATOM     81  C   UNL A   1      44.066  24.223  33.721  1.00  0.00     0.002 A 
ATOM     82  C   UNL A   1      45.458  25.298  35.392  1.00  0.00     0.091 A 
ATOM     83  F   UNL A   1      45.775  27.661  35.294  1.00  0.00    -0.205 F 
ATOM     84  C   UNL A   1      44.856  24.144  34.865  1.00  0.00     0.022 A 
BRANCH  82  85
ATOM     85  S   UNL A   1      46.517  25.089  36.828  1.00  0.00     0.127 S 
ATOM     86  O   UNL A   1      47.837  24.983  36.207  1.00  0.00    -0.237 OA
ATOM     87  O   UNL A   1      46.288  26.332  37.565  1.00  0.00    -0.237 OA
ATOM     88  O   UNL A   1      46.044  23.889  37.503  1.00  0.00    -0.744 OA
ENDBRANCH  82  85
ENDBRANCH  64  78
BRANCH  65  89
ATOM     89  C   UNL A   1      43.594  35.197  28.622  1.00  0.00     0.023 A 
ATOM     90  C   UNL A   1      42.983  35.203  27.351  1.00  0.00     0.012 A 
ATOM     91  C   UNL A   1      44.041  36.414  29.169  1.00  0.00     0.148 A 
ATOM     92  C   UNL A   1      42.846  36.390  26.631  1.00  0.00     0.002 A 
ATOM     93  C   UNL A   1      43.834  37.603  28.478  1.00  0.00     0.091 A 
ATOM     94  F   UNL A   1      44.651  36.391  30.362  1.00  0.00    -0.205 F 
ATOM     95  C   UNL A   1      43.258  37.592  27.200  1.00  0.00     0.022 A 
BRANCH  93  96
ATOM     96  S   UNL A   1      44.176  39.206  29.213  1.00  0.00     0.127 S 
ATOM     97  O   UNL A   1      45.584  39.397  28.878  1.00  0.00    -0.237 OA
ATOM     98  O   UNL A   1      43.244  40.073  28.492  1.00  0.00    -0.237 OA
ATOM     99  O   UNL A   1      43.872  39.056  30.630  1.00  0.00    -0.744 OA
ENDBRANCH  93  96
ENDBRANCH  65  89
BRANCH  77 100
ATOM    100  C   UNL A   1      39.606  31.923  33.331  1.00  0.00     0.023 A 
ATOM    101  C   UNL A   1      38.436  31.665  32.591  1.00  0.00     0.012 A 
ATOM    102  C   UNL A   1      39.498  32.392  34.656  1.00  0.00     0.148 A 
ATOM    103  C   UNL A   1      37.179  31.892  33.149  1.00  0.00     0.002 A 
ATOM    104  C   UNL A   1      38.240  32.576  35.220  1.00  0.00     0.091 A 
ATOM    105  F   UNL A   1      40.622  32.652  35.337  1.00  0.00    -0.205 F 
ATOM    106  C   UNL A   1      37.080  32.335  34.466  1.00  0.00     0.022 A 
BRANCH 104 107
ATOM    107  S   UNL A   1      38.018  33.058  36.937  1.00  0.00     0.127 S 
ATOM    108  O   UNL A   1      36.563  33.137  37.039  1.00  0.00    -0.237 OA
ATOM    109  O   UNL A   1      38.621  31.937  37.657  1.00  0.00    -0.237 OA
ATOM    110  O   UNL A   1      38.727  34.322  37.090  1.00  0.00    -0.744 OA
ENDBRANCH 104 107
ENDBRANCH  77 100
ENDBRANCH  51  52
ENDBRANCH  44  46
ENDBRANCH  43  44
ENDBRANCH  42  43
ENDBRANCH  41  42
ENDBRANCH  40  41
ENDBRANCH  39  40
ENDBRANCH   1  39
TORSDOF 28
ENDMDL
