MODEL 1
REMARK VINA RESULT:     -11.4      0.000      0.000
REMARK SMILES O=C(OCCOCCOCCOC(=O)[C@@H]1[C@H](C(=O)NCc2ccccc2Cl)[C@@H]2C=C[C@H]1C2)c1ccc(-c2c3nc(c(-c4cccc(S(=O)(=O)[O-])c4F)c4ccc([nH]4)c(-c4cccc(S(=O)(=O)[O-])c4F)c4nc(c(-c5cccc(S(=O)(=O)[O-])c5F)c5ccc2[nH]5)C=C4)C=C3)cc1
REMARK SMILES IDX 7 1 6 2 5 3 4 4 3 5 2 6 1 7 33 8 34 9 95 10 35 11 94 12
REMARK SMILES IDX 36 13 37 14 38 15 88 16 39 17 93 18 87 19 89 20 40 21 92 22
REMARK SMILES IDX 86 23 85 24 41 26 73 27 53 28 72 29 54 30 57 31 71 32 90 33
REMARK SMILES IDX 55 34 56 35 70 37 91 38 58 39 42 40 43 41 51 42 44 43 46 44
REMARK SMILES IDX 52 45 45 46 47 47 48 48 49 49 50 50 74 51 75 52 83 53 76 54
REMARK SMILES IDX 78 55 84 56 77 57 79 58 80 59 81 60 82 61 59 62 60 63 68 64
REMARK SMILES IDX 61 65 63 66 69 67 62 68 64 69 65 70 66 71 67 72 8 73 9 74
REMARK SMILES IDX 10 75 11 76 12 77 13 78 14 79 15 80 16 81 31 82 28 83 30 84
REMARK SMILES IDX 32 85 29 86 17 87 18 88 19 89 20 91 21 92 22 93 26 94 23 95
REMARK SMILES IDX 25 96 27 97 24 98
REMARK H PARENT 89 25 57 36 19 90
REMARK Flexibility Score: inf
ROOT
ATOM      1  C   UNL A   1      40.878  20.878  26.566  1.00  0.00     0.188 C 
ENDROOT
BRANCH   1   2
ATOM      2  O   UNL A   1      41.869  21.060  25.557  1.00  0.00    -0.376 OA
BRANCH   2   3
ATOM      3  C   UNL A   1      43.214  20.847  25.979  1.00  0.00     0.202 C 
BRANCH   3   4
ATOM      4  C   UNL A   1      44.260  21.691  25.247  1.00  0.00     0.261 C 
BRANCH   4   5
ATOM      5  O   UNL A   1      44.613  22.899  25.940  1.00  0.00    -0.460 OA
BRANCH   5   6
ATOM      6  C   UNL A   1      44.309  24.184  25.626  1.00  0.00     0.338 C 
ATOM      7  O   UNL A   1      44.816  24.659  24.609  1.00  0.00    -0.246 OA
BRANCH   6   8
ATOM      8  C   UNL A   1      43.415  25.071  26.436  1.00  0.00     0.060 A 
ATOM      9  C   UNL A   1      43.386  26.465  26.384  1.00  0.00     0.016 A 
ATOM     10  C   UNL A   1      42.497  24.434  27.291  1.00  0.00     0.016 A 
ATOM     11  C   UNL A   1      42.552  27.212  27.195  1.00  0.00     0.010 A 
ATOM     12  C   UNL A   1      41.653  25.174  28.125  1.00  0.00     0.010 A 
ATOM     13  C   UNL A   1      41.728  26.569  28.110  1.00  0.00    -0.014 A 
BRANCH  13  14
ATOM     14  C   UNL A   1      41.212  27.400  29.208  1.00  0.00     0.031 A 
ATOM     15  C   UNL A   1      42.131  27.642  30.360  1.00  0.00     0.074 A 
ATOM     16  C   UNL A   1      40.063  28.076  29.057  1.00  0.00     0.049 A 
ATOM     17  N   UNL A   1      41.925  28.329  31.445  1.00  0.00    -0.248 NA
ATOM     18  C   UNL A   1      43.473  27.033  30.275  1.00  0.00     0.031 C 
ATOM     19  C   UNL A   1      39.205  27.985  27.880  1.00  0.00     0.029 A 
ATOM     20  N   UNL A   1      39.444  28.999  29.850  1.00  0.00    -0.354 N 
ATOM     21  C   UNL A   1      43.067  28.155  32.212  1.00  0.00     0.074 A 
ATOM     22  C   UNL A   1      43.987  27.346  31.451  1.00  0.00     0.031 C 
ATOM     23  C   UNL A   1      38.203  28.869  27.995  1.00  0.00     0.029 A 
ATOM     24  C   UNL A   1      38.277  29.486  29.309  1.00  0.00     0.049 A 
ATOM     25  H   UNL A   1      39.797  29.288  30.722  1.00  0.00     0.167 HD
ATOM     26  C   UNL A   1      43.294  28.610  33.463  1.00  0.00     0.034 A 
ATOM     27  C   UNL A   1      37.346  30.293  29.853  1.00  0.00     0.034 A 
ATOM     28  C   UNL A   1      42.338  29.410  34.173  1.00  0.00     0.049 A 
ATOM     29  C   UNL A   1      37.594  30.736  31.268  1.00  0.00     0.074 A 
ATOM     30  C   UNL A   1      42.394  29.885  35.466  1.00  0.00     0.029 A 
ATOM     31  N   UNL A   1      41.132  29.842  33.632  1.00  0.00    -0.354 N 
ATOM     32  N   UNL A   1      38.649  30.525  32.020  1.00  0.00    -0.248 NA
ATOM     33  C   UNL A   1      36.531  31.507  31.919  1.00  0.00     0.031 C 
ATOM     34  C   UNL A   1      41.201  30.569  35.721  1.00  0.00     0.029 A 
ATOM     35  C   UNL A   1      40.426  30.570  34.567  1.00  0.00     0.049 A 
ATOM     36  H   UNL A   1      40.826  29.656  32.714  1.00  0.00     0.167 HD
ATOM     37  C   UNL A   1      38.390  31.151  33.228  1.00  0.00     0.074 A 
ATOM     38  C   UNL A   1      37.085  31.775  33.093  1.00  0.00     0.031 C 
ATOM     39  C   UNL A   1      39.144  31.199  34.355  1.00  0.00     0.034 A 
BRANCH  26  40
ATOM     40  C   UNL A   1      44.553  28.138  34.135  1.00  0.00     0.023 A 
ATOM     41  C   UNL A   1      45.736  28.903  34.079  1.00  0.00     0.012 A 
ATOM     42  C   UNL A   1      44.578  26.874  34.758  1.00  0.00     0.148 A 
ATOM     43  C   UNL A   1      46.934  28.394  34.584  1.00  0.00     0.002 A 
ATOM     44  C   UNL A   1      45.762  26.397  35.303  1.00  0.00     0.091 A 
ATOM     45  F   UNL A   1      43.452  26.146  34.765  1.00  0.00    -0.205 F 
ATOM     46  C   UNL A   1      46.944  27.145  35.201  1.00  0.00     0.022 A 
BRANCH  44  47
ATOM     47  S   UNL A   1      45.862  24.827  36.167  1.00  0.00     0.127 S 
ATOM     48  O   UNL A   1      45.430  23.890  35.132  1.00  0.00    -0.237 OA
ATOM     49  O   UNL A   1      47.286  24.756  36.498  1.00  0.00    -0.237 OA
ATOM     50  O   UNL A   1      44.973  24.938  37.316  1.00  0.00    -0.744 OA
ENDBRANCH  44  47
ENDBRANCH  26  40
BRANCH  27  51
ATOM     51  C   UNL A   1      36.112  30.671  29.103  1.00  0.00     0.023 A 
ATOM     52  C   UNL A   1      35.362  29.681  28.439  1.00  0.00     0.012 A 
ATOM     53  C   UNL A   1      35.664  32.007  29.052  1.00  0.00     0.148 A 
ATOM     54  C   UNL A   1      34.210  30.018  27.721  1.00  0.00     0.002 A 
ATOM     55  C   UNL A   1      34.483  32.327  28.392  1.00  0.00     0.091 A 
ATOM     56  F   UNL A   1      36.400  32.948  29.661  1.00  0.00    -0.205 F 
ATOM     57  C   UNL A   1      33.765  31.337  27.707  1.00  0.00     0.022 A 
BRANCH  55  58
ATOM     58  S   UNL A   1      33.770  33.975  28.443  1.00  0.00     0.127 S 
ATOM     59  O   UNL A   1      33.678  34.216  29.881  1.00  0.00    -0.237 OA
ATOM     60  O   UNL A   1      34.788  34.766  27.748  1.00  0.00    -0.237 OA
ATOM     61  O   UNL A   1      32.502  33.877  27.733  1.00  0.00    -0.744 OA
ENDBRANCH  55  58
ENDBRANCH  27  51
BRANCH  39  62
ATOM     62  C   UNL A   1      38.595  32.005  35.493  1.00  0.00     0.023 A 
ATOM     63  C   UNL A   1      38.492  33.405  35.390  1.00  0.00     0.012 A 
ATOM     64  C   UNL A   1      38.112  31.347  36.640  1.00  0.00     0.148 A 
ATOM     65  C   UNL A   1      37.945  34.145  36.435  1.00  0.00     0.002 A 
ATOM     66  C   UNL A   1      37.513  32.084  37.647  1.00  0.00     0.091 A 
ATOM     67  F   UNL A   1      38.248  30.015  36.718  1.00  0.00    -0.205 F 
ATOM     68  C   UNL A   1      37.443  33.484  37.556  1.00  0.00     0.022 A 
BRANCH  66  69
ATOM     69  S   UNL A   1      36.737  31.302  39.062  1.00  0.00     0.127 S 
ATOM     70  O   UNL A   1      35.589  32.175  39.292  1.00  0.00    -0.237 OA
ATOM     71  O   UNL A   1      36.403  29.977  38.537  1.00  0.00    -0.237 OA
ATOM     72  O   UNL A   1      37.741  31.296  40.119  1.00  0.00    -0.744 OA
ENDBRANCH  66  69
ENDBRANCH  39  62
ENDBRANCH  13  14
ENDBRANCH   6   8
ENDBRANCH   5   6
ENDBRANCH   4   5
ENDBRANCH   3   4
ENDBRANCH   2   3
ENDBRANCH   1   2
BRANCH   1  73
ATOM     73  C   UNL A   1      39.614  21.649  26.232  1.00  0.00     0.188 C 
BRANCH  73  74
ATOM     74  O   UNL A   1      39.406  22.837  26.978  1.00  0.00    -0.376 OA
BRANCH  74  75
ATOM     75  C   UNL A   1      38.510  23.816  26.475  1.00  0.00     0.202 C 
BRANCH  75  76
ATOM     76  C   UNL A   1      37.213  23.484  25.687  1.00  0.00     0.261 C 
BRANCH  76  77
ATOM     77  O   UNL A   1      36.538  22.233  25.845  1.00  0.00    -0.463 OA
BRANCH  77  78
ATOM     78  C   UNL A   1      35.211  22.334  26.097  1.00  0.00     0.310 C 
ATOM     79  O   UNL A   1      34.721  23.187  26.811  1.00  0.00    -0.252 OA
BRANCH  78  80
ATOM     80  C   UNL A   1      34.392  21.378  25.282  1.00  0.00     0.119 C 
ATOM     81  C   UNL A   1      34.031  21.870  23.849  1.00  0.00     0.100 C 
ATOM     82  C   UNL A   1      33.027  20.889  25.824  1.00  0.00     0.027 C 
ATOM     83  C   UNL A   1      32.534  21.483  23.717  1.00  0.00     0.025 C 
ATOM     84  C   UNL A   1      31.983  21.977  25.889  1.00  0.00    -0.027 C 
ATOM     85  C   UNL A   1      32.496  20.190  24.559  1.00  0.00     0.017 C 
ATOM     86  C   UNL A   1      31.680  22.320  24.628  1.00  0.00    -0.027 C 
BRANCH  81  87
ATOM     87  C   UNL A   1      34.497  23.250  23.340  1.00  0.00     0.224 C 
ATOM     88  O   UNL A   1      35.405  23.279  22.494  1.00  0.00    -0.275 OA
ATOM     89  N   UNL A   1      34.039  24.470  23.737  1.00  0.00    -0.352 N 
ATOM     90  H   UNL A   1      34.588  25.224  23.423  1.00  0.00     0.163 HD
BRANCH  89  91
ATOM     91  C   UNL A   1      32.898  24.868  24.534  1.00  0.00     0.153 C 
BRANCH  91  92
ATOM     92  C   UNL A   1      31.789  25.665  23.865  1.00  0.00    -0.010 A 
ATOM     93  C   UNL A   1      31.945  26.258  22.600  1.00  0.00     0.007 A 
ATOM     94  C   UNL A   1      30.658  26.044  24.617  1.00  0.00     0.046 A 
ATOM     95  C   UNL A   1      31.052  27.242  22.144  1.00  0.00     0.000 A 
ATOM     96  C   UNL A   1      29.776  27.034  24.163  1.00  0.00     0.021 A 
ATOM     97  Cl  UNL A   1      30.313  25.351  26.164  1.00  0.00    -0.084 Cl
ATOM     98  C   UNL A   1      29.990  27.656  22.939  1.00  0.00     0.002 A 
ENDBRANCH  91  92
ENDBRANCH  89  91
ENDBRANCH  81  87
ENDBRANCH  78  80
ENDBRANCH  77  78
ENDBRANCH  76  77
ENDBRANCH  75  76
ENDBRANCH  74  75
ENDBRANCH  73  74
ENDBRANCH   1  73
TORSDOF 23
ENDMDL
MODEL 2
REMARK VINA RESULT:     -11.4      5.359      9.491
REMARK SMILES O=C(OCCOCCOCCOC(=O)[C@@H]1[C@H](C(=O)NCc2ccccc2Cl)[C@@H]2C=C[C@H]1C2)c1ccc(-c2c3nc(c(-c4cccc(S(=O)(=O)[O-])c4F)c4ccc([nH]4)c(-c4cccc(S(=O)(=O)[O-])c4F)c4nc(c(-c5cccc(S(=O)(=O)[O-])c5F)c5ccc2[nH]5)C=C4)C=C3)cc1
REMARK SMILES IDX 7 1 6 2 5 3 4 4 3 5 2 6 1 7 33 8 34 9 95 10 35 11 94 12
REMARK SMILES IDX 36 13 37 14 38 15 88 16 39 17 93 18 87 19 89 20 40 21 92 22
REMARK SMILES IDX 86 23 85 24 41 26 73 27 53 28 72 29 54 30 57 31 71 32 90 33
REMARK SMILES IDX 55 34 56 35 70 37 91 38 58 39 42 40 43 41 51 42 44 43 46 44
REMARK SMILES IDX 52 45 45 46 47 47 48 48 49 49 50 50 74 51 75 52 83 53 76 54
REMARK SMILES IDX 78 55 84 56 77 57 79 58 80 59 81 60 82 61 59 62 60 63 68 64
REMARK SMILES IDX 61 65 63 66 69 67 62 68 64 69 65 70 66 71 67 72 8 73 9 74
REMARK SMILES IDX 10 75 11 76 12 77 13 78 14 79 15 80 16 81 31 82 28 83 30 84
REMARK SMILES IDX 32 85 29 86 17 87 18 88 19 89 20 91 21 92 22 93 26 94 23 95
REMARK SMILES IDX 25 96 27 97 24 98
REMARK H PARENT 89 25 57 36 19 90
REMARK Flexibility Score: inf
ROOT
ATOM      1  C   UNL A   1      40.447  20.927  26.576  1.00  0.00     0.188 C 
ENDROOT
BRANCH   1   2
ATOM      2  O   UNL A   1      40.919  20.194  27.704  1.00  0.00    -0.376 OA
BRANCH   2   3
ATOM      3  C   UNL A   1      41.907  19.206  27.418  1.00  0.00     0.202 C 
BRANCH   3   4
ATOM      4  C   UNL A   1      42.247  19.048  25.933  1.00  0.00     0.261 C 
BRANCH   4   5
ATOM      5  O   UNL A   1      43.603  19.397  25.613  1.00  0.00    -0.460 OA
BRANCH   5   6
ATOM      6  C   UNL A   1      44.071  20.485  24.950  1.00  0.00     0.338 C 
ATOM      7  O   UNL A   1      44.633  20.298  23.870  1.00  0.00    -0.246 OA
BRANCH   6   8
ATOM      8  C   UNL A   1      43.969  21.895  25.446  1.00  0.00     0.060 A 
ATOM      9  C   UNL A   1      43.644  23.009  24.672  1.00  0.00     0.016 A 
ATOM     10  C   UNL A   1      44.178  22.098  26.822  1.00  0.00     0.016 A 
ATOM     11  C   UNL A   1      43.606  24.285  25.204  1.00  0.00     0.010 A 
ATOM     12  C   UNL A   1      44.152  23.383  27.375  1.00  0.00     0.010 A 
ATOM     13  C   UNL A   1      43.919  24.481  26.542  1.00  0.00    -0.014 A 
BRANCH  13  14
ATOM     14  C   UNL A   1      44.281  25.853  26.926  1.00  0.00     0.031 A 
ATOM     15  C   UNL A   1      43.233  26.656  27.627  1.00  0.00     0.074 A 
ATOM     16  C   UNL A   1      45.556  26.262  26.844  1.00  0.00     0.049 A 
ATOM     17  N   UNL A   1      43.292  27.878  28.066  1.00  0.00    -0.248 NA
ATOM     18  C   UNL A   1      41.943  25.984  27.878  1.00  0.00     0.031 C 
ATOM     19  C   UNL A   1      46.643  25.453  26.302  1.00  0.00     0.029 A 
ATOM     20  N   UNL A   1      46.167  27.413  27.250  1.00  0.00    -0.354 N 
ATOM     21  C   UNL A   1      42.024  28.155  28.553  1.00  0.00     0.074 A 
ATOM     22  C   UNL A   1      41.229  26.960  28.410  1.00  0.00     0.031 C 
ATOM     23  C   UNL A   1      47.803  26.104  26.469  1.00  0.00     0.029 A 
ATOM     24  C   UNL A   1      47.521  27.426  27.005  1.00  0.00     0.049 A 
ATOM     25  H   UNL A   1      45.687  28.160  27.676  1.00  0.00     0.167 HD
ATOM     26  C   UNL A   1      41.568  29.329  29.040  1.00  0.00     0.034 A 
ATOM     27  C   UNL A   1      48.411  28.426  27.144  1.00  0.00     0.034 A 
ATOM     28  C   UNL A   1      42.407  30.487  29.157  1.00  0.00     0.049 A 
ATOM     29  C   UNL A   1      47.867  29.740  27.630  1.00  0.00     0.074 A 
ATOM     30  C   UNL A   1      42.074  31.762  29.565  1.00  0.00     0.029 A 
ATOM     31  N   UNL A   1      43.762  30.500  28.845  1.00  0.00    -0.354 N 
ATOM     32  N   UNL A   1      46.651  30.023  28.039  1.00  0.00    -0.248 NA
ATOM     33  C   UNL A   1      48.796  30.873  27.664  1.00  0.00     0.031 C 
ATOM     34  C   UNL A   1      43.220  32.556  29.459  1.00  0.00     0.029 A 
ATOM     35  C   UNL A   1      44.281  31.763  29.039  1.00  0.00     0.049 A 
ATOM     36  H   UNL A   1      44.276  29.721  28.531  1.00  0.00     0.167 HD
ATOM     37  C   UNL A   1      46.669  31.361  28.396  1.00  0.00     0.074 A 
ATOM     38  C   UNL A   1      48.029  31.823  28.181  1.00  0.00     0.031 C 
ATOM     39  C   UNL A   1      45.659  32.148  28.844  1.00  0.00     0.034 A 
BRANCH  26  40
ATOM     40  C   UNL A   1      40.099  29.408  29.348  1.00  0.00     0.023 A 
ATOM     41  C   UNL A   1      39.153  29.611  28.322  1.00  0.00     0.012 A 
ATOM     42  C   UNL A   1      39.665  29.363  30.687  1.00  0.00     0.148 A 
ATOM     43  C   UNL A   1      37.808  29.822  28.630  1.00  0.00     0.002 A 
ATOM     44  C   UNL A   1      38.318  29.523  30.982  1.00  0.00     0.091 A 
ATOM     45  F   UNL A   1      40.585  29.209  31.650  1.00  0.00    -0.205 F 
ATOM     46  C   UNL A   1      37.391  29.772  29.959  1.00  0.00     0.022 A 
BRANCH  44  47
ATOM     47  S   UNL A   1      37.677  29.417  32.655  1.00  0.00     0.127 S 
ATOM     48  O   UNL A   1      36.337  29.980  32.496  1.00  0.00    -0.237 OA
ATOM     49  O   UNL A   1      37.708  27.974  32.899  1.00  0.00    -0.237 OA
ATOM     50  O   UNL A   1      38.584  30.196  33.487  1.00  0.00    -0.744 OA
ENDBRANCH  44  47
ENDBRANCH  26  40
BRANCH  27  51
ATOM     51  C   UNL A   1      49.846  28.245  26.774  1.00  0.00     0.023 A 
ATOM     52  C   UNL A   1      50.250  28.385  25.432  1.00  0.00     0.012 A 
ATOM     53  C   UNL A   1      50.823  27.946  27.746  1.00  0.00     0.148 A 
ATOM     54  C   UNL A   1      51.588  28.207  25.065  1.00  0.00     0.002 A 
ATOM     55  C   UNL A   1      52.161  27.835  27.386  1.00  0.00     0.091 A 
ATOM     56  F   UNL A   1      50.426  27.784  29.017  1.00  0.00    -0.205 F 
ATOM     57  C   UNL A   1      52.543  27.944  26.042  1.00  0.00     0.022 A 
BRANCH  55  58
ATOM     58  S   UNL A   1      53.469  27.632  28.601  1.00  0.00     0.127 S 
ATOM     59  O   UNL A   1      53.032  26.434  29.313  1.00  0.00    -0.237 OA
ATOM     60  O   UNL A   1      54.646  27.450  27.751  1.00  0.00    -0.237 OA
ATOM     61  O   UNL A   1      53.478  28.865  29.378  1.00  0.00    -0.744 OA
ENDBRANCH  55  58
ENDBRANCH  27  51
BRANCH  39  62
ATOM     62  C   UNL A   1      46.016  33.563  29.188  1.00  0.00     0.023 A 
ATOM     63  C   UNL A   1      46.517  33.880  30.464  1.00  0.00     0.012 A 
ATOM     64  C   UNL A   1      45.918  34.563  28.203  1.00  0.00     0.148 A 
ATOM     65  C   UNL A   1      46.885  35.190  30.766  1.00  0.00     0.002 A 
ATOM     66  C   UNL A   1      46.343  35.848  28.491  1.00  0.00     0.091 A 
ATOM     67  F   UNL A   1      45.413  34.233  27.004  1.00  0.00    -0.205 F 
ATOM     68  C   UNL A   1      46.811  36.169  29.776  1.00  0.00     0.022 A 
BRANCH  66  69
ATOM     69  S   UNL A   1      46.395  37.134  27.241  1.00  0.00     0.127 S 
ATOM     70  O   UNL A   1      47.065  36.450  26.138  1.00  0.00    -0.237 OA
ATOM     71  O   UNL A   1      44.973  37.405  27.020  1.00  0.00    -0.237 OA
ATOM     72  O   UNL A   1      47.135  38.241  27.834  1.00  0.00    -0.744 OA
ENDBRANCH  66  69
ENDBRANCH  39  62
ENDBRANCH  13  14
ENDBRANCH   6   8
ENDBRANCH   5   6
ENDBRANCH   4   5
ENDBRANCH   3   4
ENDBRANCH   2   3
ENDBRANCH   1   2
BRANCH   1  73
ATOM     73  C   UNL A   1      40.473  22.420  26.848  1.00  0.00     0.188 C 
BRANCH  73  74
ATOM     74  O   UNL A   1      39.505  23.186  26.151  1.00  0.00    -0.376 OA
BRANCH  74  75
ATOM     75  C   UNL A   1      38.155  22.751  26.148  1.00  0.00     0.202 C 
BRANCH  75  76
ATOM     76  C   UNL A   1      36.937  23.698  25.960  1.00  0.00     0.261 C 
BRANCH  76  77
ATOM     77  O   UNL A   1      35.593  23.228  26.091  1.00  0.00    -0.463 OA
BRANCH  77  78
ATOM     78  C   UNL A   1      34.667  23.975  25.445  1.00  0.00     0.310 C 
ATOM     79  O   UNL A   1      34.681  25.189  25.411  1.00  0.00    -0.252 OA
BRANCH  78  80
ATOM     80  C   UNL A   1      33.706  23.143  24.648  1.00  0.00     0.119 C 
ATOM     81  C   UNL A   1      32.309  22.934  25.303  1.00  0.00     0.100 C 
ATOM     82  C   UNL A   1      34.103  21.705  24.236  1.00  0.00     0.027 C 
ATOM     83  C   UNL A   1      32.037  21.425  25.067  1.00  0.00     0.025 C 
ATOM     84  C   UNL A   1      34.207  20.753  25.402  1.00  0.00    -0.027 C 
ATOM     85  C   UNL A   1      32.741  21.216  23.710  1.00  0.00     0.017 C 
ATOM     86  C   UNL A   1      32.969  20.576  25.888  1.00  0.00    -0.027 C 
BRANCH  81  87
ATOM     87  C   UNL A   1      31.973  23.551  26.678  1.00  0.00     0.224 C 
ATOM     88  O   UNL A   1      32.387  22.967  27.692  1.00  0.00    -0.275 OA
ATOM     89  N   UNL A   1      31.238  24.672  26.917  1.00  0.00    -0.352 N 
ATOM     90  H   UNL A   1      30.994  24.795  27.862  1.00  0.00     0.163 HD
BRANCH  89  91
ATOM     91  C   UNL A   1      30.747  25.718  26.045  1.00  0.00     0.153 C 
BRANCH  91  92
ATOM     92  C   UNL A   1      31.417  27.083  26.102  1.00  0.00    -0.010 A 
ATOM     93  C   UNL A   1      31.426  27.870  27.267  1.00  0.00     0.007 A 
ATOM     94  C   UNL A   1      31.826  27.704  24.903  1.00  0.00     0.046 A 
ATOM     95  C   UNL A   1      31.755  29.235  27.218  1.00  0.00     0.000 A 
ATOM     96  C   UNL A   1      32.142  29.068  24.858  1.00  0.00     0.021 A 
ATOM     97  Cl  UNL A   1      31.917  26.839  23.408  1.00  0.00    -0.084 Cl
ATOM     98  C   UNL A   1      32.076  29.843  26.010  1.00  0.00     0.002 A 
ENDBRANCH  91  92
ENDBRANCH  89  91
ENDBRANCH  81  87
ENDBRANCH  78  80
ENDBRANCH  77  78
ENDBRANCH  76  77
ENDBRANCH  75  76
ENDBRANCH  74  75
ENDBRANCH  73  74
ENDBRANCH   1  73
TORSDOF 23
ENDMDL
MODEL 3
REMARK VINA RESULT:     -11.0      3.009      9.100
REMARK SMILES O=C(OCCOCCOCCOC(=O)[C@@H]1[C@H](C(=O)NCc2ccccc2Cl)[C@@H]2C=C[C@H]1C2)c1ccc(-c2c3nc(c(-c4cccc(S(=O)(=O)[O-])c4F)c4ccc([nH]4)c(-c4cccc(S(=O)(=O)[O-])c4F)c4nc(c(-c5cccc(S(=O)(=O)[O-])c5F)c5ccc2[nH]5)C=C4)C=C3)cc1
REMARK SMILES IDX 7 1 6 2 5 3 4 4 3 5 2 6 1 7 33 8 34 9 95 10 35 11 94 12
REMARK SMILES IDX 36 13 37 14 38 15 88 16 39 17 93 18 87 19 89 20 40 21 92 22
REMARK SMILES IDX 86 23 85 24 41 26 73 27 53 28 72 29 54 30 57 31 71 32 90 33
REMARK SMILES IDX 55 34 56 35 70 37 91 38 58 39 42 40 43 41 51 42 44 43 46 44
REMARK SMILES IDX 52 45 45 46 47 47 48 48 49 49 50 50 74 51 75 52 83 53 76 54
REMARK SMILES IDX 78 55 84 56 77 57 79 58 80 59 81 60 82 61 59 62 60 63 68 64
REMARK SMILES IDX 61 65 63 66 69 67 62 68 64 69 65 70 66 71 67 72 8 73 9 74
REMARK SMILES IDX 10 75 11 76 12 77 13 78 14 79 15 80 16 81 31 82 28 83 30 84
REMARK SMILES IDX 32 85 29 86 17 87 18 88 19 89 20 91 21 92 22 93 26 94 23 95
REMARK SMILES IDX 25 96 27 97 24 98
REMARK H PARENT 89 25 57 36 19 90
REMARK Flexibility Score: inf
ROOT
ATOM      1  C   UNL A   1      34.867  32.281  27.973  1.00  0.00     0.188 C 
ENDROOT
BRANCH   1   2
ATOM      2  O   UNL A   1      35.362  33.564  27.596  1.00  0.00    -0.376 OA
BRANCH   2   3
ATOM      3  C   UNL A   1      34.665  34.674  28.159  1.00  0.00     0.202 C 
BRANCH   3   4
ATOM      4  C   UNL A   1      33.388  34.312  28.922  1.00  0.00     0.261 C 
BRANCH   4   5
ATOM      5  O   UNL A   1      33.017  35.282  29.915  1.00  0.00    -0.460 OA
BRANCH   5   6
ATOM      6  C   UNL A   1      33.076  35.186  31.268  1.00  0.00     0.338 C 
ATOM      7  O   UNL A   1      32.089  35.544  31.910  1.00  0.00    -0.246 OA
BRANCH   6   8
ATOM      8  C   UNL A   1      34.263  34.691  32.036  1.00  0.00     0.060 A 
ATOM      9  C   UNL A   1      35.530  35.276  32.043  1.00  0.00     0.016 A 
ATOM     10  C   UNL A   1      34.063  33.563  32.852  1.00  0.00     0.016 A 
ATOM     11  C   UNL A   1      36.584  34.732  32.755  1.00  0.00     0.010 A 
ATOM     12  C   UNL A   1      35.120  32.995  33.571  1.00  0.00     0.010 A 
ATOM     13  C   UNL A   1      36.395  33.557  33.471  1.00  0.00    -0.014 A 
BRANCH  13  14
ATOM     14  C   UNL A   1      37.615  32.818  33.829  1.00  0.00     0.031 A 
ATOM     15  C   UNL A   1      38.193  33.084  35.181  1.00  0.00     0.074 A 
ATOM     16  C   UNL A   1      38.036  31.801  33.061  1.00  0.00     0.049 A 
ATOM     17  N   UNL A   1      39.251  32.573  35.737  1.00  0.00    -0.248 NA
ATOM     18  C   UNL A   1      37.473  34.055  36.029  1.00  0.00     0.031 C 
ATOM     19  C   UNL A   1      37.408  31.409  31.803  1.00  0.00     0.029 A 
ATOM     20  N   UNL A   1      39.037  30.889  33.233  1.00  0.00    -0.354 N 
ATOM     21  C   UNL A   1      39.381  33.228  36.952  1.00  0.00     0.074 A 
ATOM     22  C   UNL A   1      38.265  34.134  37.082  1.00  0.00     0.031 C 
ATOM     23  C   UNL A   1      37.995  30.292  31.347  1.00  0.00     0.029 A 
ATOM     24  C   UNL A   1      39.121  29.974  32.209  1.00  0.00     0.049 A 
ATOM     25  H   UNL A   1      39.638  30.886  34.012  1.00  0.00     0.167 HD
ATOM     26  C   UNL A   1      40.377  33.099  37.854  1.00  0.00     0.034 A 
ATOM     27  C   UNL A   1      40.051  29.029  31.974  1.00  0.00     0.034 A 
ATOM     28  C   UNL A   1      41.465  32.181  37.668  1.00  0.00     0.049 A 
ATOM     29  C   UNL A   1      41.182  28.947  32.961  1.00  0.00     0.074 A 
ATOM     30  C   UNL A   1      42.580  31.987  38.455  1.00  0.00     0.029 A 
ATOM     31  N   UNL A   1      41.567  31.305  36.592  1.00  0.00    -0.354 N 
ATOM     32  N   UNL A   1      41.339  29.606  34.085  1.00  0.00    -0.248 NA
ATOM     33  C   UNL A   1      42.267  28.012  32.651  1.00  0.00     0.031 C 
ATOM     34  C   UNL A   1      43.379  31.022  37.832  1.00  0.00     0.029 A 
ATOM     35  C   UNL A   1      42.733  30.574  36.686  1.00  0.00     0.049 A 
ATOM     36  H   UNL A   1      40.904  31.220  35.869  1.00  0.00     0.167 HD
ATOM     37  C   UNL A   1      42.530  29.157  34.630  1.00  0.00     0.074 A 
ATOM     38  C   UNL A   1      43.039  28.145  33.721  1.00  0.00     0.031 C 
ATOM     39  C   UNL A   1      43.163  29.550  35.764  1.00  0.00     0.034 A 
BRANCH  26  40
ATOM     40  C   UNL A   1      40.364  34.051  39.016  1.00  0.00     0.023 A 
ATOM     41  C   UNL A   1      41.224  35.168  39.049  1.00  0.00     0.012 A 
ATOM     42  C   UNL A   1      39.541  33.781  40.128  1.00  0.00     0.148 A 
ATOM     43  C   UNL A   1      41.304  35.967  40.191  1.00  0.00     0.002 A 
ATOM     44  C   UNL A   1      39.590  34.610  41.240  1.00  0.00     0.091 A 
ATOM     45  F   UNL A   1      38.760  32.692  40.092  1.00  0.00    -0.205 F 
ATOM     46  C   UNL A   1      40.484  35.691  41.283  1.00  0.00     0.022 A 
BRANCH  44  47
ATOM     47  S   UNL A   1      38.532  34.370  42.670  1.00  0.00     0.127 S 
ATOM     48  O   UNL A   1      39.311  35.013  43.727  1.00  0.00    -0.237 OA
ATOM     49  O   UNL A   1      37.324  35.096  42.275  1.00  0.00    -0.237 OA
ATOM     50  O   UNL A   1      38.361  32.931  42.811  1.00  0.00    -0.744 OA
ENDBRANCH  44  47
ENDBRANCH  26  40
BRANCH  27  51
ATOM     51  C   UNL A   1      39.982  28.158  30.764  1.00  0.00     0.023 A 
ATOM     52  C   UNL A   1      39.039  27.115  30.701  1.00  0.00     0.012 A 
ATOM     53  C   UNL A   1      40.838  28.363  29.661  1.00  0.00     0.148 A 
ATOM     54  C   UNL A   1      38.967  26.281  29.580  1.00  0.00     0.002 A 
ATOM     55  C   UNL A   1      40.719  27.573  28.524  1.00  0.00     0.091 A 
ATOM     56  F   UNL A   1      41.754  29.339  29.741  1.00  0.00    -0.205 F 
ATOM     57  C   UNL A   1      39.798  26.517  28.489  1.00  0.00     0.022 A 
BRANCH  55  58
ATOM     58  S   UNL A   1      41.656  27.900  27.026  1.00  0.00     0.127 S 
ATOM     59  O   UNL A   1      40.925  27.110  26.038  1.00  0.00    -0.237 OA
ATOM     60  O   UNL A   1      41.510  29.350  26.888  1.00  0.00    -0.237 OA
ATOM     61  O   UNL A   1      43.015  27.460  27.310  1.00  0.00    -0.744 OA
ENDBRANCH  55  58
ENDBRANCH  27  51
BRANCH  39  62
ATOM     62  C   UNL A   1      44.433  28.830  36.104  1.00  0.00     0.023 A 
ATOM     63  C   UNL A   1      45.677  29.359  35.714  1.00  0.00     0.012 A 
ATOM     64  C   UNL A   1      44.380  27.659  36.884  1.00  0.00     0.148 A 
ATOM     65  C   UNL A   1      46.857  28.707  36.067  1.00  0.00     0.002 A 
ATOM     66  C   UNL A   1      45.558  27.052  37.283  1.00  0.00     0.091 A 
ATOM     67  F   UNL A   1      43.177  27.168  37.218  1.00  0.00    -0.205 F 
ATOM     68  C   UNL A   1      46.797  27.563  36.863  1.00  0.00     0.022 A 
BRANCH  66  69
ATOM     69  S   UNL A   1      45.572  25.651  38.403  1.00  0.00     0.127 S 
ATOM     70  O   UNL A   1      47.004  25.459  38.620  1.00  0.00    -0.237 OA
ATOM     71  O   UNL A   1      44.842  26.174  39.559  1.00  0.00    -0.237 OA
ATOM     72  O   UNL A   1      44.895  24.569  37.701  1.00  0.00    -0.744 OA
ENDBRANCH  66  69
ENDBRANCH  39  62
ENDBRANCH  13  14
ENDBRANCH   6   8
ENDBRANCH   5   6
ENDBRANCH   4   5
ENDBRANCH   3   4
ENDBRANCH   2   3
ENDBRANCH   1   2
BRANCH   1  73
ATOM     73  C   UNL A   1      36.002  31.285  28.125  1.00  0.00     0.188 C 
BRANCH  73  74
ATOM     74  O   UNL A   1      35.878  30.094  27.365  1.00  0.00    -0.376 OA
BRANCH  74  75
ATOM     75  C   UNL A   1      34.616  29.448  27.301  1.00  0.00     0.202 C 
BRANCH  75  76
ATOM     76  C   UNL A   1      34.136  28.598  26.092  1.00  0.00     0.261 C 
BRANCH  76  77
ATOM     77  O   UNL A   1      33.028  27.699  26.198  1.00  0.00    -0.463 OA
BRANCH  77  78
ATOM     78  C   UNL A   1      32.966  26.760  25.226  1.00  0.00     0.310 C 
ATOM     79  O   UNL A   1      33.850  25.956  25.004  1.00  0.00    -0.252 OA
BRANCH  78  80
ATOM     80  C   UNL A   1      31.628  26.713  24.550  1.00  0.00     0.119 C 
ATOM     81  C   UNL A   1      31.666  26.396  23.025  1.00  0.00     0.100 C 
ATOM     82  C   UNL A   1      30.699  27.950  24.612  1.00  0.00     0.027 C 
ATOM     83  C   UNL A   1      30.657  27.415  22.434  1.00  0.00     0.025 C 
ATOM     84  C   UNL A   1      31.225  29.136  23.842  1.00  0.00    -0.027 C 
ATOM     85  C   UNL A   1      29.637  27.512  23.588  1.00  0.00     0.017 C 
ATOM     86  C   UNL A   1      31.186  28.819  22.539  1.00  0.00    -0.027 C 
BRANCH  81  87
ATOM     87  C   UNL A   1      33.005  26.155  22.296  1.00  0.00     0.224 C 
ATOM     88  O   UNL A   1      33.677  27.148  21.975  1.00  0.00    -0.275 OA
ATOM     89  N   UNL A   1      33.537  24.956  21.930  1.00  0.00    -0.352 N 
ATOM     90  H   UNL A   1      34.307  25.030  21.322  1.00  0.00     0.163 HD
BRANCH  89  91
ATOM     91  C   UNL A   1      33.184  23.592  22.266  1.00  0.00     0.153 C 
BRANCH  91  92
ATOM     92  C   UNL A   1      33.673  23.022  23.589  1.00  0.00    -0.010 A 
ATOM     93  C   UNL A   1      34.999  22.596  23.782  1.00  0.00     0.007 A 
ATOM     94  C   UNL A   1      32.734  22.669  24.580  1.00  0.00     0.046 A 
ATOM     95  C   UNL A   1      35.350  21.789  24.877  1.00  0.00     0.000 A 
ATOM     96  C   UNL A   1      33.086  21.854  25.664  1.00  0.00     0.021 A 
ATOM     97  Cl  UNL A   1      31.082  23.175  24.497  1.00  0.00    -0.084 Cl
ATOM     98  C   UNL A   1      34.388  21.387  25.796  1.00  0.00     0.002 A 
ENDBRANCH  91  92
ENDBRANCH  89  91
ENDBRANCH  81  87
ENDBRANCH  78  80
ENDBRANCH  77  78
ENDBRANCH  76  77
ENDBRANCH  75  76
ENDBRANCH  74  75
ENDBRANCH  73  74
ENDBRANCH   1  73
TORSDOF 23
ENDMDL
