MODEL 1
REMARK VINA RESULT:     -11.6      0.000      0.000
REMARK SMILES [NH3+][C@H]1CN(C(=O)OCC2c3ccccc3-c3ccccc32)C[C@@H]1C(=O)OCCOCCOCCOC(=O)c1ccc(-c2c3nc(c(-c4cccc(S(=O)(=O)[O-])c4F)c4ccc([nH]4)c(-c4cccc(S(=O)(=O)[O-])c4F)c4nc(c(-c5cccc(S(=O)(=O)[O-])c5F)c5ccc2[nH]5)C=C4)C=C3)cc1
REMARK SMILES IDX 30 1 29 2 28 3 27 4 26 5 24 6 25 7 23 8 2 9 3 10 4 11 22 12
REMARK SMILES IDX 1 13 5 17 6 18 7 19 8 20 9 21 10 22 21 23 11 24 15 25 16 26
REMARK SMILES IDX 20 27 12 28 14 29 17 30 19 31 13 32 18 33 31 34 32 35 33 36
REMARK SMILES IDX 34 37 35 38 36 39 37 40 38 41 39 42 100 43 40 44 99 45 41 46
REMARK SMILES IDX 42 47 43 48 93 49 44 50 98 51 92 52 94 53 45 54 97 55 91 56
REMARK SMILES IDX 90 57 46 59 78 60 58 61 77 62 59 63 62 64 76 65 95 66 60 67
REMARK SMILES IDX 61 68 75 70 96 71 63 72 47 73 48 74 56 75 49 76 51 77 57 78
REMARK SMILES IDX 50 79 52 80 53 81 54 82 55 83 79 84 80 85 88 86 81 87 83 88
REMARK SMILES IDX 89 89 82 90 84 91 85 92 86 93 87 94 64 95 65 96 73 97 66 98
REMARK SMILES IDX 68 99 74 100 67 101 69 102 70 103 71 104 72 105
REMARK H PARENT 1 14 1 15 1 16 94 58 62 69
REMARK Flexibility Score: inf
ROOT
ATOM      1  C   UNL A   1      34.466  20.797  25.980  1.00  0.00     0.188 C 
ENDROOT
BRANCH   1   2
ATOM      2  O   UNL A   1      34.552  21.634  27.111  1.00  0.00    -0.376 OA
BRANCH   2   3
ATOM      3  C   UNL A   1      33.382  22.173  27.689  1.00  0.00     0.202 C 
BRANCH   3   4
ATOM      4  C   UNL A   1      32.389  23.027  26.884  1.00  0.00     0.261 C 
BRANCH   4   5
ATOM      5  O   UNL A   1      32.912  24.180  26.200  1.00  0.00    -0.463 OA
BRANCH   5   6
ATOM      6  C   UNL A   1      33.435  23.914  24.972  1.00  0.00     0.316 C 
ATOM      7  O   UNL A   1      34.565  24.253  24.650  1.00  0.00    -0.252 OA
BRANCH   6   8
ATOM      8  C   UNL A   1      32.422  23.244  24.044  1.00  0.00     0.178 C 
ATOM      9  C   UNL A   1      32.936  22.382  22.859  1.00  0.00     0.216 C 
ATOM     10  C   UNL A   1      33.262  23.401  21.743  1.00  0.00     0.188 C 
ATOM     11  N   UNL A   1      32.588  24.600  22.157  1.00  0.00    -0.301 N 
ATOM     12  C   UNL A   1      31.727  24.372  23.301  1.00  0.00     0.145 C 
BRANCH   9  13
ATOM     13  N   UNL A   1      31.895  21.422  22.427  1.00  0.00    -0.353 N 
ATOM     14  H   UNL A   1      32.303  20.744  21.783  1.00  0.00     0.344 HD
ATOM     15  H   UNL A   1      31.142  21.925  21.957  1.00  0.00     0.344 HD
ATOM     16  H   UNL A   1      31.522  20.935  23.242  1.00  0.00     0.344 HD
ENDBRANCH   9  13
BRANCH  11  17
ATOM     17  C   UNL A   1      32.974  25.848  21.740  1.00  0.00     0.410 C 
ATOM     18  O   UNL A   1      33.277  26.121  20.595  1.00  0.00    -0.224 OA
BRANCH  17  19
ATOM     19  O   UNL A   1      33.135  26.664  22.817  1.00  0.00    -0.448 OA
BRANCH  19  20
ATOM     20  C   UNL A   1      32.358  27.875  22.753  1.00  0.00     0.248 C 
BRANCH  20  21
ATOM     21  C   UNL A   1      31.302  27.935  23.885  1.00  0.00     0.088 C 
ATOM     22  C   UNL A   1      31.816  28.593  25.162  1.00  0.00    -0.029 A 
ATOM     23  C   UNL A   1      30.196  28.910  23.508  1.00  0.00    -0.029 A 
ATOM     24  C   UNL A   1      32.602  28.045  26.161  1.00  0.00     0.005 A 
ATOM     25  C   UNL A   1      31.363  29.923  25.242  1.00  0.00    -0.014 A 
ATOM     26  C   UNL A   1      30.332  30.108  24.246  1.00  0.00    -0.014 A 
ATOM     27  C   UNL A   1      29.138  28.711  22.643  1.00  0.00     0.005 A 
ATOM     28  C   UNL A   1      33.083  28.889  27.161  1.00  0.00     0.000 A 
ATOM     29  C   UNL A   1      31.829  30.763  26.238  1.00  0.00     0.009 A 
ATOM     30  C   UNL A   1      29.445  31.154  24.063  1.00  0.00     0.009 A 
ATOM     31  C   UNL A   1      28.201  29.737  22.523  1.00  0.00     0.000 A 
ATOM     32  C   UNL A   1      32.720  30.245  27.183  1.00  0.00     0.001 A 
ATOM     33  C   UNL A   1      28.373  30.960  23.192  1.00  0.00     0.001 A 
ENDBRANCH  20  21
ENDBRANCH  19  20
ENDBRANCH  17  19
ENDBRANCH  11  17
ENDBRANCH   6   8
ENDBRANCH   5   6
ENDBRANCH   4   5
ENDBRANCH   3   4
ENDBRANCH   2   3
ENDBRANCH   1   2
BRANCH   1  34
ATOM     34  C   UNL A   1      35.675  20.631  25.032  1.00  0.00     0.188 C 
BRANCH  34  35
ATOM     35  O   UNL A   1      36.928  21.087  25.470  1.00  0.00    -0.376 OA
BRANCH  35  36
ATOM     36  C   UNL A   1      38.114  20.462  25.034  1.00  0.00     0.202 C 
BRANCH  36  37
ATOM     37  C   UNL A   1      39.075  19.633  25.907  1.00  0.00     0.261 C 
BRANCH  37  38
ATOM     38  O   UNL A   1      40.477  19.647  25.616  1.00  0.00    -0.460 OA
BRANCH  38  39
ATOM     39  C   UNL A   1      41.302  19.901  26.666  1.00  0.00     0.338 C 
ATOM     40  O   UNL A   1      42.018  19.097  27.238  1.00  0.00    -0.246 OA
BRANCH  39  41
ATOM     41  C   UNL A   1      41.359  21.359  26.928  1.00  0.00     0.060 A 
ATOM     42  C   UNL A   1      41.286  22.248  25.844  1.00  0.00     0.016 A 
ATOM     43  C   UNL A   1      41.535  21.846  28.222  1.00  0.00     0.016 A 
ATOM     44  C   UNL A   1      41.412  23.627  26.052  1.00  0.00     0.010 A 
ATOM     45  C   UNL A   1      41.681  23.225  28.425  1.00  0.00     0.010 A 
ATOM     46  C   UNL A   1      41.649  24.124  27.342  1.00  0.00    -0.014 A 
BRANCH  46  47
ATOM     47  C   UNL A   1      42.028  25.550  27.552  1.00  0.00     0.031 A 
ATOM     48  C   UNL A   1      43.390  26.008  27.097  1.00  0.00     0.074 A 
ATOM     49  C   UNL A   1      41.221  26.408  28.206  1.00  0.00     0.049 A 
ATOM     50  N   UNL A   1      43.959  27.178  27.226  1.00  0.00    -0.248 NA
ATOM     51  C   UNL A   1      44.228  25.002  26.423  1.00  0.00     0.031 C 
ATOM     52  C   UNL A   1      39.904  26.077  28.736  1.00  0.00     0.029 A 
ATOM     53  N   UNL A   1      41.412  27.722  28.577  1.00  0.00    -0.354 N 
ATOM     54  C   UNL A   1      45.238  27.037  26.701  1.00  0.00     0.074 A 
ATOM     55  C   UNL A   1      45.357  25.671  26.240  1.00  0.00     0.031 C 
ATOM     56  C   UNL A   1      39.424  27.142  29.404  1.00  0.00     0.029 A 
ATOM     57  C   UNL A   1      40.395  28.234  29.358  1.00  0.00     0.049 A 
ATOM     58  H   UNL A   1      42.200  28.247  28.308  1.00  0.00     0.167 HD
ATOM     59  C   UNL A   1      46.229  27.956  26.615  1.00  0.00     0.034 A 
ATOM     60  C   UNL A   1      40.274  29.433  29.974  1.00  0.00     0.034 A 
ATOM     61  C   UNL A   1      46.115  29.317  27.065  1.00  0.00     0.049 A 
ATOM     62  C   UNL A   1      41.390  30.452  29.802  1.00  0.00     0.074 A 
ATOM     63  C   UNL A   1      47.050  30.334  26.971  1.00  0.00     0.029 A 
ATOM     64  N   UNL A   1      45.014  29.845  27.717  1.00  0.00    -0.354 N 
ATOM     65  N   UNL A   1      42.491  30.372  29.093  1.00  0.00    -0.248 NA
ATOM     66  C   UNL A   1      41.228  31.748  30.484  1.00  0.00     0.031 C 
ATOM     67  C   UNL A   1      46.530  31.467  27.605  1.00  0.00     0.029 A 
ATOM     68  C   UNL A   1      45.252  31.168  28.049  1.00  0.00     0.049 A 
ATOM     69  H   UNL A   1      44.184  29.354  27.915  1.00  0.00     0.167 HD
ATOM     70  C   UNL A   1      43.116  31.613  29.207  1.00  0.00     0.074 A 
ATOM     71  C   UNL A   1      42.241  32.450  29.995  1.00  0.00     0.031 C 
ATOM     72  C   UNL A   1      44.326  32.018  28.746  1.00  0.00     0.034 A 
BRANCH  59  73
ATOM     73  C   UNL A   1      47.539  27.524  26.012  1.00  0.00     0.023 A 
ATOM     74  C   UNL A   1      48.525  26.927  26.824  1.00  0.00     0.012 A 
ATOM     75  C   UNL A   1      47.763  27.645  24.627  1.00  0.00     0.148 A 
ATOM     76  C   UNL A   1      49.726  26.488  26.271  1.00  0.00     0.002 A 
ATOM     77  C   UNL A   1      48.942  27.160  24.075  1.00  0.00     0.091 A 
ATOM     78  F   UNL A   1      46.820  28.233  23.876  1.00  0.00    -0.205 F 
ATOM     79  C   UNL A   1      49.930  26.594  24.897  1.00  0.00     0.022 A 
BRANCH  77  80
ATOM     80  S   UNL A   1      49.262  27.170  22.309  1.00  0.00     0.127 S 
ATOM     81  O   UNL A   1      48.529  25.982  21.870  1.00  0.00    -0.237 OA
ATOM     82  O   UNL A   1      48.667  28.441  21.898  1.00  0.00    -0.237 OA
ATOM     83  O   UNL A   1      50.709  27.098  22.159  1.00  0.00    -0.744 OA
ENDBRANCH  77  80
ENDBRANCH  59  73
BRANCH  60  84
ATOM     84  C   UNL A   1      39.050  29.788  30.773  1.00  0.00     0.023 A 
ATOM     85  C   UNL A   1      38.862  29.208  32.043  1.00  0.00     0.012 A 
ATOM     86  C   UNL A   1      38.044  30.648  30.288  1.00  0.00     0.148 A 
ATOM     87  C   UNL A   1      37.688  29.409  32.772  1.00  0.00     0.002 A 
ATOM     88  C   UNL A   1      36.928  30.936  31.072  1.00  0.00     0.091 A 
ATOM     89  F   UNL A   1      38.193  31.175  29.066  1.00  0.00    -0.205 F 
ATOM     90  C   UNL A   1      36.735  30.297  32.303  1.00  0.00     0.022 A 
BRANCH  88  91
ATOM     91  S   UNL A   1      35.687  32.143  30.600  1.00  0.00     0.127 S 
ATOM     92  O   UNL A   1      35.145  31.554  29.376  1.00  0.00    -0.237 OA
ATOM     93  O   UNL A   1      34.785  32.105  31.750  1.00  0.00    -0.237 OA
ATOM     94  O   UNL A   1      36.403  33.397  30.419  1.00  0.00    -0.744 OA
ENDBRANCH  88  91
ENDBRANCH  60  84
BRANCH  72  95
ATOM     95  C   UNL A   1      44.748  33.444  29.019  1.00  0.00     0.023 A 
ATOM     96  C   UNL A   1      45.705  33.722  30.018  1.00  0.00     0.012 A 
ATOM     97  C   UNL A   1      44.242  34.505  28.240  1.00  0.00     0.148 A 
ATOM     98  C   UNL A   1      46.109  35.032  30.273  1.00  0.00     0.002 A 
ATOM     99  C   UNL A   1      44.695  35.801  28.459  1.00  0.00     0.091 A 
ATOM    100  F   UNL A   1      43.328  34.227  27.300  1.00  0.00    -0.205 F 
ATOM    101  C   UNL A   1      45.614  36.069  29.487  1.00  0.00     0.022 A 
BRANCH  99 102
ATOM    102  S   UNL A   1      44.196  37.187  27.433  1.00  0.00     0.127 S 
ATOM    103  O   UNL A   1      43.549  38.063  28.409  1.00  0.00    -0.237 OA
ATOM    104  O   UNL A   1      45.480  37.677  26.930  1.00  0.00    -0.237 OA
ATOM    105  O   UNL A   1      43.315  36.637  26.410  1.00  0.00    -0.744 OA
ENDBRANCH  99 102
ENDBRANCH  72  95
ENDBRANCH  46  47
ENDBRANCH  39  41
ENDBRANCH  38  39
ENDBRANCH  37  38
ENDBRANCH  36  37
ENDBRANCH  35  36
ENDBRANCH  34  35
ENDBRANCH   1  34
TORSDOF 25
ENDMDL
MODEL 2
REMARK VINA RESULT:     -11.4      2.848      5.125
REMARK SMILES [NH3+][C@H]1CN(C(=O)OCC2c3ccccc3-c3ccccc32)C[C@@H]1C(=O)OCCOCCOCCOC(=O)c1ccc(-c2c3nc(c(-c4cccc(S(=O)(=O)[O-])c4F)c4ccc([nH]4)c(-c4cccc(S(=O)(=O)[O-])c4F)c4nc(c(-c5cccc(S(=O)(=O)[O-])c5F)c5ccc2[nH]5)C=C4)C=C3)cc1
REMARK SMILES IDX 30 1 29 2 28 3 27 4 26 5 24 6 25 7 23 8 2 9 3 10 4 11 22 12
REMARK SMILES IDX 1 13 5 17 6 18 7 19 8 20 9 21 10 22 21 23 11 24 15 25 16 26
REMARK SMILES IDX 20 27 12 28 14 29 17 30 19 31 13 32 18 33 31 34 32 35 33 36
REMARK SMILES IDX 34 37 35 38 36 39 37 40 38 41 39 42 100 43 40 44 99 45 41 46
REMARK SMILES IDX 42 47 43 48 93 49 44 50 98 51 92 52 94 53 45 54 97 55 91 56
REMARK SMILES IDX 90 57 46 59 78 60 58 61 77 62 59 63 62 64 76 65 95 66 60 67
REMARK SMILES IDX 61 68 75 70 96 71 63 72 47 73 48 74 56 75 49 76 51 77 57 78
REMARK SMILES IDX 50 79 52 80 53 81 54 82 55 83 79 84 80 85 88 86 81 87 83 88
REMARK SMILES IDX 89 89 82 90 84 91 85 92 86 93 87 94 64 95 65 96 73 97 66 98
REMARK SMILES IDX 68 99 74 100 67 101 69 102 70 103 71 104 72 105
REMARK H PARENT 1 14 1 15 1 16 94 58 62 69
REMARK Flexibility Score: inf
ROOT
ATOM      1  C   UNL A   1      35.188  24.332  25.139  1.00  0.00     0.188 C 
ENDROOT
BRANCH   1   2
ATOM      2  O   UNL A   1      34.080  25.150  24.834  1.00  0.00    -0.376 OA
BRANCH   2   3
ATOM      3  C   UNL A   1      33.723  26.214  25.689  1.00  0.00     0.202 C 
BRANCH   3   4
ATOM      4  C   UNL A   1      34.000  27.683  25.328  1.00  0.00     0.261 C 
BRANCH   4   5
ATOM      5  O   UNL A   1      32.963  28.399  24.633  1.00  0.00    -0.463 OA
BRANCH   5   6
ATOM      6  C   UNL A   1      32.907  28.147  23.296  1.00  0.00     0.316 C 
ATOM      7  O   UNL A   1      33.897  28.166  22.581  1.00  0.00    -0.252 OA
BRANCH   6   8
ATOM      8  C   UNL A   1      31.473  27.940  22.806  1.00  0.00     0.178 C 
ATOM      9  C   UNL A   1      30.418  27.353  23.783  1.00  0.00     0.216 C 
ATOM     10  C   UNL A   1      30.642  25.824  23.731  1.00  0.00     0.188 C 
ATOM     11  N   UNL A   1      31.427  25.625  22.546  1.00  0.00    -0.301 N 
ATOM     12  C   UNL A   1      31.545  26.839  21.762  1.00  0.00     0.145 C 
BRANCH   9  13
ATOM     13  N   UNL A   1      29.051  27.715  23.345  1.00  0.00    -0.353 N 
ATOM     14  H   UNL A   1      28.731  28.531  23.868  1.00  0.00     0.344 HD
ATOM     15  H   UNL A   1      28.420  26.933  23.520  1.00  0.00     0.344 HD
ATOM     16  H   UNL A   1      29.058  27.931  22.349  1.00  0.00     0.344 HD
ENDBRANCH   9  13
BRANCH  11  17
ATOM     17  C   UNL A   1      32.233  24.531  22.367  1.00  0.00     0.410 C 
ATOM     18  O   UNL A   1      33.298  24.557  21.781  1.00  0.00    -0.224 OA
BRANCH  17  19
ATOM     19  O   UNL A   1      31.583  23.407  22.776  1.00  0.00    -0.448 OA
BRANCH  19  20
ATOM     20  C   UNL A   1      32.422  22.238  22.835  1.00  0.00     0.248 C 
BRANCH  20  21
ATOM     21  C   UNL A   1      31.949  21.252  23.933  1.00  0.00     0.088 C 
ATOM     22  C   UNL A   1      32.609  19.879  23.842  1.00  0.00    -0.029 A 
ATOM     23  C   UNL A   1      32.463  21.707  25.291  1.00  0.00    -0.029 A 
ATOM     24  C   UNL A   1      32.298  18.823  23.004  1.00  0.00     0.005 A 
ATOM     25  C   UNL A   1      33.647  19.774  24.786  1.00  0.00    -0.014 A 
ATOM     26  C   UNL A   1      33.532  20.881  25.708  1.00  0.00    -0.014 A 
ATOM     27  C   UNL A   1      31.970  22.713  26.099  1.00  0.00     0.005 A 
ATOM     28  C   UNL A   1      33.146  17.717  22.990  1.00  0.00     0.000 A 
ATOM     29  C   UNL A   1      34.487  18.674  24.784  1.00  0.00     0.009 A 
ATOM     30  C   UNL A   1      34.173  21.112  26.912  1.00  0.00     0.009 A 
ATOM     31  C   UNL A   1      32.566  22.888  27.347  1.00  0.00     0.000 A 
ATOM     32  C   UNL A   1      34.249  17.656  23.856  1.00  0.00     0.001 A 
ATOM     33  C   UNL A   1      33.681  22.125  27.734  1.00  0.00     0.001 A 
ENDBRANCH  20  21
ENDBRANCH  19  20
ENDBRANCH  17  19
ENDBRANCH  11  17
ENDBRANCH   6   8
ENDBRANCH   5   6
ENDBRANCH   4   5
ENDBRANCH   3   4
ENDBRANCH   2   3
ENDBRANCH   1   2
BRANCH   1  34
ATOM     34  C   UNL A   1      35.785  23.388  24.072  1.00  0.00     0.188 C 
BRANCH  34  35
ATOM     35  O   UNL A   1      36.527  22.280  24.509  1.00  0.00    -0.376 OA
BRANCH  35  36
ATOM     36  C   UNL A   1      37.542  22.430  25.476  1.00  0.00     0.202 C 
BRANCH  36  37
ATOM     37  C   UNL A   1      38.692  21.439  25.743  1.00  0.00     0.261 C 
BRANCH  37  38
ATOM     38  O   UNL A   1      39.644  21.729  26.772  1.00  0.00    -0.460 OA
BRANCH  38  39
ATOM     39  C   UNL A   1      40.790  22.339  26.369  1.00  0.00     0.338 C 
ATOM     40  O   UNL A   1      41.651  21.863  25.649  1.00  0.00    -0.246 OA
BRANCH  39  41
ATOM     41  C   UNL A   1      40.783  23.762  26.781  1.00  0.00     0.060 A 
ATOM     42  C   UNL A   1      41.026  24.751  25.815  1.00  0.00     0.016 A 
ATOM     43  C   UNL A   1      40.590  24.120  28.115  1.00  0.00     0.016 A 
ATOM     44  C   UNL A   1      41.099  26.099  26.187  1.00  0.00     0.010 A 
ATOM     45  C   UNL A   1      40.685  25.467  28.488  1.00  0.00     0.010 A 
ATOM     46  C   UNL A   1      40.967  26.465  27.535  1.00  0.00    -0.014 A 
BRANCH  46  47
ATOM     47  C   UNL A   1      41.283  27.850  27.984  1.00  0.00     0.031 A 
ATOM     48  C   UNL A   1      42.727  28.276  28.042  1.00  0.00     0.074 A 
ATOM     49  C   UNL A   1      40.322  28.691  28.413  1.00  0.00     0.049 A 
ATOM     50  N   UNL A   1      43.245  29.405  28.454  1.00  0.00    -0.248 NA
ATOM     51  C   UNL A   1      43.721  27.288  27.590  1.00  0.00     0.031 C 
ATOM     52  C   UNL A   1      38.898  28.383  28.453  1.00  0.00     0.029 A 
ATOM     53  N   UNL A   1      40.406  29.961  28.942  1.00  0.00    -0.354 N 
ATOM     54  C   UNL A   1      44.622  29.244  28.365  1.00  0.00     0.074 A 
ATOM     55  C   UNL A   1      44.860  27.914  27.847  1.00  0.00     0.031 C 
ATOM     56  C   UNL A   1      38.245  29.414  29.020  1.00  0.00     0.029 A 
ATOM     57  C   UNL A   1      39.199  30.458  29.392  1.00  0.00     0.049 A 
ATOM     58  H   UNL A   1      41.248  30.468  28.994  1.00  0.00     0.167 HD
ATOM     59  C   UNL A   1      45.604  30.119  28.690  1.00  0.00     0.034 A 
ATOM     60  C   UNL A   1      38.905  31.609  30.040  1.00  0.00     0.034 A 
ATOM     61  C   UNL A   1      45.374  31.444  29.199  1.00  0.00     0.049 A 
ATOM     62  C   UNL A   1      40.034  32.584  30.334  1.00  0.00     0.074 A 
ATOM     63  C   UNL A   1      46.307  32.420  29.507  1.00  0.00     0.029 A 
ATOM     64  N   UNL A   1      44.130  31.971  29.501  1.00  0.00    -0.354 N 
ATOM     65  N   UNL A   1      41.305  32.508  30.019  1.00  0.00    -0.248 NA
ATOM     66  C   UNL A   1      39.682  33.829  31.039  1.00  0.00     0.031 C 
ATOM     67  C   UNL A   1      45.629  33.522  30.036  1.00  0.00     0.029 A 
ATOM     68  C   UNL A   1      44.271  33.251  30.009  1.00  0.00     0.049 A 
ATOM     69  H   UNL A   1      43.272  31.506  29.372  1.00  0.00     0.167 HD
ATOM     70  C   UNL A   1      41.882  33.705  30.441  1.00  0.00     0.074 A 
ATOM     71  C   UNL A   1      40.812  34.518  30.973  1.00  0.00     0.031 C 
ATOM     72  C   UNL A   1      43.183  34.087  30.440  1.00  0.00     0.034 A 
BRANCH  59  73
ATOM     73  C   UNL A   1      47.031  29.673  28.511  1.00  0.00     0.023 A 
ATOM     74  C   UNL A   1      47.714  29.964  27.313  1.00  0.00     0.012 A 
ATOM     75  C   UNL A   1      47.714  29.027  29.560  1.00  0.00     0.148 A 
ATOM     76  C   UNL A   1      49.046  29.589  27.150  1.00  0.00     0.002 A 
ATOM     77  C   UNL A   1      49.056  28.703  29.409  1.00  0.00     0.091 A 
ATOM     78  F   UNL A   1      47.040  28.744  30.684  1.00  0.00    -0.205 F 
ATOM     79  C   UNL A   1      49.720  28.970  28.200  1.00  0.00     0.022 A 
BRANCH  77  80
ATOM     80  S   UNL A   1      50.035  27.983  30.731  1.00  0.00     0.127 S 
ATOM     81  O   UNL A   1      51.393  28.141  30.211  1.00  0.00    -0.237 OA
ATOM     82  O   UNL A   1      49.708  28.853  31.861  1.00  0.00    -0.237 OA
ATOM     83  O   UNL A   1      49.578  26.607  30.870  1.00  0.00    -0.744 OA
ENDBRANCH  77  80
ENDBRANCH  59  73
BRANCH  60  84
ATOM     84  C   UNL A   1      37.493  31.958  30.424  1.00  0.00     0.023 A 
ATOM     85  C   UNL A   1      36.983  31.513  31.660  1.00  0.00     0.012 A 
ATOM     86  C   UNL A   1      36.626  32.679  29.577  1.00  0.00     0.148 A 
ATOM     87  C   UNL A   1      35.645  31.706  32.012  1.00  0.00     0.002 A 
ATOM     88  C   UNL A   1      35.325  32.968  29.985  1.00  0.00     0.091 A 
ATOM     89  F   UNL A   1      37.087  33.073  28.383  1.00  0.00    -0.205 F 
ATOM     90  C   UNL A   1      34.824  32.460  31.189  1.00  0.00     0.022 A 
BRANCH  88  91
ATOM     91  S   UNL A   1      34.214  34.016  29.042  1.00  0.00     0.127 S 
ATOM     92  O   UNL A   1      33.664  33.072  28.069  1.00  0.00    -0.237 OA
ATOM     93  O   UNL A   1      33.274  34.453  30.072  1.00  0.00    -0.237 OA
ATOM     94  O   UNL A   1      35.046  35.069  28.479  1.00  0.00    -0.744 OA
ENDBRANCH  88  91
ENDBRANCH  60  84
BRANCH  72  95
ATOM     95  C   UNL A   1      43.520  35.465  30.962  1.00  0.00     0.023 A 
ATOM     96  C   UNL A   1      43.884  35.642  32.314  1.00  0.00     0.012 A 
ATOM     97  C   UNL A   1      43.536  36.577  30.097  1.00  0.00     0.148 A 
ATOM     98  C   UNL A   1      44.205  36.906  32.806  1.00  0.00     0.002 A 
ATOM     99  C   UNL A   1      43.916  37.824  30.580  1.00  0.00     0.091 A 
ATOM    100  F   UNL A   1      43.179  36.397  28.817  1.00  0.00    -0.205 F 
ATOM    101  C   UNL A   1      44.232  37.994  31.938  1.00  0.00     0.022 A 
BRANCH  99 102
ATOM    102  S   UNL A   1      44.081  39.265  29.519  1.00  0.00     0.127 S 
ATOM    103  O   UNL A   1      44.523  40.285  30.469  1.00  0.00    -0.237 OA
ATOM    104  O   UNL A   1      45.106  38.831  28.569  1.00  0.00    -0.237 OA
ATOM    105  O   UNL A   1      42.767  39.488  28.933  1.00  0.00    -0.744 OA
ENDBRANCH  99 102
ENDBRANCH  72  95
ENDBRANCH  46  47
ENDBRANCH  39  41
ENDBRANCH  38  39
ENDBRANCH  37  38
ENDBRANCH  36  37
ENDBRANCH  35  36
ENDBRANCH  34  35
ENDBRANCH   1  34
TORSDOF 25
ENDMDL
MODEL 3
REMARK VINA RESULT:     -11.4      2.585      9.264
REMARK SMILES [NH3+][C@H]1CN(C(=O)OCC2c3ccccc3-c3ccccc32)C[C@@H]1C(=O)OCCOCCOCCOC(=O)c1ccc(-c2c3nc(c(-c4cccc(S(=O)(=O)[O-])c4F)c4ccc([nH]4)c(-c4cccc(S(=O)(=O)[O-])c4F)c4nc(c(-c5cccc(S(=O)(=O)[O-])c5F)c5ccc2[nH]5)C=C4)C=C3)cc1
REMARK SMILES IDX 30 1 29 2 28 3 27 4 26 5 24 6 25 7 23 8 2 9 3 10 4 11 22 12
REMARK SMILES IDX 1 13 5 17 6 18 7 19 8 20 9 21 10 22 21 23 11 24 15 25 16 26
REMARK SMILES IDX 20 27 12 28 14 29 17 30 19 31 13 32 18 33 31 34 32 35 33 36
REMARK SMILES IDX 34 37 35 38 36 39 37 40 38 41 39 42 100 43 40 44 99 45 41 46
REMARK SMILES IDX 42 47 43 48 93 49 44 50 98 51 92 52 94 53 45 54 97 55 91 56
REMARK SMILES IDX 90 57 46 59 78 60 58 61 77 62 59 63 62 64 76 65 95 66 60 67
REMARK SMILES IDX 61 68 75 70 96 71 63 72 47 73 48 74 56 75 49 76 51 77 57 78
REMARK SMILES IDX 50 79 52 80 53 81 54 82 55 83 79 84 80 85 88 86 81 87 83 88
REMARK SMILES IDX 89 89 82 90 84 91 85 92 86 93 87 94 64 95 65 96 73 97 66 98
REMARK SMILES IDX 68 99 74 100 67 101 69 102 70 103 71 104 72 105
REMARK H PARENT 1 14 1 15 1 16 94 58 62 69
REMARK Flexibility Score: inf
ROOT
ATOM      1  C   UNL A   1      33.406  32.577  27.988  1.00  0.00     0.188 C 
ENDROOT
BRANCH   1   2
ATOM      2  O   UNL A   1      34.497  31.743  27.671  1.00  0.00    -0.376 OA
BRANCH   2   3
ATOM      3  C   UNL A   1      34.298  30.366  27.437  1.00  0.00     0.202 C 
BRANCH   3   4
ATOM      4  C   UNL A   1      32.938  29.797  27.000  1.00  0.00     0.261 C 
BRANCH   4   5
ATOM      5  O   UNL A   1      32.894  29.071  25.759  1.00  0.00    -0.463 OA
BRANCH   5   6
ATOM      6  C   UNL A   1      31.968  28.073  25.725  1.00  0.00     0.316 C 
ATOM      7  O   UNL A   1      31.475  27.598  26.737  1.00  0.00    -0.252 OA
BRANCH   6   8
ATOM      8  C   UNL A   1      31.706  27.576  24.303  1.00  0.00     0.178 C 
ATOM      9  C   UNL A   1      30.241  27.484  23.792  1.00  0.00     0.216 C 
ATOM     10  C   UNL A   1      29.716  26.139  24.345  1.00  0.00     0.188 C 
ATOM     11  N   UNL A   1      30.903  25.430  24.729  1.00  0.00    -0.301 N 
ATOM     12  C   UNL A   1      32.108  26.111  24.294  1.00  0.00     0.145 C 
BRANCH   9  13
ATOM     13  N   UNL A   1      30.208  27.511  22.312  1.00  0.00    -0.353 N 
ATOM     14  H   UNL A   1      29.243  27.618  21.996  1.00  0.00     0.344 HD
ATOM     15  H   UNL A   1      30.588  26.637  21.948  1.00  0.00     0.344 HD
ATOM     16  H   UNL A   1      30.766  28.294  21.973  1.00  0.00     0.344 HD
ENDBRANCH   9  13
BRANCH  11  17
ATOM     17  C   UNL A   1      30.899  24.433  25.670  1.00  0.00     0.410 C 
ATOM     18  O   UNL A   1      31.046  24.620  26.863  1.00  0.00    -0.224 OA
BRANCH  17  19
ATOM     19  O   UNL A   1      30.889  23.219  25.056  1.00  0.00    -0.448 OA
BRANCH  19  20
ATOM     20  C   UNL A   1      31.496  23.220  23.750  1.00  0.00     0.248 C 
BRANCH  20  21
ATOM     21  C   UNL A   1      32.845  22.458  23.747  1.00  0.00     0.088 C 
ATOM     22  C   UNL A   1      33.610  22.570  25.062  1.00  0.00    -0.029 A 
ATOM     23  C   UNL A   1      32.591  20.959  23.711  1.00  0.00    -0.029 A 
ATOM     24  C   UNL A   1      34.398  23.612  25.519  1.00  0.00     0.005 A 
ATOM     25  C   UNL A   1      33.434  21.403  25.829  1.00  0.00    -0.014 A 
ATOM     26  C   UNL A   1      32.843  20.393  24.981  1.00  0.00    -0.014 A 
ATOM     27  C   UNL A   1      32.241  20.176  22.628  1.00  0.00     0.005 A 
ATOM     28  C   UNL A   1      34.870  23.558  26.830  1.00  0.00     0.000 A 
ATOM     29  C   UNL A   1      33.911  21.339  27.127  1.00  0.00     0.009 A 
ATOM     30  C   UNL A   1      32.665  19.038  25.197  1.00  0.00     0.009 A 
ATOM     31  C   UNL A   1      32.143  18.800  22.832  1.00  0.00     0.000 A 
ATOM     32  C   UNL A   1      34.606  22.441  27.636  1.00  0.00     0.001 A 
ATOM     33  C   UNL A   1      32.313  18.240  24.109  1.00  0.00     0.001 A 
ENDBRANCH  20  21
ENDBRANCH  19  20
ENDBRANCH  17  19
ENDBRANCH  11  17
ENDBRANCH   6   8
ENDBRANCH   5   6
ENDBRANCH   4   5
ENDBRANCH   3   4
ENDBRANCH   2   3
ENDBRANCH   1   2
BRANCH   1  34
ATOM     34  C   UNL A   1      33.629  34.063  28.346  1.00  0.00     0.188 C 
BRANCH  34  35
ATOM     35  O   UNL A   1      32.840  34.625  29.362  1.00  0.00    -0.376 OA
BRANCH  35  36
ATOM     36  C   UNL A   1      33.439  35.222  30.489  1.00  0.00     0.202 C 
BRANCH  36  37
ATOM     37  C   UNL A   1      34.418  34.538  31.464  1.00  0.00     0.261 C 
BRANCH  37  38
ATOM     38  O   UNL A   1      34.493  33.108  31.494  1.00  0.00    -0.460 OA
BRANCH  38  39
ATOM     39  C   UNL A   1      35.322  32.575  32.431  1.00  0.00     0.338 C 
ATOM     40  O   UNL A   1      35.176  32.623  33.641  1.00  0.00    -0.246 OA
BRANCH  39  41
ATOM     41  C   UNL A   1      36.366  31.751  31.778  1.00  0.00     0.060 A 
ATOM     42  C   UNL A   1      37.199  30.953  32.576  1.00  0.00     0.016 A 
ATOM     43  C   UNL A   1      36.558  31.801  30.398  1.00  0.00     0.016 A 
ATOM     44  C   UNL A   1      38.243  30.221  31.996  1.00  0.00     0.010 A 
ATOM     45  C   UNL A   1      37.616  31.084  29.823  1.00  0.00     0.010 A 
ATOM     46  C   UNL A   1      38.483  30.311  30.618  1.00  0.00    -0.014 A 
BRANCH  46  47
ATOM     47  C   UNL A   1      39.725  29.743  30.020  1.00  0.00     0.031 A 
ATOM     48  C   UNL A   1      40.954  30.611  29.953  1.00  0.00     0.074 A 
ATOM     49  C   UNL A   1      39.747  28.512  29.471  1.00  0.00     0.049 A 
ATOM     50  N   UNL A   1      42.124  30.355  29.428  1.00  0.00    -0.248 NA
ATOM     51  C   UNL A   1      40.840  31.956  30.542  1.00  0.00     0.031 C 
ATOM     52  C   UNL A   1      38.614  27.595  29.430  1.00  0.00     0.029 A 
ATOM     53  N   UNL A   1      40.748  27.841  28.802  1.00  0.00    -0.354 N 
ATOM     54  C   UNL A   1      42.867  31.521  29.572  1.00  0.00     0.074 A 
ATOM     55  C   UNL A   1      42.020  32.481  30.246  1.00  0.00     0.031 C 
ATOM     56  C   UNL A   1      38.967  26.501  28.730  1.00  0.00     0.029 A 
ATOM     57  C   UNL A   1      40.347  26.634  28.267  1.00  0.00     0.049 A 
ATOM     58  H   UNL A   1      41.664  28.190  28.715  1.00  0.00     0.167 HD
ATOM     59  C   UNL A   1      44.137  31.776  29.175  1.00  0.00     0.034 A 
ATOM     60  C   UNL A   1      41.011  25.752  27.483  1.00  0.00     0.034 A 
ATOM     61  C   UNL A   1      44.986  30.825  28.511  1.00  0.00     0.049 A 
ATOM     62  C   UNL A   1      42.453  26.058  27.109  1.00  0.00     0.074 A 
ATOM     63  C   UNL A   1      46.305  30.978  28.118  1.00  0.00     0.029 A 
ATOM     64  N   UNL A   1      44.597  29.556  28.118  1.00  0.00    -0.354 N 
ATOM     65  N   UNL A   1      43.211  27.068  27.465  1.00  0.00    -0.248 NA
ATOM     66  C   UNL A   1      43.149  25.079  26.256  1.00  0.00     0.031 C 
ATOM     67  C   UNL A   1      46.699  29.816  27.448  1.00  0.00     0.029 A 
ATOM     68  C   UNL A   1      45.642  28.922  27.469  1.00  0.00     0.049 A 
ATOM     69  H   UNL A   1      43.708  29.162  28.275  1.00  0.00     0.167 HD
ATOM     70  C   UNL A   1      44.470  26.817  26.923  1.00  0.00     0.074 A 
ATOM     71  C   UNL A   1      44.396  25.529  26.273  1.00  0.00     0.031 C 
ATOM     72  C   UNL A   1      45.581  27.596  26.916  1.00  0.00     0.034 A 
BRANCH  59  73
ATOM     73  C   UNL A   1      44.695  33.149  29.442  1.00  0.00     0.023 A 
ATOM     74  C   UNL A   1      45.430  33.393  30.620  1.00  0.00     0.012 A 
ATOM     75  C   UNL A   1      44.548  34.177  28.491  1.00  0.00     0.148 A 
ATOM     76  C   UNL A   1      45.983  34.649  30.861  1.00  0.00     0.002 A 
ATOM     77  C   UNL A   1      45.145  35.411  28.715  1.00  0.00     0.091 A 
ATOM     78  F   UNL A   1      43.829  33.930  27.387  1.00  0.00    -0.205 F 
ATOM     79  C   UNL A   1      45.851  35.653  29.905  1.00  0.00     0.022 A 
BRANCH  77  80
ATOM     80  S   UNL A   1      45.107  36.740  27.509  1.00  0.00     0.127 S 
ATOM     81  O   UNL A   1      45.736  36.105  26.351  1.00  0.00    -0.237 OA
ATOM     82  O   UNL A   1      43.672  36.983  27.367  1.00  0.00    -0.237 OA
ATOM     83  O   UNL A   1      45.856  37.842  28.097  1.00  0.00    -0.744 OA
ENDBRANCH  77  80
ENDBRANCH  59  73
BRANCH  60  84
ATOM     84  C   UNL A   1      40.372  24.471  27.023  1.00  0.00     0.023 A 
ATOM     85  C   UNL A   1      39.136  24.518  26.348  1.00  0.00     0.012 A 
ATOM     86  C   UNL A   1      40.933  23.203  27.278  1.00  0.00     0.148 A 
ATOM     87  C   UNL A   1      38.444  23.353  26.007  1.00  0.00     0.002 A 
ATOM     88  C   UNL A   1      40.292  22.048  26.833  1.00  0.00     0.091 A 
ATOM     89  F   UNL A   1      42.088  23.143  27.954  1.00  0.00    -0.205 F 
ATOM     90  C   UNL A   1      39.035  22.119  26.221  1.00  0.00     0.022 A 
BRANCH  88  91
ATOM     91  S   UNL A   1      41.016  20.412  26.971  1.00  0.00     0.127 S 
ATOM     92  O   UNL A   1      40.198  19.641  26.035  1.00  0.00    -0.237 OA
ATOM     93  O   UNL A   1      42.388  20.657  26.529  1.00  0.00    -0.237 OA
ATOM     94  O   UNL A   1      40.877  20.034  28.370  1.00  0.00    -0.744 OA
ENDBRANCH  88  91
ENDBRANCH  60  84
BRANCH  72  95
ATOM     95  C   UNL A   1      46.824  27.055  26.248  1.00  0.00     0.023 A 
ATOM     96  C   UNL A   1      47.011  27.218  24.859  1.00  0.00     0.012 A 
ATOM     97  C   UNL A   1      47.838  26.438  27.009  1.00  0.00     0.148 A 
ATOM     98  C   UNL A   1      48.158  26.731  24.232  1.00  0.00     0.002 A 
ATOM     99  C   UNL A   1      49.006  26.010  26.387  1.00  0.00     0.091 A 
ATOM    100  F   UNL A   1      47.644  26.282  28.326  1.00  0.00    -0.205 F 
ATOM    101  C   UNL A   1      49.159  26.138  24.996  1.00  0.00     0.022 A 
BRANCH  99 102
ATOM    102  S   UNL A   1      50.395  25.328  27.299  1.00  0.00     0.127 S 
ATOM    103  O   UNL A   1      49.794  24.147  27.917  1.00  0.00    -0.237 OA
ATOM    104  O   UNL A   1      51.352  25.037  26.231  1.00  0.00    -0.237 OA
ATOM    105  O   UNL A   1      50.819  26.368  28.226  1.00  0.00    -0.744 OA
ENDBRANCH  99 102
ENDBRANCH  72  95
ENDBRANCH  46  47
ENDBRANCH  39  41
ENDBRANCH  38  39
ENDBRANCH  37  38
ENDBRANCH  36  37
ENDBRANCH  35  36
ENDBRANCH  34  35
ENDBRANCH   1  34
TORSDOF 25
ENDMDL
