MODEL 1
REMARK VINA RESULT:     -10.4      0.000      0.000
REMARK SMILES CC(C)Cc1ccc([C@H](CF)C(=O)OCCOCCOCCOC(=O)c2ccc(-c3c4nc(c(-c5cccc(S(=O)(=O)[O-])c5F)c5ccc([nH]5)c(-c5cccc(S(=O)(=O)[O-])c5F)c5nc(c(-c6cccc(S(=O)(=O)[O-])c6F)c6ccc3[nH]6)C=C5)C=C4)cc2)cc1
REMARK SMILES IDX 18 1 17 2 16 3 15 4 14 5 12 6 13 7 9 8 8 9 5 10 6 11 90 12
REMARK SMILES IDX 7 13 89 14 4 15 2 16 1 17 3 18 10 19 11 20 19 21 20 22 21 23
REMARK SMILES IDX 22 24 23 25 24 26 25 27 26 28 27 29 88 30 28 31 87 32 29 33
REMARK SMILES IDX 30 34 31 35 81 36 32 37 86 38 80 39 82 40 33 41 85 42 79 43
REMARK SMILES IDX 78 44 34 46 66 47 46 48 65 49 47 50 50 51 64 52 83 53 48 54
REMARK SMILES IDX 49 55 63 57 84 58 51 59 35 60 36 61 44 62 37 63 39 64 45 65
REMARK SMILES IDX 38 66 40 67 41 68 42 69 43 70 67 71 68 72 76 73 69 74 71 75
REMARK SMILES IDX 77 76 70 77 72 78 73 79 74 80 75 81 52 82 53 83 61 84 54 85
REMARK SMILES IDX 56 86 62 87 55 88 57 89 58 90 59 91 60 92
REMARK H PARENT 82 45 50 56
REMARK Flexibility Score: inf
ROOT
ATOM      1  C   UNL A   1      29.699  28.150  22.830  1.00  0.00     0.188 C 
ENDROOT
BRANCH   1   2
ATOM      2  O   UNL A   1      28.597  27.568  23.501  1.00  0.00    -0.376 OA
BRANCH   2   3
ATOM      3  C   UNL A   1      28.720  26.273  24.075  1.00  0.00     0.202 C 
BRANCH   3   4
ATOM      4  C   UNL A   1      29.824  25.979  25.107  1.00  0.00     0.261 C 
BRANCH   4   5
ATOM      5  O   UNL A   1      30.900  25.120  24.660  1.00  0.00    -0.463 OA
BRANCH   5   6
ATOM      6  C   UNL A   1      31.740  24.648  25.626  1.00  0.00     0.316 C 
ATOM      7  O   UNL A   1      31.481  24.677  26.824  1.00  0.00    -0.251 OA
BRANCH   6   8
ATOM      8  C   UNL A   1      33.092  24.151  25.099  1.00  0.00     0.160 C 
BRANCH   8   9
ATOM      9  C   UNL A   1      33.102  22.645  24.991  1.00  0.00    -0.031 A 
ATOM     10  C   UNL A   1      32.864  19.884  24.765  1.00  0.00    -0.048 A 
ATOM     11  C   UNL A   1      33.316  20.449  25.962  1.00  0.00     0.004 A 
ATOM     12  C   UNL A   1      32.656  20.695  23.646  1.00  0.00     0.004 A 
ATOM     13  C   UNL A   1      33.457  21.824  26.068  1.00  0.00     0.005 A 
ATOM     14  C   UNL A   1      32.744  22.070  23.767  1.00  0.00     0.005 A 
BRANCH  10  15
ATOM     15  C   UNL A   1      32.435  18.444  24.724  1.00  0.00     0.038 C 
BRANCH  15  16
ATOM     16  C   UNL A   1      33.659  17.512  24.577  1.00  0.00    -0.013 C 
ATOM     17  C   UNL A   1      33.551  16.236  25.424  1.00  0.00     0.008 C 
ATOM     18  C   UNL A   1      33.841  17.142  23.110  1.00  0.00     0.008 C 
ENDBRANCH  15  16
ENDBRANCH  10  15
ENDBRANCH   8   9
BRANCH   8  19
ATOM     19  C   UNL A   1      34.368  24.633  25.784  1.00  0.00     0.234 C 
ATOM     20  F   UNL A   1      35.447  24.473  24.963  1.00  0.00    -0.250 F 
ENDBRANCH   8  19
ENDBRANCH   6   8
ENDBRANCH   5   6
ENDBRANCH   4   5
ENDBRANCH   3   4
ENDBRANCH   2   3
ENDBRANCH   1   2
BRANCH   1  21
ATOM     21  C   UNL A   1      30.275  29.452  23.389  1.00  0.00     0.188 C 
BRANCH  21  22
ATOM     22  O   UNL A   1      30.947  29.374  24.618  1.00  0.00    -0.376 OA
BRANCH  22  23
ATOM     23  C   UNL A   1      31.159  30.557  25.367  1.00  0.00     0.202 C 
BRANCH  23  24
ATOM     24  C   UNL A   1      31.910  30.605  26.713  1.00  0.00     0.261 C 
BRANCH  24  25
ATOM     25  O   UNL A   1      33.320  30.873  26.706  1.00  0.00    -0.460 OA
BRANCH  25  26
ATOM     26  C   UNL A   1      33.769  31.932  27.429  1.00  0.00     0.338 C 
ATOM     27  O   UNL A   1      33.143  32.928  27.723  1.00  0.00    -0.246 OA
BRANCH  26  28
ATOM     28  C   UNL A   1      35.074  31.529  28.024  1.00  0.00     0.060 A 
ATOM     29  C   UNL A   1      35.289  30.181  28.350  1.00  0.00     0.016 A 
ATOM     30  C   UNL A   1      36.096  32.462  28.198  1.00  0.00     0.016 A 
ATOM     31  C   UNL A   1      36.530  29.762  28.844  1.00  0.00     0.010 A 
ATOM     32  C   UNL A   1      37.323  32.047  28.726  1.00  0.00     0.010 A 
ATOM     33  C   UNL A   1      37.545  30.699  29.065  1.00  0.00    -0.014 A 
BRANCH  33  34
ATOM     34  C   UNL A   1      38.790  30.324  29.783  1.00  0.00     0.031 A 
ATOM     35  C   UNL A   1      39.680  29.274  29.173  1.00  0.00     0.074 A 
ATOM     36  C   UNL A   1      39.100  30.854  30.981  1.00  0.00     0.049 A 
ATOM     37  N   UNL A   1      40.728  28.681  29.678  1.00  0.00    -0.248 NA
ATOM     38  C   UNL A   1      39.334  28.832  27.812  1.00  0.00     0.031 C 
ATOM     39  C   UNL A   1      38.342  31.896  31.670  1.00  0.00     0.029 A 
ATOM     40  N   UNL A   1      40.120  30.548  31.852  1.00  0.00    -0.354 N 
ATOM     41  C   UNL A   1      41.140  27.762  28.720  1.00  0.00     0.074 A 
ATOM     42  C   UNL A   1      40.238  27.888  27.597  1.00  0.00     0.031 C 
ATOM     43  C   UNL A   1      38.897  32.112  32.878  1.00  0.00     0.029 A 
ATOM     44  C   UNL A   1      40.021  31.195  33.063  1.00  0.00     0.049 A 
ATOM     45  H   UNL A   1      40.850  29.925  31.631  1.00  0.00     0.167 HD
ATOM     46  C   UNL A   1      42.175  26.891  28.773  1.00  0.00     0.034 A 
ATOM     47  C   UNL A   1      40.726  31.033  34.202  1.00  0.00     0.034 A 
ATOM     48  C   UNL A   1      43.082  26.777  29.881  1.00  0.00     0.049 A 
ATOM     49  C   UNL A   1      41.840  30.016  34.247  1.00  0.00     0.074 A 
ATOM     50  C   UNL A   1      44.196  25.963  29.995  1.00  0.00     0.029 A 
ATOM     51  N   UNL A   1      42.973  27.474  31.073  1.00  0.00    -0.354 N 
ATOM     52  N   UNL A   1      42.295  29.240  33.292  1.00  0.00    -0.248 NA
ATOM     53  C   UNL A   1      42.557  29.867  35.525  1.00  0.00     0.031 C 
ATOM     54  C   UNL A   1      44.733  26.134  31.274  1.00  0.00     0.029 A 
ATOM     55  C   UNL A   1      43.982  27.089  31.939  1.00  0.00     0.049 A 
ATOM     56  H   UNL A   1      42.280  28.144  31.274  1.00  0.00     0.167 HD
ATOM     57  C   UNL A   1      43.369  28.544  33.842  1.00  0.00     0.074 A 
ATOM     58  C   UNL A   1      43.514  29.007  35.205  1.00  0.00     0.031 C 
ATOM     59  C   UNL A   1      44.155  27.595  33.276  1.00  0.00     0.034 A 
BRANCH  46  60
ATOM     60  C   UNL A   1      42.391  25.979  27.596  1.00  0.00     0.023 A 
ATOM     61  C   UNL A   1      43.190  26.401  26.515  1.00  0.00     0.012 A 
ATOM     62  C   UNL A   1      41.876  24.668  27.608  1.00  0.00     0.148 A 
ATOM     63  C   UNL A   1      43.459  25.536  25.455  1.00  0.00     0.002 A 
ATOM     64  C   UNL A   1      42.186  23.797  26.572  1.00  0.00     0.091 A 
ATOM     65  F   UNL A   1      41.101  24.296  28.638  1.00  0.00    -0.205 F 
ATOM     66  C   UNL A   1      42.969  24.233  25.489  1.00  0.00     0.022 A 
BRANCH  64  67
ATOM     67  S   UNL A   1      41.672  22.077  26.563  1.00  0.00     0.127 S 
ATOM     68  O   UNL A   1      42.354  21.571  25.373  1.00  0.00    -0.237 OA
ATOM     69  O   UNL A   1      42.218  21.590  27.831  1.00  0.00    -0.237 OA
ATOM     70  O   UNL A   1      40.219  22.088  26.487  1.00  0.00    -0.744 OA
ENDBRANCH  64  67
ENDBRANCH  46  60
BRANCH  47  71
ATOM     71  C   UNL A   1      40.408  31.842  35.416  1.00  0.00     0.023 A 
ATOM     72  C   UNL A   1      41.295  32.857  35.825  1.00  0.00     0.012 A 
ATOM     73  C   UNL A   1      39.257  31.587  36.188  1.00  0.00     0.148 A 
ATOM     74  C   UNL A   1      41.069  33.571  37.003  1.00  0.00     0.002 A 
ATOM     75  C   UNL A   1      39.007  32.342  37.329  1.00  0.00     0.091 A 
ATOM     76  F   UNL A   1      38.436  30.602  35.799  1.00  0.00    -0.205 F 
ATOM     77  C   UNL A   1      39.922  33.319  37.750  1.00  0.00     0.022 A 
BRANCH  75  78
ATOM     78  S   UNL A   1      37.500  32.165  38.290  1.00  0.00     0.127 S 
ATOM     79  O   UNL A   1      37.889  32.753  39.569  1.00  0.00    -0.237 OA
ATOM     80  O   UNL A   1      36.550  32.958  37.510  1.00  0.00    -0.237 OA
ATOM     81  O   UNL A   1      37.214  30.737  38.313  1.00  0.00    -0.744 OA
ENDBRANCH  75  78
ENDBRANCH  47  71
BRANCH  59  82
ATOM     82  C   UNL A   1      45.277  27.019  34.102  1.00  0.00     0.023 A 
ATOM     83  C   UNL A   1      46.559  27.604  34.056  1.00  0.00     0.012 A 
ATOM     84  C   UNL A   1      45.042  25.945  34.984  1.00  0.00     0.148 A 
ATOM     85  C   UNL A   1      47.596  27.105  34.844  1.00  0.00     0.002 A 
ATOM     86  C   UNL A   1      46.066  25.487  35.805  1.00  0.00     0.091 A 
ATOM     87  F   UNL A   1      43.820  25.393  35.007  1.00  0.00    -0.205 F 
ATOM     88  C   UNL A   1      47.347  26.057  35.727  1.00  0.00     0.022 A 
BRANCH  86  89
ATOM     89  S   UNL A   1      45.816  24.208  37.042  1.00  0.00     0.127 S 
ATOM     90  O   UNL A   1      45.392  23.076  36.219  1.00  0.00    -0.237 OA
ATOM     91  O   UNL A   1      47.152  24.073  37.623  1.00  0.00    -0.237 OA
ATOM     92  O   UNL A   1      44.806  24.723  37.957  1.00  0.00    -0.744 OA
ENDBRANCH  86  89
ENDBRANCH  59  82
ENDBRANCH  33  34
ENDBRANCH  26  28
ENDBRANCH  25  26
ENDBRANCH  24  25
ENDBRANCH  23  24
ENDBRANCH  22  23
ENDBRANCH  21  22
ENDBRANCH   1  21
TORSDOF 24
ENDMDL
MODEL 2
REMARK VINA RESULT:      -9.2      2.003      7.778
REMARK SMILES CC(C)Cc1ccc([C@H](CF)C(=O)OCCOCCOCCOC(=O)c2ccc(-c3c4nc(c(-c5cccc(S(=O)(=O)[O-])c5F)c5ccc([nH]5)c(-c5cccc(S(=O)(=O)[O-])c5F)c5nc(c(-c6cccc(S(=O)(=O)[O-])c6F)c6ccc3[nH]6)C=C5)C=C4)cc2)cc1
REMARK SMILES IDX 18 1 17 2 16 3 15 4 14 5 12 6 13 7 9 8 8 9 5 10 6 11 90 12
REMARK SMILES IDX 7 13 89 14 4 15 2 16 1 17 3 18 10 19 11 20 19 21 20 22 21 23
REMARK SMILES IDX 22 24 23 25 24 26 25 27 26 28 27 29 88 30 28 31 87 32 29 33
REMARK SMILES IDX 30 34 31 35 81 36 32 37 86 38 80 39 82 40 33 41 85 42 79 43
REMARK SMILES IDX 78 44 34 46 66 47 46 48 65 49 47 50 50 51 64 52 83 53 48 54
REMARK SMILES IDX 49 55 63 57 84 58 51 59 35 60 36 61 44 62 37 63 39 64 45 65
REMARK SMILES IDX 38 66 40 67 41 68 42 69 43 70 67 71 68 72 76 73 69 74 71 75
REMARK SMILES IDX 77 76 70 77 72 78 73 79 74 80 75 81 52 82 53 83 61 84 54 85
REMARK SMILES IDX 56 86 62 87 55 88 57 89 58 90 59 91 60 92
REMARK H PARENT 82 45 50 56
REMARK Flexibility Score: inf
ROOT
ATOM      1  C   UNL A   1      32.297  26.327  25.030  1.00  0.00     0.188 C 
ENDROOT
BRANCH   1   2
ATOM      2  O   UNL A   1      30.965  25.846  25.028  1.00  0.00    -0.376 OA
BRANCH   2   3
ATOM      3  C   UNL A   1      30.515  25.003  26.081  1.00  0.00     0.202 C 
BRANCH   3   4
ATOM      4  C   UNL A   1      31.333  23.766  26.493  1.00  0.00     0.261 C 
BRANCH   4   5
ATOM      5  O   UNL A   1      32.754  23.974  26.671  1.00  0.00    -0.463 OA
BRANCH   5   6
ATOM      6  C   UNL A   1      33.539  22.858  26.639  1.00  0.00     0.316 C 
ATOM      7  O   UNL A   1      33.852  22.219  27.637  1.00  0.00    -0.251 OA
BRANCH   6   8
ATOM      8  C   UNL A   1      34.083  22.509  25.248  1.00  0.00     0.160 C 
BRANCH   8   9
ATOM      9  C   UNL A   1      33.895  21.040  24.955  1.00  0.00    -0.031 A 
ATOM     10  C   UNL A   1      33.682  18.373  24.199  1.00  0.00    -0.048 A 
ATOM     11  C   UNL A   1      32.534  19.167  24.281  1.00  0.00     0.004 A 
ATOM     12  C   UNL A   1      34.915  18.881  24.619  1.00  0.00     0.004 A 
ATOM     13  C   UNL A   1      32.636  20.491  24.681  1.00  0.00     0.005 A 
ATOM     14  C   UNL A   1      35.025  20.216  24.966  1.00  0.00     0.005 A 
BRANCH  10  15
ATOM     15  C   UNL A   1      33.632  17.043  23.501  1.00  0.00     0.038 C 
BRANCH  15  16
ATOM     16  C   UNL A   1      33.728  15.886  24.521  1.00  0.00    -0.013 C 
ATOM     17  C   UNL A   1      35.080  15.830  25.246  1.00  0.00     0.008 C 
ATOM     18  C   UNL A   1      32.603  16.016  25.543  1.00  0.00     0.008 C 
ENDBRANCH  15  16
ENDBRANCH  10  15
ENDBRANCH   8   9
BRANCH   8  19
ATOM     19  C   UNL A   1      35.504  22.935  24.888  1.00  0.00     0.234 C 
ATOM     20  F   UNL A   1      35.588  23.264  23.565  1.00  0.00    -0.250 F 
ENDBRANCH   8  19
ENDBRANCH   6   8
ENDBRANCH   5   6
ENDBRANCH   4   5
ENDBRANCH   3   4
ENDBRANCH   2   3
ENDBRANCH   1   2
BRANCH   1  21
ATOM     21  C   UNL A   1      32.568  27.687  25.675  1.00  0.00     0.188 C 
BRANCH  21  22
ATOM     22  O   UNL A   1      31.988  27.921  26.932  1.00  0.00    -0.376 OA
BRANCH  22  23
ATOM     23  C   UNL A   1      31.699  29.251  27.322  1.00  0.00     0.202 C 
BRANCH  23  24
ATOM     24  C   UNL A   1      32.053  30.496  26.481  1.00  0.00     0.261 C 
BRANCH  24  25
ATOM     25  O   UNL A   1      33.421  30.921  26.423  1.00  0.00    -0.460 OA
BRANCH  25  26
ATOM     26  C   UNL A   1      33.860  31.787  27.373  1.00  0.00     0.338 C 
ATOM     27  O   UNL A   1      33.260  32.743  27.815  1.00  0.00    -0.246 OA
BRANCH  26  28
ATOM     28  C   UNL A   1      35.088  31.192  27.969  1.00  0.00     0.060 A 
ATOM     29  C   UNL A   1      35.104  29.824  28.281  1.00  0.00     0.016 A 
ATOM     30  C   UNL A   1      36.235  31.964  28.156  1.00  0.00     0.016 A 
ATOM     31  C   UNL A   1      36.267  29.223  28.775  1.00  0.00     0.010 A 
ATOM     32  C   UNL A   1      37.386  31.369  28.683  1.00  0.00     0.010 A 
ATOM     33  C   UNL A   1      37.408  30.000  29.009  1.00  0.00    -0.014 A 
BRANCH  33  34
ATOM     34  C   UNL A   1      38.581  29.441  29.727  1.00  0.00     0.031 A 
ATOM     35  C   UNL A   1      38.946  30.022  31.067  1.00  0.00     0.074 A 
ATOM     36  C   UNL A   1      39.349  28.480  29.180  1.00  0.00     0.049 A 
ATOM     37  N   UNL A   1      40.000  29.804  31.805  1.00  0.00    -0.248 NA
ATOM     38  C   UNL A   1      37.992  30.983  31.646  1.00  0.00     0.031 C 
ATOM     39  C   UNL A   1      39.095  27.812  27.906  1.00  0.00     0.029 A 
ATOM     40  N   UNL A   1      40.532  27.930  29.618  1.00  0.00    -0.354 N 
ATOM     41  C   UNL A   1      39.864  30.633  32.913  1.00  0.00     0.074 A 
ATOM     42  C   UNL A   1      38.616  31.347  32.756  1.00  0.00     0.031 C 
ATOM     43  C   UNL A   1      40.115  26.975  27.641  1.00  0.00     0.029 A 
ATOM     44  C   UNL A   1      41.113  27.079  28.705  1.00  0.00     0.049 A 
ATOM     45  H   UNL A   1      40.926  28.127  30.499  1.00  0.00     0.167 HD
ATOM     46  C   UNL A   1      40.704  30.788  33.963  1.00  0.00     0.034 A 
ATOM     47  C   UNL A   1      42.327  26.489  28.707  1.00  0.00     0.034 A 
ATOM     48  C   UNL A   1      41.936  30.067  34.128  1.00  0.00     0.049 A 
ATOM     49  C   UNL A   1      43.263  26.723  29.868  1.00  0.00     0.074 A 
ATOM     50  C   UNL A   1      42.820  30.116  35.192  1.00  0.00     0.029 A 
ATOM     51  N   UNL A   1      42.472  29.187  33.203  1.00  0.00    -0.354 N 
ATOM     52  N   UNL A   1      43.069  27.415  30.965  1.00  0.00    -0.248 NA
ATOM     53  C   UNL A   1      44.583  26.073  29.801  1.00  0.00     0.031 C 
ATOM     54  C   UNL A   1      43.915  29.301  34.888  1.00  0.00     0.029 A 
ATOM     55  C   UNL A   1      43.689  28.708  33.657  1.00  0.00     0.049 A 
ATOM     56  H   UNL A   1      42.050  28.939  32.349  1.00  0.00     0.167 HD
ATOM     57  C   UNL A   1      44.221  27.252  31.731  1.00  0.00     0.074 A 
ATOM     58  C   UNL A   1      45.098  26.376  30.985  1.00  0.00     0.031 C 
ATOM     59  C   UNL A   1      44.533  27.791  32.935  1.00  0.00     0.034 A 
BRANCH  46  60
ATOM     60  C   UNL A   1      40.327  31.781  35.029  1.00  0.00     0.023 A 
ATOM     61  C   UNL A   1      40.849  33.089  34.990  1.00  0.00     0.012 A 
ATOM     62  C   UNL A   1      39.380  31.440  36.014  1.00  0.00     0.148 A 
ATOM     63  C   UNL A   1      40.447  34.039  35.928  1.00  0.00     0.002 A 
ATOM     64  C   UNL A   1      38.950  32.404  36.917  1.00  0.00     0.091 A 
ATOM     65  F   UNL A   1      38.914  30.183  36.044  1.00  0.00    -0.205 F 
ATOM     66  C   UNL A   1      39.489  33.701  36.882  1.00  0.00     0.022 A 
BRANCH  64  67
ATOM     67  S   UNL A   1      37.662  32.092  38.129  1.00  0.00     0.127 S 
ATOM     68  O   UNL A   1      37.326  30.697  37.849  1.00  0.00    -0.237 OA
ATOM     69  O   UNL A   1      38.374  32.305  39.391  1.00  0.00    -0.237 OA
ATOM     70  O   UNL A   1      36.605  33.053  37.854  1.00  0.00    -0.744 OA
ENDBRANCH  64  67
ENDBRANCH  46  60
BRANCH  47  71
ATOM     71  C   UNL A   1      42.752  25.619  27.572  1.00  0.00     0.023 A 
ATOM     72  C   UNL A   1      43.593  26.145  26.571  1.00  0.00     0.012 A 
ATOM     73  C   UNL A   1      42.299  24.289  27.455  1.00  0.00     0.148 A 
ATOM     74  C   UNL A   1      43.937  25.381  25.454  1.00  0.00     0.002 A 
ATOM     75  C   UNL A   1      42.693  23.515  26.369  1.00  0.00     0.091 A 
ATOM     76  F   UNL A   1      41.481  23.811  28.403  1.00  0.00    -0.205 F 
ATOM     77  C   UNL A   1      43.494  24.066  25.357  1.00  0.00     0.022 A 
BRANCH  75  78
ATOM     78  S   UNL A   1      42.265  21.778  26.219  1.00  0.00     0.127 S 
ATOM     79  O   UNL A   1      42.577  21.275  27.554  1.00  0.00    -0.237 OA
ATOM     80  O   UNL A   1      40.838  21.845  25.903  1.00  0.00    -0.237 OA
ATOM     81  O   UNL A   1      43.095  21.261  25.139  1.00  0.00    -0.744 OA
ENDBRANCH  75  78
ENDBRANCH  47  71
BRANCH  59  82
ATOM     82  C   UNL A   1      45.855  27.420  33.557  1.00  0.00     0.023 A 
ATOM     83  C   UNL A   1      45.955  26.273  34.370  1.00  0.00     0.012 A 
ATOM     84  C   UNL A   1      47.017  28.166  33.273  1.00  0.00     0.148 A 
ATOM     85  C   UNL A   1      47.180  25.897  34.919  1.00  0.00     0.002 A 
ATOM     86  C   UNL A   1      48.245  27.755  33.781  1.00  0.00     0.091 A 
ATOM     87  F   UNL A   1      46.903  29.261  32.507  1.00  0.00    -0.205 F 
ATOM     88  C   UNL A   1      48.326  26.629  34.615  1.00  0.00     0.022 A 
BRANCH  86  89
ATOM     89  S   UNL A   1      49.787  28.577  33.365  1.00  0.00     0.127 S 
ATOM     90  O   UNL A   1      50.609  27.456  32.911  1.00  0.00    -0.237 OA
ATOM     91  O   UNL A   1      49.372  29.497  32.306  1.00  0.00    -0.237 OA
ATOM     92  O   UNL A   1      50.242  29.225  34.588  1.00  0.00    -0.744 OA
ENDBRANCH  86  89
ENDBRANCH  59  82
ENDBRANCH  33  34
ENDBRANCH  26  28
ENDBRANCH  25  26
ENDBRANCH  24  25
ENDBRANCH  23  24
ENDBRANCH  22  23
ENDBRANCH  21  22
ENDBRANCH   1  21
TORSDOF 24
ENDMDL
MODEL 3
REMARK VINA RESULT:      -8.7      1.719      7.756
REMARK SMILES CC(C)Cc1ccc([C@H](CF)C(=O)OCCOCCOCCOC(=O)c2ccc(-c3c4nc(c(-c5cccc(S(=O)(=O)[O-])c5F)c5ccc([nH]5)c(-c5cccc(S(=O)(=O)[O-])c5F)c5nc(c(-c6cccc(S(=O)(=O)[O-])c6F)c6ccc3[nH]6)C=C5)C=C4)cc2)cc1
REMARK SMILES IDX 18 1 17 2 16 3 15 4 14 5 12 6 13 7 9 8 8 9 5 10 6 11 90 12
REMARK SMILES IDX 7 13 89 14 4 15 2 16 1 17 3 18 10 19 11 20 19 21 20 22 21 23
REMARK SMILES IDX 22 24 23 25 24 26 25 27 26 28 27 29 88 30 28 31 87 32 29 33
REMARK SMILES IDX 30 34 31 35 81 36 32 37 86 38 80 39 82 40 33 41 85 42 79 43
REMARK SMILES IDX 78 44 34 46 66 47 46 48 65 49 47 50 50 51 64 52 83 53 48 54
REMARK SMILES IDX 49 55 63 57 84 58 51 59 35 60 36 61 44 62 37 63 39 64 45 65
REMARK SMILES IDX 38 66 40 67 41 68 42 69 43 70 67 71 68 72 76 73 69 74 71 75
REMARK SMILES IDX 77 76 70 77 72 78 73 79 74 80 75 81 52 82 53 83 61 84 54 85
REMARK SMILES IDX 56 86 62 87 55 88 57 89 58 90 59 91 60 92
REMARK H PARENT 82 45 50 56
REMARK Flexibility Score: inf
ROOT
ATOM      1  C   UNL A   1      31.928  26.050  25.075  1.00  0.00     0.188 C 
ENDROOT
BRANCH   1   2
ATOM      2  O   UNL A   1      30.808  25.398  25.646  1.00  0.00    -0.376 OA
BRANCH   2   3
ATOM      3  C   UNL A   1      30.982  24.552  26.775  1.00  0.00     0.202 C 
BRANCH   3   4
ATOM      4  C   UNL A   1      31.940  23.350  26.709  1.00  0.00     0.261 C 
BRANCH   4   5
ATOM      5  O   UNL A   1      33.088  23.500  25.839  1.00  0.00    -0.463 OA
BRANCH   5   6
ATOM      6  C   UNL A   1      34.220  22.833  26.210  1.00  0.00     0.316 C 
ATOM      7  O   UNL A   1      34.656  22.821  27.355  1.00  0.00    -0.251 OA
BRANCH   6   8
ATOM      8  C   UNL A   1      34.966  22.164  25.050  1.00  0.00     0.160 C 
BRANCH   8   9
ATOM      9  C   UNL A   1      34.502  20.738  24.869  1.00  0.00    -0.031 A 
ATOM     10  C   UNL A   1      33.744  18.125  24.297  1.00  0.00    -0.048 A 
ATOM     11  C   UNL A   1      32.767  19.097  24.536  1.00  0.00     0.004 A 
ATOM     12  C   UNL A   1      35.096  18.436  24.472  1.00  0.00     0.004 A 
ATOM     13  C   UNL A   1      33.144  20.395  24.844  1.00  0.00     0.005 A 
ATOM     14  C   UNL A   1      35.473  19.742  24.725  1.00  0.00     0.005 A 
BRANCH  10  15
ATOM     15  C   UNL A   1      33.363  16.805  23.687  1.00  0.00     0.038 C 
BRANCH  15  16
ATOM     16  C   UNL A   1      33.711  15.641  24.641  1.00  0.00    -0.013 C 
ATOM     17  C   UNL A   1      35.022  15.861  25.410  1.00  0.00     0.008 C 
ATOM     18  C   UNL A   1      32.567  15.433  25.627  1.00  0.00     0.008 C 
ENDBRANCH  15  16
ENDBRANCH  10  15
ENDBRANCH   8   9
BRANCH   8  19
ATOM     19  C   UNL A   1      36.491  22.222  25.027  1.00  0.00     0.234 C 
ATOM     20  F   UNL A   1      37.015  21.577  26.111  1.00  0.00    -0.250 F 
ENDBRANCH   8  19
ENDBRANCH   6   8
ENDBRANCH   5   6
ENDBRANCH   4   5
ENDBRANCH   3   4
ENDBRANCH   2   3
ENDBRANCH   1   2
BRANCH   1  21
ATOM     21  C   UNL A   1      32.254  27.467  25.551  1.00  0.00     0.188 C 
BRANCH  21  22
ATOM     22  O   UNL A   1      31.840  27.813  26.847  1.00  0.00    -0.376 OA
BRANCH  22  23
ATOM     23  C   UNL A   1      31.566  29.169  27.146  1.00  0.00     0.202 C 
BRANCH  23  24
ATOM     24  C   UNL A   1      31.934  30.350  26.222  1.00  0.00     0.261 C 
BRANCH  24  25
ATOM     25  O   UNL A   1      33.276  30.854  26.250  1.00  0.00    -0.460 OA
BRANCH  25  26
ATOM     26  C   UNL A   1      33.603  31.739  27.227  1.00  0.00     0.338 C 
ATOM     27  O   UNL A   1      32.931  32.670  27.617  1.00  0.00    -0.246 OA
BRANCH  26  28
ATOM     28  C   UNL A   1      34.807  31.200  27.917  1.00  0.00     0.060 A 
ATOM     29  C   UNL A   1      34.836  29.844  28.282  1.00  0.00     0.016 A 
ATOM     30  C   UNL A   1      35.921  32.008  28.143  1.00  0.00     0.016 A 
ATOM     31  C   UNL A   1      35.982  29.293  28.867  1.00  0.00     0.010 A 
ATOM     32  C   UNL A   1      37.052  31.463  28.761  1.00  0.00     0.010 A 
ATOM     33  C   UNL A   1      37.087  30.108  29.139  1.00  0.00    -0.014 A 
BRANCH  33  34
ATOM     34  C   UNL A   1      38.227  29.605  29.947  1.00  0.00     0.031 A 
ATOM     35  C   UNL A   1      38.421  30.156  31.334  1.00  0.00     0.074 A 
ATOM     36  C   UNL A   1      39.114  28.725  29.444  1.00  0.00     0.049 A 
ATOM     37  N   UNL A   1      39.415  29.985  32.163  1.00  0.00    -0.248 NA
ATOM     38  C   UNL A   1      37.347  31.021  31.851  1.00  0.00     0.031 C 
ATOM     39  C   UNL A   1      39.030  28.094  28.129  1.00  0.00     0.029 A 
ATOM     40  N   UNL A   1      40.289  28.245  29.974  1.00  0.00    -0.354 N 
ATOM     41  C   UNL A   1      39.114  30.757  33.279  1.00  0.00     0.074 A 
ATOM     42  C   UNL A   1      37.836  31.384  33.028  1.00  0.00     0.031 C 
ATOM     43  C   UNL A   1      40.132  27.344  27.935  1.00  0.00     0.029 A 
ATOM     44  C   UNL A   1      41.015  27.477  29.093  1.00  0.00     0.049 A 
ATOM     45  H   UNL A   1      40.583  28.434  30.895  1.00  0.00     0.167 HD
ATOM     46  C   UNL A   1      39.839  30.929  34.410  1.00  0.00     0.034 A 
ATOM     47  C   UNL A   1      42.264  26.976  29.191  1.00  0.00     0.034 A 
ATOM     48  C   UNL A   1      41.101  30.292  34.668  1.00  0.00     0.049 A 
ATOM     49  C   UNL A   1      43.068  27.229  30.444  1.00  0.00     0.074 A 
ATOM     50  C   UNL A   1      41.876  30.361  35.812  1.00  0.00     0.029 A 
ATOM     51  N   UNL A   1      41.786  29.492  33.769  1.00  0.00    -0.354 N 
ATOM     52  N   UNL A   1      42.721  27.861  31.540  1.00  0.00    -0.248 NA
ATOM     53  C   UNL A   1      44.434  26.680  30.482  1.00  0.00     0.031 C 
ATOM     54  C   UNL A   1      43.053  29.641  35.588  1.00  0.00     0.029 A 
ATOM     55  C   UNL A   1      42.988  29.084  34.321  1.00  0.00     0.049 A 
ATOM     56  H   UNL A   1      41.466  29.250  32.871  1.00  0.00     0.167 HD
ATOM     57  C   UNL A   1      43.806  27.750  32.406  1.00  0.00     0.074 A 
ATOM     58  C   UNL A   1      44.813  26.971  31.719  1.00  0.00     0.031 C 
ATOM     59  C   UNL A   1      43.963  28.261  33.652  1.00  0.00     0.034 A 
BRANCH  46  60
ATOM     60  C   UNL A   1      39.290  31.848  35.468  1.00  0.00     0.023 A 
ATOM     61  C   UNL A   1      38.369  31.360  36.415  1.00  0.00     0.012 A 
ATOM     62  C   UNL A   1      39.763  33.170  35.575  1.00  0.00     0.148 A 
ATOM     63  C   UNL A   1      37.911  32.182  37.444  1.00  0.00     0.002 A 
ATOM     64  C   UNL A   1      39.339  33.968  36.629  1.00  0.00     0.091 A 
ATOM     65  F   UNL A   1      40.623  33.618  34.649  1.00  0.00    -0.205 F 
ATOM     66  C   UNL A   1      38.406  33.479  37.559  1.00  0.00     0.022 A 
BRANCH  64  67
ATOM     67  S   UNL A   1      39.977  35.623  36.912  1.00  0.00     0.127 S 
ATOM     68  O   UNL A   1      41.410  35.366  37.051  1.00  0.00    -0.237 OA
ATOM     69  O   UNL A   1      39.598  36.310  35.676  1.00  0.00    -0.237 OA
ATOM     70  O   UNL A   1      39.316  36.113  38.112  1.00  0.00    -0.744 OA
ENDBRANCH  64  67
ENDBRANCH  46  60
BRANCH  47  71
ATOM     71  C   UNL A   1      42.859  26.186  28.073  1.00  0.00     0.023 A 
ATOM     72  C   UNL A   1      43.688  26.829  27.132  1.00  0.00     0.012 A 
ATOM     73  C   UNL A   1      42.577  24.815  27.912  1.00  0.00     0.148 A 
ATOM     74  C   UNL A   1      44.187  26.135  26.029  1.00  0.00     0.002 A 
ATOM     75  C   UNL A   1      43.125  24.115  26.842  1.00  0.00     0.091 A 
ATOM     76  F   UNL A   1      41.767  24.223  28.802  1.00  0.00    -0.205 F 
ATOM     77  C   UNL A   1      43.912  24.778  25.888  1.00  0.00     0.022 A 
BRANCH  75  78
ATOM     78  S   UNL A   1      42.920  22.342  26.644  1.00  0.00     0.127 S 
ATOM     79  O   UNL A   1      42.738  21.905  28.025  1.00  0.00    -0.237 OA
ATOM     80  O   UNL A   1      41.719  22.269  25.811  1.00  0.00    -0.237 OA
ATOM     81  O   UNL A   1      44.134  21.877  25.988  1.00  0.00    -0.744 OA
ENDBRANCH  75  78
ENDBRANCH  47  71
BRANCH  59  82
ATOM     82  C   UNL A   1      45.246  27.961  34.386  1.00  0.00     0.023 A 
ATOM     83  C   UNL A   1      46.328  28.860  34.311  1.00  0.00     0.012 A 
ATOM     84  C   UNL A   1      45.351  26.823  35.211  1.00  0.00     0.148 A 
ATOM     85  C   UNL A   1      47.506  28.613  35.015  1.00  0.00     0.002 A 
ATOM     86  C   UNL A   1      46.509  26.611  35.952  1.00  0.00     0.091 A 
ATOM     87  F   UNL A   1      44.317  25.972  35.262  1.00  0.00    -0.205 F 
ATOM     88  C   UNL A   1      47.592  27.497  35.844  1.00  0.00     0.022 A 
BRANCH  86  89
ATOM     89  S   UNL A   1      46.675  25.256  37.120  1.00  0.00     0.127 S 
ATOM     90  O   UNL A   1      48.073  25.386  37.530  1.00  0.00    -0.237 OA
ATOM     91  O   UNL A   1      45.702  25.616  38.152  1.00  0.00    -0.237 OA
ATOM     92  O   UNL A   1      46.354  24.043  36.381  1.00  0.00    -0.744 OA
ENDBRANCH  86  89
ENDBRANCH  59  82
ENDBRANCH  33  34
ENDBRANCH  26  28
ENDBRANCH  25  26
ENDBRANCH  24  25
ENDBRANCH  23  24
ENDBRANCH  22  23
ENDBRANCH  21  22
ENDBRANCH   1  21
TORSDOF 24
ENDMDL
