MODEL 1
REMARK VINA RESULT:     -10.0      0.000      0.000
REMARK SMILES CC[C@](C)(NC(=O)Cc1cccc(F)c1)C(=O)OCCOCCOCCOC(=O)c1ccc(-c2c3nc(c(-c4cccc(S(=O)(=O)[O-])c4F)c4ccc([nH]4)c(-c4cccc(S(=O)(=O)[O-])c4F)c4nc(c(-c5cccc(S(=O)(=O)[O-])c5F)c5ccc2[nH]5)C=C4)C=C3)cc1
REMARK SMILES IDX 22 1 21 2 20 3 19 4 18 5 16 6 17 7 3 8 4 9 2 10 1 11 5 12
REMARK SMILES IDX 6 13 7 15 8 16 9 17 10 18 15 19 11 20 13 21 12 22 14 23
REMARK SMILES IDX 23 24 24 25 25 26 26 27 27 28 28 29 29 30 30 31 31 32 92 33
REMARK SMILES IDX 32 34 91 35 33 36 34 37 35 38 85 39 36 40 90 41 84 42 86 43
REMARK SMILES IDX 37 44 89 45 83 46 82 47 38 49 70 50 50 51 69 52 51 53 54 54
REMARK SMILES IDX 68 55 87 56 52 57 53 58 67 60 88 61 55 62 39 63 40 64 48 65
REMARK SMILES IDX 41 66 43 67 49 68 42 69 44 70 45 71 46 72 47 73 71 74 72 75
REMARK SMILES IDX 80 76 73 77 75 78 81 79 74 80 76 81 77 82 78 83 79 84 56 85
REMARK SMILES IDX 57 86 65 87 58 88 60 89 66 90 59 91 61 92 62 93 63 94 64 95
REMARK H PARENT 5 14 86 48 54 59
REMARK Flexibility Score: inf
ROOT
ATOM      1  C   UNL A   1      33.681  31.545  27.799  1.00  0.00     0.188 C 
ENDROOT
BRANCH   1   2
ATOM      2  O   UNL A   1      33.905  30.194  27.060  1.00  0.00    -0.376 OA
BRANCH   2   3
ATOM      3  C   UNL A   1      32.795  29.434  26.545  1.00  0.00     0.202 C 
BRANCH   3   4
ATOM      4  C   UNL A   1      32.173  29.745  25.157  1.00  0.00     0.261 C 
BRANCH   4   5
ATOM      5  O   UNL A   1      31.736  28.568  24.411  1.00  0.00    -0.462 OA
BRANCH   5   6
ATOM      6  C   UNL A   1      32.628  27.588  24.096  1.00  0.00     0.331 C 
ATOM      7  O   UNL A   1      33.797  27.825  23.815  1.00  0.00    -0.249 OA
BRANCH   6   8
ATOM      8  C   UNL A   1      31.995  26.118  24.099  1.00  0.00     0.135 C 
ATOM      9  C   UNL A   1      30.583  25.978  23.440  1.00  0.00     0.047 C 
BRANCH   8  10
ATOM     10  C   UNL A   1      31.736  25.798  25.610  1.00  0.00     0.037 C 
ATOM     11  C   UNL A   1      30.253  25.660  25.994  1.00  0.00     0.007 C 
ENDBRANCH   8  10
BRANCH   8  12
ATOM     12  N   UNL A   1      32.860  25.016  23.548  1.00  0.00    -0.340 N 
ATOM     13  C   UNL A   1      34.172  24.670  23.744  1.00  0.00     0.225 C 
ATOM     14  H   UNL A   1      32.387  24.424  22.920  1.00  0.00     0.164 HD
ATOM     15  O   UNL A   1      34.792  24.348  22.723  1.00  0.00    -0.275 OA
BRANCH  13  16
ATOM     16  C   UNL A   1      34.786  24.422  25.119  1.00  0.00     0.135 C 
BRANCH  16  17
ATOM     17  C   UNL A   1      36.006  23.522  25.197  1.00  0.00    -0.036 A 
ATOM     18  C   UNL A   1      35.871  21.804  24.690  1.00  0.00     0.004 A 
ATOM     19  C   UNL A   1      37.547  24.055  26.032  1.00  0.00     0.043 A 
ATOM     20  C   UNL A   1      37.224  20.659  24.900  1.00  0.00     0.003 A 
ATOM     21  C   UNL A   1      38.898  22.877  26.254  1.00  0.00     0.123 A 
ATOM     22  C   UNL A   1      38.699  21.165  25.752  1.00  0.00     0.039 A 
ATOM     23  F   UNL A   1      39.958  23.209  27.001  1.00  0.00    -0.207 F 
ENDBRANCH  16  17
ENDBRANCH  13  16
ENDBRANCH   8  12
ENDBRANCH   6   8
ENDBRANCH   5   6
ENDBRANCH   4   5
ENDBRANCH   3   4
ENDBRANCH   2   3
ENDBRANCH   1   2
BRANCH   1  24
ATOM     24  C   UNL A   1      35.010  33.243  28.151  1.00  0.00     0.188 C 
BRANCH  24  25
ATOM     25  O   UNL A   1      34.744  34.647  28.847  1.00  0.00    -0.376 OA
BRANCH  25  26
ATOM     26  C   UNL A   1      33.766  35.592  28.372  1.00  0.00     0.202 C 
BRANCH  26  27
ATOM     27  C   UNL A   1      32.870  36.300  29.389  1.00  0.00     0.261 C 
BRANCH  27  28
ATOM     28  O   UNL A   1      32.409  35.468  30.447  1.00  0.00    -0.460 OA
BRANCH  28  29
ATOM     29  C   UNL A   1      32.857  35.783  31.686  1.00  0.00     0.338 C 
ATOM     30  O   UNL A   1      32.314  36.510  32.498  1.00  0.00    -0.246 OA
BRANCH  29  31
ATOM     31  C   UNL A   1      33.996  34.874  31.950  1.00  0.00     0.060 A 
ATOM     32  C   UNL A   1      33.755  33.495  32.042  1.00  0.00     0.016 A 
ATOM     33  C   UNL A   1      35.306  35.365  31.950  1.00  0.00     0.016 A 
ATOM     34  C   UNL A   1      34.827  32.608  32.165  1.00  0.00     0.010 A 
ATOM     35  C   UNL A   1      36.373  34.483  32.078  1.00  0.00     0.010 A 
ATOM     36  C   UNL A   1      36.137  33.106  32.226  1.00  0.00    -0.014 A 
BRANCH  36  37
ATOM     37  C   UNL A   1      37.250  32.283  32.753  1.00  0.00     0.031 A 
ATOM     38  C   UNL A   1      37.802  32.685  34.084  1.00  0.00     0.074 A 
ATOM     39  C   UNL A   1      37.823  31.284  32.061  1.00  0.00     0.049 A 
ATOM     40  N   UNL A   1      38.876  32.267  34.691  1.00  0.00    -0.248 NA
ATOM     41  C   UNL A   1      37.050  33.723  34.814  1.00  0.00     0.031 C 
ATOM     42  C   UNL A   1      37.364  30.794  30.775  1.00  0.00     0.029 A 
ATOM     43  N   UNL A   1      38.934  30.524  32.326  1.00  0.00    -0.354 N 
ATOM     44  C   UNL A   1      38.946  33.007  35.862  1.00  0.00     0.074 A 
ATOM     45  C   UNL A   1      37.828  33.922  35.864  1.00  0.00     0.031 C 
ATOM     46  C   UNL A   1      38.176  29.816  30.346  1.00  0.00     0.029 A 
ATOM     47  C   UNL A   1      39.263  29.660  31.307  1.00  0.00     0.049 A 
ATOM     48  H   UNL A   1      39.446  30.590  33.165  1.00  0.00     0.167 HD
ATOM     49  C   UNL A   1      39.857  32.921  36.855  1.00  0.00     0.034 A 
ATOM     50  C   UNL A   1      40.336  28.861  31.149  1.00  0.00     0.034 A 
ATOM     51  C   UNL A   1      40.980  32.028  36.831  1.00  0.00     0.049 A 
ATOM     52  C   UNL A   1      41.383  28.836  32.228  1.00  0.00     0.074 A 
ATOM     53  C   UNL A   1      41.965  31.866  37.785  1.00  0.00     0.029 A 
ATOM     54  N   UNL A   1      41.278  31.159  35.791  1.00  0.00    -0.354 N 
ATOM     55  N   UNL A   1      41.418  29.504  33.356  1.00  0.00    -0.248 NA
ATOM     56  C   UNL A   1      42.523  27.929  32.030  1.00  0.00     0.031 C 
ATOM     57  C   UNL A   1      42.882  30.926  37.305  1.00  0.00     0.029 A 
ATOM     58  C   UNL A   1      42.436  30.458  36.078  1.00  0.00     0.049 A 
ATOM     59  H   UNL A   1      40.745  31.055  34.970  1.00  0.00     0.167 HD
ATOM     60  C   UNL A   1      42.551  29.062  34.028  1.00  0.00     0.074 A 
ATOM     61  C   UNL A   1      43.176  28.069  33.177  1.00  0.00     0.031 C 
ATOM     62  C   UNL A   1      43.027  29.443  35.240  1.00  0.00     0.034 A 
BRANCH  49  63
ATOM     63  C   UNL A   1      39.655  33.825  38.040  1.00  0.00     0.023 A 
ATOM     64  C   UNL A   1      40.185  35.132  38.023  1.00  0.00     0.012 A 
ATOM     65  C   UNL A   1      38.941  33.382  39.169  1.00  0.00     0.148 A 
ATOM     66  C   UNL A   1      40.050  35.967  39.129  1.00  0.00     0.002 A 
ATOM     67  C   UNL A   1      38.758  34.242  40.243  1.00  0.00     0.091 A 
ATOM     68  F   UNL A   1      38.477  32.124  39.181  1.00  0.00    -0.205 F 
ATOM     69  C   UNL A   1      39.326  35.527  40.233  1.00  0.00     0.022 A 
BRANCH  67  70
ATOM     70  S   UNL A   1      37.764  33.804  41.672  1.00  0.00     0.127 S 
ATOM     71  O   UNL A   1      36.462  34.362  41.308  1.00  0.00    -0.237 OA
ATOM     72  O   UNL A   1      37.831  32.343  41.651  1.00  0.00    -0.237 OA
ATOM     73  O   UNL A   1      38.410  34.427  42.819  1.00  0.00    -0.744 OA
ENDBRANCH  67  70
ENDBRANCH  49  63
BRANCH  50  74
ATOM     74  C   UNL A   1      40.434  27.980  29.951  1.00  0.00     0.023 A 
ATOM     75  C   UNL A   1      39.575  26.869  29.848  1.00  0.00     0.012 A 
ATOM     76  C   UNL A   1      41.313  28.268  28.888  1.00  0.00     0.148 A 
ATOM     77  C   UNL A   1      39.595  26.055  28.714  1.00  0.00     0.002 A 
ATOM     78  C   UNL A   1      41.293  27.484  27.740  1.00  0.00     0.091 A 
ATOM     79  F   UNL A   1      42.124  29.329  29.009  1.00  0.00    -0.205 F 
ATOM     80  C   UNL A   1      40.444  26.369  27.657  1.00  0.00     0.022 A 
BRANCH  78  81
ATOM     81  S   UNL A   1      42.261  27.873  26.277  1.00  0.00     0.127 S 
ATOM     82  O   UNL A   1      41.937  29.283  26.069  1.00  0.00    -0.237 OA
ATOM     83  O   UNL A   1      43.622  27.616  26.748  1.00  0.00    -0.237 OA
ATOM     84  O   UNL A   1      41.793  26.968  25.238  1.00  0.00    -0.744 OA
ENDBRANCH  78  81
ENDBRANCH  50  74
BRANCH  62  85
ATOM     85  C   UNL A   1      44.256  28.748  35.767  1.00  0.00     0.023 A 
ATOM     86  C   UNL A   1      45.540  29.161  35.360  1.00  0.00     0.012 A 
ATOM     87  C   UNL A   1      44.133  27.742  36.747  1.00  0.00     0.148 A 
ATOM     88  C   UNL A   1      46.679  28.562  35.897  1.00  0.00     0.002 A 
ATOM     89  C   UNL A   1      45.271  27.193  37.322  1.00  0.00     0.091 A 
ATOM     90  F   UNL A   1      42.903  27.349  37.109  1.00  0.00    -0.205 F 
ATOM     91  C   UNL A   1      46.546  27.590  36.887  1.00  0.00     0.022 A 
BRANCH  89  92
ATOM     92  S   UNL A   1      45.195  26.022  38.682  1.00  0.00     0.127 S 
ATOM     93  O   UNL A   1      44.876  24.778  37.985  1.00  0.00    -0.237 OA
ATOM     94  O   UNL A   1      46.554  26.089  39.222  1.00  0.00    -0.237 OA
ATOM     95  O   UNL A   1      44.161  26.514  39.582  1.00  0.00    -0.744 OA
ENDBRANCH  89  92
ENDBRANCH  62  85
ENDBRANCH  36  37
ENDBRANCH  29  31
ENDBRANCH  28  29
ENDBRANCH  27  28
ENDBRANCH  26  27
ENDBRANCH  25  26
ENDBRANCH  24  25
ENDBRANCH   1  24
TORSDOF 24
ENDMDL
MODEL 2
REMARK VINA RESULT:      -9.8      1.331      7.824
REMARK SMILES CC[C@](C)(NC(=O)Cc1cccc(F)c1)C(=O)OCCOCCOCCOC(=O)c1ccc(-c2c3nc(c(-c4cccc(S(=O)(=O)[O-])c4F)c4ccc([nH]4)c(-c4cccc(S(=O)(=O)[O-])c4F)c4nc(c(-c5cccc(S(=O)(=O)[O-])c5F)c5ccc2[nH]5)C=C4)C=C3)cc1
REMARK SMILES IDX 22 1 21 2 20 3 19 4 18 5 16 6 17 7 3 8 4 9 2 10 1 11 5 12
REMARK SMILES IDX 6 13 7 15 8 16 9 17 10 18 15 19 11 20 13 21 12 22 14 23
REMARK SMILES IDX 23 24 24 25 25 26 26 27 27 28 28 29 29 30 30 31 31 32 92 33
REMARK SMILES IDX 32 34 91 35 33 36 34 37 35 38 85 39 36 40 90 41 84 42 86 43
REMARK SMILES IDX 37 44 89 45 83 46 82 47 38 49 70 50 50 51 69 52 51 53 54 54
REMARK SMILES IDX 68 55 87 56 52 57 53 58 67 60 88 61 55 62 39 63 40 64 48 65
REMARK SMILES IDX 41 66 43 67 49 68 42 69 44 70 45 71 46 72 47 73 71 74 72 75
REMARK SMILES IDX 80 76 73 77 75 78 81 79 74 80 76 81 77 82 78 83 79 84 56 85
REMARK SMILES IDX 57 86 65 87 58 88 60 89 66 90 59 91 61 92 62 93 63 94 64 95
REMARK H PARENT 5 14 86 48 54 59
REMARK Flexibility Score: inf
ROOT
ATOM      1  C   UNL A   1      33.438  31.040  27.420  1.00  0.00     0.188 C 
ENDROOT
BRANCH   1   2
ATOM      2  O   UNL A   1      34.133  29.680  27.123  1.00  0.00    -0.376 OA
BRANCH   2   3
ATOM      3  C   UNL A   1      33.363  28.483  26.900  1.00  0.00     0.202 C 
BRANCH   3   4
ATOM      4  C   UNL A   1      33.849  27.375  25.926  1.00  0.00     0.261 C 
BRANCH   4   5
ATOM      5  O   UNL A   1      32.788  26.518  25.407  1.00  0.00    -0.462 OA
BRANCH   5   6
ATOM      6  C   UNL A   1      31.628  27.067  24.949  1.00  0.00     0.331 C 
ATOM      7  O   UNL A   1      30.674  27.299  25.683  1.00  0.00    -0.249 OA
BRANCH   6   8
ATOM      8  C   UNL A   1      31.625  27.342  23.372  1.00  0.00     0.135 C 
ATOM      9  C   UNL A   1      32.609  28.449  22.867  1.00  0.00     0.047 C 
BRANCH   8  10
ATOM     10  C   UNL A   1      30.208  27.936  23.074  1.00  0.00     0.037 C 
ATOM     11  C   UNL A   1      30.184  29.455  22.834  1.00  0.00     0.007 C 
ENDBRANCH   8  10
BRANCH   8  12
ATOM     12  N   UNL A   1      31.805  26.140  22.484  1.00  0.00    -0.340 N 
ATOM     13  C   UNL A   1      32.912  25.510  21.976  1.00  0.00     0.225 C 
ATOM     14  H   UNL A   1      30.957  25.721  22.215  1.00  0.00     0.164 HD
ATOM     15  O   UNL A   1      32.826  25.163  20.791  1.00  0.00    -0.275 OA
BRANCH  13  16
ATOM     16  C   UNL A   1      34.072  25.012  22.834  1.00  0.00     0.135 C 
BRANCH  16  17
ATOM     17  C   UNL A   1      34.064  23.554  23.255  1.00  0.00    -0.036 A 
ATOM     18  C   UNL A   1      32.613  22.546  22.927  1.00  0.00     0.004 A 
ATOM     19  C   UNL A   1      35.380  22.848  24.316  1.00  0.00     0.043 A 
ATOM     20  C   UNL A   1      32.483  20.871  23.530  1.00  0.00     0.003 A 
ATOM     21  C   UNL A   1      35.221  21.159  24.935  1.00  0.00     0.123 A 
ATOM     22  C   UNL A   1      33.738  20.206  24.598  1.00  0.00     0.039 A 
ATOM     23  F   UNL A   1      36.094  20.693  25.837  1.00  0.00    -0.207 F 
ENDBRANCH  16  17
ENDBRANCH  13  16
ENDBRANCH   8  12
ENDBRANCH   6   8
ENDBRANCH   5   6
ENDBRANCH   4   5
ENDBRANCH   3   4
ENDBRANCH   2   3
ENDBRANCH   1   2
BRANCH   1  24
ATOM     24  C   UNL A   1      34.194  32.892  28.299  1.00  0.00     0.188 C 
BRANCH  24  25
ATOM     25  O   UNL A   1      34.251  34.372  27.721  1.00  0.00    -0.376 OA
BRANCH  25  26
ATOM     26  C   UNL A   1      33.788  35.524  28.450  1.00  0.00     0.202 C 
BRANCH  26  27
ATOM     27  C   UNL A   1      32.872  35.312  29.657  1.00  0.00     0.261 C 
BRANCH  27  28
ATOM     28  O   UNL A   1      33.249  36.047  30.817  1.00  0.00    -0.460 OA
BRANCH  28  29
ATOM     29  C   UNL A   1      33.075  35.414  32.001  1.00  0.00     0.338 C 
ATOM     30  O   UNL A   1      32.034  35.291  32.621  1.00  0.00    -0.246 OA
BRANCH  29  31
ATOM     31  C   UNL A   1      34.338  34.686  32.262  1.00  0.00     0.060 A 
ATOM     32  C   UNL A   1      34.281  33.427  32.878  1.00  0.00     0.016 A 
ATOM     33  C   UNL A   1      35.550  35.175  31.762  1.00  0.00     0.016 A 
ATOM     34  C   UNL A   1      35.445  32.669  33.022  1.00  0.00     0.010 A 
ATOM     35  C   UNL A   1      36.710  34.421  31.908  1.00  0.00     0.010 A 
ATOM     36  C   UNL A   1      36.670  33.185  32.574  1.00  0.00    -0.014 A 
BRANCH  36  37
ATOM     37  C   UNL A   1      37.959  32.631  33.050  1.00  0.00     0.031 A 
ATOM     38  C   UNL A   1      38.531  31.500  32.255  1.00  0.00     0.074 A 
ATOM     39  C   UNL A   1      38.560  33.030  34.183  1.00  0.00     0.049 A 
ATOM     40  N   UNL A   1      39.532  30.717  32.540  1.00  0.00    -0.248 NA
ATOM     41  C   UNL A   1      37.859  31.197  30.978  1.00  0.00     0.031 C 
ATOM     42  C   UNL A   1      38.111  34.125  35.022  1.00  0.00     0.029 A 
ATOM     43  N   UNL A   1      39.660  32.540  34.840  1.00  0.00    -0.354 N 
ATOM     44  C   UNL A   1      39.597  29.811  31.492  1.00  0.00     0.074 A 
ATOM     45  C   UNL A   1      38.516  30.120  30.584  1.00  0.00     0.031 C 
ATOM     46  C   UNL A   1      38.915  34.237  36.090  1.00  0.00     0.029 A 
ATOM     47  C   UNL A   1      39.904  33.165  36.042  1.00  0.00     0.049 A 
ATOM     48  H   UNL A   1      40.221  31.812  34.487  1.00  0.00     0.167 HD
ATOM     49  C   UNL A   1      40.490  28.818  31.296  1.00  0.00     0.034 A 
ATOM     50  C   UNL A   1      40.797  32.883  37.011  1.00  0.00     0.034 A 
ATOM     51  C   UNL A   1      41.544  28.502  32.217  1.00  0.00     0.049 A 
ATOM     52  C   UNL A   1      41.733  31.722  36.814  1.00  0.00     0.074 A 
ATOM     53  C   UNL A   1      42.501  27.511  32.116  1.00  0.00     0.029 A 
ATOM     54  N   UNL A   1      41.771  29.160  33.418  1.00  0.00    -0.354 N 
ATOM     55  N   UNL A   1      41.820  30.899  35.797  1.00  0.00    -0.248 NA
ATOM     56  C   UNL A   1      42.711  31.467  37.881  1.00  0.00     0.031 C 
ATOM     57  C   UNL A   1      43.282  27.543  33.275  1.00  0.00     0.029 A 
ATOM     58  C   UNL A   1      42.851  28.594  34.071  1.00  0.00     0.049 A 
ATOM     59  H   UNL A   1      41.241  29.918  33.756  1.00  0.00     0.167 HD
ATOM     60  C   UNL A   1      42.893  30.062  36.073  1.00  0.00     0.074 A 
ATOM     61  C   UNL A   1      43.425  30.479  37.356  1.00  0.00     0.031 C 
ATOM     62  C   UNL A   1      43.394  29.043  35.330  1.00  0.00     0.034 A 
BRANCH  49  63
ATOM     63  C   UNL A   1      40.345  28.015  30.033  1.00  0.00     0.023 A 
ATOM     64  C   UNL A   1      39.344  27.026  29.942  1.00  0.00     0.012 A 
ATOM     65  C   UNL A   1      41.199  28.238  28.937  1.00  0.00     0.148 A 
ATOM     66  C   UNL A   1      39.224  26.239  28.799  1.00  0.00     0.002 A 
ATOM     67  C   UNL A   1      41.033  27.492  27.778  1.00  0.00     0.091 A 
ATOM     68  F   UNL A   1      42.167  29.158  29.056  1.00  0.00    -0.205 F 
ATOM     69  C   UNL A   1      40.060  26.481  27.713  1.00  0.00     0.022 A 
BRANCH  67  70
ATOM     70  S   UNL A   1      41.997  27.789  26.293  1.00  0.00     0.127 S 
ATOM     71  O   UNL A   1      43.354  27.511  26.761  1.00  0.00    -0.237 OA
ATOM     72  O   UNL A   1      41.451  26.792  25.373  1.00  0.00    -0.237 OA
ATOM     73  O   UNL A   1      41.740  29.172  25.915  1.00  0.00    -0.744 OA
ENDBRANCH  67  70
ENDBRANCH  49  63
BRANCH  50  74
ATOM     74  C   UNL A   1      40.883  33.755  38.216  1.00  0.00     0.023 A 
ATOM     75  C   UNL A   1      41.801  34.822  38.224  1.00  0.00     0.012 A 
ATOM     76  C   UNL A   1      40.023  33.582  39.319  1.00  0.00     0.148 A 
ATOM     77  C   UNL A   1      41.869  35.696  39.310  1.00  0.00     0.002 A 
ATOM     78  C   UNL A   1      40.061  34.486  40.375  1.00  0.00     0.091 A 
ATOM     79  F   UNL A   1      39.158  32.558  39.292  1.00  0.00    -0.205 F 
ATOM     80  C   UNL A   1      40.992  35.536  40.378  1.00  0.00     0.022 A 
BRANCH  78  81
ATOM     81  S   UNL A   1      38.894  34.437  41.741  1.00  0.00     0.127 S 
ATOM     82  O   UNL A   1      39.317  35.587  42.538  1.00  0.00    -0.237 OA
ATOM     83  O   UNL A   1      37.618  34.606  41.045  1.00  0.00    -0.237 OA
ATOM     84  O   UNL A   1      39.078  33.140  42.375  1.00  0.00    -0.744 OA
ENDBRANCH  78  81
ENDBRANCH  50  74
BRANCH  62  85
ATOM     85  C   UNL A   1      44.621  28.332  35.841  1.00  0.00     0.023 A 
ATOM     86  C   UNL A   1      45.907  28.834  35.559  1.00  0.00     0.012 A 
ATOM     87  C   UNL A   1      44.487  27.213  36.688  1.00  0.00     0.148 A 
ATOM     88  C   UNL A   1      47.040  28.213  36.086  1.00  0.00     0.002 A 
ATOM     89  C   UNL A   1      45.615  26.639  37.259  1.00  0.00     0.091 A 
ATOM     90  F   UNL A   1      43.256  26.739  36.932  1.00  0.00    -0.205 F 
ATOM     91  C   UNL A   1      46.894  27.127  36.946  1.00  0.00     0.022 A 
BRANCH  89  92
ATOM     92  S   UNL A   1      45.515  25.312  38.466  1.00  0.00     0.127 S 
ATOM     93  O   UNL A   1      44.683  25.917  39.504  1.00  0.00    -0.237 OA
ATOM     94  O   UNL A   1      44.861  24.249  37.701  1.00  0.00    -0.237 OA
ATOM     95  O   UNL A   1      46.886  25.019  38.859  1.00  0.00    -0.744 OA
ENDBRANCH  89  92
ENDBRANCH  62  85
ENDBRANCH  36  37
ENDBRANCH  29  31
ENDBRANCH  28  29
ENDBRANCH  27  28
ENDBRANCH  26  27
ENDBRANCH  25  26
ENDBRANCH  24  25
ENDBRANCH   1  24
TORSDOF 24
ENDMDL
MODEL 3
REMARK VINA RESULT:      -9.7      5.039      6.145
REMARK SMILES CC[C@](C)(NC(=O)Cc1cccc(F)c1)C(=O)OCCOCCOCCOC(=O)c1ccc(-c2c3nc(c(-c4cccc(S(=O)(=O)[O-])c4F)c4ccc([nH]4)c(-c4cccc(S(=O)(=O)[O-])c4F)c4nc(c(-c5cccc(S(=O)(=O)[O-])c5F)c5ccc2[nH]5)C=C4)C=C3)cc1
REMARK SMILES IDX 22 1 21 2 20 3 19 4 18 5 16 6 17 7 3 8 4 9 2 10 1 11 5 12
REMARK SMILES IDX 6 13 7 15 8 16 9 17 10 18 15 19 11 20 13 21 12 22 14 23
REMARK SMILES IDX 23 24 24 25 25 26 26 27 27 28 28 29 29 30 30 31 31 32 92 33
REMARK SMILES IDX 32 34 91 35 33 36 34 37 35 38 85 39 36 40 90 41 84 42 86 43
REMARK SMILES IDX 37 44 89 45 83 46 82 47 38 49 70 50 50 51 69 52 51 53 54 54
REMARK SMILES IDX 68 55 87 56 52 57 53 58 67 60 88 61 55 62 39 63 40 64 48 65
REMARK SMILES IDX 41 66 43 67 49 68 42 69 44 70 45 71 46 72 47 73 71 74 72 75
REMARK SMILES IDX 80 76 73 77 75 78 81 79 74 80 76 81 77 82 78 83 79 84 56 85
REMARK SMILES IDX 57 86 65 87 58 88 60 89 66 90 59 91 61 92 62 93 63 94 64 95
REMARK H PARENT 5 14 86 48 54 59
REMARK Flexibility Score: inf
ROOT
ATOM      1  C   UNL A   1      34.235  32.005  28.073  1.00  0.00     0.188 C 
ENDROOT
BRANCH   1   2
ATOM      2  O   UNL A   1      33.405  30.794  27.558  1.00  0.00    -0.376 OA
BRANCH   2   3
ATOM      3  C   UNL A   1      34.049  29.618  27.033  1.00  0.00     0.202 C 
BRANCH   3   4
ATOM      4  C   UNL A   1      33.409  28.211  27.174  1.00  0.00     0.261 C 
BRANCH   4   5
ATOM      5  O   UNL A   1      33.357  27.442  25.934  1.00  0.00    -0.462 OA
BRANCH   5   6
ATOM      6  C   UNL A   1      32.179  26.908  25.509  1.00  0.00     0.331 C 
ATOM      7  O   UNL A   1      31.656  25.944  26.056  1.00  0.00    -0.249 OA
BRANCH   6   8
ATOM      8  C   UNL A   1      31.570  27.637  24.220  1.00  0.00     0.135 C 
ATOM      9  C   UNL A   1      31.400  29.189  24.327  1.00  0.00     0.047 C 
BRANCH   8  10
ATOM     10  C   UNL A   1      30.101  27.106  24.119  1.00  0.00     0.037 C 
ATOM     11  C   UNL A   1      29.187  27.914  23.182  1.00  0.00     0.007 C 
ENDBRANCH   8  10
BRANCH   8  12
ATOM     12  N   UNL A   1      32.246  27.347  22.907  1.00  0.00    -0.340 N 
ATOM     13  C   UNL A   1      32.789  26.211  22.365  1.00  0.00     0.225 C 
ATOM     14  H   UNL A   1      32.309  28.133  22.318  1.00  0.00     0.164 HD
ATOM     15  O   UNL A   1      33.867  26.369  21.777  1.00  0.00    -0.275 OA
BRANCH  13  16
ATOM     16  C   UNL A   1      32.034  24.891  22.232  1.00  0.00     0.135 C 
BRANCH  16  17
ATOM     17  C   UNL A   1      32.508  23.718  23.070  1.00  0.00    -0.036 A 
ATOM     18  C   UNL A   1      31.396  22.985  24.275  1.00  0.00     0.004 A 
ATOM     19  C   UNL A   1      34.261  23.185  23.081  1.00  0.00     0.043 A 
ATOM     20  C   UNL A   1      31.942  21.705  25.394  1.00  0.00     0.003 A 
ATOM     21  C   UNL A   1      34.800  21.904  24.235  1.00  0.00     0.123 A 
ATOM     22  C   UNL A   1      33.652  21.225  25.434  1.00  0.00     0.039 A 
ATOM     23  F   UNL A   1      36.103  21.624  24.361  1.00  0.00    -0.207 F 
ENDBRANCH  16  17
ENDBRANCH  13  16
ENDBRANCH   8  12
ENDBRANCH   6   8
ENDBRANCH   5   6
ENDBRANCH   4   5
ENDBRANCH   3   4
ENDBRANCH   2   3
ENDBRANCH   1   2
BRANCH   1  24
ATOM     24  C   UNL A   1      33.777  34.139  28.175  1.00  0.00     0.188 C 
BRANCH  24  25
ATOM     25  O   UNL A   1      32.690  34.932  29.021  1.00  0.00    -0.376 OA
BRANCH  25  26
ATOM     26  C   UNL A   1      33.028  35.886  30.045  1.00  0.00     0.202 C 
BRANCH  26  27
ATOM     27  C   UNL A   1      33.161  35.402  31.490  1.00  0.00     0.261 C 
BRANCH  27  28
ATOM     28  O   UNL A   1      34.448  34.897  31.825  1.00  0.00    -0.460 OA
BRANCH  28  29
ATOM     29  C   UNL A   1      34.482  33.627  32.294  1.00  0.00     0.338 C 
ATOM     30  O   UNL A   1      33.545  32.979  32.725  1.00  0.00    -0.246 OA
BRANCH  29  31
ATOM     31  C   UNL A   1      35.821  33.100  31.943  1.00  0.00     0.060 A 
ATOM     32  C   UNL A   1      36.404  32.127  32.768  1.00  0.00     0.016 A 
ATOM     33  C   UNL A   1      36.422  33.450  30.729  1.00  0.00     0.016 A 
ATOM     34  C   UNL A   1      37.608  31.525  32.392  1.00  0.00     0.010 A 
ATOM     35  C   UNL A   1      37.621  32.854  30.356  1.00  0.00     0.010 A 
ATOM     36  C   UNL A   1      38.240  31.920  31.203  1.00  0.00    -0.014 A 
BRANCH  36  37
ATOM     37  C   UNL A   1      39.672  31.631  30.961  1.00  0.00     0.031 A 
ATOM     38  C   UNL A   1      40.648  32.659  31.440  1.00  0.00     0.074 A 
ATOM     39  C   UNL A   1      40.103  30.566  30.266  1.00  0.00     0.049 A 
ATOM     40  N   UNL A   1      41.925  32.755  31.205  1.00  0.00    -0.248 NA
ATOM     41  C   UNL A   1      40.096  33.740  32.277  1.00  0.00     0.031 C 
ATOM     42  C   UNL A   1      39.256  29.498  29.769  1.00  0.00     0.029 A 
ATOM     43  N   UNL A   1      41.357  30.222  29.829  1.00  0.00    -0.354 N 
ATOM     44  C   UNL A   1      42.328  33.919  31.842  1.00  0.00     0.074 A 
ATOM     45  C   UNL A   1      41.155  34.512  32.443  1.00  0.00     0.031 C 
ATOM     46  C   UNL A   1      39.997  28.609  29.091  1.00  0.00     0.029 A 
ATOM     47  C   UNL A   1      41.374  29.089  29.047  1.00  0.00     0.049 A 
ATOM     48  H   UNL A   1      42.167  30.735  30.053  1.00  0.00     0.167 HD
ATOM     49  C   UNL A   1      43.570  34.441  31.929  1.00  0.00     0.034 A 
ATOM     50  C   UNL A   1      42.376  28.523  28.346  1.00  0.00     0.034 A 
ATOM     51  C   UNL A   1      44.724  33.859  31.305  1.00  0.00     0.049 A 
ATOM     52  C   UNL A   1      43.737  29.162  28.388  1.00  0.00     0.074 A 
ATOM     53  C   UNL A   1      46.029  34.311  31.327  1.00  0.00     0.029 A 
ATOM     54  N   UNL A   1      44.709  32.707  30.531  1.00  0.00    -0.354 N 
ATOM     55  N   UNL A   1      44.121  30.238  29.033  1.00  0.00    -0.248 NA
ATOM     56  C   UNL A   1      44.809  28.498  27.633  1.00  0.00     0.031 C 
ATOM     57  C   UNL A   1      46.797  33.454  30.533  1.00  0.00     0.029 A 
ATOM     58  C   UNL A   1      45.983  32.434  30.066  1.00  0.00     0.049 A 
ATOM     59  H   UNL A   1      43.910  32.164  30.340  1.00  0.00     0.167 HD
ATOM     60  C   UNL A   1      45.487  30.352  28.806  1.00  0.00     0.074 A 
ATOM     61  C   UNL A   1      45.862  29.234  27.964  1.00  0.00     0.031 C 
ATOM     62  C   UNL A   1      46.351  31.295  29.259  1.00  0.00     0.034 A 
BRANCH  49  63
ATOM     63  C   UNL A   1      43.720  35.703  32.732  1.00  0.00     0.023 A 
ATOM     64  C   UNL A   1      43.905  35.627  34.128  1.00  0.00     0.012 A 
ATOM     65  C   UNL A   1      43.679  36.963  32.107  1.00  0.00     0.148 A 
ATOM     66  C   UNL A   1      43.999  36.785  34.896  1.00  0.00     0.002 A 
ATOM     67  C   UNL A   1      43.835  38.112  32.871  1.00  0.00     0.091 A 
ATOM     68  F   UNL A   1      43.466  37.015  30.784  1.00  0.00    -0.205 F 
ATOM     69  C   UNL A   1      43.977  38.026  34.267  1.00  0.00     0.022 A 
BRANCH  67  70
ATOM     70  S   UNL A   1      43.914  39.751  32.145  1.00  0.00     0.127 S 
ATOM     71  O   UNL A   1      45.069  40.324  32.834  1.00  0.00    -0.237 OA
ATOM     72  O   UNL A   1      44.134  39.446  30.732  1.00  0.00    -0.237 OA
ATOM     73  O   UNL A   1      42.635  40.384  32.440  1.00  0.00    -0.744 OA
ENDBRANCH  67  70
ENDBRANCH  49  63
BRANCH  50  74
ATOM     74  C   UNL A   1      42.136  27.256  27.601  1.00  0.00     0.023 A 
ATOM     75  C   UNL A   1      41.554  27.316  26.320  1.00  0.00     0.012 A 
ATOM     76  C   UNL A   1      42.538  26.006  28.114  1.00  0.00     0.148 A 
ATOM     77  C   UNL A   1      41.367  26.155  25.567  1.00  0.00     0.002 A 
ATOM     78  C   UNL A   1      42.396  24.861  27.338  1.00  0.00     0.091 A 
ATOM     79  F   UNL A   1      43.087  25.972  29.337  1.00  0.00    -0.205 F 
ATOM     80  C   UNL A   1      41.798  24.932  26.070  1.00  0.00     0.022 A 
BRANCH  78  81
ATOM     81  S   UNL A   1      43.027  23.257  27.845  1.00  0.00     0.127 S 
ATOM     82  O   UNL A   1      41.969  22.785  28.736  1.00  0.00    -0.237 OA
ATOM     83  O   UNL A   1      43.111  22.555  26.564  1.00  0.00    -0.237 OA
ATOM     84  O   UNL A   1      44.308  23.517  28.485  1.00  0.00    -0.744 OA
ENDBRANCH  78  81
ENDBRANCH  50  74
BRANCH  62  85
ATOM     85  C   UNL A   1      47.810  31.143  28.913  1.00  0.00     0.023 A 
ATOM     86  C   UNL A   1      48.339  31.759  27.762  1.00  0.00     0.012 A 
ATOM     87  C   UNL A   1      48.677  30.462  29.792  1.00  0.00     0.148 A 
ATOM     88  C   UNL A   1      49.701  31.672  27.476  1.00  0.00     0.002 A 
ATOM     89  C   UNL A   1      50.040  30.432  29.533  1.00  0.00     0.091 A 
ATOM     90  F   UNL A   1      48.153  29.866  30.873  1.00  0.00    -0.205 F 
ATOM     91  C   UNL A   1      50.553  31.023  28.367  1.00  0.00     0.022 A 
BRANCH  89  92
ATOM     92  S   UNL A   1      51.224  29.720  30.681  1.00  0.00     0.127 S 
ATOM     93  O   UNL A   1      52.490  29.968  29.995  1.00  0.00    -0.237 OA
ATOM     94  O   UNL A   1      51.011  30.528  31.883  1.00  0.00    -0.237 OA
ATOM     95  O   UNL A   1      50.856  28.318  30.822  1.00  0.00    -0.744 OA
ENDBRANCH  89  92
ENDBRANCH  62  85
ENDBRANCH  36  37
ENDBRANCH  29  31
ENDBRANCH  28  29
ENDBRANCH  27  28
ENDBRANCH  26  27
ENDBRANCH  25  26
ENDBRANCH  24  25
ENDBRANCH   1  24
TORSDOF 24
ENDMDL
