MODEL 1
REMARK VINA RESULT:      -9.4      0.000      0.000
REMARK SMILES COCCNC(=O)NC(=O)C[N@H+]1CC[C@H](C(=O)OCCOCCOCCOC(=O)c2ccc(-c3c4nc(c(-c5cccc(S(=O)(=O)[O-])c5F)c5ccc([nH]5)c(-c5cccc(S(=O)(=O)[O-])c5F)c5nc(c(-c6cccc(S(=O)(=O)[O-])c6F)c6ccc3[nH]6)C=C5)C=C4)cc2)[C@@H]1C
REMARK SMILES IDX 22 1 21 2 20 3 19 4 18 5 16 6 17 7 15 8 12 9 13 10 93 11
REMARK SMILES IDX 14 13 94 14 11 15 9 16 5 17 6 18 7 20 8 21 10 23 4 24 3 25
REMARK SMILES IDX 2 26 1 27 23 28 24 29 25 30 26 31 27 32 28 33 29 34 30 35
REMARK SMILES IDX 31 36 92 37 32 38 91 39 33 40 34 41 35 42 85 43 36 44 90 45
REMARK SMILES IDX 84 46 86 47 37 48 89 49 83 50 82 51 38 53 70 54 50 55 69 56
REMARK SMILES IDX 51 57 54 58 68 59 87 60 52 61 53 62 67 64 88 65 55 66 39 67
REMARK SMILES IDX 40 68 48 69 41 70 43 71 49 72 42 73 44 74 45 75 46 76 47 77
REMARK SMILES IDX 71 78 72 79 80 80 73 81 75 82 81 83 74 84 76 85 77 86 78 87
REMARK SMILES IDX 79 88 56 89 57 90 65 91 58 92 60 93 66 94 59 95 61 96 62 97
REMARK SMILES IDX 63 98 64 99
REMARK H PARENT 12 12 5 19 8 22 86 52 54 63
REMARK Flexibility Score: inf
ROOT
ATOM      1  C   UNL A   1      34.986  31.790  28.027  1.00  0.00     0.188 C 
ENDROOT
BRANCH   1   2
ATOM      2  O   UNL A   1      33.689  31.223  27.869  1.00  0.00    -0.376 OA
BRANCH   2   3
ATOM      3  C   UNL A   1      33.453  30.433  26.709  1.00  0.00     0.202 C 
BRANCH   3   4
ATOM      4  C   UNL A   1      31.985  30.230  26.310  1.00  0.00     0.261 C 
BRANCH   4   5
ATOM      5  O   UNL A   1      31.751  28.881  25.867  1.00  0.00    -0.463 OA
BRANCH   5   6
ATOM      6  C   UNL A   1      31.409  27.975  26.825  1.00  0.00     0.315 C 
ATOM      7  O   UNL A   1      31.379  28.208  28.013  1.00  0.00    -0.252 OA
BRANCH   6   8
ATOM      8  C   UNL A   1      31.064  26.618  26.231  1.00  0.00     0.162 C 
ATOM      9  N   UNL A   1      31.848  24.809  24.874  1.00  0.00    -0.324 N 
ATOM     10  C   UNL A   1      31.185  25.747  23.966  1.00  0.00     0.264 C 
ATOM     11  C   UNL A   1      32.204  25.611  26.063  1.00  0.00     0.195 C 
ATOM     12  H   UNL A   1      32.710  24.408  24.501  1.00  0.00     0.348 HD
ATOM     13  C   UNL A   1      30.391  26.670  24.871  1.00  0.00     0.083 C 
ATOM     14  C   UNL A   1      33.600  26.200  25.833  1.00  0.00     0.076 C 
BRANCH   9  15
ATOM     15  C   UNL A   1      31.068  23.572  25.073  1.00  0.00     0.364 C 
BRANCH  15  16
ATOM     16  C   UNL A   1      31.106  22.895  26.434  1.00  0.00     0.283 C 
ATOM     17  N   UNL A   1      33.764  21.516  25.188  1.00  0.00    -0.335 N 
ATOM     18  C   UNL A   1      33.291  21.734  26.429  1.00  0.00     0.321 C 
ATOM     19  H   UNL A   1      34.738  21.636  25.109  1.00  0.00     0.165 HD
ATOM     20  O   UNL A   1      34.099  21.794  27.353  1.00  0.00    -0.248 OA
ATOM     21  N   UNL A   1      31.961  21.841  26.682  1.00  0.00    -0.273 N 
ATOM     22  H   UNL A   1      31.548  21.052  27.103  1.00  0.00     0.175 HD
ATOM     23  O   UNL A   1      30.351  23.256  27.342  1.00  0.00    -0.268 OA
BRANCH  17  24
ATOM     24  C   UNL A   1      33.118  21.141  23.942  1.00  0.00     0.146 C 
BRANCH  24  25
ATOM     25  C   UNL A   1      32.577  19.701  23.970  1.00  0.00     0.181 C 
BRANCH  25  26
ATOM     26  O   UNL A   1      33.582  18.794  24.435  1.00  0.00    -0.383 OA
ATOM     27  C   UNL A   1      33.236  17.428  24.246  1.00  0.00     0.194 C 
ENDBRANCH  25  26
ENDBRANCH  24  25
ENDBRANCH  17  24
ENDBRANCH  15  16
ENDBRANCH   9  15
ENDBRANCH   6   8
ENDBRANCH   5   6
ENDBRANCH   4   5
ENDBRANCH   3   4
ENDBRANCH   2   3
ENDBRANCH   1   2
BRANCH   1  28
ATOM     28  C   UNL A   1      35.092  33.328  27.980  1.00  0.00     0.188 C 
BRANCH  28  29
ATOM     29  O   UNL A   1      33.883  34.070  27.957  1.00  0.00    -0.376 OA
BRANCH  29  30
ATOM     30  C   UNL A   1      33.968  35.460  28.251  1.00  0.00     0.202 C 
BRANCH  30  31
ATOM     31  C   UNL A   1      33.199  35.971  29.481  1.00  0.00     0.261 C 
BRANCH  31  32
ATOM     32  O   UNL A   1      32.804  34.927  30.404  1.00  0.00    -0.460 OA
BRANCH  32  33
ATOM     33  C   UNL A   1      33.421  34.967  31.614  1.00  0.00     0.338 C 
ATOM     34  O   UNL A   1      32.947  35.409  32.650  1.00  0.00    -0.246 OA
BRANCH  33  35
ATOM     35  C   UNL A   1      34.711  34.243  31.620  1.00  0.00     0.060 A 
ATOM     36  C   UNL A   1      34.719  32.989  32.234  1.00  0.00     0.016 A 
ATOM     37  C   UNL A   1      35.918  34.823  31.235  1.00  0.00     0.016 A 
ATOM     38  C   UNL A   1      35.909  32.298  32.464  1.00  0.00     0.010 A 
ATOM     39  C   UNL A   1      37.124  34.140  31.489  1.00  0.00     0.010 A 
ATOM     40  C   UNL A   1      37.132  32.878  32.123  1.00  0.00    -0.014 A 
BRANCH  40  41
ATOM     41  C   UNL A   1      38.406  32.233  32.559  1.00  0.00     0.031 A 
ATOM     42  C   UNL A   1      39.041  31.183  31.683  1.00  0.00     0.074 A 
ATOM     43  C   UNL A   1      39.033  32.600  33.695  1.00  0.00     0.049 A 
ATOM     44  N   UNL A   1      40.039  30.376  31.938  1.00  0.00    -0.248 NA
ATOM     45  C   UNL A   1      38.475  31.027  30.333  1.00  0.00     0.031 C 
ATOM     46  C   UNL A   1      38.598  33.669  34.593  1.00  0.00     0.029 A 
ATOM     47  N   UNL A   1      40.167  32.101  34.294  1.00  0.00    -0.354 N 
ATOM     48  C   UNL A   1      40.172  29.567  30.814  1.00  0.00     0.074 A 
ATOM     49  C   UNL A   1      39.170  30.000  29.864  1.00  0.00     0.031 C 
ATOM     50  C   UNL A   1      39.442  33.733  35.637  1.00  0.00     0.029 A 
ATOM     51  C   UNL A   1      40.436  32.669  35.519  1.00  0.00     0.049 A 
ATOM     52  H   UNL A   1      40.731  31.406  33.885  1.00  0.00     0.167 HD
ATOM     53  C   UNL A   1      41.048  28.558  30.593  1.00  0.00     0.034 A 
ATOM     54  C   UNL A   1      41.341  32.337  36.463  1.00  0.00     0.034 A 
ATOM     55  C   UNL A   1      42.084  28.167  31.512  1.00  0.00     0.049 A 
ATOM     56  C   UNL A   1      42.270  31.174  36.220  1.00  0.00     0.074 A 
ATOM     57  C   UNL A   1      43.023  27.159  31.375  1.00  0.00     0.029 A 
ATOM     58  N   UNL A   1      42.323  28.769  32.738  1.00  0.00    -0.354 N 
ATOM     59  N   UNL A   1      42.391  30.422  35.154  1.00  0.00    -0.248 NA
ATOM     60  C   UNL A   1      43.192  30.819  37.310  1.00  0.00     0.031 C 
ATOM     61  C   UNL A   1      43.814  27.137  32.528  1.00  0.00     0.029 A 
ATOM     62  C   UNL A   1      43.386  28.149  33.372  1.00  0.00     0.049 A 
ATOM     63  H   UNL A   1      41.812  29.527  33.104  1.00  0.00     0.167 HD
ATOM     64  C   UNL A   1      43.416  29.522  35.433  1.00  0.00     0.074 A 
ATOM     65  C   UNL A   1      43.900  29.842  36.760  1.00  0.00     0.031 C 
ATOM     66  C   UNL A   1      43.898  28.511  34.670  1.00  0.00     0.034 A 
BRANCH  53  67
ATOM     67  C   UNL A   1      40.913  27.787  29.305  1.00  0.00     0.023 A 
ATOM     68  C   UNL A   1      39.923  26.793  29.175  1.00  0.00     0.012 A 
ATOM     69  C   UNL A   1      41.749  28.078  28.208  1.00  0.00     0.148 A 
ATOM     70  C   UNL A   1      39.794  26.073  27.986  1.00  0.00     0.002 A 
ATOM     71  C   UNL A   1      41.586  27.387  27.014  1.00  0.00     0.091 A 
ATOM     72  F   UNL A   1      42.697  29.014  28.358  1.00  0.00    -0.205 F 
ATOM     73  C   UNL A   1      40.618  26.376  26.905  1.00  0.00     0.022 A 
BRANCH  71  74
ATOM     74  S   UNL A   1      42.554  27.752  25.545  1.00  0.00     0.127 S 
ATOM     75  O   UNL A   1      43.880  27.984  26.115  1.00  0.00    -0.237 OA
ATOM     76  O   UNL A   1      42.429  26.512  24.778  1.00  0.00    -0.237 OA
ATOM     77  O   UNL A   1      41.927  28.911  24.928  1.00  0.00    -0.744 OA
ENDBRANCH  71  74
ENDBRANCH  53  67
BRANCH  54  78
ATOM     78  C   UNL A   1      41.402  33.098  37.747  1.00  0.00     0.023 A 
ATOM     79  C   UNL A   1      40.501  32.792  38.785  1.00  0.00     0.012 A 
ATOM     80  C   UNL A   1      42.347  34.125  37.944  1.00  0.00     0.148 A 
ATOM     81  C   UNL A   1      40.524  33.508  39.983  1.00  0.00     0.002 A 
ATOM     82  C   UNL A   1      42.404  34.794  39.161  1.00  0.00     0.091 A 
ATOM     83  F   UNL A   1      43.176  34.428  36.935  1.00  0.00    -0.205 F 
ATOM     84  C   UNL A   1      41.483  34.498  40.177  1.00  0.00     0.022 A 
BRANCH  82  85
ATOM     85  S   UNL A   1      43.682  35.999  39.537  1.00  0.00     0.127 S 
ATOM     86  O   UNL A   1      43.262  37.142  38.732  1.00  0.00    -0.237 OA
ATOM     87  O   UNL A   1      43.523  36.171  40.981  1.00  0.00    -0.237 OA
ATOM     88  O   UNL A   1      44.939  35.375  39.143  1.00  0.00    -0.744 OA
ENDBRANCH  82  85
ENDBRANCH  54  78
BRANCH  66  89
ATOM     89  C   UNL A   1      45.030  27.687  35.227  1.00  0.00     0.023 A 
ATOM     90  C   UNL A   1      46.355  28.148  35.111  1.00  0.00     0.012 A 
ATOM     91  C   UNL A   1      44.773  26.496  35.936  1.00  0.00     0.148 A 
ATOM     92  C   UNL A   1      47.410  27.424  35.665  1.00  0.00     0.002 A 
ATOM     93  C   UNL A   1      45.823  25.804  36.527  1.00  0.00     0.091 A 
ATOM     94  F   UNL A   1      43.506  26.062  36.020  1.00  0.00    -0.205 F 
ATOM     95  C   UNL A   1      47.143  26.260  36.383  1.00  0.00     0.022 A 
BRANCH  93  96
ATOM     96  S   UNL A   1      45.565  24.350  37.550  1.00  0.00     0.127 S 
ATOM     97  O   UNL A   1      44.948  23.424  36.603  1.00  0.00    -0.237 OA
ATOM     98  O   UNL A   1      46.930  24.001  37.944  1.00  0.00    -0.237 OA
ATOM     99  O   UNL A   1      44.712  24.779  38.650  1.00  0.00    -0.744 OA
ENDBRANCH  93  96
ENDBRANCH  66  89
ENDBRANCH  40  41
ENDBRANCH  33  35
ENDBRANCH  32  33
ENDBRANCH  31  32
ENDBRANCH  30  31
ENDBRANCH  29  30
ENDBRANCH  28  29
ENDBRANCH   1  28
TORSDOF 25
ENDMDL
MODEL 2
REMARK VINA RESULT:      -8.8      1.077      7.402
REMARK SMILES COCCNC(=O)NC(=O)C[N@H+]1CC[C@H](C(=O)OCCOCCOCCOC(=O)c2ccc(-c3c4nc(c(-c5cccc(S(=O)(=O)[O-])c5F)c5ccc([nH]5)c(-c5cccc(S(=O)(=O)[O-])c5F)c5nc(c(-c6cccc(S(=O)(=O)[O-])c6F)c6ccc3[nH]6)C=C5)C=C4)cc2)[C@@H]1C
REMARK SMILES IDX 22 1 21 2 20 3 19 4 18 5 16 6 17 7 15 8 12 9 13 10 93 11
REMARK SMILES IDX 14 13 94 14 11 15 9 16 5 17 6 18 7 20 8 21 10 23 4 24 3 25
REMARK SMILES IDX 2 26 1 27 23 28 24 29 25 30 26 31 27 32 28 33 29 34 30 35
REMARK SMILES IDX 31 36 92 37 32 38 91 39 33 40 34 41 35 42 85 43 36 44 90 45
REMARK SMILES IDX 84 46 86 47 37 48 89 49 83 50 82 51 38 53 70 54 50 55 69 56
REMARK SMILES IDX 51 57 54 58 68 59 87 60 52 61 53 62 67 64 88 65 55 66 39 67
REMARK SMILES IDX 40 68 48 69 41 70 43 71 49 72 42 73 44 74 45 75 46 76 47 77
REMARK SMILES IDX 71 78 72 79 80 80 73 81 75 82 81 83 74 84 76 85 77 86 78 87
REMARK SMILES IDX 79 88 56 89 57 90 65 91 58 92 60 93 66 94 59 95 61 96 62 97
REMARK SMILES IDX 63 98 64 99
REMARK H PARENT 12 12 5 19 8 22 86 52 54 63
REMARK Flexibility Score: inf
ROOT
ATOM      1  C   UNL A   1      33.972  30.858  27.837  1.00  0.00     0.188 C 
ENDROOT
BRANCH   1   2
ATOM      2  O   UNL A   1      33.052  30.519  26.804  1.00  0.00    -0.376 OA
BRANCH   2   3
ATOM      3  C   UNL A   1      33.528  29.699  25.742  1.00  0.00     0.202 C 
BRANCH   3   4
ATOM      4  C   UNL A   1      32.522  29.372  24.630  1.00  0.00     0.261 C 
BRANCH   4   5
ATOM      5  O   UNL A   1      32.909  28.184  23.916  1.00  0.00    -0.463 OA
BRANCH   5   6
ATOM      6  C   UNL A   1      31.916  27.301  23.618  1.00  0.00     0.315 C 
ATOM      7  O   UNL A   1      30.961  27.551  22.917  1.00  0.00    -0.252 OA
BRANCH   6   8
ATOM      8  C   UNL A   1      32.139  25.947  24.274  1.00  0.00     0.162 C 
ATOM      9  N   UNL A   1      32.249  24.762  26.351  1.00  0.00    -0.324 N 
ATOM     10  C   UNL A   1      33.609  25.222  26.067  1.00  0.00     0.264 C 
ATOM     11  C   UNL A   1      31.370  25.652  25.563  1.00  0.00     0.195 C 
ATOM     12  H   UNL A   1      31.977  24.846  27.331  1.00  0.00     0.348 HD
ATOM     13  C   UNL A   1      33.586  25.630  24.606  1.00  0.00     0.083 C 
ATOM     14  C   UNL A   1      31.022  26.862  26.438  1.00  0.00     0.076 C 
BRANCH   9  15
ATOM     15  C   UNL A   1      32.100  23.304  26.179  1.00  0.00     0.364 C 
BRANCH  15  16
ATOM     16  C   UNL A   1      32.797  22.376  27.161  1.00  0.00     0.283 C 
ATOM     17  N   UNL A   1      34.079  21.169  24.438  1.00  0.00    -0.335 N 
ATOM     18  C   UNL A   1      34.417  21.161  25.741  1.00  0.00     0.321 C 
ATOM     19  H   UNL A   1      34.848  21.266  23.830  1.00  0.00     0.165 HD
ATOM     20  O   UNL A   1      35.603  21.012  26.029  1.00  0.00    -0.248 OA
ATOM     21  N   UNL A   1      33.487  21.264  26.724  1.00  0.00    -0.273 N 
ATOM     22  H   UNL A   1      33.275  20.425  27.193  1.00  0.00     0.175 HD
ATOM     23  O   UNL A   1      32.739  22.583  28.377  1.00  0.00    -0.268 OA
BRANCH  17  24
ATOM     24  C   UNL A   1      32.802  21.064  23.754  1.00  0.00     0.146 C 
BRANCH  24  25
ATOM     25  C   UNL A   1      32.311  19.610  23.643  1.00  0.00     0.181 C 
BRANCH  25  26
ATOM     26  O   UNL A   1      33.298  18.705  24.149  1.00  0.00    -0.383 OA
ATOM     27  C   UNL A   1      32.776  17.773  25.087  1.00  0.00     0.194 C 
ENDBRANCH  25  26
ENDBRANCH  24  25
ENDBRANCH  17  24
ENDBRANCH  15  16
ENDBRANCH   9  15
ENDBRANCH   6   8
ENDBRANCH   5   6
ENDBRANCH   4   5
ENDBRANCH   3   4
ENDBRANCH   2   3
ENDBRANCH   1   2
BRANCH   1  28
ATOM     28  C   UNL A   1      34.341  32.349  27.990  1.00  0.00     0.188 C 
BRANCH  28  29
ATOM     29  O   UNL A   1      33.297  33.301  27.856  1.00  0.00    -0.376 OA
BRANCH  29  30
ATOM     30  C   UNL A   1      33.675  34.669  27.762  1.00  0.00     0.202 C 
BRANCH  30  31
ATOM     31  C   UNL A   1      32.986  35.660  28.716  1.00  0.00     0.261 C 
BRANCH  31  32
ATOM     32  O   UNL A   1      32.520  35.062  29.950  1.00  0.00    -0.460 OA
BRANCH  32  33
ATOM     33  C   UNL A   1      33.312  35.287  31.031  1.00  0.00     0.338 C 
ATOM     34  O   UNL A   1      33.072  36.054  31.952  1.00  0.00    -0.246 OA
BRANCH  33  35
ATOM     35  C   UNL A   1      34.465  34.362  31.096  1.00  0.00     0.060 A 
ATOM     36  C   UNL A   1      34.275  33.181  31.816  1.00  0.00     0.016 A 
ATOM     37  C   UNL A   1      35.744  34.699  30.659  1.00  0.00     0.016 A 
ATOM     38  C   UNL A   1      35.339  32.324  32.102  1.00  0.00     0.010 A 
ATOM     39  C   UNL A   1      36.825  33.850  30.969  1.00  0.00     0.010 A 
ATOM     40  C   UNL A   1      36.636  32.662  31.708  1.00  0.00    -0.014 A 
BRANCH  40  41
ATOM     41  C   UNL A   1      37.793  31.854  32.195  1.00  0.00     0.031 A 
ATOM     42  C   UNL A   1      38.369  32.134  33.560  1.00  0.00     0.074 A 
ATOM     43  C   UNL A   1      38.308  30.844  31.465  1.00  0.00     0.049 A 
ATOM     44  N   UNL A   1      39.466  31.683  34.111  1.00  0.00    -0.248 NA
ATOM     45  C   UNL A   1      37.596  33.043  34.422  1.00  0.00     0.031 C 
ATOM     46  C   UNL A   1      37.796  30.387  30.174  1.00  0.00     0.029 A 
ATOM     47  N   UNL A   1      39.389  30.027  31.703  1.00  0.00    -0.354 N 
ATOM     48  C   UNL A   1      39.556  32.309  35.350  1.00  0.00     0.074 A 
ATOM     49  C   UNL A   1      38.387  33.151  35.481  1.00  0.00     0.031 C 
ATOM     50  C   UNL A   1      38.572  29.386  29.725  1.00  0.00     0.029 A 
ATOM     51  C   UNL A   1      39.675  29.176  30.660  1.00  0.00     0.049 A 
ATOM     52  H   UNL A   1      39.908  30.050  32.540  1.00  0.00     0.167 HD
ATOM     53  C   UNL A   1      40.523  32.193  36.292  1.00  0.00     0.034 A 
ATOM     54  C   UNL A   1      40.730  28.361  30.452  1.00  0.00     0.034 A 
ATOM     55  C   UNL A   1      41.655  31.310  36.188  1.00  0.00     0.049 A 
ATOM     56  C   UNL A   1      41.823  28.289  31.488  1.00  0.00     0.074 A 
ATOM     57  C   UNL A   1      42.686  31.120  37.092  1.00  0.00     0.029 A 
ATOM     58  N   UNL A   1      41.904  30.465  35.117  1.00  0.00    -0.354 N 
ATOM     59  N   UNL A   1      41.895  28.879  32.656  1.00  0.00    -0.248 NA
ATOM     60  C   UNL A   1      42.979  27.433  31.179  1.00  0.00     0.031 C 
ATOM     61  C   UNL A   1      43.569  30.177  36.558  1.00  0.00     0.029 A 
ATOM     62  C   UNL A   1      43.076  29.759  35.333  1.00  0.00     0.049 A 
ATOM     63  H   UNL A   1      41.332  30.379  34.321  1.00  0.00     0.167 HD
ATOM     64  C   UNL A   1      43.087  28.448  33.231  1.00  0.00     0.074 A 
ATOM     65  C   UNL A   1      43.693  27.526  32.293  1.00  0.00     0.031 C 
ATOM     66  C   UNL A   1      43.641  28.800  34.417  1.00  0.00     0.034 A 
BRANCH  53  67
ATOM     67  C   UNL A   1      40.409  33.060  37.519  1.00  0.00     0.023 A 
ATOM     68  C   UNL A   1      39.661  32.622  38.629  1.00  0.00     0.012 A 
ATOM     69  C   UNL A   1      41.079  34.299  37.581  1.00  0.00     0.148 A 
ATOM     70  C   UNL A   1      39.550  33.422  39.768  1.00  0.00     0.002 A 
ATOM     71  C   UNL A   1      40.998  35.070  38.734  1.00  0.00     0.091 A 
ATOM     72  F   UNL A   1      41.770  34.706  36.506  1.00  0.00    -0.205 F 
ATOM     73  C   UNL A   1      40.224  34.640  39.824  1.00  0.00     0.022 A 
BRANCH  71  74
ATOM     74  S   UNL A   1      41.886  36.620  38.926  1.00  0.00     0.127 S 
ATOM     75  O   UNL A   1      40.787  37.579  39.024  1.00  0.00    -0.237 OA
ATOM     76  O   UNL A   1      42.618  36.403  40.175  1.00  0.00    -0.237 OA
ATOM     77  O   UNL A   1      42.727  36.751  37.746  1.00  0.00    -0.744 OA
ENDBRANCH  71  74
ENDBRANCH  53  67
BRANCH  54  78
ATOM     78  C   UNL A   1      40.826  27.560  29.195  1.00  0.00     0.023 A 
ATOM     79  C   UNL A   1      40.064  26.384  29.056  1.00  0.00     0.012 A 
ATOM     80  C   UNL A   1      41.668  27.957  28.137  1.00  0.00     0.148 A 
ATOM     81  C   UNL A   1      40.157  25.607  27.900  1.00  0.00     0.002 A 
ATOM     82  C   UNL A   1      41.711  27.211  26.965  1.00  0.00     0.091 A 
ATOM     83  F   UNL A   1      42.412  29.061  28.297  1.00  0.00    -0.205 F 
ATOM     84  C   UNL A   1      40.969  26.027  26.849  1.00  0.00     0.022 A 
BRANCH  82  85
ATOM     85  S   UNL A   1      42.638  27.743  25.520  1.00  0.00     0.127 S 
ATOM     86  O   UNL A   1      42.482  26.599  24.626  1.00  0.00    -0.237 OA
ATOM     87  O   UNL A   1      41.908  28.944  25.116  1.00  0.00    -0.237 OA
ATOM     88  O   UNL A   1      43.993  27.997  25.993  1.00  0.00    -0.744 OA
ENDBRANCH  82  85
ENDBRANCH  54  78
BRANCH  66  89
ATOM     89  C   UNL A   1      44.955  28.167  34.796  1.00  0.00     0.023 A 
ATOM     90  C   UNL A   1      46.164  28.799  34.446  1.00  0.00     0.012 A 
ATOM     91  C   UNL A   1      44.990  26.987  35.566  1.00  0.00     0.148 A 
ATOM     92  C   UNL A   1      47.388  28.253  34.831  1.00  0.00     0.002 A 
ATOM     93  C   UNL A   1      46.212  26.474  35.988  1.00  0.00     0.091 A 
ATOM     94  F   UNL A   1      43.829  26.389  35.873  1.00  0.00    -0.205 F 
ATOM     95  C   UNL A   1      47.411  27.099  35.612  1.00  0.00     0.022 A 
BRANCH  93  96
ATOM     96  S   UNL A   1      46.335  25.049  37.075  1.00  0.00     0.127 S 
ATOM     97  O   UNL A   1      47.774  24.793  37.070  1.00  0.00    -0.237 OA
ATOM     98  O   UNL A   1      45.813  25.575  38.337  1.00  0.00    -0.237 OA
ATOM     99  O   UNL A   1      45.513  24.010  36.470  1.00  0.00    -0.744 OA
ENDBRANCH  93  96
ENDBRANCH  66  89
ENDBRANCH  40  41
ENDBRANCH  33  35
ENDBRANCH  32  33
ENDBRANCH  31  32
ENDBRANCH  30  31
ENDBRANCH  29  30
ENDBRANCH  28  29
ENDBRANCH   1  28
TORSDOF 25
ENDMDL
MODEL 3
REMARK VINA RESULT:      -8.5      3.903      9.070
REMARK SMILES COCCNC(=O)NC(=O)C[N@H+]1CC[C@H](C(=O)OCCOCCOCCOC(=O)c2ccc(-c3c4nc(c(-c5cccc(S(=O)(=O)[O-])c5F)c5ccc([nH]5)c(-c5cccc(S(=O)(=O)[O-])c5F)c5nc(c(-c6cccc(S(=O)(=O)[O-])c6F)c6ccc3[nH]6)C=C5)C=C4)cc2)[C@@H]1C
REMARK SMILES IDX 22 1 21 2 20 3 19 4 18 5 16 6 17 7 15 8 12 9 13 10 93 11
REMARK SMILES IDX 14 13 94 14 11 15 9 16 5 17 6 18 7 20 8 21 10 23 4 24 3 25
REMARK SMILES IDX 2 26 1 27 23 28 24 29 25 30 26 31 27 32 28 33 29 34 30 35
REMARK SMILES IDX 31 36 92 37 32 38 91 39 33 40 34 41 35 42 85 43 36 44 90 45
REMARK SMILES IDX 84 46 86 47 37 48 89 49 83 50 82 51 38 53 70 54 50 55 69 56
REMARK SMILES IDX 51 57 54 58 68 59 87 60 52 61 53 62 67 64 88 65 55 66 39 67
REMARK SMILES IDX 40 68 48 69 41 70 43 71 49 72 42 73 44 74 45 75 46 76 47 77
REMARK SMILES IDX 71 78 72 79 80 80 73 81 75 82 81 83 74 84 76 85 77 86 78 87
REMARK SMILES IDX 79 88 56 89 57 90 65 91 58 92 60 93 66 94 59 95 61 96 62 97
REMARK SMILES IDX 63 98 64 99
REMARK H PARENT 12 12 5 19 8 22 86 52 54 63
REMARK Flexibility Score: inf
ROOT
ATOM      1  C   UNL A   1      35.657  30.084  27.486  1.00  0.00     0.188 C 
ENDROOT
BRANCH   1   2
ATOM      2  O   UNL A   1      34.768  29.021  27.153  1.00  0.00    -0.376 OA
BRANCH   2   3
ATOM      3  C   UNL A   1      33.372  29.300  27.174  1.00  0.00     0.202 C 
BRANCH   3   4
ATOM      4  C   UNL A   1      32.448  28.119  27.499  1.00  0.00     0.261 C 
BRANCH   4   5
ATOM      5  O   UNL A   1      31.317  28.089  26.609  1.00  0.00    -0.463 OA
BRANCH   5   6
ATOM      6  C   UNL A   1      31.464  27.372  25.460  1.00  0.00     0.315 C 
ATOM      7  O   UNL A   1      31.683  27.854  24.372  1.00  0.00    -0.252 OA
BRANCH   6   8
ATOM      8  C   UNL A   1      31.320  25.876  25.698  1.00  0.00     0.162 C 
ATOM      9  N   UNL A   1      32.241  23.715  25.239  1.00  0.00    -0.324 N 
ATOM     10  C   UNL A   1      31.265  23.978  24.181  1.00  0.00     0.264 C 
ATOM     11  C   UNL A   1      32.604  25.046  25.769  1.00  0.00     0.195 C 
ATOM     12  H   UNL A   1      33.099  23.267  24.912  1.00  0.00     0.348 HD
ATOM     13  C   UNL A   1      30.448  25.151  24.689  1.00  0.00     0.083 C 
ATOM     14  C   UNL A   1      33.794  25.567  24.956  1.00  0.00     0.076 C 
BRANCH   9  15
ATOM     15  C   UNL A   1      31.776  22.688  26.192  1.00  0.00     0.364 C 
BRANCH  15  16
ATOM     16  C   UNL A   1      32.754  22.151  27.225  1.00  0.00     0.283 C 
ATOM     17  N   UNL A   1      34.044  20.715  24.619  1.00  0.00    -0.335 N 
ATOM     18  C   UNL A   1      34.486  21.045  25.847  1.00  0.00     0.321 C 
ATOM     19  H   UNL A   1      34.713  20.847  23.909  1.00  0.00     0.165 HD
ATOM     20  O   UNL A   1      35.693  21.216  26.000  1.00  0.00    -0.248 OA
ATOM     21  N   UNL A   1      33.646  21.147  26.908  1.00  0.00    -0.273 N 
ATOM     22  H   UNL A   1      33.677  20.396  27.544  1.00  0.00     0.175 HD
ATOM     23  O   UNL A   1      32.754  22.585  28.381  1.00  0.00    -0.268 OA
BRANCH  17  24
ATOM     24  C   UNL A   1      32.773  20.203  24.138  1.00  0.00     0.146 C 
BRANCH  24  25
ATOM     25  C   UNL A   1      32.662  18.675  24.279  1.00  0.00     0.181 C 
BRANCH  25  26
ATOM     26  O   UNL A   1      33.936  18.056  24.071  1.00  0.00    -0.383 OA
ATOM     27  C   UNL A   1      33.846  16.781  23.446  1.00  0.00     0.194 C 
ENDBRANCH  25  26
ENDBRANCH  24  25
ENDBRANCH  17  24
ENDBRANCH  15  16
ENDBRANCH   9  15
ENDBRANCH   6   8
ENDBRANCH   5   6
ENDBRANCH   4   5
ENDBRANCH   3   4
ENDBRANCH   2   3
ENDBRANCH   1   2
BRANCH   1  28
ATOM     28  C   UNL A   1      35.956  30.307  28.983  1.00  0.00     0.188 C 
BRANCH  28  29
ATOM     29  O   UNL A   1      36.165  31.642  29.419  1.00  0.00    -0.376 OA
BRANCH  29  30
ATOM     30  C   UNL A   1      35.444  32.069  30.569  1.00  0.00     0.202 C 
BRANCH  30  31
ATOM     31  C   UNL A   1      36.206  32.119  31.904  1.00  0.00     0.261 C 
BRANCH  31  32
ATOM     32  O   UNL A   1      36.713  30.834  32.341  1.00  0.00    -0.460 OA
BRANCH  32  33
ATOM     33  C   UNL A   1      37.652  30.891  33.321  1.00  0.00     0.338 C 
ATOM     34  O   UNL A   1      37.471  31.271  34.469  1.00  0.00    -0.246 OA
BRANCH  33  35
ATOM     35  C   UNL A   1      38.932  30.268  32.922  1.00  0.00     0.060 A 
ATOM     36  C   UNL A   1      38.986  28.873  32.963  1.00  0.00     0.016 A 
ATOM     37  C   UNL A   1      40.105  30.991  32.711  1.00  0.00     0.016 A 
ATOM     38  C   UNL A   1      40.188  28.185  32.788  1.00  0.00     0.010 A 
ATOM     39  C   UNL A   1      41.324  30.301  32.561  1.00  0.00     0.010 A 
ATOM     40  C   UNL A   1      41.380  28.891  32.616  1.00  0.00    -0.014 A 
BRANCH  40  41
ATOM     41  C   UNL A   1      42.683  28.163  32.641  1.00  0.00     0.031 A 
ATOM     42  C   UNL A   1      43.309  27.812  33.967  1.00  0.00     0.074 A 
ATOM     43  C   UNL A   1      43.294  27.766  31.506  1.00  0.00     0.049 A 
ATOM     44  N   UNL A   1      44.502  27.344  34.228  1.00  0.00    -0.248 NA
ATOM     45  C   UNL A   1      42.471  28.012  35.160  1.00  0.00     0.031 C 
ATOM     46  C   UNL A   1      42.765  27.942  30.154  1.00  0.00     0.029 A 
ATOM     47  N   UNL A   1      44.505  27.144  31.311  1.00  0.00    -0.354 N 
ATOM     48  C   UNL A   1      44.586  27.263  35.614  1.00  0.00     0.074 A 
ATOM     49  C   UNL A   1      43.312  27.706  36.137  1.00  0.00     0.031 C 
ATOM     50  C   UNL A   1      43.652  27.457  29.270  1.00  0.00     0.029 A 
ATOM     51  C   UNL A   1      44.842  27.000  29.985  1.00  0.00     0.049 A 
ATOM     52  H   UNL A   1      45.076  26.831  32.051  1.00  0.00     0.167 HD
ATOM     53  C   UNL A   1      45.627  26.858  36.380  1.00  0.00     0.034 A 
ATOM     54  C   UNL A   1      45.994  26.599  29.407  1.00  0.00     0.034 A 
ATOM     55  C   UNL A   1      46.873  26.361  35.858  1.00  0.00     0.049 A 
ATOM     56  C   UNL A   1      47.159  26.205  30.279  1.00  0.00     0.074 A 
ATOM     57  C   UNL A   1      47.986  25.923  36.556  1.00  0.00     0.029 A 
ATOM     58  N   UNL A   1      47.170  26.229  34.511  1.00  0.00    -0.354 N 
ATOM     59  N   UNL A   1      47.225  26.127  31.585  1.00  0.00    -0.248 NA
ATOM     60  C   UNL A   1      48.409  25.837  29.594  1.00  0.00     0.031 C 
ATOM     61  C   UNL A   1      48.964  25.548  35.629  1.00  0.00     0.029 A 
ATOM     62  C   UNL A   1      48.451  25.727  34.354  1.00  0.00     0.049 A 
ATOM     63  H   UNL A   1      46.560  26.459  33.773  1.00  0.00     0.167 HD
ATOM     64  C   UNL A   1      48.511  25.680  31.879  1.00  0.00     0.074 A 
ATOM     65  C   UNL A   1      49.181  25.478  30.611  1.00  0.00     0.031 C 
ATOM     66  C   UNL A   1      49.090  25.476  33.087  1.00  0.00     0.034 A 
BRANCH  53  67
ATOM     67  C   UNL A   1      45.471  26.954  37.876  1.00  0.00     0.023 A 
ATOM     68  C   UNL A   1      45.043  25.834  38.616  1.00  0.00     0.012 A 
ATOM     69  C   UNL A   1      45.786  28.150  38.551  1.00  0.00     0.148 A 
ATOM     70  C   UNL A   1      44.894  25.916  40.002  1.00  0.00     0.002 A 
ATOM     71  C   UNL A   1      45.677  28.211  39.935  1.00  0.00     0.091 A 
ATOM     72  F   UNL A   1      46.174  29.210  37.826  1.00  0.00    -0.205 F 
ATOM     73  C   UNL A   1      45.218  27.100  40.661  1.00  0.00     0.022 A 
BRANCH  71  74
ATOM     74  S   UNL A   1      46.136  29.669  40.879  1.00  0.00     0.127 S 
ATOM     75  O   UNL A   1      45.897  29.221  42.250  1.00  0.00    -0.237 OA
ATOM     76  O   UNL A   1      47.548  29.830  40.528  1.00  0.00    -0.237 OA
ATOM     77  O   UNL A   1      45.270  30.741  40.411  1.00  0.00    -0.744 OA
ENDBRANCH  71  74
ENDBRANCH  53  67
BRANCH  54  78
ATOM     78  C   UNL A   1      46.119  26.572  27.919  1.00  0.00     0.023 A 
ATOM     79  C   UNL A   1      46.392  27.762  27.219  1.00  0.00     0.012 A 
ATOM     80  C   UNL A   1      45.967  25.372  27.194  1.00  0.00     0.148 A 
ATOM     81  C   UNL A   1      46.489  27.763  25.825  1.00  0.00     0.002 A 
ATOM     82  C   UNL A   1      46.123  25.370  25.813  1.00  0.00     0.091 A 
ATOM     83  F   UNL A   1      45.674  24.253  27.872  1.00  0.00    -0.205 F 
ATOM     84  C   UNL A   1      46.368  26.567  25.124  1.00  0.00     0.022 A 
BRANCH  82  85
ATOM     85  S   UNL A   1      46.101  23.856  24.845  1.00  0.00     0.127 S 
ATOM     86  O   UNL A   1      44.746  23.866  24.303  1.00  0.00    -0.237 OA
ATOM     87  O   UNL A   1      47.158  24.106  23.865  1.00  0.00    -0.237 OA
ATOM     88  O   UNL A   1      46.398  22.783  25.787  1.00  0.00    -0.744 OA
ENDBRANCH  82  85
ENDBRANCH  54  78
BRANCH  66  89
ATOM     89  C   UNL A   1      50.512  24.978  33.110  1.00  0.00     0.023 A 
ATOM     90  C   UNL A   1      51.577  25.899  33.150  1.00  0.00     0.012 A 
ATOM     91  C   UNL A   1      50.790  23.598  33.172  1.00  0.00     0.148 A 
ATOM     92  C   UNL A   1      52.897  25.456  33.222  1.00  0.00     0.002 A 
ATOM     93  C   UNL A   1      52.105  23.163  33.292  1.00  0.00     0.091 A 
ATOM     94  F   UNL A   1      49.764  22.735  33.113  1.00  0.00    -0.205 F 
ATOM     95  C   UNL A   1      53.160  24.089  33.307  1.00  0.00     0.022 A 
BRANCH  93  96
ATOM     96  S   UNL A   1      52.533  21.431  33.504  1.00  0.00     0.127 S 
ATOM     97  O   UNL A   1      51.815  20.809  32.392  1.00  0.00    -0.237 OA
ATOM     98  O   UNL A   1      53.988  21.450  33.356  1.00  0.00    -0.237 OA
ATOM     99  O   UNL A   1      52.067  21.061  34.833  1.00  0.00    -0.744 OA
ENDBRANCH  93  96
ENDBRANCH  66  89
ENDBRANCH  40  41
ENDBRANCH  33  35
ENDBRANCH  32  33
ENDBRANCH  31  32
ENDBRANCH  30  31
ENDBRANCH  29  30
ENDBRANCH  28  29
ENDBRANCH   1  28
TORSDOF 25
ENDMDL
