MODEL 1
REMARK VINA RESULT:      -7.7      0.000      0.000
REMARK SMILES CCOc1ccc2nc(S[C@@H](C(=O)OCCOCCOCCOC(=O)c3ccc(-c4c5nc(c(-c6cccc(S(=O)(=O)[O-])c6F)c6ccc([nH]6)c(-c6cccc(S(=O)(=O)[O-])c6F)c6nc(c(-c7cccc(S(=O)(=O)[O-])c7F)c7ccc4[nH]7)C=C6)C=C5)cc3)c3ccccc3)[nH]c2c1
REMARK SMILES IDX 18 1 17 2 16 3 15 4 14 5 12 6 13 7 11 8 10 9 9 10 4 11 5 12
REMARK SMILES IDX 97 13 6 14 96 15 7 16 95 17 8 18 3 20 2 21 1 22 89 23 90 24
REMARK SMILES IDX 94 25 91 26 93 27 92 28 19 29 20 30 21 31 22 32 23 33 24 34
REMARK SMILES IDX 25 35 26 36 27 37 88 38 28 39 87 40 29 41 30 42 31 43 81 44
REMARK SMILES IDX 32 45 86 46 80 47 82 48 33 49 85 50 79 51 78 52 34 54 66 55
REMARK SMILES IDX 46 56 65 57 47 58 50 59 64 60 83 61 48 62 49 63 63 65 84 66
REMARK SMILES IDX 51 67 35 68 36 69 44 70 37 71 39 72 45 73 38 74 40 75 41 76
REMARK SMILES IDX 42 77 43 78 67 79 68 80 76 81 69 82 71 83 77 84 70 85 72 86
REMARK SMILES IDX 73 87 74 88 75 89 52 90 53 91 61 92 54 93 56 94 62 95 55 96
REMARK SMILES IDX 57 97 58 98 59 99 60 100
REMARK H PARENT 95 19 82 53 50 64
REMARK Flexibility Score: inf
ROOT
ATOM      1  C   UNL A   1      48.090  39.733  30.123  1.00  0.00     0.188 C 
ENDROOT
BRANCH   1   2
ATOM      2  O   UNL A   1      47.565  39.523  28.814  1.00  0.00    -0.376 OA
BRANCH   2   3
ATOM      3  C   UNL A   1      47.197  40.672  28.060  1.00  0.00     0.202 C 
BRANCH   3   4
ATOM      4  C   UNL A   1      45.793  41.204  28.356  1.00  0.00     0.261 C 
BRANCH   4   5
ATOM      5  O   UNL A   1      44.951  40.176  28.921  1.00  0.00    -0.462 OA
BRANCH   5   6
ATOM      6  C   UNL A   1      43.617  40.314  28.716  1.00  0.00     0.324 C 
ATOM      7  O   UNL A   1      42.923  41.084  29.376  1.00  0.00    -0.251 OA
BRANCH   6   8
ATOM      8  C   UNL A   1      43.079  39.530  27.502  1.00  0.00     0.194 C 
BRANCH   8   9
ATOM      9  S   UNL A   1      41.744  40.382  26.621  1.00  0.00    -0.068 SA
BRANCH   9  10
ATOM     10  C   UNL A   1      42.200  41.384  25.284  1.00  0.00     0.167 A 
ATOM     11  C   UNL A   1      43.914  43.824  21.869  1.00  0.00     0.121 A 
ATOM     12  C   UNL A   1      42.710  43.431  21.291  1.00  0.00     0.049 A 
ATOM     13  C   UNL A   1      44.168  43.610  23.230  1.00  0.00     0.074 A 
ATOM     14  C   UNL A   1      41.750  42.739  22.050  1.00  0.00     0.034 A 
ATOM     15  C   UNL A   1      43.263  42.796  23.925  1.00  0.00     0.070 A 
ATOM     16  C   UNL A   1      42.074  42.352  23.363  1.00  0.00     0.090 A 
ATOM     17  N   UNL A   1      43.307  42.180  25.161  1.00  0.00    -0.333 N 
ATOM     18  N   UNL A   1      41.415  41.519  24.234  1.00  0.00    -0.223 NA
ATOM     19  H   UNL A   1      44.013  42.295  25.838  1.00  0.00     0.169 HD
BRANCH  11  20
ATOM     20  O   UNL A   1      44.999  44.073  21.069  1.00  0.00    -0.494 OA
BRANCH  20  21
ATOM     21  C   UNL A   1      44.970  45.252  20.272  1.00  0.00     0.226 C 
ATOM     22  C   UNL A   1      45.124  44.939  18.796  1.00  0.00     0.049 C 
ENDBRANCH  20  21
ENDBRANCH  11  20
ENDBRANCH   9  10
ENDBRANCH   8   9
BRANCH   8  23
ATOM     23  C   UNL A   1      43.061  38.016  27.658  1.00  0.00    -0.023 A 
ATOM     24  C   UNL A   1      41.869  37.358  28.017  1.00  0.00     0.005 A 
ATOM     25  C   UNL A   1      44.158  37.212  27.294  1.00  0.00     0.005 A 
ATOM     26  C   UNL A   1      41.803  35.965  28.092  1.00  0.00     0.000 A 
ATOM     27  C   UNL A   1      44.078  35.818  27.329  1.00  0.00     0.000 A 
ATOM     28  C   UNL A   1      42.906  35.194  27.743  1.00  0.00     0.000 A 
ENDBRANCH   8  23
ENDBRANCH   6   8
ENDBRANCH   5   6
ENDBRANCH   4   5
ENDBRANCH   3   4
ENDBRANCH   2   3
ENDBRANCH   1   2
BRANCH   1  29
ATOM     29  C   UNL A   1      48.490  41.167  30.520  1.00  0.00     0.188 C 
BRANCH  29  30
ATOM     30  O   UNL A   1      47.476  41.844  31.254  1.00  0.00    -0.376 OA
BRANCH  30  31
ATOM     31  C   UNL A   1      46.900  41.050  32.284  1.00  0.00     0.202 C 
BRANCH  31  32
ATOM     32  C   UNL A   1      45.382  41.212  32.303  1.00  0.00     0.261 C 
BRANCH  32  33
ATOM     33  O   UNL A   1      44.794  40.338  33.290  1.00  0.00    -0.460 OA
BRANCH  33  34
ATOM     34  C   UNL A   1      43.590  39.803  33.002  1.00  0.00     0.338 C 
ATOM     35  O   UNL A   1      42.520  40.381  33.063  1.00  0.00    -0.246 OA
BRANCH  34  36
ATOM     36  C   UNL A   1      43.750  38.367  32.644  1.00  0.00     0.060 A 
ATOM     37  C   UNL A   1      44.064  37.938  31.348  1.00  0.00     0.016 A 
ATOM     38  C   UNL A   1      43.458  37.416  33.620  1.00  0.00     0.016 A 
ATOM     39  C   UNL A   1      43.983  36.582  31.005  1.00  0.00     0.010 A 
ATOM     40  C   UNL A   1      43.436  36.057  33.290  1.00  0.00     0.010 A 
ATOM     41  C   UNL A   1      43.647  35.627  31.969  1.00  0.00    -0.014 A 
BRANCH  41  42
ATOM     42  C   UNL A   1      43.433  34.192  31.622  1.00  0.00     0.031 A 
ATOM     43  C   UNL A   1      44.604  33.343  31.197  1.00  0.00     0.074 A 
ATOM     44  C   UNL A   1      42.204  33.645  31.635  1.00  0.00     0.049 A 
ATOM     45  N   UNL A   1      44.628  32.223  30.526  1.00  0.00    -0.248 NA
ATOM     46  C   UNL A   1      45.933  33.836  31.584  1.00  0.00     0.031 C 
ATOM     47  C   UNL A   1      40.983  34.304  32.091  1.00  0.00     0.029 A 
ATOM     48  N   UNL A   1      41.780  32.410  31.202  1.00  0.00    -0.354 N 
ATOM     49  C   UNL A   1      45.974  31.930  30.323  1.00  0.00     0.074 A 
ATOM     50  C   UNL A   1      46.736  32.972  30.979  1.00  0.00     0.031 C 
ATOM     51  C   UNL A   1      39.941  33.486  31.886  1.00  0.00     0.029 A 
ATOM     52  C   UNL A   1      40.409  32.287  31.196  1.00  0.00     0.049 A 
ATOM     53  H   UNL A   1      42.391  31.690  30.927  1.00  0.00     0.167 HD
ATOM     54  C   UNL A   1      46.520  30.889  29.651  1.00  0.00     0.034 A 
ATOM     55  C   UNL A   1      39.612  31.363  30.625  1.00  0.00     0.034 A 
ATOM     56  C   UNL A   1      45.753  29.811  29.084  1.00  0.00     0.049 A 
ATOM     57  C   UNL A   1      40.228  30.224  29.863  1.00  0.00     0.074 A 
ATOM     58  C   UNL A   1      46.208  28.693  28.406  1.00  0.00     0.029 A 
ATOM     59  N   UNL A   1      44.374  29.706  29.147  1.00  0.00    -0.354 N 
ATOM     60  N   UNL A   1      41.494  29.961  29.653  1.00  0.00    -0.248 NA
ATOM     61  C   UNL A   1      39.304  29.248  29.266  1.00  0.00     0.031 C 
ATOM     62  C   UNL A   1      45.100  27.913  28.058  1.00  0.00     0.029 A 
ATOM     63  C   UNL A   1      43.959  28.540  28.529  1.00  0.00     0.049 A 
ATOM     64  H   UNL A   1      43.777  30.365  29.569  1.00  0.00     0.167 HD
ATOM     65  C   UNL A   1      41.523  28.783  28.915  1.00  0.00     0.074 A 
ATOM     66  C   UNL A   1      40.146  28.368  28.739  1.00  0.00     0.031 C 
ATOM     67  C   UNL A   1      42.588  28.116  28.409  1.00  0.00     0.034 A 
BRANCH  54  68
ATOM     68  C   UNL A   1      48.018  30.842  29.496  1.00  0.00     0.023 A 
ATOM     69  C   UNL A   1      48.772  29.900  30.221  1.00  0.00     0.012 A 
ATOM     70  C   UNL A   1      48.666  31.673  28.559  1.00  0.00     0.148 A 
ATOM     71  C   UNL A   1      50.151  29.796  30.028  1.00  0.00     0.002 A 
ATOM     72  C   UNL A   1      50.032  31.535  28.343  1.00  0.00     0.091 A 
ATOM     73  F   UNL A   1      47.935  32.581  27.896  1.00  0.00    -0.205 F 
ATOM     74  C   UNL A   1      50.777  30.602  29.081  1.00  0.00     0.022 A 
BRANCH  72  75
ATOM     75  S   UNL A   1      50.910  32.475  27.087  1.00  0.00     0.127 S 
ATOM     76  O   UNL A   1      50.820  33.833  27.620  1.00  0.00    -0.237 OA
ATOM     77  O   UNL A   1      52.249  31.887  27.140  1.00  0.00    -0.237 OA
ATOM     78  O   UNL A   1      50.195  32.239  25.841  1.00  0.00    -0.744 OA
ENDBRANCH  72  75
ENDBRANCH  54  68
BRANCH  55  79
ATOM     79  C   UNL A   1      38.135  31.514  30.737  1.00  0.00     0.023 A 
ATOM     80  C   UNL A   1      37.487  31.154  31.933  1.00  0.00     0.012 A 
ATOM     81  C   UNL A   1      37.383  32.089  29.692  1.00  0.00     0.148 A 
ATOM     82  C   UNL A   1      36.116  31.361  32.086  1.00  0.00     0.002 A 
ATOM     83  C   UNL A   1      36.032  32.358  29.879  1.00  0.00     0.091 A 
ATOM     84  F   UNL A   1      38.011  32.396  28.549  1.00  0.00    -0.205 F 
ATOM     85  C   UNL A   1      35.394  31.981  31.069  1.00  0.00     0.022 A 
BRANCH  83  86
ATOM     86  S   UNL A   1      35.085  33.316  28.690  1.00  0.00     0.127 S 
ATOM     87  O   UNL A   1      33.920  32.462  28.478  1.00  0.00    -0.237 OA
ATOM     88  O   UNL A   1      34.821  34.549  29.434  1.00  0.00    -0.237 OA
ATOM     89  O   UNL A   1      35.969  33.491  27.546  1.00  0.00    -0.744 OA
ENDBRANCH  83  86
ENDBRANCH  55  79
BRANCH  67  90
ATOM     90  C   UNL A   1      42.316  26.851  27.642  1.00  0.00     0.023 A 
ATOM     91  C   UNL A   1      41.973  26.925  26.278  1.00  0.00     0.012 A 
ATOM     92  C   UNL A   1      42.464  25.591  28.253  1.00  0.00     0.148 A 
ATOM     93  C   UNL A   1      41.755  25.763  25.540  1.00  0.00     0.002 A 
ATOM     94  C   UNL A   1      42.283  24.437  27.502  1.00  0.00     0.091 A 
ATOM     95  F   UNL A   1      42.771  25.543  29.558  1.00  0.00    -0.205 F 
ATOM     96  C   UNL A   1      41.919  24.520  26.148  1.00  0.00     0.022 A 
BRANCH  94  97
ATOM     97  S   UNL A   1      42.555  22.798  28.186  1.00  0.00     0.127 S 
ATOM     98  O   UNL A   1      41.186  22.338  28.412  1.00  0.00    -0.237 OA
ATOM     99  O   UNL A   1      43.256  22.115  27.098  1.00  0.00    -0.237 OA
ATOM    100  O   UNL A   1      43.358  22.998  29.385  1.00  0.00    -0.744 OA
ENDBRANCH  94  97
ENDBRANCH  67  90
ENDBRANCH  41  42
ENDBRANCH  34  36
ENDBRANCH  33  34
ENDBRANCH  32  33
ENDBRANCH  31  32
ENDBRANCH  30  31
ENDBRANCH  29  30
ENDBRANCH   1  29
TORSDOF 25
ENDMDL
MODEL 2
REMARK VINA RESULT:      -7.3      8.354     16.378
REMARK SMILES CCOc1ccc2nc(S[C@@H](C(=O)OCCOCCOCCOC(=O)c3ccc(-c4c5nc(c(-c6cccc(S(=O)(=O)[O-])c6F)c6ccc([nH]6)c(-c6cccc(S(=O)(=O)[O-])c6F)c6nc(c(-c7cccc(S(=O)(=O)[O-])c7F)c7ccc4[nH]7)C=C6)C=C5)cc3)c3ccccc3)[nH]c2c1
REMARK SMILES IDX 18 1 17 2 16 3 15 4 14 5 12 6 13 7 11 8 10 9 9 10 4 11 5 12
REMARK SMILES IDX 97 13 6 14 96 15 7 16 95 17 8 18 3 20 2 21 1 22 89 23 90 24
REMARK SMILES IDX 94 25 91 26 93 27 92 28 19 29 20 30 21 31 22 32 23 33 24 34
REMARK SMILES IDX 25 35 26 36 27 37 88 38 28 39 87 40 29 41 30 42 31 43 81 44
REMARK SMILES IDX 32 45 86 46 80 47 82 48 33 49 85 50 79 51 78 52 34 54 66 55
REMARK SMILES IDX 46 56 65 57 47 58 50 59 64 60 83 61 48 62 49 63 63 65 84 66
REMARK SMILES IDX 51 67 35 68 36 69 44 70 37 71 39 72 45 73 38 74 40 75 41 76
REMARK SMILES IDX 42 77 43 78 67 79 68 80 76 81 69 82 71 83 77 84 70 85 72 86
REMARK SMILES IDX 73 87 74 88 75 89 52 90 53 91 61 92 54 93 56 94 62 95 55 96
REMARK SMILES IDX 57 97 58 98 59 99 60 100
REMARK H PARENT 95 19 82 53 50 64
REMARK Flexibility Score: inf
ROOT
ATOM      1  C   UNL A   1      53.741  24.648  35.836  1.00  0.00     0.188 C 
ENDROOT
BRANCH   1   2
ATOM      2  O   UNL A   1      53.546  23.295  36.244  1.00  0.00    -0.376 OA
BRANCH   2   3
ATOM      3  C   UNL A   1      52.382  22.998  37.004  1.00  0.00     0.202 C 
BRANCH   3   4
ATOM      4  C   UNL A   1      51.819  21.591  36.783  1.00  0.00     0.261 C 
BRANCH   4   5
ATOM      5  O   UNL A   1      50.590  21.397  37.515  1.00  0.00    -0.462 OA
BRANCH   5   6
ATOM      6  C   UNL A   1      49.807  20.367  37.109  1.00  0.00     0.324 C 
ATOM      7  O   UNL A   1      49.771  19.983  35.943  1.00  0.00    -0.251 OA
BRANCH   6   8
ATOM      8  C   UNL A   1      49.077  19.637  38.256  1.00  0.00     0.194 C 
BRANCH   8   9
ATOM      9  S   UNL A   1      47.305  20.007  38.340  1.00  0.00    -0.068 SA
BRANCH   9  10
ATOM     10  C   UNL A   1      46.264  18.735  38.884  1.00  0.00     0.167 A 
ATOM     11  C   UNL A   1      43.481  15.699  40.779  1.00  0.00     0.121 A 
ATOM     12  C   UNL A   1      43.010  15.657  39.469  1.00  0.00     0.049 A 
ATOM     13  C   UNL A   1      44.662  16.378  41.103  1.00  0.00     0.074 A 
ATOM     14  C   UNL A   1      43.677  16.364  38.453  1.00  0.00     0.034 A 
ATOM     15  C   UNL A   1      45.224  17.188  40.107  1.00  0.00     0.070 A 
ATOM     16  C   UNL A   1      44.752  17.201  38.802  1.00  0.00     0.090 A 
ATOM     17  N   UNL A   1      46.204  18.161  40.126  1.00  0.00    -0.333 N 
ATOM     18  N   UNL A   1      45.435  18.130  38.055  1.00  0.00    -0.223 NA
ATOM     19  H   UNL A   1      46.766  18.400  40.899  1.00  0.00     0.169 HD
BRANCH  11  20
ATOM     20  O   UNL A   1      42.627  15.415  41.813  1.00  0.00    -0.494 OA
BRANCH  20  21
ATOM     21  C   UNL A   1      42.252  14.054  42.000  1.00  0.00     0.226 C 
ATOM     22  C   UNL A   1      41.554  13.489  40.777  1.00  0.00     0.049 C 
ENDBRANCH  20  21
ENDBRANCH  11  20
ENDBRANCH   9  10
ENDBRANCH   8   9
BRANCH   8  23
ATOM     23  C   UNL A   1      49.890  19.446  39.529  1.00  0.00    -0.023 A 
ATOM     24  C   UNL A   1      50.702  18.306  39.682  1.00  0.00     0.005 A 
ATOM     25  C   UNL A   1      49.997  20.452  40.508  1.00  0.00     0.005 A 
ATOM     26  C   UNL A   1      51.518  18.142  40.804  1.00  0.00     0.000 A 
ATOM     27  C   UNL A   1      50.846  20.306  41.608  1.00  0.00     0.000 A 
ATOM     28  C   UNL A   1      51.594  19.144  41.765  1.00  0.00     0.000 A 
ENDBRANCH   8  23
ENDBRANCH   6   8
ENDBRANCH   5   6
ENDBRANCH   4   5
ENDBRANCH   3   4
ENDBRANCH   2   3
ENDBRANCH   1   2
BRANCH   1  29
ATOM     29  C   UNL A   1      52.585  25.354  35.102  1.00  0.00     0.188 C 
BRANCH  29  30
ATOM     30  O   UNL A   1      53.014  26.478  34.342  1.00  0.00    -0.376 OA
BRANCH  30  31
ATOM     31  C   UNL A   1      51.994  27.021  33.512  1.00  0.00     0.202 C 
BRANCH  31  32
ATOM     32  C   UNL A   1      50.672  26.290  33.736  1.00  0.00     0.261 C 
BRANCH  32  33
ATOM     33  O   UNL A   1      49.584  27.233  33.828  1.00  0.00    -0.460 OA
BRANCH  33  34
ATOM     34  C   UNL A   1      48.889  27.264  34.984  1.00  0.00     0.338 C 
ATOM     35  O   UNL A   1      49.317  26.960  36.082  1.00  0.00    -0.246 OA
BRANCH  34  36
ATOM     36  C   UNL A   1      47.484  27.679  34.715  1.00  0.00     0.060 A 
ATOM     37  C   UNL A   1      46.385  27.102  35.363  1.00  0.00     0.016 A 
ATOM     38  C   UNL A   1      47.261  28.599  33.692  1.00  0.00     0.016 A 
ATOM     39  C   UNL A   1      45.080  27.359  34.923  1.00  0.00     0.010 A 
ATOM     40  C   UNL A   1      45.956  28.901  33.293  1.00  0.00     0.010 A 
ATOM     41  C   UNL A   1      44.851  28.247  33.866  1.00  0.00    -0.014 A 
BRANCH  41  42
ATOM     42  C   UNL A   1      43.493  28.457  33.288  1.00  0.00     0.031 A 
ATOM     43  C   UNL A   1      43.189  27.966  31.896  1.00  0.00     0.074 A 
ATOM     44  C   UNL A   1      42.538  29.118  33.967  1.00  0.00     0.049 A 
ATOM     45  N   UNL A   1      42.248  28.327  31.066  1.00  0.00    -0.248 NA
ATOM     46  C   UNL A   1      44.081  26.922  31.370  1.00  0.00     0.031 C 
ATOM     47  C   UNL A   1      42.644  29.589  35.346  1.00  0.00     0.029 A 
ATOM     48  N   UNL A   1      41.297  29.549  33.557  1.00  0.00    -0.354 N 
ATOM     49  C   UNL A   1      42.494  27.631  29.885  1.00  0.00     0.074 A 
ATOM     50  C   UNL A   1      43.651  26.794  30.122  1.00  0.00     0.031 C 
ATOM     51  C   UNL A   1      41.534  30.273  35.662  1.00  0.00     0.029 A 
ATOM     52  C   UNL A   1      40.685  30.369  34.477  1.00  0.00     0.049 A 
ATOM     53  H   UNL A   1      40.891  29.298  32.697  1.00  0.00     0.167 HD
ATOM     54  C   UNL A   1      41.815  27.687  28.715  1.00  0.00     0.034 A 
ATOM     55  C   UNL A   1      39.613  31.177  34.360  1.00  0.00     0.034 A 
ATOM     56  C   UNL A   1      40.611  28.452  28.522  1.00  0.00     0.049 A 
ATOM     57  C   UNL A   1      38.881  31.247  33.049  1.00  0.00     0.074 A 
ATOM     58  C   UNL A   1      39.830  28.557  27.384  1.00  0.00     0.029 A 
ATOM     59  N   UNL A   1      40.004  29.225  29.497  1.00  0.00    -0.354 N 
ATOM     60  N   UNL A   1      39.126  30.608  31.932  1.00  0.00    -0.248 NA
ATOM     61  C   UNL A   1      37.718  32.144  32.987  1.00  0.00     0.031 C 
ATOM     62  C   UNL A   1      38.749  29.398  27.674  1.00  0.00     0.029 A 
ATOM     63  C   UNL A   1      38.853  29.804  28.993  1.00  0.00     0.049 A 
ATOM     64  H   UNL A   1      40.342  29.344  30.414  1.00  0.00     0.167 HD
ATOM     65  C   UNL A   1      38.141  31.012  31.038  1.00  0.00     0.074 A 
ATOM     66  C   UNL A   1      37.278  31.929  31.753  1.00  0.00     0.031 C 
ATOM     67  C   UNL A   1      37.977  30.673  29.735  1.00  0.00     0.034 A 
BRANCH  54  68
ATOM     68  C   UNL A   1      42.337  26.894  27.545  1.00  0.00     0.023 A 
ATOM     69  C   UNL A   1      43.018  27.545  26.499  1.00  0.00     0.012 A 
ATOM     70  C   UNL A   1      42.232  25.487  27.531  1.00  0.00     0.148 A 
ATOM     71  C   UNL A   1      43.573  26.811  25.448  1.00  0.00     0.002 A 
ATOM     72  C   UNL A   1      42.822  24.761  26.503  1.00  0.00     0.091 A 
ATOM     73  F   UNL A   1      41.559  24.887  28.523  1.00  0.00    -0.205 F 
ATOM     74  C   UNL A   1      43.487  25.422  25.458  1.00  0.00     0.022 A 
BRANCH  72  75
ATOM     75  S   UNL A   1      42.831  22.964  26.473  1.00  0.00     0.127 S 
ATOM     76  O   UNL A   1      42.667  22.693  25.046  1.00  0.00    -0.237 OA
ATOM     77  O   UNL A   1      44.159  22.651  27.003  1.00  0.00    -0.237 OA
ATOM     78  O   UNL A   1      41.726  22.546  27.324  1.00  0.00    -0.744 OA
ENDBRANCH  72  75
ENDBRANCH  54  68
BRANCH  55  79
ATOM     79  C   UNL A   1      39.199  32.004  35.526  1.00  0.00     0.023 A 
ATOM     80  C   UNL A   1      39.405  33.396  35.501  1.00  0.00     0.012 A 
ATOM     81  C   UNL A   1      38.527  31.427  36.623  1.00  0.00     0.148 A 
ATOM     82  C   UNL A   1      38.953  34.198  36.549  1.00  0.00     0.002 A 
ATOM     83  C   UNL A   1      38.017  32.240  37.627  1.00  0.00     0.091 A 
ATOM     84  F   UNL A   1      38.368  30.096  36.644  1.00  0.00    -0.205 F 
ATOM     85  C   UNL A   1      38.242  33.624  37.600  1.00  0.00     0.022 A 
BRANCH  83  86
ATOM     86  S   UNL A   1      36.938  31.595  38.911  1.00  0.00     0.127 S 
ATOM     87  O   UNL A   1      36.752  30.213  38.479  1.00  0.00    -0.237 OA
ATOM     88  O   UNL A   1      37.759  31.762  40.112  1.00  0.00    -0.237 OA
ATOM     89  O   UNL A   1      35.754  32.441  38.880  1.00  0.00    -0.744 OA
ENDBRANCH  83  86
ENDBRANCH  55  79
BRANCH  67  90
ATOM     90  C   UNL A   1      36.806  31.269  29.004  1.00  0.00     0.023 A 
ATOM     91  C   UNL A   1      36.787  32.651  28.732  1.00  0.00     0.012 A 
ATOM     92  C   UNL A   1      35.760  30.454  28.531  1.00  0.00     0.148 A 
ATOM     93  C   UNL A   1      35.729  33.217  28.022  1.00  0.00     0.002 A 
ATOM     94  C   UNL A   1      34.729  31.019  27.790  1.00  0.00     0.091 A 
ATOM     95  F   UNL A   1      35.787  29.145  28.819  1.00  0.00    -0.205 F 
ATOM     96  C   UNL A   1      34.707  32.401  27.543  1.00  0.00     0.022 A 
BRANCH  94  97
ATOM     97  S   UNL A   1      33.417  30.028  27.068  1.00  0.00     0.127 S 
ATOM     98  O   UNL A   1      32.334  31.003  26.956  1.00  0.00    -0.237 OA
ATOM     99  O   UNL A   1      34.001  29.615  25.790  1.00  0.00    -0.237 OA
ATOM    100  O   UNL A   1      33.186  28.934  28.003  1.00  0.00    -0.744 OA
ENDBRANCH  94  97
ENDBRANCH  67  90
ENDBRANCH  41  42
ENDBRANCH  34  36
ENDBRANCH  33  34
ENDBRANCH  32  33
ENDBRANCH  31  32
ENDBRANCH  30  31
ENDBRANCH  29  30
ENDBRANCH   1  29
TORSDOF 25
ENDMDL
MODEL 3
REMARK VINA RESULT:      -7.2      8.322     14.840
REMARK SMILES CCOc1ccc2nc(S[C@@H](C(=O)OCCOCCOCCOC(=O)c3ccc(-c4c5nc(c(-c6cccc(S(=O)(=O)[O-])c6F)c6ccc([nH]6)c(-c6cccc(S(=O)(=O)[O-])c6F)c6nc(c(-c7cccc(S(=O)(=O)[O-])c7F)c7ccc4[nH]7)C=C6)C=C5)cc3)c3ccccc3)[nH]c2c1
REMARK SMILES IDX 18 1 17 2 16 3 15 4 14 5 12 6 13 7 11 8 10 9 9 10 4 11 5 12
REMARK SMILES IDX 97 13 6 14 96 15 7 16 95 17 8 18 3 20 2 21 1 22 89 23 90 24
REMARK SMILES IDX 94 25 91 26 93 27 92 28 19 29 20 30 21 31 22 32 23 33 24 34
REMARK SMILES IDX 25 35 26 36 27 37 88 38 28 39 87 40 29 41 30 42 31 43 81 44
REMARK SMILES IDX 32 45 86 46 80 47 82 48 33 49 85 50 79 51 78 52 34 54 66 55
REMARK SMILES IDX 46 56 65 57 47 58 50 59 64 60 83 61 48 62 49 63 63 65 84 66
REMARK SMILES IDX 51 67 35 68 36 69 44 70 37 71 39 72 45 73 38 74 40 75 41 76
REMARK SMILES IDX 42 77 43 78 67 79 68 80 76 81 69 82 71 83 77 84 70 85 72 86
REMARK SMILES IDX 73 87 74 88 75 89 52 90 53 91 61 92 54 93 56 94 62 95 55 96
REMARK SMILES IDX 57 97 58 98 59 99 60 100
REMARK H PARENT 95 19 82 53 50 64
REMARK Flexibility Score: inf
ROOT
ATOM      1  C   UNL A   1      53.709  24.527  35.898  1.00  0.00     0.188 C 
ENDROOT
BRANCH   1   2
ATOM      2  O   UNL A   1      53.526  23.221  36.441  1.00  0.00    -0.376 OA
BRANCH   2   3
ATOM      3  C   UNL A   1      52.379  22.999  37.252  1.00  0.00     0.202 C 
BRANCH   3   4
ATOM      4  C   UNL A   1      51.779  21.595  37.135  1.00  0.00     0.261 C 
BRANCH   4   5
ATOM      5  O   UNL A   1      50.867  21.323  38.221  1.00  0.00    -0.462 OA
BRANCH   5   6
ATOM      6  C   UNL A   1      49.885  20.423  37.968  1.00  0.00     0.324 C 
ATOM      7  O   UNL A   1      49.479  20.188  36.832  1.00  0.00    -0.251 OA
BRANCH   6   8
ATOM      8  C   UNL A   1      49.425  19.625  39.205  1.00  0.00     0.194 C 
BRANCH   8   9
ATOM      9  S   UNL A   1      47.869  20.223  39.916  1.00  0.00    -0.068 SA
BRANCH   9  10
ATOM     10  C   UNL A   1      46.962  21.359  38.976  1.00  0.00     0.167 A 
ATOM     11  C   UNL A   1      44.312  23.895  36.311  1.00  0.00     0.121 A 
ATOM     12  C   UNL A   1      44.363  24.716  37.435  1.00  0.00     0.049 A 
ATOM     13  C   UNL A   1      45.146  22.775  36.194  1.00  0.00     0.074 A 
ATOM     14  C   UNL A   1      45.204  24.392  38.514  1.00  0.00     0.034 A 
ATOM     15  C   UNL A   1      45.864  22.396  37.335  1.00  0.00     0.070 A 
ATOM     16  C   UNL A   1      45.901  23.171  38.486  1.00  0.00     0.090 A 
ATOM     17  N   UNL A   1      46.569  21.255  37.669  1.00  0.00    -0.333 N 
ATOM     18  N   UNL A   1      46.619  22.534  39.469  1.00  0.00    -0.223 NA
ATOM     19  H   UNL A   1      46.757  20.497  37.069  1.00  0.00     0.169 HD
BRANCH  11  20
ATOM     20  O   UNL A   1      43.213  23.936  35.493  1.00  0.00    -0.494 OA
BRANCH  20  21
ATOM     21  C   UNL A   1      42.799  25.212  35.015  1.00  0.00     0.226 C 
ATOM     22  C   UNL A   1      41.398  25.561  35.481  1.00  0.00     0.049 C 
ENDBRANCH  20  21
ENDBRANCH  11  20
ENDBRANCH   9  10
ENDBRANCH   8   9
BRANCH   8  23
ATOM     23  C   UNL A   1      50.542  19.112  40.104  1.00  0.00    -0.023 A 
ATOM     24  C   UNL A   1      50.698  19.635  41.402  1.00  0.00     0.005 A 
ATOM     25  C   UNL A   1      51.337  18.005  39.753  1.00  0.00     0.005 A 
ATOM     26  C   UNL A   1      51.663  19.130  42.276  1.00  0.00     0.000 A 
ATOM     27  C   UNL A   1      52.272  17.473  40.644  1.00  0.00     0.000 A 
ATOM     28  C   UNL A   1      52.447  18.046  41.899  1.00  0.00     0.000 A 
ENDBRANCH   8  23
ENDBRANCH   6   8
ENDBRANCH   5   6
ENDBRANCH   4   5
ENDBRANCH   3   4
ENDBRANCH   2   3
ENDBRANCH   1   2
BRANCH   1  29
ATOM     29  C   UNL A   1      52.540  25.154  35.114  1.00  0.00     0.188 C 
BRANCH  29  30
ATOM     30  O   UNL A   1      52.962  26.148  34.188  1.00  0.00    -0.376 OA
BRANCH  30  31
ATOM     31  C   UNL A   1      51.926  26.582  33.315  1.00  0.00     0.202 C 
BRANCH  31  32
ATOM     32  C   UNL A   1      50.591  25.958  33.712  1.00  0.00     0.261 C 
BRANCH  32  33
ATOM     33  O   UNL A   1      49.535  26.940  33.642  1.00  0.00    -0.460 OA
BRANCH  33  34
ATOM     34  C   UNL A   1      48.903  27.250  34.792  1.00  0.00     0.338 C 
ATOM     35  O   UNL A   1      49.359  27.125  35.914  1.00  0.00    -0.246 OA
BRANCH  34  36
ATOM     36  C   UNL A   1      47.524  27.727  34.496  1.00  0.00     0.060 A 
ATOM     37  C   UNL A   1      46.433  27.461  35.332  1.00  0.00     0.016 A 
ATOM     38  C   UNL A   1      47.303  28.364  33.276  1.00  0.00     0.016 A 
ATOM     39  C   UNL A   1      45.125  27.730  34.907  1.00  0.00     0.010 A 
ATOM     40  C   UNL A   1      46.001  28.686  32.879  1.00  0.00     0.010 A 
ATOM     41  C   UNL A   1      44.893  28.327  33.664  1.00  0.00    -0.014 A 
BRANCH  41  42
ATOM     42  C   UNL A   1      43.516  28.521  33.123  1.00  0.00     0.031 A 
ATOM     43  C   UNL A   1      43.178  28.015  31.745  1.00  0.00     0.074 A 
ATOM     44  C   UNL A   1      42.575  29.180  33.823  1.00  0.00     0.049 A 
ATOM     45  N   UNL A   1      42.211  28.361  30.938  1.00  0.00    -0.248 NA
ATOM     46  C   UNL A   1      44.063  26.974  31.203  1.00  0.00     0.031 C 
ATOM     47  C   UNL A   1      42.717  29.665  35.193  1.00  0.00     0.029 A 
ATOM     48  N   UNL A   1      41.320  29.598  33.444  1.00  0.00    -0.354 N 
ATOM     49  C   UNL A   1      42.429  27.655  29.758  1.00  0.00     0.074 A 
ATOM     50  C   UNL A   1      43.599  26.830  29.969  1.00  0.00     0.031 C 
ATOM     51  C   UNL A   1      41.611  30.343  35.534  1.00  0.00     0.029 A 
ATOM     52  C   UNL A   1      40.728  30.421  34.374  1.00  0.00     0.049 A 
ATOM     53  H   UNL A   1      40.892  29.335  32.599  1.00  0.00     0.167 HD
ATOM     54  C   UNL A   1      41.717  27.695  28.606  1.00  0.00     0.034 A 
ATOM     55  C   UNL A   1      39.646  31.219  34.280  1.00  0.00     0.034 A 
ATOM     56  C   UNL A   1      40.502  28.448  28.440  1.00  0.00     0.049 A 
ATOM     57  C   UNL A   1      38.876  31.271  32.990  1.00  0.00     0.074 A 
ATOM     58  C   UNL A   1      39.688  28.537  27.324  1.00  0.00     0.029 A 
ATOM     59  N   UNL A   1      39.916  29.225  29.425  1.00  0.00    -0.354 N 
ATOM     60  N   UNL A   1      39.096  30.624  31.872  1.00  0.00    -0.248 NA
ATOM     61  C   UNL A   1      37.705  32.158  32.952  1.00  0.00     0.031 C 
ATOM     62  C   UNL A   1      38.609  29.371  27.637  1.00  0.00     0.029 A 
ATOM     63  C   UNL A   1      38.746  29.791  28.949  1.00  0.00     0.049 A 
ATOM     64  H   UNL A   1      40.278  29.356  30.331  1.00  0.00     0.167 HD
ATOM     65  C   UNL A   1      38.082  31.011  31.002  1.00  0.00     0.074 A 
ATOM     66  C   UNL A   1      37.232  31.928  31.733  1.00  0.00     0.031 C 
ATOM     67  C   UNL A   1      37.884  30.659  29.708  1.00  0.00     0.034 A 
BRANCH  54  68
ATOM     68  C   UNL A   1      42.212  26.895  27.429  1.00  0.00     0.023 A 
ATOM     69  C   UNL A   1      43.041  27.500  26.465  1.00  0.00     0.012 A 
ATOM     70  C   UNL A   1      41.930  25.517  27.332  1.00  0.00     0.148 A 
ATOM     71  C   UNL A   1      43.569  26.749  25.412  1.00  0.00     0.002 A 
ATOM     72  C   UNL A   1      42.491  24.768  26.304  1.00  0.00     0.091 A 
ATOM     73  F   UNL A   1      41.118  24.965  28.245  1.00  0.00    -0.205 F 
ATOM     74  C   UNL A   1      43.305  25.384  25.340  1.00  0.00     0.022 A 
BRANCH  72  75
ATOM     75  S   UNL A   1      42.272  22.988  26.176  1.00  0.00     0.127 S 
ATOM     76  O   UNL A   1      40.816  22.875  26.122  1.00  0.00    -0.237 OA
ATOM     77  O   UNL A   1      42.954  22.682  24.918  1.00  0.00    -0.237 OA
ATOM     78  O   UNL A   1      42.904  22.423  27.360  1.00  0.00    -0.744 OA
ENDBRANCH  72  75
ENDBRANCH  54  68
BRANCH  55  79
ATOM     79  C   UNL A   1      39.258  32.054  35.449  1.00  0.00     0.023 A 
ATOM     80  C   UNL A   1      39.479  33.443  35.418  1.00  0.00     0.012 A 
ATOM     81  C   UNL A   1      38.596  31.487  36.557  1.00  0.00     0.148 A 
ATOM     82  C   UNL A   1      39.051  34.252  36.470  1.00  0.00     0.002 A 
ATOM     83  C   UNL A   1      38.109  32.308  37.567  1.00  0.00     0.091 A 
ATOM     84  F   UNL A   1      38.422  30.158  36.585  1.00  0.00    -0.205 F 
ATOM     85  C   UNL A   1      38.349  33.689  37.533  1.00  0.00     0.022 A 
BRANCH  83  86
ATOM     86  S   UNL A   1      37.042  31.678  38.868  1.00  0.00     0.127 S 
ATOM     87  O   UNL A   1      36.002  32.701  38.925  1.00  0.00    -0.237 OA
ATOM     88  O   UNL A   1      36.613  30.392  38.314  1.00  0.00    -0.237 OA
ATOM     89  O   UNL A   1      37.894  31.563  40.042  1.00  0.00    -0.744 OA
ENDBRANCH  83  86
ENDBRANCH  55  79
BRANCH  67  90
ATOM     90  C   UNL A   1      36.688  31.239  29.005  1.00  0.00     0.023 A 
ATOM     91  C   UNL A   1      36.598  32.633  28.821  1.00  0.00     0.012 A 
ATOM     92  C   UNL A   1      35.690  30.402  28.470  1.00  0.00     0.148 A 
ATOM     93  C   UNL A   1      35.516  33.187  28.139  1.00  0.00     0.002 A 
ATOM     94  C   UNL A   1      34.635  30.959  27.756  1.00  0.00     0.091 A 
ATOM     95  F   UNL A   1      35.784  29.081  28.674  1.00  0.00    -0.205 F 
ATOM     96  C   UNL A   1      34.541  32.351  27.598  1.00  0.00     0.022 A 
BRANCH  94  97
ATOM     97  S   UNL A   1      33.382  29.949  26.959  1.00  0.00     0.127 S 
ATOM     98  O   UNL A   1      33.117  28.940  27.983  1.00  0.00    -0.237 OA
ATOM     99  O   UNL A   1      32.294  30.905  26.748  1.00  0.00    -0.237 OA
ATOM    100  O   UNL A   1      33.993  29.455  25.732  1.00  0.00    -0.744 OA
ENDBRANCH  94  97
ENDBRANCH  67  90
ENDBRANCH  41  42
ENDBRANCH  34  36
ENDBRANCH  33  34
ENDBRANCH  32  33
ENDBRANCH  31  32
ENDBRANCH  30  31
ENDBRANCH  29  30
ENDBRANCH   1  29
TORSDOF 25
ENDMDL
