MODEL 1
REMARK VINA RESULT:     -12.0      0.000      0.000
REMARK SMILES Cc1cccc(NC(=O)[C@H]2C=C[C@@H]([NH3+])C2)c1C(=O)OCCOCCOCCOC(=O)c1ccc(-c2c3nc(c(-c4cccc(S(=O)(=O)[O-])c4F)c4ccc([nH]4)c(-c4cccc(S(=O)(=O)[O-])c4F)c4nc(c(-c5cccc(S(=O)(=O)[O-])c5F)c5ccc2[nH]5)C=C4)C=C3)cc1
REMARK SMILES IDX 23 1 22 2 21 3 20 4 19 5 17 6 18 7 16 8 1 9 2 10 3 11 4 12
REMARK SMILES IDX 6 13 5 14 7 15 8 16 9 18 10 19 11 20 15 21 12 22 13 23 14 24
REMARK SMILES IDX 24 28 25 29 26 30 27 31 28 32 29 33 30 34 31 35 32 36 93 37
REMARK SMILES IDX 33 38 92 39 34 40 35 41 36 42 86 43 37 44 91 45 85 46 87 47
REMARK SMILES IDX 38 48 90 49 84 50 83 51 39 53 71 54 51 55 70 56 52 57 55 58
REMARK SMILES IDX 69 59 88 60 53 61 54 62 68 64 89 65 56 66 40 67 41 68 49 69
REMARK SMILES IDX 42 70 44 71 50 72 43 73 45 74 46 75 47 76 48 77 72 78 73 79
REMARK SMILES IDX 81 80 74 81 76 82 82 83 75 84 77 85 78 86 79 87 80 88 57 89
REMARK SMILES IDX 58 90 66 91 59 92 61 93 67 94 60 95 62 96 63 97 64 98 65 99
REMARK H PARENT 7 17 14 25 14 26 14 27 87 52 55 63
REMARK Flexibility Score: inf
ROOT
ATOM      1  C   UNL A   1      32.129  31.127  26.764  1.00  0.00     0.188 C 
ENDROOT
BRANCH   1   2
ATOM      2  O   UNL A   1      32.409  29.854  26.207  1.00  0.00    -0.376 OA
BRANCH   2   3
ATOM      3  C   UNL A   1      33.514  29.232  26.919  1.00  0.00     0.202 C 
BRANCH   3   4
ATOM      4  C   UNL A   1      34.125  27.938  26.182  1.00  0.00     0.261 C 
BRANCH   4   5
ATOM      5  O   UNL A   1      33.495  26.367  25.953  1.00  0.00    -0.460 OA
BRANCH   5   6
ATOM      6  C   UNL A   1      32.600  25.428  25.345  1.00  0.00     0.340 C 
ATOM      7  O   UNL A   1      31.962  24.494  25.824  1.00  0.00    -0.246 OA
BRANCH   6   8
ATOM      8  C   UNL A   1      32.321  25.524  23.919  1.00  0.00     0.086 A 
ATOM      9  C   UNL A   1      30.611  27.381  24.463  1.00  0.00     0.045 C 
ATOM     10  C   UNL A   1      31.372  26.484  23.523  1.00  0.00    -0.034 A 
ATOM     11  C   UNL A   1      31.269  26.753  22.161  1.00  0.00     0.004 A 
ATOM     12  C   UNL A   1      32.003  26.027  21.231  1.00  0.00     0.002 A 
ATOM     13  C   UNL A   1      33.178  24.836  22.967  1.00  0.00     0.056 A 
ATOM     14  C   UNL A   1      32.902  25.051  21.643  1.00  0.00     0.027 A 
BRANCH  13  15
ATOM     15  N   UNL A   1      34.364  24.103  23.309  1.00  0.00    -0.325 N 
ATOM     16  C   UNL A   1      34.688  22.860  23.806  1.00  0.00     0.231 C 
ATOM     17  H   UNL A   1      35.172  24.639  23.143  1.00  0.00     0.169 HD
ATOM     18  O   UNL A   1      35.873  22.518  23.605  1.00  0.00    -0.274 OA
BRANCH  16  19
ATOM     19  C   UNL A   1      33.802  21.776  24.520  1.00  0.00     0.107 C 
ATOM     20  C   UNL A   1      32.603  21.211  23.828  1.00  0.00    -0.012 C 
ATOM     21  C   UNL A   1      34.449  20.537  25.173  1.00  0.00     0.087 C 
ATOM     22  C   UNL A   1      32.437  19.902  24.036  1.00  0.00     0.033 C 
ATOM     23  C   UNL A   1      33.521  19.327  24.874  1.00  0.00     0.205 C 
BRANCH  23  24
ATOM     24  N   UNL A   1      34.150  18.214  24.167  1.00  0.00    -0.352 N 
ATOM     25  H   UNL A   1      34.903  18.568  23.577  1.00  0.00     0.345 HD
ATOM     26  H   UNL A   1      33.456  17.744  23.586  1.00  0.00     0.345 HD
ATOM     27  H   UNL A   1      34.532  17.553  24.843  1.00  0.00     0.345 HD
ENDBRANCH  23  24
ENDBRANCH  16  19
ENDBRANCH  13  15
ENDBRANCH   6   8
ENDBRANCH   5   6
ENDBRANCH   4   5
ENDBRANCH   3   4
ENDBRANCH   2   3
ENDBRANCH   1   2
BRANCH   1  28
ATOM     28  C   UNL A   1      33.251  31.650  27.647  1.00  0.00     0.188 C 
BRANCH  28  29
ATOM     29  O   UNL A   1      33.479  33.052  27.667  1.00  0.00    -0.376 OA
BRANCH  29  30
ATOM     30  C   UNL A   1      33.915  33.608  28.900  1.00  0.00     0.202 C 
BRANCH  30  31
ATOM     31  C   UNL A   1      35.408  34.001  29.069  1.00  0.00     0.261 C 
BRANCH  31  32
ATOM     32  O   UNL A   1      36.316  32.889  29.125  1.00  0.00    -0.460 OA
BRANCH  32  33
ATOM     33  C   UNL A   1      36.085  31.971  30.116  1.00  0.00     0.338 C 
ATOM     34  O   UNL A   1      35.453  32.195  31.134  1.00  0.00    -0.246 OA
BRANCH  33  35
ATOM     35  C   UNL A   1      36.581  30.662  29.634  1.00  0.00     0.060 A 
ATOM     36  C   UNL A   1      36.887  29.571  30.422  1.00  0.00     0.016 A 
ATOM     37  C   UNL A   1      36.935  30.569  28.329  1.00  0.00     0.016 A 
ATOM     38  C   UNL A   1      37.820  28.575  29.975  1.00  0.00     0.010 A 
ATOM     39  C   UNL A   1      37.932  29.638  27.982  1.00  0.00     0.010 A 
ATOM     40  C   UNL A   1      38.616  28.711  28.832  1.00  0.00    -0.014 A 
BRANCH  40  41
ATOM     41  C   UNL A   1      40.163  27.957  28.774  1.00  0.00     0.031 A 
ATOM     42  C   UNL A   1      40.828  26.357  28.399  1.00  0.00     0.074 A 
ATOM     43  C   UNL A   1      41.170  28.838  29.040  1.00  0.00     0.049 A 
ATOM     44  N   UNL A   1      42.006  25.942  28.830  1.00  0.00    -0.248 NA
ATOM     45  C   UNL A   1      40.235  25.112  27.722  1.00  0.00     0.031 C 
ATOM     46  C   UNL A   1      42.612  28.672  28.880  1.00  0.00     0.029 A 
ATOM     47  N   UNL A   1      41.097  30.101  29.605  1.00  0.00    -0.354 N 
ATOM     48  C   UNL A   1      42.205  24.626  28.376  1.00  0.00     0.074 A 
ATOM     49  C   UNL A   1      40.970  24.078  28.058  1.00  0.00     0.031 C 
ATOM     50  C   UNL A   1      43.242  29.622  29.591  1.00  0.00     0.029 A 
ATOM     51  C   UNL A   1      42.242  30.355  30.339  1.00  0.00     0.049 A 
ATOM     52  H   UNL A   1      40.343  30.724  29.500  1.00  0.00     0.167 HD
ATOM     53  C   UNL A   1      43.394  24.053  28.084  1.00  0.00     0.034 A 
ATOM     54  C   UNL A   1      42.150  30.408  31.703  1.00  0.00     0.034 A 
ATOM     55  C   UNL A   1      44.390  24.725  28.874  1.00  0.00     0.049 A 
ATOM     56  C   UNL A   1      42.829  29.215  32.388  1.00  0.00     0.074 A 
ATOM     57  C   UNL A   1      45.217  25.800  28.636  1.00  0.00     0.029 A 
ATOM     58  N   UNL A   1      44.211  24.656  30.251  1.00  0.00    -0.354 N 
ATOM     59  N   UNL A   1      43.475  28.251  31.767  1.00  0.00    -0.248 NA
ATOM     60  C   UNL A   1      42.883  29.041  33.836  1.00  0.00     0.031 C 
ATOM     61  C   UNL A   1      45.336  26.507  29.878  1.00  0.00     0.029 A 
ATOM     62  C   UNL A   1      44.653  25.816  30.873  1.00  0.00     0.049 A 
ATOM     63  H   UNL A   1      43.822  23.884  30.724  1.00  0.00     0.167 HD
ATOM     64  C   UNL A   1      43.865  27.278  32.658  1.00  0.00     0.074 A 
ATOM     65  C   UNL A   1      43.569  27.889  33.946  1.00  0.00     0.031 C 
ATOM     66  C   UNL A   1      44.339  26.032  32.297  1.00  0.00     0.034 A 
BRANCH  53  67
ATOM     67  C   UNL A   1      43.556  22.916  27.052  1.00  0.00     0.023 A 
ATOM     68  C   UNL A   1      44.309  23.187  25.900  1.00  0.00     0.012 A 
ATOM     69  C   UNL A   1      42.926  21.617  27.074  1.00  0.00     0.148 A 
ATOM     70  C   UNL A   1      44.446  22.249  24.855  1.00  0.00     0.002 A 
ATOM     71  C   UNL A   1      43.144  20.652  26.080  1.00  0.00     0.091 A 
ATOM     72  F   UNL A   1      42.004  21.321  28.001  1.00  0.00    -0.205 F 
ATOM     73  C   UNL A   1      43.890  20.976  24.953  1.00  0.00     0.022 A 
BRANCH  71  74
ATOM     74  S   UNL A   1      42.500  18.960  26.191  1.00  0.00     0.127 S 
ATOM     75  O   UNL A   1      42.620  18.672  27.619  1.00  0.00    -0.237 OA
ATOM     76  O   UNL A   1      41.121  19.107  25.719  1.00  0.00    -0.237 OA
ATOM     77  O   UNL A   1      43.342  18.149  25.318  1.00  0.00    -0.744 OA
ENDBRANCH  71  74
ENDBRANCH  53  67
BRANCH  54  78
ATOM     78  C   UNL A   1      41.058  31.351  32.172  1.00  0.00     0.023 A 
ATOM     79  C   UNL A   1      39.783  30.737  32.324  1.00  0.00     0.012 A 
ATOM     80  C   UNL A   1      41.224  32.615  32.775  1.00  0.00     0.148 A 
ATOM     81  C   UNL A   1      38.785  31.257  33.154  1.00  0.00     0.002 A 
ATOM     82  C   UNL A   1      40.200  33.151  33.593  1.00  0.00     0.091 A 
ATOM     83  F   UNL A   1      42.399  33.244  32.653  1.00  0.00    -0.205 F 
ATOM     84  C   UNL A   1      39.004  32.453  33.813  1.00  0.00     0.022 A 
BRANCH  82  85
ATOM     85  S   UNL A   1      40.465  34.623  34.607  1.00  0.00     0.127 S 
ATOM     86  O   UNL A   1      41.225  35.495  33.720  1.00  0.00    -0.237 OA
ATOM     87  O   UNL A   1      39.106  35.089  34.895  1.00  0.00    -0.237 OA
ATOM     88  O   UNL A   1      41.154  34.100  35.776  1.00  0.00    -0.744 OA
ENDBRANCH  82  85
ENDBRANCH  54  78
BRANCH  66  89
ATOM     89  C   UNL A   1      44.473  24.845  33.276  1.00  0.00     0.023 A 
ATOM     90  C   UNL A   1      43.448  23.897  33.457  1.00  0.00     0.012 A 
ATOM     91  C   UNL A   1      45.706  24.535  33.917  1.00  0.00     0.148 A 
ATOM     92  C   UNL A   1      43.595  22.770  34.279  1.00  0.00     0.002 A 
ATOM     93  C   UNL A   1      45.899  23.325  34.589  1.00  0.00     0.091 A 
ATOM     94  F   UNL A   1      46.723  25.411  33.892  1.00  0.00    -0.205 F 
ATOM     95  C   UNL A   1      44.832  22.463  34.821  1.00  0.00     0.022 A 
BRANCH  93  96
ATOM     96  S   UNL A   1      47.571  22.749  34.935  1.00  0.00     0.127 S 
ATOM     97  O   UNL A   1      47.550  21.382  34.425  1.00  0.00    -0.237 OA
ATOM     98  O   UNL A   1      48.404  23.672  34.159  1.00  0.00    -0.237 OA
ATOM     99  O   UNL A   1      47.701  22.907  36.379  1.00  0.00    -0.744 OA
ENDBRANCH  93  96
ENDBRANCH  66  89
ENDBRANCH  40  41
ENDBRANCH  33  35
ENDBRANCH  32  33
ENDBRANCH  31  32
ENDBRANCH  30  31
ENDBRANCH  29  30
ENDBRANCH  28  29
ENDBRANCH   1  28
TORSDOF 23
ENDMDL
MODEL 2
REMARK VINA RESULT:     -11.8      1.851      2.332
REMARK SMILES Cc1cccc(NC(=O)[C@H]2C=C[C@@H]([NH3+])C2)c1C(=O)OCCOCCOCCOC(=O)c1ccc(-c2c3nc(c(-c4cccc(S(=O)(=O)[O-])c4F)c4ccc([nH]4)c(-c4cccc(S(=O)(=O)[O-])c4F)c4nc(c(-c5cccc(S(=O)(=O)[O-])c5F)c5ccc2[nH]5)C=C4)C=C3)cc1
REMARK SMILES IDX 23 1 22 2 21 3 20 4 19 5 17 6 18 7 16 8 1 9 2 10 3 11 4 12
REMARK SMILES IDX 6 13 5 14 7 15 8 16 9 18 10 19 11 20 15 21 12 22 13 23 14 24
REMARK SMILES IDX 24 28 25 29 26 30 27 31 28 32 29 33 30 34 31 35 32 36 93 37
REMARK SMILES IDX 33 38 92 39 34 40 35 41 36 42 86 43 37 44 91 45 85 46 87 47
REMARK SMILES IDX 38 48 90 49 84 50 83 51 39 53 71 54 51 55 70 56 52 57 55 58
REMARK SMILES IDX 69 59 88 60 53 61 54 62 68 64 89 65 56 66 40 67 41 68 49 69
REMARK SMILES IDX 42 70 44 71 50 72 43 73 45 74 46 75 47 76 48 77 72 78 73 79
REMARK SMILES IDX 81 80 74 81 76 82 82 83 75 84 77 85 78 86 79 87 80 88 57 89
REMARK SMILES IDX 58 90 66 91 59 92 61 93 67 94 60 95 62 96 63 97 64 98 65 99
REMARK H PARENT 7 17 14 25 14 26 14 27 87 52 55 63
REMARK Flexibility Score: inf
ROOT
ATOM      1  C   UNL A   1      31.886  32.053  26.775  1.00  0.00     0.188 C 
ENDROOT
BRANCH   1   2
ATOM      2  O   UNL A   1      31.606  30.684  26.534  1.00  0.00    -0.376 OA
BRANCH   2   3
ATOM      3  C   UNL A   1      32.528  29.848  27.289  1.00  0.00     0.202 C 
BRANCH   3   4
ATOM      4  C   UNL A   1      32.707  28.364  26.694  1.00  0.00     0.261 C 
BRANCH   4   5
ATOM      5  O   UNL A   1      31.631  27.040  26.622  1.00  0.00    -0.460 OA
BRANCH   5   6
ATOM      6  C   UNL A   1      30.711  26.179  25.939  1.00  0.00     0.340 C 
ATOM      7  O   UNL A   1      29.678  25.634  26.322  1.00  0.00    -0.246 OA
BRANCH   6   8
ATOM      8  C   UNL A   1      30.946  25.844  24.542  1.00  0.00     0.086 A 
ATOM      9  C   UNL A   1      30.469  28.313  23.957  1.00  0.00     0.045 C 
ATOM     10  C   UNL A   1      30.838  26.895  23.613  1.00  0.00    -0.034 A 
ATOM     11  C   UNL A   1      31.289  26.649  22.319  1.00  0.00     0.004 A 
ATOM     12  C   UNL A   1      31.728  25.386  21.942  1.00  0.00     0.002 A 
ATOM     13  C   UNL A   1      31.509  24.550  24.194  1.00  0.00     0.056 A 
ATOM     14  C   UNL A   1      31.783  24.350  22.867  1.00  0.00     0.027 A 
BRANCH  13  15
ATOM     15  N   UNL A   1      31.942  23.560  25.139  1.00  0.00    -0.325 N 
ATOM     16  C   UNL A   1      33.066  23.285  25.887  1.00  0.00     0.231 C 
ATOM     17  H   UNL A   1      31.240  22.890  25.296  1.00  0.00     0.169 HD
ATOM     18  O   UNL A   1      32.867  22.515  26.851  1.00  0.00    -0.274 OA
BRANCH  16  19
ATOM     19  C   UNL A   1      34.535  23.830  25.771  1.00  0.00     0.107 C 
ATOM     20  C   UNL A   1      35.643  23.168  26.526  1.00  0.00    -0.012 C 
ATOM     21  C   UNL A   1      35.165  24.105  24.390  1.00  0.00     0.087 C 
ATOM     22  C   UNL A   1      36.784  23.090  25.837  1.00  0.00     0.033 C 
ATOM     23  C   UNL A   1      36.648  23.646  24.465  1.00  0.00     0.205 C 
BRANCH  23  24
ATOM     24  N   UNL A   1      37.043  22.637  23.485  1.00  0.00    -0.352 N 
ATOM     25  H   UNL A   1      36.247  22.414  22.888  1.00  0.00     0.345 HD
ATOM     26  H   UNL A   1      37.351  21.794  23.970  1.00  0.00     0.345 HD
ATOM     27  H   UNL A   1      37.806  22.998  22.913  1.00  0.00     0.345 HD
ENDBRANCH  23  24
ENDBRANCH  16  19
ENDBRANCH  13  15
ENDBRANCH   6   8
ENDBRANCH   5   6
ENDBRANCH   4   5
ENDBRANCH   3   4
ENDBRANCH   2   3
ENDBRANCH   1   2
BRANCH   1  28
ATOM     28  C   UNL A   1      33.276  32.285  27.343  1.00  0.00     0.188 C 
BRANCH  28  29
ATOM     29  O   UNL A   1      33.492  33.467  28.101  1.00  0.00    -0.376 OA
BRANCH  29  30
ATOM     30  C   UNL A   1      34.030  33.297  29.405  1.00  0.00     0.202 C 
BRANCH  30  31
ATOM     31  C   UNL A   1      35.558  33.470  29.623  1.00  0.00     0.261 C 
BRANCH  31  32
ATOM     32  O   UNL A   1      36.310  32.247  29.587  1.00  0.00    -0.460 OA
BRANCH  32  33
ATOM     33  C   UNL A   1      36.115  31.388  30.637  1.00  0.00     0.338 C 
ATOM     34  O   UNL A   1      35.464  31.648  31.634  1.00  0.00    -0.246 OA
BRANCH  33  35
ATOM     35  C   UNL A   1      36.678  30.075  30.248  1.00  0.00     0.060 A 
ATOM     36  C   UNL A   1      37.356  29.205  31.078  1.00  0.00     0.016 A 
ATOM     37  C   UNL A   1      36.690  29.765  28.928  1.00  0.00     0.016 A 
ATOM     38  C   UNL A   1      38.292  28.254  30.546  1.00  0.00     0.010 A 
ATOM     39  C   UNL A   1      37.701  28.905  28.461  1.00  0.00     0.010 A 
ATOM     40  C   UNL A   1      38.728  28.251  29.216  1.00  0.00    -0.014 A 
BRANCH  40  41
ATOM     41  C   UNL A   1      40.309  27.683  28.836  1.00  0.00     0.031 A 
ATOM     42  C   UNL A   1      41.089  26.141  28.445  1.00  0.00     0.074 A 
ATOM     43  C   UNL A   1      41.212  28.703  28.764  1.00  0.00     0.049 A 
ATOM     44  N   UNL A   1      42.383  25.922  28.600  1.00  0.00    -0.248 NA
ATOM     45  C   UNL A   1      40.538  24.763  28.048  1.00  0.00     0.031 C 
ATOM     46  C   UNL A   1      42.584  28.691  28.263  1.00  0.00     0.029 A 
ATOM     47  N   UNL A   1      41.095  30.006  29.220  1.00  0.00    -0.354 N 
ATOM     48  C   UNL A   1      42.655  24.594  28.225  1.00  0.00     0.074 A 
ATOM     49  C   UNL A   1      41.472  23.870  28.275  1.00  0.00     0.031 C 
ATOM     50  C   UNL A   1      43.221  29.787  28.709  1.00  0.00     0.029 A 
ATOM     51  C   UNL A   1      42.332  30.479  29.619  1.00  0.00     0.049 A 
ATOM     52  H   UNL A   1      40.255  30.519  29.254  1.00  0.00     0.167 HD
ATOM     53  C   UNL A   1      43.810  24.136  27.695  1.00  0.00     0.034 A 
ATOM     54  C   UNL A   1      42.559  30.683  30.951  1.00  0.00     0.034 A 
ATOM     55  C   UNL A   1      44.858  25.010  28.149  1.00  0.00     0.049 A 
ATOM     56  C   UNL A   1      43.546  29.668  31.544  1.00  0.00     0.074 A 
ATOM     57  C   UNL A   1      45.442  26.139  27.620  1.00  0.00     0.029 A 
ATOM     58  N   UNL A   1      45.023  25.083  29.528  1.00  0.00    -0.354 N 
ATOM     59  N   UNL A   1      44.158  28.721  30.866  1.00  0.00    -0.248 NA
ATOM     60  C   UNL A   1      43.967  29.674  32.941  1.00  0.00     0.031 C 
ATOM     61  C   UNL A   1      45.749  26.997  28.727  1.00  0.00     0.029 A 
ATOM     62  C   UNL A   1      45.428  26.353  29.917  1.00  0.00     0.049 A 
ATOM     63  H   UNL A   1      44.872  24.333  30.147  1.00  0.00     0.167 HD
ATOM     64  C   UNL A   1      44.885  27.912  31.711  1.00  0.00     0.074 A 
ATOM     65  C   UNL A   1      44.817  28.632  32.974  1.00  0.00     0.031 C 
ATOM     66  C   UNL A   1      45.433  26.698  31.350  1.00  0.00     0.034 A 
BRANCH  53  67
ATOM     67  C   UNL A   1      43.885  22.911  26.757  1.00  0.00     0.023 A 
ATOM     68  C   UNL A   1      44.651  23.035  25.587  1.00  0.00     0.012 A 
ATOM     69  C   UNL A   1      43.163  21.668  26.881  1.00  0.00     0.148 A 
ATOM     70  C   UNL A   1      44.715  22.010  24.621  1.00  0.00     0.002 A 
ATOM     71  C   UNL A   1      43.305  20.614  25.967  1.00  0.00     0.091 A 
ATOM     72  F   UNL A   1      42.226  21.514  27.826  1.00  0.00    -0.205 F 
ATOM     73  C   UNL A   1      44.068  20.793  24.818  1.00  0.00     0.022 A 
BRANCH  71  74
ATOM     74  S   UNL A   1      42.541  18.987  26.210  1.00  0.00     0.127 S 
ATOM     75  O   UNL A   1      41.181  19.204  25.720  1.00  0.00    -0.237 OA
ATOM     76  O   UNL A   1      43.356  18.116  25.360  1.00  0.00    -0.237 OA
ATOM     77  O   UNL A   1      42.652  18.697  27.636  1.00  0.00    -0.744 OA
ENDBRANCH  71  74
ENDBRANCH  53  67
BRANCH  54  78
ATOM     78  C   UNL A   1      41.486  31.539  31.597  1.00  0.00     0.023 A 
ATOM     79  C   UNL A   1      40.888  32.485  30.718  1.00  0.00     0.012 A 
ATOM     80  C   UNL A   1      40.805  31.285  32.806  1.00  0.00     0.148 A 
ATOM     81  C   UNL A   1      39.617  33.027  30.938  1.00  0.00     0.002 A 
ATOM     82  C   UNL A   1      39.531  31.858  33.037  1.00  0.00     0.091 A 
ATOM     83  F   UNL A   1      41.329  30.413  33.675  1.00  0.00    -0.205 F 
ATOM     84  C   UNL A   1      38.925  32.691  32.086  1.00  0.00     0.022 A 
BRANCH  82  85
ATOM     85  S   UNL A   1      38.499  31.351  34.431  1.00  0.00     0.127 S 
ATOM     86  O   UNL A   1      38.442  29.902  34.281  1.00  0.00    -0.237 OA
ATOM     87  O   UNL A   1      39.255  31.809  35.600  1.00  0.00    -0.237 OA
ATOM     88  O   UNL A   1      37.267  32.091  34.216  1.00  0.00    -0.744 OA
ENDBRANCH  82  85
ENDBRANCH  54  78
BRANCH  66  89
ATOM     89  C   UNL A   1      45.965  25.659  32.362  1.00  0.00     0.023 A 
ATOM     90  C   UNL A   1      47.326  25.579  32.715  1.00  0.00     0.012 A 
ATOM     91  C   UNL A   1      45.090  24.843  33.133  1.00  0.00     0.148 A 
ATOM     92  C   UNL A   1      47.805  24.697  33.695  1.00  0.00     0.002 A 
ATOM     93  C   UNL A   1      45.551  24.100  34.223  1.00  0.00     0.091 A 
ATOM     94  F   UNL A   1      43.786  24.767  32.825  1.00  0.00    -0.205 F 
ATOM     95  C   UNL A   1      46.914  23.979  34.475  1.00  0.00     0.022 A 
BRANCH  93  96
ATOM     96  S   UNL A   1      44.383  23.504  35.459  1.00  0.00     0.127 S 
ATOM     97  O   UNL A   1      45.257  23.099  36.555  1.00  0.00    -0.237 OA
ATOM     98  O   UNL A   1      43.568  24.688  35.739  1.00  0.00    -0.237 OA
ATOM     99  O   UNL A   1      43.662  22.439  34.770  1.00  0.00    -0.744 OA
ENDBRANCH  93  96
ENDBRANCH  66  89
ENDBRANCH  40  41
ENDBRANCH  33  35
ENDBRANCH  32  33
ENDBRANCH  31  32
ENDBRANCH  30  31
ENDBRANCH  29  30
ENDBRANCH  28  29
ENDBRANCH   1  28
TORSDOF 23
ENDMDL
MODEL 3
REMARK VINA RESULT:     -10.8      5.181      9.107
REMARK SMILES Cc1cccc(NC(=O)[C@H]2C=C[C@@H]([NH3+])C2)c1C(=O)OCCOCCOCCOC(=O)c1ccc(-c2c3nc(c(-c4cccc(S(=O)(=O)[O-])c4F)c4ccc([nH]4)c(-c4cccc(S(=O)(=O)[O-])c4F)c4nc(c(-c5cccc(S(=O)(=O)[O-])c5F)c5ccc2[nH]5)C=C4)C=C3)cc1
REMARK SMILES IDX 23 1 22 2 21 3 20 4 19 5 17 6 18 7 16 8 1 9 2 10 3 11 4 12
REMARK SMILES IDX 6 13 5 14 7 15 8 16 9 18 10 19 11 20 15 21 12 22 13 23 14 24
REMARK SMILES IDX 24 28 25 29 26 30 27 31 28 32 29 33 30 34 31 35 32 36 93 37
REMARK SMILES IDX 33 38 92 39 34 40 35 41 36 42 86 43 37 44 91 45 85 46 87 47
REMARK SMILES IDX 38 48 90 49 84 50 83 51 39 53 71 54 51 55 70 56 52 57 55 58
REMARK SMILES IDX 69 59 88 60 53 61 54 62 68 64 89 65 56 66 40 67 41 68 49 69
REMARK SMILES IDX 42 70 44 71 50 72 43 73 45 74 46 75 47 76 48 77 72 78 73 79
REMARK SMILES IDX 81 80 74 81 76 82 82 83 75 84 77 85 78 86 79 87 80 88 57 89
REMARK SMILES IDX 58 90 66 91 59 92 61 93 67 94 60 95 62 96 63 97 64 98 65 99
REMARK H PARENT 7 17 14 25 14 26 14 27 87 52 55 63
REMARK Flexibility Score: inf
ROOT
ATOM      1  C   UNL A   1      34.301  31.797  28.609  1.00  0.00     0.188 C 
ENDROOT
BRANCH   1   2
ATOM      2  O   UNL A   1      33.904  31.159  27.407  1.00  0.00    -0.376 OA
BRANCH   2   3
ATOM      3  C   UNL A   1      34.969  30.289  26.930  1.00  0.00     0.202 C 
BRANCH   3   4
ATOM      4  C   UNL A   1      34.685  28.721  27.152  1.00  0.00     0.261 C 
BRANCH   4   5
ATOM      5  O   UNL A   1      33.234  27.819  27.105  1.00  0.00    -0.460 OA
BRANCH   5   6
ATOM      6  C   UNL A   1      31.808  27.694  27.151  1.00  0.00     0.340 C 
ATOM      7  O   UNL A   1      31.015  27.824  28.080  1.00  0.00    -0.246 OA
BRANCH   6   8
ATOM      8  C   UNL A   1      31.078  27.373  25.933  1.00  0.00     0.086 A 
ATOM      9  C   UNL A   1      31.661  29.733  25.061  1.00  0.00     0.045 C 
ATOM     10  C   UNL A   1      31.038  28.368  24.939  1.00  0.00    -0.034 A 
ATOM     11  C   UNL A   1      30.556  27.997  23.686  1.00  0.00     0.004 A 
ATOM     12  C   UNL A   1      30.042  26.726  23.466  1.00  0.00     0.002 A 
ATOM     13  C   UNL A   1      30.650  26.006  25.685  1.00  0.00     0.056 A 
ATOM     14  C   UNL A   1      30.049  25.772  24.477  1.00  0.00     0.027 A 
BRANCH  13  15
ATOM     15  N   UNL A   1      30.955  24.884  26.527  1.00  0.00    -0.325 N 
ATOM     16  C   UNL A   1      31.766  23.771  26.491  1.00  0.00     0.231 C 
ATOM     17  H   UNL A   1      30.439  24.919  27.364  1.00  0.00     0.169 HD
ATOM     18  O   UNL A   1      31.978  23.252  27.608  1.00  0.00    -0.274 OA
BRANCH  16  19
ATOM     19  C   UNL A   1      32.522  23.090  25.293  1.00  0.00     0.107 C 
ATOM     20  C   UNL A   1      31.814  22.100  24.424  1.00  0.00    -0.012 C 
ATOM     21  C   UNL A   1      33.321  23.939  24.283  1.00  0.00     0.087 C 
ATOM     22  C   UNL A   1      32.130  22.207  23.131  1.00  0.00     0.033 C 
ATOM     23  C   UNL A   1      33.079  23.322  22.877  1.00  0.00     0.205 C 
BRANCH  23  24
ATOM     24  N   UNL A   1      32.513  24.231  21.883  1.00  0.00    -0.352 N 
ATOM     25  H   UNL A   1      32.913  24.025  20.967  1.00  0.00     0.345 HD
ATOM     26  H   UNL A   1      32.732  25.194  22.139  1.00  0.00     0.345 HD
ATOM     27  H   UNL A   1      31.502  24.110  21.847  1.00  0.00     0.345 HD
ENDBRANCH  23  24
ENDBRANCH  16  19
ENDBRANCH  13  15
ENDBRANCH   6   8
ENDBRANCH   5   6
ENDBRANCH   4   5
ENDBRANCH   3   4
ENDBRANCH   2   3
ENDBRANCH   1   2
BRANCH   1  28
ATOM     28  C   UNL A   1      34.994  33.129  28.374  1.00  0.00     0.188 C 
BRANCH  28  29
ATOM     29  O   UNL A   1      36.321  33.105  27.868  1.00  0.00    -0.376 OA
BRANCH  29  30
ATOM     30  C   UNL A   1      37.369  33.159  28.827  1.00  0.00     0.202 C 
BRANCH  30  31
ATOM     31  C   UNL A   1      37.868  31.840  29.478  1.00  0.00     0.261 C 
BRANCH  31  32
ATOM     32  O   UNL A   1      38.029  30.745  28.563  1.00  0.00    -0.460 OA
BRANCH  32  33
ATOM     33  C   UNL A   1      37.971  29.489  29.110  1.00  0.00     0.338 C 
ATOM     34  O   UNL A   1      37.050  29.071  29.790  1.00  0.00    -0.246 OA
BRANCH  33  35
ATOM     35  C   UNL A   1      39.118  28.719  28.578  1.00  0.00     0.060 A 
ATOM     36  C   UNL A   1      39.922  27.858  29.299  1.00  0.00     0.016 A 
ATOM     37  C   UNL A   1      39.536  29.006  27.320  1.00  0.00     0.016 A 
ATOM     38  C   UNL A   1      41.266  27.577  28.880  1.00  0.00     0.010 A 
ATOM     39  C   UNL A   1      40.893  28.799  27.013  1.00  0.00     0.010 A 
ATOM     40  C   UNL A   1      41.923  28.267  27.855  1.00  0.00    -0.014 A 
BRANCH  40  41
ATOM     41  C   UNL A   1      43.633  28.459  27.914  1.00  0.00     0.031 A 
ATOM     42  C   UNL A   1      44.824  29.719  27.545  1.00  0.00     0.074 A 
ATOM     43  C   UNL A   1      44.252  27.361  28.435  1.00  0.00     0.049 A 
ATOM     44  N   UNL A   1      46.096  29.464  27.292  1.00  0.00    -0.248 NA
ATOM     45  C   UNL A   1      44.700  31.226  27.272  1.00  0.00     0.031 C 
ATOM     46  C   UNL A   1      45.639  27.194  28.859  1.00  0.00     0.029 A 
ATOM     47  N   UNL A   1      43.746  26.086  28.630  1.00  0.00    -0.354 N 
ATOM     48  C   UNL A   1      46.744  30.680  27.012  1.00  0.00     0.074 A 
ATOM     49  C   UNL A   1      45.786  31.617  26.649  1.00  0.00     0.031 C 
ATOM     50  C   UNL A   1      45.910  25.881  28.959  1.00  0.00     0.029 A 
ATOM     51  C   UNL A   1      44.755  25.151  28.479  1.00  0.00     0.049 A 
ATOM     52  H   UNL A   1      42.809  25.876  28.844  1.00  0.00     0.167 HD
ATOM     53  C   UNL A   1      48.041  30.969  27.260  1.00  0.00     0.034 A 
ATOM     54  C   UNL A   1      44.732  24.330  27.386  1.00  0.00     0.034 A 
ATOM     55  C   UNL A   1      48.759  29.723  27.246  1.00  0.00     0.049 A 
ATOM     56  C   UNL A   1      45.847  24.651  26.382  1.00  0.00     0.074 A 
ATOM     57  C   UNL A   1      49.109  28.823  28.227  1.00  0.00     0.029 A 
ATOM     58  N   UNL A   1      48.702  29.011  26.053  1.00  0.00    -0.354 N 
ATOM     59  N   UNL A   1      46.768  25.578  26.543  1.00  0.00    -0.248 NA
ATOM     60  C   UNL A   1      46.050  23.914  25.139  1.00  0.00     0.031 C 
ATOM     61  C   UNL A   1      49.030  27.519  27.634  1.00  0.00     0.029 A 
ATOM     62  C   UNL A   1      48.715  27.642  26.285  1.00  0.00     0.049 A 
ATOM     63  H   UNL A   1      48.659  29.424  25.160  1.00  0.00     0.167 HD
ATOM     64  C   UNL A   1      47.547  25.687  25.413  1.00  0.00     0.074 A 
ATOM     65  C   UNL A   1      47.121  24.542  24.622  1.00  0.00     0.031 C 
ATOM     66  C   UNL A   1      48.429  26.721  25.170  1.00  0.00     0.034 A 
BRANCH  53  67
ATOM     67  C   UNL A   1      48.554  32.400  27.531  1.00  0.00     0.023 A 
ATOM     68  C   UNL A   1      49.522  32.919  26.657  1.00  0.00     0.012 A 
ATOM     69  C   UNL A   1      48.237  33.245  28.657  1.00  0.00     0.148 A 
ATOM     70  C   UNL A   1      50.121  34.178  26.865  1.00  0.00     0.002 A 
ATOM     71  C   UNL A   1      48.762  34.537  28.807  1.00  0.00     0.091 A 
ATOM     72  F   UNL A   1      47.506  32.777  29.677  1.00  0.00    -0.205 F 
ATOM     73  C   UNL A   1      49.727  34.998  27.918  1.00  0.00     0.022 A 
BRANCH  71  74
ATOM     74  S   UNL A   1      48.233  35.671  30.120  1.00  0.00     0.127 S 
ATOM     75  O   UNL A   1      46.778  35.538  30.080  1.00  0.00    -0.237 OA
ATOM     76  O   UNL A   1      48.858  35.097  31.314  1.00  0.00    -0.237 OA
ATOM     77  O   UNL A   1      48.750  36.985  29.753  1.00  0.00    -0.744 OA
ENDBRANCH  71  74
ENDBRANCH  53  67
BRANCH  54  78
ATOM     78  C   UNL A   1      43.397  23.629  27.217  1.00  0.00     0.023 A 
ATOM     79  C   UNL A   1      43.304  22.382  27.896  1.00  0.00     0.012 A 
ATOM     80  C   UNL A   1      42.184  24.200  26.778  1.00  0.00     0.148 A 
ATOM     81  C   UNL A   1      42.082  21.809  28.265  1.00  0.00     0.002 A 
ATOM     82  C   UNL A   1      40.950  23.601  27.131  1.00  0.00     0.091 A 
ATOM     83  F   UNL A   1      42.214  25.366  26.123  1.00  0.00    -0.205 F 
ATOM     84  C   UNL A   1      40.902  22.434  27.906  1.00  0.00     0.022 A 
BRANCH  82  85
ATOM     85  S   UNL A   1      39.372  24.431  26.837  1.00  0.00     0.127 S 
ATOM     86  O   UNL A   1      38.591  23.408  26.152  1.00  0.00    -0.237 OA
ATOM     87  O   UNL A   1      38.898  24.752  28.186  1.00  0.00    -0.237 OA
ATOM     88  O   UNL A   1      39.754  25.603  26.066  1.00  0.00    -0.744 OA
ENDBRANCH  82  85
ENDBRANCH  54  78
BRANCH  66  89
ATOM     89  C   UNL A   1      49.056  27.011  23.789  1.00  0.00     0.023 A 
ATOM     90  C   UNL A   1      48.312  27.545  22.719  1.00  0.00     0.012 A 
ATOM     91  C   UNL A   1      50.459  26.926  23.567  1.00  0.00     0.148 A 
ATOM     92  C   UNL A   1      48.892  27.890  21.489  1.00  0.00     0.002 A 
ATOM     93  C   UNL A   1      51.051  27.433  22.407  1.00  0.00     0.091 A 
ATOM     94  F   UNL A   1      51.257  26.346  24.478  1.00  0.00    -0.205 F 
ATOM     95  C   UNL A   1      50.268  27.866  21.341  1.00  0.00     0.022 A 
BRANCH  93  96
ATOM     96  S   UNL A   1      52.821  27.772  22.378  1.00  0.00     0.127 S 
ATOM     97  O   UNL A   1      53.021  28.312  21.037  1.00  0.00    -0.237 OA
ATOM     98  O   UNL A   1      52.985  28.751  23.456  1.00  0.00    -0.237 OA
ATOM     99  O   UNL A   1      53.427  26.476  22.659  1.00  0.00    -0.744 OA
ENDBRANCH  93  96
ENDBRANCH  66  89
ENDBRANCH  40  41
ENDBRANCH  33  35
ENDBRANCH  32  33
ENDBRANCH  31  32
ENDBRANCH  30  31
ENDBRANCH  29  30
ENDBRANCH  28  29
ENDBRANCH   1  28
TORSDOF 23
ENDMDL
