MODEL 1
REMARK VINA RESULT:      -8.7      0.000      0.000
REMARK SMILES C[C@@H]1C(=O)O[C@@H]([C@@H]2CCC[C@H](CCC(=O)OCCOCCOCCOC(=O)c3ccc(-c4c5nc(c(-c6cccc(S(=O)(=O)[O-])c6F)c6ccc([nH]6)c(-c6cccc(S(=O)(=O)[O-])c6F)c6nc(c(-c7cccc(S(=O)(=O)[O-])c7F)c7ccc4[nH]7)C=C6)C=C5)cc3)O2)[C@H]1O
REMARK SMILES IDX 20 1 19 2 18 3 17 4 16 5 14 6 15 7 13 8 12 9 11 10 7 11 8 12
REMARK SMILES IDX 91 13 9 14 10 15 6 16 1 17 2 18 3 19 92 20 4 21 5 22 93 23
REMARK SMILES IDX 21 25 22 26 23 27 24 28 25 29 26 30 27 31 28 32 29 33 90 34
REMARK SMILES IDX 30 35 89 36 31 37 32 38 33 39 83 40 34 41 88 42 82 43 84 44
REMARK SMILES IDX 35 45 87 46 81 47 80 48 36 50 68 51 48 52 67 53 49 54 52 55
REMARK SMILES IDX 66 56 85 57 50 58 51 59 65 61 86 62 53 63 37 64 38 65 46 66
REMARK SMILES IDX 39 67 41 68 47 69 40 70 42 71 43 72 44 73 45 74 69 75 70 76
REMARK SMILES IDX 78 77 71 78 73 79 79 80 72 81 74 82 75 83 76 84 77 85 54 86
REMARK SMILES IDX 55 87 63 88 56 89 58 90 64 91 57 92 59 93 60 94 61 95 62 96
REMARK H PARENT 93 24 84 49 52 60
REMARK Flexibility Score: inf
ROOT
ATOM      1  C   UNL A   1      43.071  18.974  25.862  1.00  0.00     0.188 C 
ENDROOT
BRANCH   1   2
ATOM      2  O   UNL A   1      41.967  19.778  25.458  1.00  0.00    -0.376 OA
BRANCH   2   3
ATOM      3  C   UNL A   1      40.833  19.794  26.319  1.00  0.00     0.202 C 
BRANCH   3   4
ATOM      4  C   UNL A   1      40.605  21.081  27.126  1.00  0.00     0.261 C 
BRANCH   4   5
ATOM      5  O   UNL A   1      40.285  22.228  26.314  1.00  0.00    -0.463 OA
BRANCH   5   6
ATOM      6  C   UNL A   1      38.964  22.495  26.177  1.00  0.00     0.305 C 
ATOM      7  O   UNL A   1      38.123  21.697  25.777  1.00  0.00    -0.252 OA
BRANCH   6   8
ATOM      8  C   UNL A   1      38.562  23.872  26.648  1.00  0.00     0.125 C 
BRANCH   8   9
ATOM      9  C   UNL A   1      39.399  24.594  27.694  1.00  0.00     0.044 C 
BRANCH   9  10
ATOM     10  C   UNL A   1      40.717  25.261  27.270  1.00  0.00     0.119 C 
ATOM     11  C   UNL A   1      41.355  27.021  28.878  1.00  0.00     0.162 C 
ATOM     12  C   UNL A   1      41.735  27.971  27.750  1.00  0.00     0.036 C 
ATOM     13  O   UNL A   1      41.423  25.660  28.447  1.00  0.00    -0.371 OA
ATOM     14  C   UNL A   1      40.922  27.754  26.489  1.00  0.00     0.005 C 
ATOM     15  C   UNL A   1      40.765  26.281  26.123  1.00  0.00     0.032 C 
BRANCH  11  16
ATOM     16  C   UNL A   1      40.151  27.465  29.756  1.00  0.00     0.234 C 
ATOM     17  C   UNL A   1      38.046  28.299  32.197  1.00  0.00     0.023 C 
ATOM     18  C   UNL A   1      39.015  28.969  31.240  1.00  0.00     0.128 C 
ATOM     19  C   UNL A   1      38.480  29.014  29.835  1.00  0.00     0.311 C 
ATOM     20  C   UNL A   1      40.312  28.192  31.090  1.00  0.00     0.172 C 
ATOM     21  O   UNL A   1      37.492  29.646  29.487  1.00  0.00    -0.252 OA
ATOM     22  O   UNL A   1      39.223  28.248  28.994  1.00  0.00    -0.457 OA
BRANCH  20  23
ATOM     23  O   UNL A   1      41.399  29.093  31.139  1.00  0.00    -0.388 OA
ATOM     24  H   UNL A   1      41.986  28.933  30.383  1.00  0.00     0.211 HD
ENDBRANCH  20  23
ENDBRANCH  11  16
ENDBRANCH   9  10
ENDBRANCH   8   9
ENDBRANCH   6   8
ENDBRANCH   5   6
ENDBRANCH   4   5
ENDBRANCH   3   4
ENDBRANCH   2   3
ENDBRANCH   1   2
BRANCH   1  25
ATOM     25  C   UNL A   1      44.148  18.721  24.808  1.00  0.00     0.188 C 
BRANCH  25  26
ATOM     26  O   UNL A   1      45.400  18.251  25.302  1.00  0.00    -0.376 OA
BRANCH  26  27
ATOM     27  C   UNL A   1      46.463  19.213  25.295  1.00  0.00     0.202 C 
BRANCH  27  28
ATOM     28  C   UNL A   1      46.118  20.600  24.713  1.00  0.00     0.261 C 
BRANCH  28  29
ATOM     29  O   UNL A   1      46.219  21.697  25.650  1.00  0.00    -0.460 OA
BRANCH  29  30
ATOM     30  C   UNL A   1      46.415  22.939  25.143  1.00  0.00     0.338 C 
ATOM     31  O   UNL A   1      46.614  23.211  23.973  1.00  0.00    -0.246 OA
BRANCH  30  32
ATOM     32  C   UNL A   1      46.098  23.942  26.201  1.00  0.00     0.060 A 
ATOM     33  C   UNL A   1      44.755  24.292  26.406  1.00  0.00     0.016 A 
ATOM     34  C   UNL A   1      47.086  24.485  27.029  1.00  0.00     0.016 A 
ATOM     35  C   UNL A   1      44.406  25.225  27.391  1.00  0.00     0.010 A 
ATOM     36  C   UNL A   1      46.737  25.425  28.009  1.00  0.00     0.010 A 
ATOM     37  C   UNL A   1      45.400  25.834  28.170  1.00  0.00    -0.014 A 
BRANCH  37  38
ATOM     38  C   UNL A   1      45.082  27.036  28.991  1.00  0.00     0.031 A 
ATOM     39  C   UNL A   1      44.688  26.827  30.434  1.00  0.00     0.074 A 
ATOM     40  C   UNL A   1      45.142  28.289  28.498  1.00  0.00     0.049 A 
ATOM     41  N   UNL A   1      44.313  27.702  31.330  1.00  0.00    -0.248 NA
ATOM     42  C   UNL A   1      44.719  25.439  30.928  1.00  0.00     0.031 C 
ATOM     43  C   UNL A   1      45.524  28.650  27.135  1.00  0.00     0.029 A 
ATOM     44  N   UNL A   1      44.855  29.495  29.095  1.00  0.00    -0.354 N 
ATOM     45  C   UNL A   1      44.052  26.974  32.487  1.00  0.00     0.074 A 
ATOM     46  C   UNL A   1      44.284  25.582  32.171  1.00  0.00     0.031 C 
ATOM     47  C   UNL A   1      45.422  29.986  26.992  1.00  0.00     0.029 A 
ATOM     48  C   UNL A   1      44.943  30.573  28.243  1.00  0.00     0.049 A 
ATOM     49  H   UNL A   1      44.610  29.580  30.046  1.00  0.00     0.167 HD
ATOM     50  C   UNL A   1      43.679  27.418  33.710  1.00  0.00     0.034 A 
ATOM     51  C   UNL A   1      44.649  31.875  28.444  1.00  0.00     0.034 A 
ATOM     52  C   UNL A   1      43.459  28.798  34.044  1.00  0.00     0.049 A 
ATOM     53  C   UNL A   1      44.173  32.335  29.803  1.00  0.00     0.074 A 
ATOM     54  C   UNL A   1      43.087  29.338  35.263  1.00  0.00     0.029 A 
ATOM     55  N   UNL A   1      43.590  29.857  33.161  1.00  0.00    -0.354 N 
ATOM     56  N   UNL A   1      44.023  31.644  30.909  1.00  0.00    -0.248 NA
ATOM     57  C   UNL A   1      43.854  33.765  29.952  1.00  0.00     0.031 C 
ATOM     58  C   UNL A   1      42.968  30.723  35.111  1.00  0.00     0.029 A 
ATOM     59  C   UNL A   1      43.303  31.047  33.807  1.00  0.00     0.049 A 
ATOM     60  H   UNL A   1      43.847  29.775  32.215  1.00  0.00     0.167 HD
ATOM     61  C   UNL A   1      43.647  32.562  31.886  1.00  0.00     0.074 A 
ATOM     62  C   UNL A   1      43.610  33.861  31.252  1.00  0.00     0.031 C 
ATOM     63  C   UNL A   1      43.344  32.347  33.191  1.00  0.00     0.034 A 
BRANCH  50  64
ATOM     64  C   UNL A   1      43.524  26.397  34.807  1.00  0.00     0.023 A 
ATOM     65  C   UNL A   1      42.276  25.769  34.996  1.00  0.00     0.012 A 
ATOM     66  C   UNL A   1      44.625  26.001  35.592  1.00  0.00     0.148 A 
ATOM     67  C   UNL A   1      42.119  24.780  35.965  1.00  0.00     0.002 A 
ATOM     68  C   UNL A   1      44.472  24.983  36.525  1.00  0.00     0.091 A 
ATOM     69  F   UNL A   1      45.798  26.621  35.405  1.00  0.00    -0.205 F 
ATOM     70  C   UNL A   1      43.218  24.379  36.720  1.00  0.00     0.022 A 
BRANCH  68  71
ATOM     71  S   UNL A   1      45.839  24.336  37.494  1.00  0.00     0.127 S 
ATOM     72  O   UNL A   1      46.328  25.545  38.158  1.00  0.00    -0.237 OA
ATOM     73  O   UNL A   1      45.165  23.386  38.377  1.00  0.00    -0.237 OA
ATOM     74  O   UNL A   1      46.764  23.737  36.541  1.00  0.00    -0.744 OA
ENDBRANCH  68  71
ENDBRANCH  50  64
BRANCH  51  75
ATOM     75  C   UNL A   1      44.799  32.875  27.342  1.00  0.00     0.023 A 
ATOM     76  C   UNL A   1      43.760  33.041  26.403  1.00  0.00     0.012 A 
ATOM     77  C   UNL A   1      45.989  33.610  27.180  1.00  0.00     0.148 A 
ATOM     78  C   UNL A   1      43.925  33.874  25.295  1.00  0.00     0.002 A 
ATOM     79  C   UNL A   1      46.124  34.484  26.106  1.00  0.00     0.091 A 
ATOM     80  F   UNL A   1      46.978  33.424  28.065  1.00  0.00    -0.205 F 
ATOM     81  C   UNL A   1      45.103  34.600  25.150  1.00  0.00     0.022 A 
BRANCH  79  82
ATOM     82  S   UNL A   1      47.560  35.544  25.903  1.00  0.00     0.127 S 
ATOM     83  O   UNL A   1      48.250  35.361  27.177  1.00  0.00    -0.237 OA
ATOM     84  O   UNL A   1      48.223  34.934  24.750  1.00  0.00    -0.237 OA
ATOM     85  O   UNL A   1      47.029  36.877  25.653  1.00  0.00    -0.744 OA
ENDBRANCH  79  82
ENDBRANCH  51  75
BRANCH  63  86
ATOM     86  C   UNL A   1      43.016  33.541  34.052  1.00  0.00     0.023 A 
ATOM     87  C   UNL A   1      44.032  34.436  34.443  1.00  0.00     0.012 A 
ATOM     88  C   UNL A   1      41.680  33.819  34.411  1.00  0.00     0.148 A 
ATOM     89  C   UNL A   1      43.732  35.562  35.209  1.00  0.00     0.002 A 
ATOM     90  C   UNL A   1      41.381  34.971  35.130  1.00  0.00     0.091 A 
ATOM     91  F   UNL A   1      40.726  32.951  34.042  1.00  0.00    -0.205 F 
ATOM     92  C   UNL A   1      42.407  35.835  35.543  1.00  0.00     0.022 A 
BRANCH  90  93
ATOM     93  S   UNL A   1      39.696  35.457  35.521  1.00  0.00     0.127 S 
ATOM     94  O   UNL A   1      39.878  36.840  35.960  1.00  0.00    -0.237 OA
ATOM     95  O   UNL A   1      39.025  35.312  34.228  1.00  0.00    -0.237 OA
ATOM     96  O   UNL A   1      39.236  34.533  36.549  1.00  0.00    -0.744 OA
ENDBRANCH  90  93
ENDBRANCH  63  86
ENDBRANCH  37  38
ENDBRANCH  30  32
ENDBRANCH  29  30
ENDBRANCH  28  29
ENDBRANCH  27  28
ENDBRANCH  26  27
ENDBRANCH  25  26
ENDBRANCH   1  25
TORSDOF 24
ENDMDL
MODEL 2
REMARK VINA RESULT:      -8.6      4.969      8.710
REMARK SMILES C[C@@H]1C(=O)O[C@@H]([C@@H]2CCC[C@H](CCC(=O)OCCOCCOCCOC(=O)c3ccc(-c4c5nc(c(-c6cccc(S(=O)(=O)[O-])c6F)c6ccc([nH]6)c(-c6cccc(S(=O)(=O)[O-])c6F)c6nc(c(-c7cccc(S(=O)(=O)[O-])c7F)c7ccc4[nH]7)C=C6)C=C5)cc3)O2)[C@H]1O
REMARK SMILES IDX 20 1 19 2 18 3 17 4 16 5 14 6 15 7 13 8 12 9 11 10 7 11 8 12
REMARK SMILES IDX 91 13 9 14 10 15 6 16 1 17 2 18 3 19 92 20 4 21 5 22 93 23
REMARK SMILES IDX 21 25 22 26 23 27 24 28 25 29 26 30 27 31 28 32 29 33 90 34
REMARK SMILES IDX 30 35 89 36 31 37 32 38 33 39 83 40 34 41 88 42 82 43 84 44
REMARK SMILES IDX 35 45 87 46 81 47 80 48 36 50 68 51 48 52 67 53 49 54 52 55
REMARK SMILES IDX 66 56 85 57 50 58 51 59 65 61 86 62 53 63 37 64 38 65 46 66
REMARK SMILES IDX 39 67 41 68 47 69 40 70 42 71 43 72 44 73 45 74 69 75 70 76
REMARK SMILES IDX 78 77 71 78 73 79 79 80 72 81 74 82 75 83 76 84 77 85 54 86
REMARK SMILES IDX 55 87 63 88 56 89 58 90 64 91 57 92 59 93 60 94 61 95 62 96
REMARK H PARENT 93 24 84 49 52 60
REMARK Flexibility Score: inf
ROOT
ATOM      1  C   UNL A   1      36.528  22.963  24.716  1.00  0.00     0.188 C 
ENDROOT
BRANCH   1   2
ATOM      2  O   UNL A   1      35.304  22.911  25.441  1.00  0.00    -0.376 OA
BRANCH   2   3
ATOM      3  C   UNL A   1      35.254  22.030  26.559  1.00  0.00     0.202 C 
BRANCH   3   4
ATOM      4  C   UNL A   1      34.089  21.031  26.591  1.00  0.00     0.261 C 
BRANCH   4   5
ATOM      5  O   UNL A   1      33.772  20.465  25.304  1.00  0.00    -0.463 OA
BRANCH   5   6
ATOM      6  C   UNL A   1      32.683  20.987  24.689  1.00  0.00     0.305 C 
ATOM      7  O   UNL A   1      31.623  21.258  25.245  1.00  0.00    -0.252 OA
BRANCH   6   8
ATOM      8  C   UNL A   1      32.894  21.307  23.229  1.00  0.00     0.125 C 
BRANCH   8   9
ATOM      9  C   UNL A   1      32.335  22.596  22.643  1.00  0.00     0.044 C 
BRANCH   9  10
ATOM     10  C   UNL A   1      33.280  23.560  21.910  1.00  0.00     0.119 C 
ATOM     11  C   UNL A   1      33.392  25.726  23.086  1.00  0.00     0.162 C 
ATOM     12  C   UNL A   1      33.300  26.491  21.772  1.00  0.00     0.036 C 
ATOM     13  O   UNL A   1      33.903  24.408  22.877  1.00  0.00    -0.371 OA
ATOM     14  C   UNL A   1      32.504  25.757  20.710  1.00  0.00     0.005 C 
ATOM     15  C   UNL A   1      32.851  24.274  20.619  1.00  0.00     0.032 C 
BRANCH  11  16
ATOM     16  C   UNL A   1      32.197  25.917  24.061  1.00  0.00     0.234 C 
ATOM     17  C   UNL A   1      29.581  25.587  26.094  1.00  0.00     0.023 C 
ATOM     18  C   UNL A   1      31.094  25.681  26.178  1.00  0.00     0.128 C 
ATOM     19  C   UNL A   1      31.588  27.079  25.926  1.00  0.00     0.311 C 
ATOM     20  C   UNL A   1      31.785  24.870  25.095  1.00  0.00     0.172 C 
ATOM     21  O   UNL A   1      31.356  28.039  26.648  1.00  0.00    -0.252 OA
ATOM     22  O   UNL A   1      32.316  27.151  24.781  1.00  0.00    -0.457 OA
BRANCH  20  23
ATOM     23  O   UNL A   1      32.862  24.157  25.667  1.00  0.00    -0.388 OA
ATOM     24  H   UNL A   1      32.868  23.250  25.324  1.00  0.00     0.211 HD
ENDBRANCH  20  23
ENDBRANCH  11  16
ENDBRANCH   9  10
ENDBRANCH   8   9
ENDBRANCH   6   8
ENDBRANCH   5   6
ENDBRANCH   4   5
ENDBRANCH   3   4
ENDBRANCH   2   3
ENDBRANCH   1   2
BRANCH   1  25
ATOM     25  C   UNL A   1      37.792  22.594  25.491  1.00  0.00     0.188 C 
BRANCH  25  26
ATOM     26  O   UNL A   1      38.413  21.367  25.114  1.00  0.00    -0.376 OA
BRANCH  26  27
ATOM     27  C   UNL A   1      39.115  20.686  26.163  1.00  0.00     0.202 C 
BRANCH  27  28
ATOM     28  C   UNL A   1      39.977  19.482  25.731  1.00  0.00     0.261 C 
BRANCH  28  29
ATOM     29  O   UNL A   1      41.194  19.299  26.490  1.00  0.00    -0.460 OA
BRANCH  29  30
ATOM     30  C   UNL A   1      42.324  19.876  26.014  1.00  0.00     0.338 C 
ATOM     31  O   UNL A   1      43.108  19.374  25.229  1.00  0.00    -0.246 OA
BRANCH  30  32
ATOM     32  C   UNL A   1      42.326  21.316  26.404  1.00  0.00     0.060 A 
ATOM     33  C   UNL A   1      42.228  22.281  25.390  1.00  0.00     0.016 A 
ATOM     34  C   UNL A   1      42.355  21.722  27.743  1.00  0.00     0.016 A 
ATOM     35  C   UNL A   1      42.221  23.646  25.707  1.00  0.00     0.010 A 
ATOM     36  C   UNL A   1      42.355  23.088  28.058  1.00  0.00     0.010 A 
ATOM     37  C   UNL A   1      42.331  24.061  27.041  1.00  0.00    -0.014 A 
BRANCH  37  38
ATOM     38  C   UNL A   1      42.634  25.484  27.365  1.00  0.00     0.031 A 
ATOM     39  C   UNL A   1      44.017  26.004  27.053  1.00  0.00     0.074 A 
ATOM     40  C   UNL A   1      41.724  26.315  27.911  1.00  0.00     0.049 A 
ATOM     41  N   UNL A   1      44.538  27.180  27.291  1.00  0.00    -0.248 NA
ATOM     42  C   UNL A   1      44.936  25.066  26.385  1.00  0.00     0.031 C 
ATOM     43  C   UNL A   1      40.347  25.964  28.249  1.00  0.00     0.029 A 
ATOM     44  N   UNL A   1      41.839  27.630  28.299  1.00  0.00    -0.354 N 
ATOM     45  C   UNL A   1      45.844  27.120  26.815  1.00  0.00     0.074 A 
ATOM     46  C   UNL A   1      46.046  25.784  26.301  1.00  0.00     0.031 C 
ATOM     47  C   UNL A   1      39.752  27.030  28.819  1.00  0.00     0.029 A 
ATOM     48  C   UNL A   1      40.712  28.130  28.911  1.00  0.00     0.049 A 
ATOM     49  H   UNL A   1      42.653  28.164  28.153  1.00  0.00     0.167 HD
ATOM     50  C   UNL A   1      46.787  28.091  26.782  1.00  0.00     0.034 A 
ATOM     51  C   UNL A   1      40.490  29.326  29.496  1.00  0.00     0.034 A 
ATOM     52  C   UNL A   1      46.597  29.428  27.275  1.00  0.00     0.049 A 
ATOM     53  C   UNL A   1      41.583  30.372  29.502  1.00  0.00     0.074 A 
ATOM     54  C   UNL A   1      47.498  30.480  27.273  1.00  0.00     0.029 A 
ATOM     55  N   UNL A   1      45.433  29.900  27.857  1.00  0.00    -0.354 N 
ATOM     56  N   UNL A   1      42.778  30.327  28.964  1.00  0.00    -0.248 NA
ATOM     57  C   UNL A   1      41.282  31.649  30.170  1.00  0.00     0.031 C 
ATOM     58  C   UNL A   1      46.885  31.582  27.877  1.00  0.00     0.029 A 
ATOM     59  C   UNL A   1      45.591  31.226  28.220  1.00  0.00     0.049 A 
ATOM     60  H   UNL A   1      44.614  29.371  27.992  1.00  0.00     0.167 HD
ATOM     61  C   UNL A   1      43.344  31.580  29.183  1.00  0.00     0.074 A 
ATOM     62  C   UNL A   1      42.357  32.371  29.885  1.00  0.00     0.031 C 
ATOM     63  C   UNL A   1      44.578  32.033  28.847  1.00  0.00     0.034 A 
BRANCH  50  64
ATOM     64  C   UNL A   1      48.112  27.758  26.148  1.00  0.00     0.023 A 
ATOM     65  C   UNL A   1      49.188  27.354  26.963  1.00  0.00     0.012 A 
ATOM     66  C   UNL A   1      48.269  27.767  24.747  1.00  0.00     0.148 A 
ATOM     67  C   UNL A   1      50.407  26.985  26.398  1.00  0.00     0.002 A 
ATOM     68  C   UNL A   1      49.473  27.355  24.189  1.00  0.00     0.091 A 
ATOM     69  F   UNL A   1      47.238  28.170  23.992  1.00  0.00    -0.205 F 
ATOM     70  C   UNL A   1      50.546  26.974  25.013  1.00  0.00     0.022 A 
BRANCH  68  71
ATOM     71  S   UNL A   1      49.732  27.229  22.416  1.00  0.00     0.127 S 
ATOM     72  O   UNL A   1      48.652  26.323  22.024  1.00  0.00    -0.237 OA
ATOM     73  O   UNL A   1      49.553  28.614  21.983  1.00  0.00    -0.237 OA
ATOM     74  O   UNL A   1      51.078  26.700  22.240  1.00  0.00    -0.744 OA
ENDBRANCH  68  71
ENDBRANCH  50  64
BRANCH  51  75
ATOM     75  C   UNL A   1      39.172  29.638  30.131  1.00  0.00     0.023 A 
ATOM     76  C   UNL A   1      38.905  29.193  31.442  1.00  0.00     0.012 A 
ATOM     77  C   UNL A   1      38.161  30.311  29.421  1.00  0.00     0.148 A 
ATOM     78  C   UNL A   1      37.642  29.360  32.010  1.00  0.00     0.002 A 
ATOM     79  C   UNL A   1      36.921  30.529  30.015  1.00  0.00     0.091 A 
ATOM     80  F   UNL A   1      38.419  30.708  28.166  1.00  0.00    -0.205 F 
ATOM     81  C   UNL A   1      36.652  30.033  31.301  1.00  0.00     0.022 A 
BRANCH  79  82
ATOM     82  S   UNL A   1      35.627  31.485  29.218  1.00  0.00     0.127 S 
ATOM     83  O   UNL A   1      34.891  32.007  30.366  1.00  0.00    -0.237 OA
ATOM     84  O   UNL A   1      36.401  32.481  28.477  1.00  0.00    -0.237 OA
ATOM     85  O   UNL A   1      34.905  30.540  28.377  1.00  0.00    -0.744 OA
ENDBRANCH  79  82
ENDBRANCH  51  75
BRANCH  63  86
ATOM     86  C   UNL A   1      44.920  33.469  29.161  1.00  0.00     0.023 A 
ATOM     87  C   UNL A   1      45.470  33.810  30.412  1.00  0.00     0.012 A 
ATOM     88  C   UNL A   1      44.766  34.471  28.180  1.00  0.00     0.148 A 
ATOM     89  C   UNL A   1      45.824  35.129  30.698  1.00  0.00     0.002 A 
ATOM     90  C   UNL A   1      45.170  35.773  28.453  1.00  0.00     0.091 A 
ATOM     91  F   UNL A   1      44.230  34.132  26.999  1.00  0.00    -0.205 F 
ATOM     92  C   UNL A   1      45.684  36.107  29.715  1.00  0.00     0.022 A 
BRANCH  90  93
ATOM     93  S   UNL A   1      45.119  37.080  27.219  1.00  0.00     0.127 S 
ATOM     94  O   UNL A   1      45.971  36.528  26.166  1.00  0.00    -0.237 OA
ATOM     95  O   UNL A   1      43.695  37.133  26.886  1.00  0.00    -0.237 OA
ATOM     96  O   UNL A   1      45.634  38.274  27.873  1.00  0.00    -0.744 OA
ENDBRANCH  90  93
ENDBRANCH  63  86
ENDBRANCH  37  38
ENDBRANCH  30  32
ENDBRANCH  29  30
ENDBRANCH  28  29
ENDBRANCH  27  28
ENDBRANCH  26  27
ENDBRANCH  25  26
ENDBRANCH   1  25
TORSDOF 24
ENDMDL
MODEL 3
REMARK VINA RESULT:      -8.6      4.137      8.635
REMARK SMILES C[C@@H]1C(=O)O[C@@H]([C@@H]2CCC[C@H](CCC(=O)OCCOCCOCCOC(=O)c3ccc(-c4c5nc(c(-c6cccc(S(=O)(=O)[O-])c6F)c6ccc([nH]6)c(-c6cccc(S(=O)(=O)[O-])c6F)c6nc(c(-c7cccc(S(=O)(=O)[O-])c7F)c7ccc4[nH]7)C=C6)C=C5)cc3)O2)[C@H]1O
REMARK SMILES IDX 20 1 19 2 18 3 17 4 16 5 14 6 15 7 13 8 12 9 11 10 7 11 8 12
REMARK SMILES IDX 91 13 9 14 10 15 6 16 1 17 2 18 3 19 92 20 4 21 5 22 93 23
REMARK SMILES IDX 21 25 22 26 23 27 24 28 25 29 26 30 27 31 28 32 29 33 90 34
REMARK SMILES IDX 30 35 89 36 31 37 32 38 33 39 83 40 34 41 88 42 82 43 84 44
REMARK SMILES IDX 35 45 87 46 81 47 80 48 36 50 68 51 48 52 67 53 49 54 52 55
REMARK SMILES IDX 66 56 85 57 50 58 51 59 65 61 86 62 53 63 37 64 38 65 46 66
REMARK SMILES IDX 39 67 41 68 47 69 40 70 42 71 43 72 44 73 45 74 69 75 70 76
REMARK SMILES IDX 78 77 71 78 73 79 79 80 72 81 74 82 75 83 76 84 77 85 54 86
REMARK SMILES IDX 55 87 63 88 56 89 58 90 64 91 57 92 59 93 60 94 61 95 62 96
REMARK H PARENT 93 24 84 49 52 60
REMARK Flexibility Score: inf
ROOT
ATOM      1  C   UNL A   1      42.858  20.670  25.895  1.00  0.00     0.188 C 
ENDROOT
BRANCH   1   2
ATOM      2  O   UNL A   1      42.200  21.044  27.101  1.00  0.00    -0.376 OA
BRANCH   2   3
ATOM      3  C   UNL A   1      40.790  21.235  27.034  1.00  0.00     0.202 C 
BRANCH   3   4
ATOM      4  C   UNL A   1      40.306  22.676  26.813  1.00  0.00     0.261 C 
BRANCH   4   5
ATOM      5  O   UNL A   1      39.123  22.774  25.996  1.00  0.00    -0.463 OA
BRANCH   5   6
ATOM      6  C   UNL A   1      38.275  23.781  26.316  1.00  0.00     0.305 C 
ATOM      7  O   UNL A   1      38.618  24.914  26.639  1.00  0.00    -0.252 OA
BRANCH   6   8
ATOM      8  C   UNL A   1      36.815  23.429  26.162  1.00  0.00     0.125 C 
BRANCH   8   9
ATOM      9  C   UNL A   1      36.139  23.561  24.805  1.00  0.00     0.044 C 
BRANCH   9  10
ATOM     10  C   UNL A   1      35.629  22.297  24.094  1.00  0.00     0.119 C 
ATOM     11  C   UNL A   1      33.190  22.421  23.748  1.00  0.00     0.162 C 
ATOM     12  C   UNL A   1      33.012  20.972  24.182  1.00  0.00     0.036 C 
ATOM     13  O   UNL A   1      34.516  22.656  23.272  1.00  0.00    -0.371 OA
ATOM     14  C   UNL A   1      34.046  20.525  25.197  1.00  0.00     0.005 C 
ATOM     15  C   UNL A   1      35.462  20.969  24.847  1.00  0.00     0.032 C 
BRANCH  11  16
ATOM     16  C   UNL A   1      32.528  23.485  24.668  1.00  0.00     0.234 C 
ATOM     17  C   UNL A   1      31.191  26.205  26.046  1.00  0.00     0.023 C 
ATOM     18  C   UNL A   1      30.743  24.949  25.321  1.00  0.00     0.128 C 
ATOM     19  C   UNL A   1      30.850  23.727  26.192  1.00  0.00     0.311 C 
ATOM     20  C   UNL A   1      31.639  24.611  24.141  1.00  0.00     0.172 C 
ATOM     21  O   UNL A   1      30.192  23.536  27.205  1.00  0.00    -0.252 OA
ATOM     22  O   UNL A   1      31.784  22.860  25.722  1.00  0.00    -0.457 OA
BRANCH  20  23
ATOM     23  O   UNL A   1      30.834  24.253  23.037  1.00  0.00    -0.388 OA
ATOM     24  H   UNL A   1      31.290  23.578  22.509  1.00  0.00     0.211 HD
ENDBRANCH  20  23
ENDBRANCH  11  16
ENDBRANCH   9  10
ENDBRANCH   8   9
ENDBRANCH   6   8
ENDBRANCH   5   6
ENDBRANCH   4   5
ENDBRANCH   3   4
ENDBRANCH   2   3
ENDBRANCH   1   2
BRANCH   1  25
ATOM     25  C   UNL A   1      43.923  21.635  25.376  1.00  0.00     0.188 C 
BRANCH  25  26
ATOM     26  O   UNL A   1      45.050  21.829  26.228  1.00  0.00    -0.376 OA
BRANCH  26  27
ATOM     27  C   UNL A   1      45.633  23.139  26.187  1.00  0.00     0.202 C 
BRANCH  27  28
ATOM     28  C   UNL A   1      45.592  23.856  24.821  1.00  0.00     0.261 C 
BRANCH  28  29
ATOM     29  O   UNL A   1      44.685  24.980  24.749  1.00  0.00    -0.460 OA
BRANCH  29  30
ATOM     30  C   UNL A   1      45.183  26.208  25.036  1.00  0.00     0.338 C 
ATOM     31  O   UNL A   1      46.032  26.802  24.397  1.00  0.00    -0.246 OA
BRANCH  30  32
ATOM     32  C   UNL A   1      44.348  26.823  26.109  1.00  0.00     0.060 A 
ATOM     33  C   UNL A   1      44.445  28.207  26.318  1.00  0.00     0.016 A 
ATOM     34  C   UNL A   1      43.433  26.075  26.858  1.00  0.00     0.016 A 
ATOM     35  C   UNL A   1      43.678  28.831  27.309  1.00  0.00     0.010 A 
ATOM     36  C   UNL A   1      42.672  26.699  27.856  1.00  0.00     0.010 A 
ATOM     37  C   UNL A   1      42.819  28.074  28.118  1.00  0.00    -0.014 A 
BRANCH  37  38
ATOM     38  C   UNL A   1      42.241  28.661  29.360  1.00  0.00     0.031 A 
ATOM     39  C   UNL A   1      40.831  29.198  29.303  1.00  0.00     0.074 A 
ATOM     40  C   UNL A   1      42.924  28.721  30.520  1.00  0.00     0.049 A 
ATOM     41  N   UNL A   1      40.132  29.804  30.228  1.00  0.00    -0.248 NA
ATOM     42  C   UNL A   1      40.115  29.029  28.026  1.00  0.00     0.031 C 
ATOM     43  C   UNL A   1      44.282  28.229  30.735  1.00  0.00     0.029 A 
ATOM     44  N   UNL A   1      42.565  29.251  31.738  1.00  0.00    -0.354 N 
ATOM     45  C   UNL A   1      38.904  30.099  29.645  1.00  0.00     0.074 A 
ATOM     46  C   UNL A   1      38.963  29.632  28.277  1.00  0.00     0.031 C 
ATOM     47  C   UNL A   1      44.652  28.503  32.001  1.00  0.00     0.029 A 
ATOM     48  C   UNL A   1      43.568  29.214  32.680  1.00  0.00     0.049 A 
ATOM     49  H   UNL A   1      41.671  29.623  31.920  1.00  0.00     0.167 HD
ATOM     50  C   UNL A   1      37.814  30.681  30.196  1.00  0.00     0.034 A 
ATOM     51  C   UNL A   1      43.615  29.715  33.933  1.00  0.00     0.034 A 
ATOM     52  C   UNL A   1      37.734  31.137  31.557  1.00  0.00     0.049 A 
ATOM     53  C   UNL A   1      42.403  30.418  34.503  1.00  0.00     0.074 A 
ATOM     54  C   UNL A   1      36.663  31.733  32.202  1.00  0.00     0.029 A 
ATOM     55  N   UNL A   1      38.761  31.052  32.482  1.00  0.00    -0.354 N 
ATOM     56  N   UNL A   1      41.221  30.604  33.966  1.00  0.00    -0.248 NA
ATOM     57  C   UNL A   1      42.524  30.955  35.869  1.00  0.00     0.031 C 
ATOM     58  C   UNL A   1      37.052  32.030  33.512  1.00  0.00     0.029 A 
ATOM     59  C   UNL A   1      38.350  31.585  33.692  1.00  0.00     0.049 A 
ATOM     60  H   UNL A   1      39.650  30.670  32.306  1.00  0.00     0.167 HD
ATOM     61  C   UNL A   1      40.449  31.226  34.944  1.00  0.00     0.074 A 
ATOM     62  C   UNL A   1      41.289  31.371  36.113  1.00  0.00     0.031 C 
ATOM     63  C   UNL A   1      39.164  31.655  34.877  1.00  0.00     0.034 A 
BRANCH  50  64
ATOM     64  C   UNL A   1      36.586  30.824  29.335  1.00  0.00     0.023 A 
ATOM     65  C   UNL A   1      35.990  29.672  28.783  1.00  0.00     0.012 A 
ATOM     66  C   UNL A   1      35.978  32.080  29.140  1.00  0.00     0.148 A 
ATOM     67  C   UNL A   1      34.821  29.769  28.030  1.00  0.00     0.002 A 
ATOM     68  C   UNL A   1      34.788  32.162  28.427  1.00  0.00     0.091 A 
ATOM     69  F   UNL A   1      36.569  33.163  29.661  1.00  0.00    -0.205 F 
ATOM     70  C   UNL A   1      34.215  31.010  27.862  1.00  0.00     0.022 A 
BRANCH  68  71
ATOM     71  S   UNL A   1      33.883  33.700  28.218  1.00  0.00     0.127 S 
ATOM     72  O   UNL A   1      33.705  34.128  29.605  1.00  0.00    -0.237 OA
ATOM     73  O   UNL A   1      34.827  34.507  27.446  1.00  0.00    -0.237 OA
ATOM     74  O   UNL A   1      32.655  33.355  27.515  1.00  0.00    -0.744 OA
ENDBRANCH  68  71
ENDBRANCH  50  64
BRANCH  51  75
ATOM     75  C   UNL A   1      44.844  29.574  34.771  1.00  0.00     0.023 A 
ATOM     76  C   UNL A   1      45.885  30.518  34.649  1.00  0.00     0.012 A 
ATOM     77  C   UNL A   1      45.017  28.477  35.637  1.00  0.00     0.148 A 
ATOM     78  C   UNL A   1      47.093  30.340  35.325  1.00  0.00     0.002 A 
ATOM     79  C   UNL A   1      46.201  28.339  36.355  1.00  0.00     0.091 A 
ATOM     80  F   UNL A   1      44.029  27.575  35.726  1.00  0.00    -0.205 F 
ATOM     81  C   UNL A   1      47.249  29.256  36.183  1.00  0.00     0.022 A 
BRANCH  79  82
ATOM     82  S   UNL A   1      46.444  27.036  37.567  1.00  0.00     0.127 S 
ATOM     83  O   UNL A   1      46.390  25.838  36.733  1.00  0.00    -0.237 OA
ATOM     84  O   UNL A   1      47.769  27.360  38.096  1.00  0.00    -0.237 OA
ATOM     85  O   UNL A   1      45.360  27.189  38.527  1.00  0.00    -0.744 OA
ENDBRANCH  79  82
ENDBRANCH  51  75
BRANCH  63  86
ATOM     86  C   UNL A   1      38.547  32.257  36.115  1.00  0.00     0.023 A 
ATOM     87  C   UNL A   1      38.434  33.655  36.244  1.00  0.00     0.012 A 
ATOM     88  C   UNL A   1      38.008  31.428  37.121  1.00  0.00     0.148 A 
ATOM     89  C   UNL A   1      37.833  34.219  37.369  1.00  0.00     0.002 A 
ATOM     90  C   UNL A   1      37.363  31.995  38.214  1.00  0.00     0.091 A 
ATOM     91  F   UNL A   1      38.135  30.099  36.990  1.00  0.00    -0.205 F 
ATOM     92  C   UNL A   1      37.288  33.390  38.347  1.00  0.00     0.022 A 
BRANCH  90  93
ATOM     93  S   UNL A   1      36.546  31.008  39.474  1.00  0.00     0.127 S 
ATOM     94  O   UNL A   1      35.592  31.967  40.032  1.00  0.00    -0.237 OA
ATOM     95  O   UNL A   1      35.941  29.936  38.683  1.00  0.00    -0.237 OA
ATOM     96  O   UNL A   1      37.593  30.571  40.387  1.00  0.00    -0.744 OA
ENDBRANCH  90  93
ENDBRANCH  63  86
ENDBRANCH  37  38
ENDBRANCH  30  32
ENDBRANCH  29  30
ENDBRANCH  28  29
ENDBRANCH  27  28
ENDBRANCH  26  27
ENDBRANCH  25  26
ENDBRANCH   1  25
TORSDOF 24
ENDMDL
