MODEL 1
REMARK VINA RESULT:     -12.4      0.000      0.000
REMARK SMILES Cc1cccc(N2C(=O)/C(=C/c3ccc(C(=O)OCCOCCOCCOC(=O)c4ccc(-c5c6nc(c(-c7cccc(S(=O)(=O)[O-])c7F)c7ccc([nH]7)c(-c7cccc(S(=O)(=O)[O-])c7F)c7nc(c(-c8cccc(S(=O)(=O)[O-])c8F)c8ccc5[nH]8)C=C7)C=C6)cc4)cc3)c3ccccc3C2=O)c1
REMARK SMILES IDX 23 1 22 2 21 3 20 4 19 5 18 6 16 7 17 8 15 9 12 10 13 11
REMARK SMILES IDX 94 12 14 13 93 14 11 15 7 16 8 17 101 18 9 19 10 20 100 21
REMARK SMILES IDX 102 22 95 23 99 24 96 25 98 26 97 27 6 28 1 29 2 30 3 31
REMARK SMILES IDX 103 32 4 33 5 34 24 35 25 36 26 37 27 38 28 39 29 40 30 41
REMARK SMILES IDX 31 42 92 43 32 44 91 45 33 46 34 47 35 48 85 49 36 50 90 51
REMARK SMILES IDX 84 52 86 53 37 54 89 55 83 56 82 57 38 59 70 60 50 61 69 62
REMARK SMILES IDX 51 63 54 64 68 65 87 66 52 67 53 68 67 70 88 71 55 72 39 73
REMARK SMILES IDX 40 74 48 75 41 76 43 77 49 78 42 79 44 80 45 81 46 82 47 83
REMARK SMILES IDX 71 84 72 85 80 86 73 87 75 88 81 89 74 90 76 91 77 92 78 93
REMARK SMILES IDX 79 94 56 95 57 96 65 97 58 98 60 99 66 100 59 101 61 102
REMARK SMILES IDX 62 103 63 104 64 105
REMARK H PARENT 86 58 54 69
REMARK Flexibility Score: inf
ROOT
ATOM      1  C   UNL A   1      38.320  28.200  29.364  1.00  0.00     0.188 C 
ENDROOT
BRANCH   1   2
ATOM      2  C   UNL A   1      39.369  27.117  29.609  1.00  0.00     0.188 C 
BRANCH   2   3
ATOM      3  O   UNL A   1      39.896  26.318  28.530  1.00  0.00    -0.376 OA
BRANCH   3   4
ATOM      4  C   UNL A   1      39.163  25.281  27.851  1.00  0.00     0.202 C 
BRANCH   4   5
ATOM      5  C   UNL A   1      39.754  23.783  27.584  1.00  0.00     0.261 C 
BRANCH   5   6
ATOM      6  O   UNL A   1      39.197  22.443  26.637  1.00  0.00    -0.460 OA
BRANCH   6   7
ATOM      7  C   UNL A   1      38.277  22.210  25.576  1.00  0.00     0.338 C 
ATOM      8  O   UNL A   1      38.006  21.169  24.980  1.00  0.00    -0.246 OA
BRANCH   7   9
ATOM      9  C   UNL A   1      37.302  23.106  24.970  1.00  0.00     0.060 A 
ATOM     10  C   UNL A   1      34.802  24.061  24.147  1.00  0.00    -0.025 A 
ATOM     11  C   UNL A   1      35.205  24.285  25.456  1.00  0.00     0.009 A 
ATOM     12  C   UNL A   1      35.490  23.138  23.346  1.00  0.00     0.009 A 
ATOM     13  C   UNL A   1      36.443  23.796  25.862  1.00  0.00     0.016 A 
ATOM     14  C   UNL A   1      36.744  22.670  23.755  1.00  0.00     0.016 A 
BRANCH  10  15
ATOM     15  C   UNL A   1      33.941  25.079  23.548  1.00  0.00     0.022 C 
ATOM     16  N   UNL A   1      30.987  26.542  24.086  1.00  0.00    -0.242 N 
ATOM     17  C   UNL A   1      31.779  25.990  23.058  1.00  0.00     0.265 C 
ATOM     18  C   UNL A   1      30.726  25.802  25.282  1.00  0.00     0.265 C 
ATOM     19  O   UNL A   1      31.847  26.276  21.867  1.00  0.00    -0.268 OA
ATOM     20  C   UNL A   1      32.605  24.877  23.537  1.00  0.00     0.049 C 
ATOM     21  C   UNL A   1      31.093  24.350  25.303  1.00  0.00     0.048 A 
ATOM     22  O   UNL A   1      30.155  26.209  26.292  1.00  0.00    -0.268 OA
ATOM     23  C   UNL A   1      31.899  23.846  24.292  1.00  0.00    -0.000 A 
ATOM     24  C   UNL A   1      30.668  23.493  26.327  1.00  0.00     0.014 A 
ATOM     25  C   UNL A   1      32.132  22.469  24.185  1.00  0.00     0.010 A 
ATOM     26  C   UNL A   1      31.007  22.136  26.293  1.00  0.00     0.001 A 
ATOM     27  C   UNL A   1      31.707  21.618  25.205  1.00  0.00     0.001 A 
BRANCH  16  28
ATOM     28  C   UNL A   1      30.417  27.873  23.897  1.00  0.00     0.053 A 
ATOM     29  C   UNL A   1      27.279  29.458  22.363  1.00  0.00     0.044 C 
ATOM     30  C   UNL A   1      28.608  29.336  23.048  1.00  0.00    -0.049 A 
ATOM     31  C   UNL A   1      29.266  30.460  23.536  1.00  0.00     0.003 A 
ATOM     32  C   UNL A   1      29.185  28.071  23.240  1.00  0.00     0.030 A 
ATOM     33  C   UNL A   1      30.491  30.311  24.172  1.00  0.00     0.002 A 
ATOM     34  C   UNL A   1      31.058  29.040  24.339  1.00  0.00     0.027 A 
ENDBRANCH  16  28
ENDBRANCH  10  15
ENDBRANCH   7   9
ENDBRANCH   6   7
ENDBRANCH   5   6
ENDBRANCH   4   5
ENDBRANCH   3   4
ENDBRANCH   2   3
ENDBRANCH   1   2
BRANCH   1  35
ATOM     35  O   UNL A   1      38.611  28.827  28.137  1.00  0.00    -0.376 OA
BRANCH  35  36
ATOM     36  C   UNL A   1      37.769  29.876  27.724  1.00  0.00     0.202 C 
BRANCH  36  37
ATOM     37  C   UNL A   1      36.603  30.042  28.703  1.00  0.00     0.261 C 
BRANCH  37  38
ATOM     38  O   UNL A   1      36.411  31.443  29.026  1.00  0.00    -0.460 OA
BRANCH  38  39
ATOM     39  C   UNL A   1      36.500  31.792  30.357  1.00  0.00     0.338 C 
ATOM     40  O   UNL A   1      35.532  32.127  31.028  1.00  0.00    -0.246 OA
BRANCH  39  41
ATOM     41  C   UNL A   1      37.946  31.964  30.758  1.00  0.00     0.060 A 
ATOM     42  C   UNL A   1      38.958  32.588  30.013  1.00  0.00     0.016 A 
ATOM     43  C   UNL A   1      38.386  31.132  31.727  1.00  0.00     0.016 A 
ATOM     44  C   UNL A   1      40.375  32.208  30.129  1.00  0.00     0.010 A 
ATOM     45  C   UNL A   1      39.675  30.615  31.553  1.00  0.00     0.010 A 
ATOM     46  C   UNL A   1      40.813  31.079  30.844  1.00  0.00    -0.014 A 
BRANCH  46  47
ATOM     47  C   UNL A   1      42.323  30.298  30.679  1.00  0.00     0.031 A 
ATOM     48  C   UNL A   1      42.898  28.916  29.775  1.00  0.00     0.074 A 
ATOM     49  C   UNL A   1      43.268  30.650  31.575  1.00  0.00     0.049 A 
ATOM     50  N   UNL A   1      43.510  27.865  30.304  1.00  0.00    -0.248 NA
ATOM     51  C   UNL A   1      42.703  28.574  28.315  1.00  0.00     0.031 C 
ATOM     52  C   UNL A   1      44.657  30.210  31.608  1.00  0.00     0.029 A 
ATOM     53  N   UNL A   1      43.110  31.373  32.756  1.00  0.00    -0.354 N 
ATOM     54  C   UNL A   1      43.734  26.901  29.287  1.00  0.00     0.074 A 
ATOM     55  C   UNL A   1      43.035  27.317  28.146  1.00  0.00     0.031 C 
ATOM     56  C   UNL A   1      45.142  30.421  32.840  1.00  0.00     0.029 A 
ATOM     57  C   UNL A   1      44.045  30.885  33.669  1.00  0.00     0.049 A 
ATOM     58  H   UNL A   1      42.459  32.095  32.917  1.00  0.00     0.167 HD
ATOM     59  C   UNL A   1      44.682  25.925  29.264  1.00  0.00     0.034 A 
ATOM     60  C   UNL A   1      43.672  30.392  34.884  1.00  0.00     0.034 A 
ATOM     61  C   UNL A   1      45.512  26.074  30.423  1.00  0.00     0.049 A 
ATOM     62  C   UNL A   1      44.200  29.001  35.160  1.00  0.00     0.074 A 
ATOM     63  C   UNL A   1      46.615  26.873  30.660  1.00  0.00     0.029 A 
ATOM     64  N   UNL A   1      45.010  25.685  31.641  1.00  0.00    -0.354 N 
ATOM     65  N   UNL A   1      44.788  28.245  34.273  1.00  0.00    -0.248 NA
ATOM     66  C   UNL A   1      44.117  28.347  36.462  1.00  0.00     0.031 C 
ATOM     67  C   UNL A   1      46.740  27.013  32.063  1.00  0.00     0.029 A 
ATOM     68  C   UNL A   1      45.747  26.256  32.658  1.00  0.00     0.049 A 
ATOM     69  H   UNL A   1      44.238  25.086  31.769  1.00  0.00     0.167 HD
ATOM     70  C   UNL A   1      45.012  26.999  34.800  1.00  0.00     0.074 A 
ATOM     71  C   UNL A   1      44.662  27.146  36.199  1.00  0.00     0.031 C 
ATOM     72  C   UNL A   1      45.396  25.937  34.027  1.00  0.00     0.034 A 
BRANCH  59  73
ATOM     73  C   UNL A   1      45.093  25.221  27.955  1.00  0.00     0.023 A 
ATOM     74  C   UNL A   1      45.896  25.945  27.054  1.00  0.00     0.012 A 
ATOM     75  C   UNL A   1      44.616  23.964  27.484  1.00  0.00     0.148 A 
ATOM     76  C   UNL A   1      46.081  25.541  25.724  1.00  0.00     0.002 A 
ATOM     77  C   UNL A   1      44.695  23.621  26.126  1.00  0.00     0.091 A 
ATOM     78  F   UNL A   1      44.074  23.093  28.351  1.00  0.00    -0.205 F 
ATOM     79  C   UNL A   1      45.429  24.413  25.242  1.00  0.00     0.022 A 
BRANCH  77  80
ATOM     80  S   UNL A   1      43.670  22.318  25.400  1.00  0.00     0.127 S 
ATOM     81  O   UNL A   1      43.475  22.788  24.025  1.00  0.00    -0.237 OA
ATOM     82  O   UNL A   1      44.514  21.132  25.516  1.00  0.00    -0.237 OA
ATOM     83  O   UNL A   1      42.440  22.310  26.187  1.00  0.00    -0.744 OA
ENDBRANCH  77  80
ENDBRANCH  59  73
BRANCH  60  84
ATOM     84  C   UNL A   1      42.455  31.042  35.472  1.00  0.00     0.023 A 
ATOM     85  C   UNL A   1      42.564  32.430  35.756  1.00  0.00     0.012 A 
ATOM     86  C   UNL A   1      41.171  30.461  35.494  1.00  0.00     0.148 A 
ATOM     87  C   UNL A   1      41.440  33.235  35.944  1.00  0.00     0.002 A 
ATOM     88  C   UNL A   1      40.046  31.272  35.698  1.00  0.00     0.091 A 
ATOM     89  F   UNL A   1      41.058  29.149  35.246  1.00  0.00    -0.205 F 
ATOM     90  C   UNL A   1      40.180  32.658  35.895  1.00  0.00     0.022 A 
BRANCH  88  91
ATOM     91  S   UNL A   1      38.348  30.666  35.635  1.00  0.00     0.127 S 
ATOM     92  O   UNL A   1      37.618  31.890  35.308  1.00  0.00    -0.237 OA
ATOM     93  O   UNL A   1      38.407  29.689  34.547  1.00  0.00    -0.237 OA
ATOM     94  O   UNL A   1      38.072  30.111  36.951  1.00  0.00    -0.744 OA
ENDBRANCH  88  91
ENDBRANCH  60  84
BRANCH  72  95
ATOM     95  C   UNL A   1      45.398  24.468  34.422  1.00  0.00     0.023 A 
ATOM     96  C   UNL A   1      44.315  23.617  34.151  1.00  0.00     0.012 A 
ATOM     97  C   UNL A   1      46.594  23.846  34.885  1.00  0.00     0.148 A 
ATOM     98  C   UNL A   1      44.398  22.233  34.349  1.00  0.00     0.002 A 
ATOM     99  C   UNL A   1      46.711  22.461  34.953  1.00  0.00     0.091 A 
ATOM    100  F   UNL A   1      47.643  24.593  35.264  1.00  0.00    -0.205 F 
ATOM    101  C   UNL A   1      45.604  21.649  34.716  1.00  0.00     0.022 A 
BRANCH  99 102
ATOM    102  S   UNL A   1      48.336  21.710  35.143  1.00  0.00     0.127 S 
ATOM    103  O   UNL A   1      48.701  22.086  36.506  1.00  0.00    -0.237 OA
ATOM    104  O   UNL A   1      48.059  20.282  34.964  1.00  0.00    -0.237 OA
ATOM    105  O   UNL A   1      49.124  22.300  34.069  1.00  0.00    -0.744 OA
ENDBRANCH  99 102
ENDBRANCH  72  95
ENDBRANCH  46  47
ENDBRANCH  39  41
ENDBRANCH  38  39
ENDBRANCH  37  38
ENDBRANCH  36  37
ENDBRANCH  35  36
ENDBRANCH   1  35
TORSDOF 22
ENDMDL
MODEL 2
REMARK VINA RESULT:     -11.9      3.088      5.980
REMARK SMILES Cc1cccc(N2C(=O)/C(=C/c3ccc(C(=O)OCCOCCOCCOC(=O)c4ccc(-c5c6nc(c(-c7cccc(S(=O)(=O)[O-])c7F)c7ccc([nH]7)c(-c7cccc(S(=O)(=O)[O-])c7F)c7nc(c(-c8cccc(S(=O)(=O)[O-])c8F)c8ccc5[nH]8)C=C7)C=C6)cc4)cc3)c3ccccc3C2=O)c1
REMARK SMILES IDX 23 1 22 2 21 3 20 4 19 5 18 6 16 7 17 8 15 9 12 10 13 11
REMARK SMILES IDX 94 12 14 13 93 14 11 15 7 16 8 17 101 18 9 19 10 20 100 21
REMARK SMILES IDX 102 22 95 23 99 24 96 25 98 26 97 27 6 28 1 29 2 30 3 31
REMARK SMILES IDX 103 32 4 33 5 34 24 35 25 36 26 37 27 38 28 39 29 40 30 41
REMARK SMILES IDX 31 42 92 43 32 44 91 45 33 46 34 47 35 48 85 49 36 50 90 51
REMARK SMILES IDX 84 52 86 53 37 54 89 55 83 56 82 57 38 59 70 60 50 61 69 62
REMARK SMILES IDX 51 63 54 64 68 65 87 66 52 67 53 68 67 70 88 71 55 72 39 73
REMARK SMILES IDX 40 74 48 75 41 76 43 77 49 78 42 79 44 80 45 81 46 82 47 83
REMARK SMILES IDX 71 84 72 85 80 86 73 87 75 88 81 89 74 90 76 91 77 92 78 93
REMARK SMILES IDX 79 94 56 95 57 96 65 97 58 98 60 99 66 100 59 101 61 102
REMARK SMILES IDX 62 103 63 104 64 105
REMARK H PARENT 86 58 54 69
REMARK Flexibility Score: inf
ROOT
ATOM      1  C   UNL A   1      39.976  26.566  27.323  1.00  0.00     0.188 C 
ENDROOT
BRANCH   1   2
ATOM      2  C   UNL A   1      40.880  25.537  28.000  1.00  0.00     0.188 C 
BRANCH   2   3
ATOM      3  O   UNL A   1      41.783  24.709  27.238  1.00  0.00    -0.376 OA
BRANCH   3   4
ATOM      4  C   UNL A   1      41.864  23.276  27.352  1.00  0.00     0.202 C 
BRANCH   4   5
ATOM      5  C   UNL A   1      40.920  22.247  26.507  1.00  0.00     0.261 C 
BRANCH   5   6
ATOM      6  O   UNL A   1      39.206  21.997  26.439  1.00  0.00    -0.460 OA
BRANCH   6   7
ATOM      7  C   UNL A   1      38.203  21.833  25.442  1.00  0.00     0.338 C 
ATOM      8  O   UNL A   1      37.801  20.811  24.888  1.00  0.00    -0.246 OA
BRANCH   7   9
ATOM      9  C   UNL A   1      37.276  22.803  24.880  1.00  0.00     0.060 A 
ATOM     10  C   UNL A   1      34.827  23.936  24.132  1.00  0.00    -0.025 A 
ATOM     11  C   UNL A   1      35.267  24.098  25.437  1.00  0.00     0.009 A 
ATOM     12  C   UNL A   1      35.440  22.993  23.293  1.00  0.00     0.009 A 
ATOM     13  C   UNL A   1      36.478  23.522  25.806  1.00  0.00     0.016 A 
ATOM     14  C   UNL A   1      36.669  22.437  23.665  1.00  0.00     0.016 A 
BRANCH  10  15
ATOM     15  C   UNL A   1      34.021  25.021  23.576  1.00  0.00     0.022 C 
ATOM     16  N   UNL A   1      31.143  26.608  24.173  1.00  0.00    -0.242 N 
ATOM     17  C   UNL A   1      31.909  26.062  23.123  1.00  0.00     0.265 C 
ATOM     18  C   UNL A   1      30.840  25.831  25.335  1.00  0.00     0.265 C 
ATOM     19  O   UNL A   1      31.997  26.396  21.946  1.00  0.00    -0.268 OA
ATOM     20  C   UNL A   1      32.676  24.888  23.554  1.00  0.00     0.049 C 
ATOM     21  C   UNL A   1      31.132  24.362  25.293  1.00  0.00     0.048 A 
ATOM     22  O   UNL A   1      30.286  26.222  26.361  1.00  0.00    -0.268 OA
ATOM     23  C   UNL A   1      31.916  23.863  24.262  1.00  0.00    -0.000 A 
ATOM     24  C   UNL A   1      30.661  23.485  26.278  1.00  0.00     0.014 A 
ATOM     25  C   UNL A   1      32.079  22.482  24.096  1.00  0.00     0.010 A 
ATOM     26  C   UNL A   1      30.930  22.115  26.185  1.00  0.00     0.001 A 
ATOM     27  C   UNL A   1      31.607  21.609  25.076  1.00  0.00     0.001 A 
BRANCH  16  28
ATOM     28  C   UNL A   1      30.642  27.973  24.041  1.00  0.00     0.053 A 
ATOM     29  C   UNL A   1      27.803  29.828  22.248  1.00  0.00     0.044 C 
ATOM     30  C   UNL A   1      29.015  29.585  23.098  1.00  0.00    -0.049 A 
ATOM     31  C   UNL A   1      29.625  30.628  23.787  1.00  0.00     0.003 A 
ATOM     32  C   UNL A   1      29.524  28.284  23.240  1.00  0.00     0.030 A 
ATOM     33  C   UNL A   1      30.741  30.368  24.571  1.00  0.00     0.002 A 
ATOM     34  C   UNL A   1      31.243  29.065  24.687  1.00  0.00     0.027 A 
ENDBRANCH  16  28
ENDBRANCH  10  15
ENDBRANCH   7   9
ENDBRANCH   6   7
ENDBRANCH   5   6
ENDBRANCH   4   5
ENDBRANCH   3   4
ENDBRANCH   2   3
ENDBRANCH   1   2
BRANCH   1  35
ATOM     35  O   UNL A   1      40.741  27.268  26.371  1.00  0.00    -0.376 OA
BRANCH  35  36
ATOM     36  C   UNL A   1      40.867  28.661  26.533  1.00  0.00     0.202 C 
BRANCH  36  37
ATOM     37  C   UNL A   1      42.258  29.126  26.092  1.00  0.00     0.261 C 
BRANCH  37  38
ATOM     38  O   UNL A   1      43.109  29.336  27.247  1.00  0.00    -0.460 OA
BRANCH  38  39
ATOM     39  C   UNL A   1      44.266  30.059  27.043  1.00  0.00     0.338 C 
ATOM     40  O   UNL A   1      44.308  31.078  26.366  1.00  0.00    -0.246 OA
BRANCH  39  41
ATOM     41  C   UNL A   1      45.466  29.277  27.525  1.00  0.00     0.060 A 
ATOM     42  C   UNL A   1      45.533  27.894  27.753  1.00  0.00     0.016 A 
ATOM     43  C   UNL A   1      46.425  30.002  28.141  1.00  0.00     0.016 A 
ATOM     44  C   UNL A   1      46.439  27.300  28.749  1.00  0.00     0.010 A 
ATOM     45  C   UNL A   1      47.010  29.412  29.267  1.00  0.00     0.010 A 
ATOM     46  C   UNL A   1      47.167  28.063  29.679  1.00  0.00    -0.014 A 
BRANCH  46  47
ATOM     47  C   UNL A   1      47.867  27.495  31.129  1.00  0.00     0.031 A 
ATOM     48  C   UNL A   1      49.008  26.231  31.529  1.00  0.00     0.074 A 
ATOM     49  C   UNL A   1      47.300  27.941  32.270  1.00  0.00     0.049 A 
ATOM     50  N   UNL A   1      48.783  25.254  32.398  1.00  0.00    -0.248 NA
ATOM     51  C   UNL A   1      50.347  25.913  30.905  1.00  0.00     0.031 C 
ATOM     52  C   UNL A   1      47.750  27.688  33.632  1.00  0.00     0.029 A 
ATOM     53  N   UNL A   1      46.082  28.599  32.428  1.00  0.00    -0.354 N 
ATOM     54  C   UNL A   1      49.884  24.361  32.384  1.00  0.00     0.074 A 
ATOM     55  C   UNL A   1      50.706  24.717  31.305  1.00  0.00     0.031 C 
ATOM     56  C   UNL A   1      46.728  27.923  34.468  1.00  0.00     0.029 A 
ATOM     57  C   UNL A   1      45.558  28.211  33.660  1.00  0.00     0.049 A 
ATOM     58  H   UNL A   1      45.667  29.222  31.788  1.00  0.00     0.167 HD
ATOM     59  C   UNL A   1      50.284  23.521  33.377  1.00  0.00     0.034 A 
ATOM     60  C   UNL A   1      44.328  27.634  33.768  1.00  0.00     0.034 A 
ATOM     61  C   UNL A   1      49.448  23.742  34.520  1.00  0.00     0.049 A 
ATOM     62  C   UNL A   1      44.339  26.317  34.513  1.00  0.00     0.074 A 
ATOM     63  C   UNL A   1      49.522  24.673  35.539  1.00  0.00     0.029 A 
ATOM     64  N   UNL A   1      48.165  23.251  34.494  1.00  0.00    -0.354 N 
ATOM     65  N   UNL A   1      45.422  25.675  34.859  1.00  0.00    -0.248 NA
ATOM     66  C   UNL A   1      43.131  25.618  34.940  1.00  0.00     0.031 C 
ATOM     67  C   UNL A   1      48.227  24.784  36.103  1.00  0.00     0.029 A 
ATOM     68  C   UNL A   1      47.401  23.883  35.455  1.00  0.00     0.049 A 
ATOM     69  H   UNL A   1      47.839  22.552  33.883  1.00  0.00     0.167 HD
ATOM     70  C   UNL A   1      45.088  24.453  35.386  1.00  0.00     0.074 A 
ATOM     71  C   UNL A   1      43.644  24.508  35.502  1.00  0.00     0.031 C 
ATOM     72  C   UNL A   1      46.019  23.477  35.614  1.00  0.00     0.034 A 
BRANCH  59  73
ATOM     73  C   UNL A   1      51.703  22.919  33.412  1.00  0.00     0.023 A 
ATOM     74  C   UNL A   1      51.894  21.673  32.785  1.00  0.00     0.012 A 
ATOM     75  C   UNL A   1      52.817  23.415  34.148  1.00  0.00     0.148 A 
ATOM     76  C   UNL A   1      53.037  20.892  33.004  1.00  0.00     0.002 A 
ATOM     77  C   UNL A   1      53.903  22.587  34.467  1.00  0.00     0.091 A 
ATOM     78  F   UNL A   1      52.827  24.697  34.552  1.00  0.00    -0.205 F 
ATOM     79  C   UNL A   1      54.014  21.320  33.894  1.00  0.00     0.022 A 
BRANCH  77  80
ATOM     80  S   UNL A   1      55.060  22.987  35.801  1.00  0.00     0.127 S 
ATOM     81  O   UNL A   1      54.192  23.022  36.982  1.00  0.00    -0.237 OA
ATOM     82  O   UNL A   1      55.994  21.865  35.774  1.00  0.00    -0.237 OA
ATOM     83  O   UNL A   1      55.614  24.292  35.453  1.00  0.00    -0.744 OA
ENDBRANCH  77  80
ENDBRANCH  59  73
BRANCH  60  84
ATOM     84  C   UNL A   1      43.332  28.098  32.746  1.00  0.00     0.023 A 
ATOM     85  C   UNL A   1      43.472  27.548  31.443  1.00  0.00     0.012 A 
ATOM     86  C   UNL A   1      42.143  28.791  33.048  1.00  0.00     0.148 A 
ATOM     87  C   UNL A   1      42.433  27.585  30.512  1.00  0.00     0.002 A 
ATOM     88  C   UNL A   1      41.109  28.839  32.102  1.00  0.00     0.091 A 
ATOM     89  F   UNL A   1      42.008  29.330  34.267  1.00  0.00    -0.205 F 
ATOM     90  C   UNL A   1      41.245  28.213  30.850  1.00  0.00     0.022 A 
BRANCH  88  91
ATOM     91  S   UNL A   1      39.501  29.595  32.411  1.00  0.00     0.127 S 
ATOM     92  O   UNL A   1      39.867  31.004  32.548  1.00  0.00    -0.237 OA
ATOM     93  O   UNL A   1      38.767  29.278  31.185  1.00  0.00    -0.237 OA
ATOM     94  O   UNL A   1      38.987  28.966  33.618  1.00  0.00    -0.744 OA
ENDBRANCH  88  91
ENDBRANCH  60  84
BRANCH  72  95
ATOM     95  C   UNL A   1      45.755  22.009  35.915  1.00  0.00     0.023 A 
ATOM     96  C   UNL A   1      45.480  21.074  34.905  1.00  0.00     0.012 A 
ATOM     97  C   UNL A   1      45.996  21.484  37.218  1.00  0.00     0.148 A 
ATOM     98  C   UNL A   1      45.421  19.700  35.168  1.00  0.00     0.002 A 
ATOM     99  C   UNL A   1      46.067  20.113  37.444  1.00  0.00     0.091 A 
ATOM    100  F   UNL A   1      46.165  22.311  38.261  1.00  0.00    -0.205 F 
ATOM    101  C   UNL A   1      45.749  19.215  36.428  1.00  0.00     0.022 A 
BRANCH  99 102
ATOM    102  S   UNL A   1      46.767  19.497  38.984  1.00  0.00     0.127 S 
ATOM    103  O   UNL A   1      46.526  18.061  38.891  1.00  0.00    -0.237 OA
ATOM    104  O   UNL A   1      48.177  19.882  38.878  1.00  0.00    -0.237 OA
ATOM    105  O   UNL A   1      46.032  20.217  40.016  1.00  0.00    -0.744 OA
ENDBRANCH  99 102
ENDBRANCH  72  95
ENDBRANCH  46  47
ENDBRANCH  39  41
ENDBRANCH  38  39
ENDBRANCH  37  38
ENDBRANCH  36  37
ENDBRANCH  35  36
ENDBRANCH   1  35
TORSDOF 22
ENDMDL
MODEL 3
REMARK VINA RESULT:     -11.6      1.722      1.987
REMARK SMILES Cc1cccc(N2C(=O)/C(=C/c3ccc(C(=O)OCCOCCOCCOC(=O)c4ccc(-c5c6nc(c(-c7cccc(S(=O)(=O)[O-])c7F)c7ccc([nH]7)c(-c7cccc(S(=O)(=O)[O-])c7F)c7nc(c(-c8cccc(S(=O)(=O)[O-])c8F)c8ccc5[nH]8)C=C7)C=C6)cc4)cc3)c3ccccc3C2=O)c1
REMARK SMILES IDX 23 1 22 2 21 3 20 4 19 5 18 6 16 7 17 8 15 9 12 10 13 11
REMARK SMILES IDX 94 12 14 13 93 14 11 15 7 16 8 17 101 18 9 19 10 20 100 21
REMARK SMILES IDX 102 22 95 23 99 24 96 25 98 26 97 27 6 28 1 29 2 30 3 31
REMARK SMILES IDX 103 32 4 33 5 34 24 35 25 36 26 37 27 38 28 39 29 40 30 41
REMARK SMILES IDX 31 42 92 43 32 44 91 45 33 46 34 47 35 48 85 49 36 50 90 51
REMARK SMILES IDX 84 52 86 53 37 54 89 55 83 56 82 57 38 59 70 60 50 61 69 62
REMARK SMILES IDX 51 63 54 64 68 65 87 66 52 67 53 68 67 70 88 71 55 72 39 73
REMARK SMILES IDX 40 74 48 75 41 76 43 77 49 78 42 79 44 80 45 81 46 82 47 83
REMARK SMILES IDX 71 84 72 85 80 86 73 87 75 88 81 89 74 90 76 91 77 92 78 93
REMARK SMILES IDX 79 94 56 95 57 96 65 97 58 98 60 99 66 100 59 101 61 102
REMARK SMILES IDX 62 103 63 104 64 105
REMARK H PARENT 86 58 54 69
REMARK Flexibility Score: inf
ROOT
ATOM      1  C   UNL A   1      38.176  28.139  29.095  1.00  0.00     0.188 C 
ENDROOT
BRANCH   1   2
ATOM      2  C   UNL A   1      39.524  27.558  28.672  1.00  0.00     0.188 C 
BRANCH   2   3
ATOM      3  O   UNL A   1      39.611  26.423  27.785  1.00  0.00    -0.376 OA
BRANCH   3   4
ATOM      4  C   UNL A   1      39.300  25.069  28.163  1.00  0.00     0.202 C 
BRANCH   4   5
ATOM      5  C   UNL A   1      39.957  23.757  27.447  1.00  0.00     0.261 C 
BRANCH   5   6
ATOM      6  O   UNL A   1      39.277  22.397  26.616  1.00  0.00    -0.460 OA
BRANCH   6   7
ATOM      7  C   UNL A   1      38.230  22.146  25.684  1.00  0.00     0.338 C 
ATOM      8  O   UNL A   1      37.805  21.079  25.243  1.00  0.00    -0.246 OA
BRANCH   7   9
ATOM      9  C   UNL A   1      37.278  23.064  25.076  1.00  0.00     0.060 A 
ATOM     10  C   UNL A   1      34.814  24.042  24.176  1.00  0.00    -0.025 A 
ATOM     11  C   UNL A   1      35.146  24.199  25.513  1.00  0.00     0.009 A 
ATOM     12  C   UNL A   1      35.553  23.169  23.363  1.00  0.00     0.009 A 
ATOM     13  C   UNL A   1      36.366  23.699  25.957  1.00  0.00     0.016 A 
ATOM     14  C   UNL A   1      36.789  22.690  23.812  1.00  0.00     0.016 A 
BRANCH  10  15
ATOM     15  C   UNL A   1      33.974  25.083  23.587  1.00  0.00     0.022 C 
ATOM     16  N   UNL A   1      31.034  26.576  24.120  1.00  0.00    -0.242 N 
ATOM     17  C   UNL A   1      31.830  26.034  23.090  1.00  0.00     0.265 C 
ATOM     18  C   UNL A   1      30.749  25.816  25.298  1.00  0.00     0.265 C 
ATOM     19  O   UNL A   1      31.917  26.342  21.906  1.00  0.00    -0.268 OA
ATOM     20  C   UNL A   1      32.635  24.900  23.557  1.00  0.00     0.049 C 
ATOM     21  C   UNL A   1      31.095  24.359  25.294  1.00  0.00     0.048 A 
ATOM     22  O   UNL A   1      30.172  26.211  26.309  1.00  0.00    -0.268 OA
ATOM     23  C   UNL A   1      31.907  23.864  24.283  1.00  0.00    -0.000 A 
ATOM     24  C   UNL A   1      30.648  23.488  26.296  1.00  0.00     0.014 A 
ATOM     25  C   UNL A   1      32.122  22.486  24.151  1.00  0.00     0.010 A 
ATOM     26  C   UNL A   1      30.968  22.128  26.239  1.00  0.00     0.001 A 
ATOM     27  C   UNL A   1      31.674  21.621  25.149  1.00  0.00     0.001 A 
BRANCH  16  28
ATOM     28  C   UNL A   1      30.484  27.918  23.951  1.00  0.00     0.053 A 
ATOM     29  C   UNL A   1      27.434  29.586  22.331  1.00  0.00     0.044 C 
ATOM     30  C   UNL A   1      28.729  29.428  23.071  1.00  0.00    -0.049 A 
ATOM     31  C   UNL A   1      29.373  30.527  23.627  1.00  0.00     0.003 A 
ATOM     32  C   UNL A   1      29.286  28.150  23.246  1.00  0.00     0.030 A 
ATOM     33  C   UNL A   1      30.566  30.344  24.313  1.00  0.00     0.002 A 
ATOM     34  C   UNL A   1      31.114  29.063  24.462  1.00  0.00     0.027 A 
ENDBRANCH  16  28
ENDBRANCH  10  15
ENDBRANCH   7   9
ENDBRANCH   6   7
ENDBRANCH   5   6
ENDBRANCH   4   5
ENDBRANCH   3   4
ENDBRANCH   2   3
ENDBRANCH   1   2
BRANCH   1  35
ATOM     35  O   UNL A   1      37.601  28.779  27.980  1.00  0.00    -0.376 OA
BRANCH  35  36
ATOM     36  C   UNL A   1      37.239  30.132  28.118  1.00  0.00     0.202 C 
BRANCH  36  37
ATOM     37  C   UNL A   1      36.040  30.270  29.060  1.00  0.00     0.261 C 
BRANCH  37  38
ATOM     38  O   UNL A   1      35.741  31.669  29.295  1.00  0.00    -0.460 OA
BRANCH  38  39
ATOM     39  C   UNL A   1      35.832  32.115  30.597  1.00  0.00     0.338 C 
ATOM     40  O   UNL A   1      34.855  32.401  31.277  1.00  0.00    -0.246 OA
BRANCH  39  41
ATOM     41  C   UNL A   1      37.265  32.451  30.938  1.00  0.00     0.060 A 
ATOM     42  C   UNL A   1      38.147  33.240  30.184  1.00  0.00     0.016 A 
ATOM     43  C   UNL A   1      37.859  31.631  31.832  1.00  0.00     0.016 A 
ATOM     44  C   UNL A   1      39.605  33.041  30.208  1.00  0.00     0.010 A 
ATOM     45  C   UNL A   1      39.191  31.296  31.565  1.00  0.00     0.010 A 
ATOM     46  C   UNL A   1      40.221  31.940  30.830  1.00  0.00    -0.014 A 
BRANCH  46  47
ATOM     47  C   UNL A   1      41.805  31.372  30.545  1.00  0.00     0.031 A 
ATOM     48  C   UNL A   1      42.494  30.085  29.582  1.00  0.00     0.074 A 
ATOM     49  C   UNL A   1      42.758  31.844  31.377  1.00  0.00     0.049 A 
ATOM     50  N   UNL A   1      43.279  29.123  30.050  1.00  0.00    -0.248 NA
ATOM     51  C   UNL A   1      42.240  29.727  28.135  1.00  0.00     0.031 C 
ATOM     52  C   UNL A   1      44.192  31.596  31.302  1.00  0.00     0.029 A 
ATOM     53  N   UNL A   1      42.592  32.533  32.577  1.00  0.00    -0.354 N 
ATOM     54  C   UNL A   1      43.554  28.204  29.006  1.00  0.00     0.074 A 
ATOM     55  C   UNL A   1      42.724  28.527  27.924  1.00  0.00     0.031 C 
ATOM     56  C   UNL A   1      44.733  31.864  32.500  1.00  0.00     0.029 A 
ATOM     57  C   UNL A   1      43.648  32.171  33.413  1.00  0.00     0.049 A 
ATOM     58  H   UNL A   1      41.863  33.159  32.795  1.00  0.00     0.167 HD
ATOM     59  C   UNL A   1      44.621  27.365  28.900  1.00  0.00     0.034 A 
ATOM     60  C   UNL A   1      43.435  31.626  34.643  1.00  0.00     0.034 A 
ATOM     61  C   UNL A   1      45.507  27.619  29.998  1.00  0.00     0.049 A 
ATOM     62  C   UNL A   1      44.164  30.318  34.860  1.00  0.00     0.074 A 
ATOM     63  C   UNL A   1      46.506  28.559  30.166  1.00  0.00     0.029 A 
ATOM     64  N   UNL A   1      45.151  27.159  31.243  1.00  0.00    -0.354 N 
ATOM     65  N   UNL A   1      44.781  29.653  33.922  1.00  0.00    -0.248 NA
ATOM     66  C   UNL A   1      44.265  29.653  36.155  1.00  0.00     0.031 C 
ATOM     67  C   UNL A   1      46.714  28.708  31.559  1.00  0.00     0.029 A 
ATOM     68  C   UNL A   1      45.878  27.820  32.213  1.00  0.00     0.049 A 
ATOM     69  H   UNL A   1      44.479  26.461  31.417  1.00  0.00     0.167 HD
ATOM     70  C   UNL A   1      45.209  28.446  34.413  1.00  0.00     0.074 A 
ATOM     71  C   UNL A   1      44.946  28.537  35.836  1.00  0.00     0.031 C 
ATOM     72  C   UNL A   1      45.675  27.450  33.599  1.00  0.00     0.034 A 
BRANCH  59  73
ATOM     73  C   UNL A   1      45.025  26.729  27.555  1.00  0.00     0.023 A 
ATOM     74  C   UNL A   1      44.982  25.325  27.463  1.00  0.00     0.012 A 
ATOM     75  C   UNL A   1      45.590  27.403  26.434  1.00  0.00     0.148 A 
ATOM     76  C   UNL A   1      45.602  24.623  26.419  1.00  0.00     0.002 A 
ATOM     77  C   UNL A   1      46.316  26.704  25.458  1.00  0.00     0.091 A 
ATOM     78  F   UNL A   1      45.435  28.732  26.312  1.00  0.00    -0.205 F 
ATOM     79  C   UNL A   1      46.323  25.309  25.451  1.00  0.00     0.022 A 
BRANCH  77  80
ATOM     80  S   UNL A   1      47.468  27.535  24.335  1.00  0.00     0.127 S 
ATOM     81  O   UNL A   1      48.402  28.189  25.257  1.00  0.00    -0.237 OA
ATOM     82  O   UNL A   1      48.045  26.429  23.577  1.00  0.00    -0.237 OA
ATOM     83  O   UNL A   1      46.653  28.479  23.575  1.00  0.00    -0.744 OA
ENDBRANCH  77  80
ENDBRANCH  59  73
BRANCH  60  84
ATOM     84  C   UNL A   1      42.188  32.103  35.327  1.00  0.00     0.023 A 
ATOM     85  C   UNL A   1      42.125  33.494  35.612  1.00  0.00     0.012 A 
ATOM     86  C   UNL A   1      41.003  31.349  35.443  1.00  0.00     0.148 A 
ATOM     87  C   UNL A   1      40.917  34.136  35.891  1.00  0.00     0.002 A 
ATOM     88  C   UNL A   1      39.795  31.997  35.739  1.00  0.00     0.091 A 
ATOM     89  F   UNL A   1      41.055  30.034  35.195  1.00  0.00    -0.205 F 
ATOM     90  C   UNL A   1      39.750  33.389  35.934  1.00  0.00     0.022 A 
BRANCH  88  91
ATOM     91  S   UNL A   1      38.198  31.161  35.801  1.00  0.00     0.127 S 
ATOM     92  O   UNL A   1      38.117  30.799  37.215  1.00  0.00    -0.237 OA
ATOM     93  O   UNL A   1      37.275  32.223  35.396  1.00  0.00    -0.237 OA
ATOM     94  O   UNL A   1      38.295  30.042  34.877  1.00  0.00    -0.744 OA
ENDBRANCH  88  91
ENDBRANCH  60  84
BRANCH  72  95
ATOM     95  C   UNL A   1      45.903  25.992  33.971  1.00  0.00     0.023 A 
ATOM     96  C   UNL A   1      44.906  25.016  33.825  1.00  0.00     0.012 A 
ATOM     97  C   UNL A   1      47.214  25.521  34.273  1.00  0.00     0.148 A 
ATOM     98  C   UNL A   1      45.178  23.653  33.993  1.00  0.00     0.002 A 
ATOM     99  C   UNL A   1      47.504  24.160  34.307  1.00  0.00     0.091 A 
ATOM    100  F   UNL A   1      48.204  26.390  34.529  1.00  0.00    -0.205 F 
ATOM    101  C   UNL A   1      46.482  23.220  34.199  1.00  0.00     0.022 A 
BRANCH  99 102
ATOM    102  S   UNL A   1      49.219  23.612  34.284  1.00  0.00     0.127 S 
ATOM    103  O   UNL A   1      49.740  24.147  35.538  1.00  0.00    -0.237 OA
ATOM    104  O   UNL A   1      49.095  22.152  34.255  1.00  0.00    -0.237 OA
ATOM    105  O   UNL A   1      49.755  24.186  33.057  1.00  0.00    -0.744 OA
ENDBRANCH  99 102
ENDBRANCH  72  95
ENDBRANCH  46  47
ENDBRANCH  39  41
ENDBRANCH  38  39
ENDBRANCH  37  38
ENDBRANCH  36  37
ENDBRANCH  35  36
ENDBRANCH   1  35
TORSDOF 22
ENDMDL
