MODEL 1
REMARK VINA RESULT:     -10.6      0.000      0.000
REMARK SMILES CC[NH+](CC)[C@@H](C(=O)OCCOCCOCCOC(=O)c1ccc(-c2c3nc(c(-c4cccc(S(=O)(=O)[O-])c4F)c4ccc([nH]4)c(-c4cccc(S(=O)(=O)[O-])c4F)c4nc(c(-c5cccc(S(=O)(=O)[O-])c5F)c5ccc2[nH]5)C=C4)C=C3)cc1)c1ccc(C2CC2)cc1
REMARK SMILES IDX 14 1 13 2 12 3 11 4 10 5 9 6 7 7 8 8 6 9 3 10 2 12 1 13 4 14
REMARK SMILES IDX 5 15 84 16 85 17 92 18 86 19 91 20 87 21 88 22 89 23 90 24
REMARK SMILES IDX 15 25 16 26 17 27 18 28 19 29 20 30 21 31 22 32 83 33 23 34
REMARK SMILES IDX 82 35 24 36 25 37 26 38 76 39 27 40 81 41 75 42 77 43 28 44
REMARK SMILES IDX 80 45 74 46 73 47 29 49 61 50 41 51 60 52 42 53 45 54 59 55
REMARK SMILES IDX 78 56 43 57 44 58 58 60 79 61 46 62 30 63 31 64 39 65 32 66
REMARK SMILES IDX 34 67 40 68 33 69 35 70 36 71 37 72 38 73 62 74 63 75 71 76
REMARK SMILES IDX 64 77 66 78 72 79 65 80 67 81 68 82 69 83 70 84 47 85 48 86
REMARK SMILES IDX 56 87 49 88 51 89 57 90 50 91 52 92 53 93 54 94 55 95
REMARK H PARENT 3 11 77 48 45 59
REMARK Flexibility Score: inf
ROOT
ATOM      1  C   UNL A   1      32.575  27.731  23.493  1.00  0.00     0.188 C 
ENDROOT
BRANCH   1   2
ATOM      2  C   UNL A   1      33.673  27.660  22.442  1.00  0.00     0.188 C 
BRANCH   2   3
ATOM      3  O   UNL A   1      33.655  26.517  21.600  1.00  0.00    -0.376 OA
BRANCH   3   4
ATOM      4  C   UNL A   1      32.557  25.629  21.785  1.00  0.00     0.202 C 
BRANCH   4   5
ATOM      5  C   UNL A   1      32.909  24.216  22.270  1.00  0.00     0.261 C 
BRANCH   5   6
ATOM      6  O   UNL A   1      34.327  23.945  22.382  1.00  0.00    -0.459 OA
BRANCH   6   7
ATOM      7  C   UNL A   1      34.710  23.217  23.470  1.00  0.00     0.369 C 
ATOM      8  O   UNL A   1      35.892  23.033  23.764  1.00  0.00    -0.245 OA
BRANCH   7   9
ATOM      9  C   UNL A   1      33.572  22.607  24.323  1.00  0.00     0.326 C 
BRANCH   9  10
ATOM     10  N   UNL A   1      33.281  23.191  25.663  1.00  0.00    -0.320 N 
ATOM     11  H   UNL A   1      33.769  24.060  25.443  1.00  0.00     0.349 HD
BRANCH  10  12
ATOM     12  C   UNL A   1      31.986  23.784  25.981  1.00  0.00     0.259 C 
ATOM     13  C   UNL A   1      32.009  25.281  26.284  1.00  0.00     0.071 C 
ENDBRANCH  10  12
BRANCH  10  14
ATOM     14  C   UNL A   1      33.972  22.595  26.805  1.00  0.00     0.259 C 
ATOM     15  C   UNL A   1      33.160  22.379  28.082  1.00  0.00     0.071 C 
ENDBRANCH  10  14
ENDBRANCH   9  10
BRANCH   9  16
ATOM     16  C   UNL A   1      33.509  21.073  24.286  1.00  0.00     0.021 A 
ATOM     17  C   UNL A   1      34.575  20.337  24.828  1.00  0.00     0.011 A 
ATOM     18  C   UNL A   1      32.472  20.348  23.687  1.00  0.00     0.011 A 
ATOM     19  C   UNL A   1      34.629  18.942  24.707  1.00  0.00     0.004 A 
ATOM     20  C   UNL A   1      32.540  18.950  23.561  1.00  0.00     0.004 A 
ATOM     21  C   UNL A   1      33.625  18.208  24.053  1.00  0.00    -0.045 A 
BRANCH  21  22
ATOM     22  C   UNL A   1      33.763  16.701  23.927  1.00  0.00     0.019 C 
ATOM     23  C   UNL A   1      34.649  15.879  24.823  1.00  0.00     0.009 C 
ATOM     24  C   UNL A   1      33.160  15.803  24.982  1.00  0.00     0.009 C 
ENDBRANCH  21  22
ENDBRANCH   9  16
ENDBRANCH   7   9
ENDBRANCH   6   7
ENDBRANCH   5   6
ENDBRANCH   4   5
ENDBRANCH   3   4
ENDBRANCH   2   3
ENDBRANCH   1   2
BRANCH   1  25
ATOM     25  O   UNL A   1      32.082  29.038  23.748  1.00  0.00    -0.376 OA
BRANCH  25  26
ATOM     26  C   UNL A   1      31.406  29.236  24.991  1.00  0.00     0.202 C 
BRANCH  26  27
ATOM     27  C   UNL A   1      31.845  30.417  25.880  1.00  0.00     0.261 C 
BRANCH  27  28
ATOM     28  O   UNL A   1      33.157  30.310  26.474  1.00  0.00    -0.460 OA
BRANCH  28  29
ATOM     29  C   UNL A   1      33.568  31.325  27.278  1.00  0.00     0.338 C 
ATOM     30  O   UNL A   1      32.883  32.233  27.691  1.00  0.00    -0.246 OA
BRANCH  29  31
ATOM     31  C   UNL A   1      34.928  30.988  27.795  1.00  0.00     0.060 A 
ATOM     32  C   UNL A   1      35.280  29.634  27.845  1.00  0.00     0.016 A 
ATOM     33  C   UNL A   1      35.866  31.955  28.162  1.00  0.00     0.016 A 
ATOM     34  C   UNL A   1      36.542  29.237  28.292  1.00  0.00     0.010 A 
ATOM     35  C   UNL A   1      37.127  31.558  28.637  1.00  0.00     0.010 A 
ATOM     36  C   UNL A   1      37.460  30.195  28.736  1.00  0.00    -0.014 A 
BRANCH  36  37
ATOM     37  C   UNL A   1      38.655  29.750  29.505  1.00  0.00     0.031 A 
ATOM     38  C   UNL A   1      38.750  30.139  30.956  1.00  0.00     0.074 A 
ATOM     39  C   UNL A   1      39.618  28.983  28.958  1.00  0.00     0.049 A 
ATOM     40  N   UNL A   1      39.682  29.868  31.831  1.00  0.00    -0.248 NA
ATOM     41  C   UNL A   1      37.650  30.962  31.484  1.00  0.00     0.031 C 
ATOM     42  C   UNL A   1      39.650  28.532  27.572  1.00  0.00     0.029 A 
ATOM     43  N   UNL A   1      40.747  28.432  29.519  1.00  0.00    -0.354 N 
ATOM     44  C   UNL A   1      39.326  30.556  32.985  1.00  0.00     0.074 A 
ATOM     45  C   UNL A   1      38.073  31.223  32.710  1.00  0.00     0.031 C 
ATOM     46  C   UNL A   1      40.720  27.734  27.399  1.00  0.00     0.029 A 
ATOM     47  C   UNL A   1      41.459  27.627  28.658  1.00  0.00     0.049 A 
ATOM     48  H   UNL A   1      41.022  28.598  30.450  1.00  0.00     0.167 HD
ATOM     49  C   UNL A   1      39.992  30.647  34.160  1.00  0.00     0.034 A 
ATOM     50  C   UNL A   1      42.563  26.876  28.871  1.00  0.00     0.034 A 
ATOM     51  C   UNL A   1      41.224  29.964  34.449  1.00  0.00     0.049 A 
ATOM     52  C   UNL A   1      43.236  26.919  30.224  1.00  0.00     0.074 A 
ATOM     53  C   UNL A   1      41.978  30.004  35.608  1.00  0.00     0.029 A 
ATOM     54  N   UNL A   1      41.885  29.118  33.572  1.00  0.00    -0.354 N 
ATOM     55  N   UNL A   1      42.862  27.533  31.321  1.00  0.00    -0.248 NA
ATOM     56  C   UNL A   1      44.494  26.166  30.365  1.00  0.00     0.031 C 
ATOM     57  C   UNL A   1      43.109  29.205  35.423  1.00  0.00     0.029 A 
ATOM     58  C   UNL A   1      43.039  28.632  34.163  1.00  0.00     0.049 A 
ATOM     59  H   UNL A   1      41.578  28.895  32.664  1.00  0.00     0.167 HD
ATOM     60  C   UNL A   1      43.834  27.246  32.274  1.00  0.00     0.074 A 
ATOM     61  C   UNL A   1      44.783  26.351  31.646  1.00  0.00     0.031 C 
ATOM     62  C   UNL A   1      43.957  27.712  33.543  1.00  0.00     0.034 A 
BRANCH  49  63
ATOM     63  C   UNL A   1      39.418  31.561  35.209  1.00  0.00     0.023 A 
ATOM     64  C   UNL A   1      38.435  31.094  36.102  1.00  0.00     0.012 A 
ATOM     65  C   UNL A   1      39.876  32.890  35.315  1.00  0.00     0.148 A 
ATOM     66  C   UNL A   1      37.887  31.947  37.061  1.00  0.00     0.002 A 
ATOM     67  C   UNL A   1      39.363  33.718  36.304  1.00  0.00     0.091 A 
ATOM     68  F   UNL A   1      40.793  33.321  34.438  1.00  0.00    -0.205 F 
ATOM     69  C   UNL A   1      38.357  33.253  37.167  1.00  0.00     0.022 A 
BRANCH  67  70
ATOM     70  S   UNL A   1      39.962  35.389  36.572  1.00  0.00     0.127 S 
ATOM     71  O   UNL A   1      39.365  35.712  37.866  1.00  0.00    -0.237 OA
ATOM     72  O   UNL A   1      41.411  35.194  36.601  1.00  0.00    -0.237 OA
ATOM     73  O   UNL A   1      39.478  36.176  35.447  1.00  0.00    -0.744 OA
ENDBRANCH  67  70
ENDBRANCH  49  63
BRANCH  50  74
ATOM     74  C   UNL A   1      43.084  25.963  27.808  1.00  0.00     0.023 A 
ATOM     75  C   UNL A   1      44.205  26.360  27.047  1.00  0.00     0.012 A 
ATOM     76  C   UNL A   1      42.490  24.717  27.535  1.00  0.00     0.148 A 
ATOM     77  C   UNL A   1      44.702  25.551  26.023  1.00  0.00     0.002 A 
ATOM     78  C   UNL A   1      43.037  23.882  26.566  1.00  0.00     0.091 A 
ATOM     79  F   UNL A   1      41.397  24.368  28.228  1.00  0.00    -0.205 F 
ATOM     80  C   UNL A   1      44.128  24.304  25.793  1.00  0.00     0.022 A 
BRANCH  78  81
ATOM     81  S   UNL A   1      42.457  22.199  26.327  1.00  0.00     0.127 S 
ATOM     82  O   UNL A   1      42.820  21.572  27.595  1.00  0.00    -0.237 OA
ATOM     83  O   UNL A   1      41.022  22.396  26.124  1.00  0.00    -0.237 OA
ATOM     84  O   UNL A   1      43.164  21.714  25.149  1.00  0.00    -0.744 OA
ENDBRANCH  78  81
ENDBRANCH  50  74
BRANCH  62  85
ATOM     85  C   UNL A   1      45.156  27.272  34.346  1.00  0.00     0.023 A 
ATOM     86  C   UNL A   1      46.344  28.030  34.301  1.00  0.00     0.012 A 
ATOM     87  C   UNL A   1      45.083  26.160  35.207  1.00  0.00     0.148 A 
ATOM     88  C   UNL A   1      47.451  27.666  35.068  1.00  0.00     0.002 A 
ATOM     89  C   UNL A   1      46.172  25.832  36.007  1.00  0.00     0.091 A 
ATOM     90  F   UNL A   1      43.951  25.441  35.230  1.00  0.00    -0.205 F 
ATOM     91  C   UNL A   1      47.361  26.575  35.929  1.00  0.00     0.022 A 
BRANCH  89  92
ATOM     92  S   UNL A   1      46.118  24.503  37.217  1.00  0.00     0.127 S 
ATOM     93  O   UNL A   1      45.061  24.963  38.116  1.00  0.00    -0.237 OA
ATOM     94  O   UNL A   1      45.760  23.348  36.392  1.00  0.00    -0.237 OA
ATOM     95  O   UNL A   1      47.451  24.439  37.801  1.00  0.00    -0.744 OA
ENDBRANCH  89  92
ENDBRANCH  62  85
ENDBRANCH  36  37
ENDBRANCH  29  31
ENDBRANCH  28  29
ENDBRANCH  27  28
ENDBRANCH  26  27
ENDBRANCH  25  26
ENDBRANCH   1  25
TORSDOF 25
ENDMDL
MODEL 2
REMARK VINA RESULT:     -10.2      4.988      9.909
REMARK SMILES CC[NH+](CC)[C@@H](C(=O)OCCOCCOCCOC(=O)c1ccc(-c2c3nc(c(-c4cccc(S(=O)(=O)[O-])c4F)c4ccc([nH]4)c(-c4cccc(S(=O)(=O)[O-])c4F)c4nc(c(-c5cccc(S(=O)(=O)[O-])c5F)c5ccc2[nH]5)C=C4)C=C3)cc1)c1ccc(C2CC2)cc1
REMARK SMILES IDX 14 1 13 2 12 3 11 4 10 5 9 6 7 7 8 8 6 9 3 10 2 12 1 13 4 14
REMARK SMILES IDX 5 15 84 16 85 17 92 18 86 19 91 20 87 21 88 22 89 23 90 24
REMARK SMILES IDX 15 25 16 26 17 27 18 28 19 29 20 30 21 31 22 32 83 33 23 34
REMARK SMILES IDX 82 35 24 36 25 37 26 38 76 39 27 40 81 41 75 42 77 43 28 44
REMARK SMILES IDX 80 45 74 46 73 47 29 49 61 50 41 51 60 52 42 53 45 54 59 55
REMARK SMILES IDX 78 56 43 57 44 58 58 60 79 61 46 62 30 63 31 64 39 65 32 66
REMARK SMILES IDX 34 67 40 68 33 69 35 70 36 71 37 72 38 73 62 74 63 75 71 76
REMARK SMILES IDX 64 77 66 78 72 79 65 80 67 81 68 82 69 83 70 84 47 85 48 86
REMARK SMILES IDX 56 87 49 88 51 89 57 90 50 91 52 92 53 93 54 94 55 95
REMARK H PARENT 3 11 77 48 45 59
REMARK Flexibility Score: inf
ROOT
ATOM      1  C   UNL A   1      36.002  21.904  24.386  1.00  0.00     0.188 C 
ENDROOT
BRANCH   1   2
ATOM      2  C   UNL A   1      35.195  22.997  25.072  1.00  0.00     0.188 C 
BRANCH   2   3
ATOM      3  O   UNL A   1      35.442  24.324  24.628  1.00  0.00    -0.376 OA
BRANCH   3   4
ATOM      4  C   UNL A   1      34.350  25.230  24.748  1.00  0.00     0.202 C 
BRANCH   4   5
ATOM      5  C   UNL A   1      33.969  25.998  23.475  1.00  0.00     0.261 C 
BRANCH   5   6
ATOM      6  O   UNL A   1      33.343  25.197  22.444  1.00  0.00    -0.459 OA
BRANCH   6   7
ATOM      7  C   UNL A   1      32.031  25.472  22.191  1.00  0.00     0.369 C 
ATOM      8  O   UNL A   1      31.671  26.191  21.258  1.00  0.00    -0.245 OA
BRANCH   7   9
ATOM      9  C   UNL A   1      30.999  24.841  23.157  1.00  0.00     0.326 C 
BRANCH   9  10
ATOM     10  N   UNL A   1      30.408  25.687  24.233  1.00  0.00    -0.320 N 
ATOM     11  H   UNL A   1      30.559  24.971  24.944  1.00  0.00     0.349 HD
BRANCH  10  12
ATOM     12  C   UNL A   1      31.166  26.751  24.881  1.00  0.00     0.259 C 
ATOM     13  C   UNL A   1      31.003  26.841  26.397  1.00  0.00     0.071 C 
ENDBRANCH  10  12
BRANCH  10  14
ATOM     14  C   UNL A   1      28.966  25.922  24.167  1.00  0.00     0.259 C 
ATOM     15  C   UNL A   1      28.497  27.221  23.513  1.00  0.00     0.071 C 
ENDBRANCH  10  14
ENDBRANCH   9  10
BRANCH   9  16
ATOM     16  C   UNL A   1      31.347  23.415  23.607  1.00  0.00     0.021 A 
ATOM     17  C   UNL A   1      31.218  23.081  24.965  1.00  0.00     0.011 A 
ATOM     18  C   UNL A   1      31.848  22.426  22.751  1.00  0.00     0.011 A 
ATOM     19  C   UNL A   1      31.641  21.836  25.450  1.00  0.00     0.004 A 
ATOM     20  C   UNL A   1      32.280  21.185  23.248  1.00  0.00     0.004 A 
ATOM     21  C   UNL A   1      32.202  20.859  24.612  1.00  0.00    -0.045 A 
BRANCH  21  22
ATOM     22  C   UNL A   1      32.673  19.544  25.208  1.00  0.00     0.019 C 
ATOM     23  C   UNL A   1      32.473  18.216  24.529  1.00  0.00     0.009 C 
ATOM     24  C   UNL A   1      33.845  18.818  24.589  1.00  0.00     0.009 C 
ENDBRANCH  21  22
ENDBRANCH   9  16
ENDBRANCH   7   9
ENDBRANCH   6   7
ENDBRANCH   5   6
ENDBRANCH   4   5
ENDBRANCH   3   4
ENDBRANCH   2   3
ENDBRANCH   1   2
BRANCH   1  25
ATOM     25  O   UNL A   1      36.688  21.032  25.272  1.00  0.00    -0.376 OA
BRANCH  25  26
ATOM     26  C   UNL A   1      37.460  19.990  24.672  1.00  0.00     0.202 C 
BRANCH  26  27
ATOM     27  C   UNL A   1      38.851  19.681  25.264  1.00  0.00     0.261 C 
BRANCH  27  28
ATOM     28  O   UNL A   1      39.286  20.535  26.343  1.00  0.00    -0.460 OA
BRANCH  28  29
ATOM     29  C   UNL A   1      40.623  20.642  26.561  1.00  0.00     0.338 C 
ATOM     30  O   UNL A   1      41.474  19.875  26.175  1.00  0.00    -0.246 OA
BRANCH  29  31
ATOM     31  C   UNL A   1      40.897  22.003  27.111  1.00  0.00     0.060 A 
ATOM     32  C   UNL A   1      40.236  23.084  26.515  1.00  0.00     0.016 A 
ATOM     33  C   UNL A   1      41.720  22.228  28.216  1.00  0.00     0.016 A 
ATOM     34  C   UNL A   1      40.418  24.385  26.986  1.00  0.00     0.010 A 
ATOM     35  C   UNL A   1      41.926  23.538  28.677  1.00  0.00     0.010 A 
ATOM     36  C   UNL A   1      41.303  24.629  28.043  1.00  0.00    -0.014 A 
BRANCH  36  37
ATOM     37  C   UNL A   1      41.734  26.027  28.318  1.00  0.00     0.031 A 
ATOM     38  C   UNL A   1      43.075  26.470  27.796  1.00  0.00     0.074 A 
ATOM     39  C   UNL A   1      40.952  26.906  28.972  1.00  0.00     0.049 A 
ATOM     40  N   UNL A   1      43.665  27.632  27.899  1.00  0.00    -0.248 NA
ATOM     41  C   UNL A   1      43.862  25.457  27.076  1.00  0.00     0.031 C 
ATOM     42  C   UNL A   1      39.635  26.613  29.526  1.00  0.00     0.029 A 
ATOM     43  N   UNL A   1      41.152  28.237  29.262  1.00  0.00    -0.354 N 
ATOM     44  C   UNL A   1      44.924  27.465  27.335  1.00  0.00     0.074 A 
ATOM     45  C   UNL A   1      44.996  26.102  26.855  1.00  0.00     0.031 C 
ATOM     46  C   UNL A   1      39.122  27.742  30.049  1.00  0.00     0.029 A 
ATOM     47  C   UNL A   1      40.078  28.838  29.881  1.00  0.00     0.049 A 
ATOM     48  H   UNL A   1      41.985  28.715  29.047  1.00  0.00     0.167 HD
ATOM     49  C   UNL A   1      45.940  28.356  27.244  1.00  0.00     0.034 A 
ATOM     50  C   UNL A   1      39.885  30.125  30.247  1.00  0.00     0.034 A 
ATOM     51  C   UNL A   1      45.865  29.720  27.693  1.00  0.00     0.049 A 
ATOM     52  C   UNL A   1      41.002  31.125  30.047  1.00  0.00     0.074 A 
ATOM     53  C   UNL A   1      46.847  30.693  27.652  1.00  0.00     0.029 A 
ATOM     54  N   UNL A   1      44.746  30.304  28.265  1.00  0.00    -0.354 N 
ATOM     55  N   UNL A   1      42.167  30.966  29.467  1.00  0.00    -0.248 NA
ATOM     56  C   UNL A   1      40.775  32.486  30.563  1.00  0.00     0.031 C 
ATOM     57  C   UNL A   1      46.332  31.859  28.227  1.00  0.00     0.029 A 
ATOM     58  C   UNL A   1      45.015  31.625  28.586  1.00  0.00     0.049 A 
ATOM     59  H   UNL A   1      43.888  29.849  28.421  1.00  0.00     0.167 HD
ATOM     60  C   UNL A   1      42.810  32.198  29.551  1.00  0.00     0.074 A 
ATOM     61  C   UNL A   1      41.881  33.112  30.182  1.00  0.00     0.031 C 
ATOM     62  C   UNL A   1      44.071  32.536  29.179  1.00  0.00     0.034 A 
BRANCH  49  63
ATOM     63  C   UNL A   1      47.242  27.861  26.674  1.00  0.00     0.023 A 
ATOM     64  C   UNL A   1      48.274  27.423  27.527  1.00  0.00     0.012 A 
ATOM     65  C   UNL A   1      47.430  27.815  25.278  1.00  0.00     0.148 A 
ATOM     66  C   UNL A   1      49.489  26.985  26.999  1.00  0.00     0.002 A 
ATOM     67  C   UNL A   1      48.623  27.330  24.759  1.00  0.00     0.091 A 
ATOM     68  F   UNL A   1      46.444  28.262  24.486  1.00  0.00    -0.205 F 
ATOM     69  C   UNL A   1      49.659  26.930  25.618  1.00  0.00     0.022 A 
BRANCH  67  70
ATOM     70  S   UNL A   1      48.905  27.146  22.996  1.00  0.00     0.127 S 
ATOM     71  O   UNL A   1      50.366  27.131  22.932  1.00  0.00    -0.237 OA
ATOM     72  O   UNL A   1      48.270  25.858  22.717  1.00  0.00    -0.237 OA
ATOM     73  O   UNL A   1      48.264  28.289  22.363  1.00  0.00    -0.744 OA
ENDBRANCH  67  70
ENDBRANCH  49  63
BRANCH  50  74
ATOM     74  C   UNL A   1      38.566  30.578  30.786  1.00  0.00     0.023 A 
ATOM     75  C   UNL A   1      38.300  30.434  32.165  1.00  0.00     0.012 A 
ATOM     76  C   UNL A   1      37.576  31.140  29.962  1.00  0.00     0.148 A 
ATOM     77  C   UNL A   1      37.068  30.815  32.702  1.00  0.00     0.002 A 
ATOM     78  C   UNL A   1      36.380  31.588  30.516  1.00  0.00     0.091 A 
ATOM     79  F   UNL A   1      37.817  31.229  28.646  1.00  0.00    -0.205 F 
ATOM     80  C   UNL A   1      36.114  31.407  31.881  1.00  0.00     0.022 A 
BRANCH  78  81
ATOM     81  S   UNL A   1      35.174  32.509  29.554  1.00  0.00     0.127 S 
ATOM     82  O   UNL A   1      35.994  33.575  28.985  1.00  0.00    -0.237 OA
ATOM     83  O   UNL A   1      34.716  31.504  28.595  1.00  0.00    -0.237 OA
ATOM     84  O   UNL A   1      34.158  32.925  30.511  1.00  0.00    -0.744 OA
ENDBRANCH  78  81
ENDBRANCH  50  74
BRANCH  62  85
ATOM     85  C   UNL A   1      44.532  33.949  29.441  1.00  0.00     0.023 A 
ATOM     86  C   UNL A   1      45.207  34.253  30.640  1.00  0.00     0.012 A 
ATOM     87  C   UNL A   1      44.370  34.956  28.469  1.00  0.00     0.148 A 
ATOM     88  C   UNL A   1      45.681  35.542  30.885  1.00  0.00     0.002 A 
ATOM     89  C   UNL A   1      44.889  36.226  28.697  1.00  0.00     0.091 A 
ATOM     90  F   UNL A   1      43.714  34.655  27.339  1.00  0.00    -0.205 F 
ATOM     91  C   UNL A   1      45.531  36.525  29.909  1.00  0.00     0.022 A 
BRANCH  89  92
ATOM     92  S   UNL A   1      44.830  37.529  27.460  1.00  0.00     0.127 S 
ATOM     93  O   UNL A   1      45.226  38.699  28.243  1.00  0.00    -0.237 OA
ATOM     94  O   UNL A   1      45.828  37.079  26.488  1.00  0.00    -0.237 OA
ATOM     95  O   UNL A   1      43.462  37.545  26.960  1.00  0.00    -0.744 OA
ENDBRANCH  89  92
ENDBRANCH  62  85
ENDBRANCH  36  37
ENDBRANCH  29  31
ENDBRANCH  28  29
ENDBRANCH  27  28
ENDBRANCH  26  27
ENDBRANCH  25  26
ENDBRANCH   1  25
TORSDOF 25
ENDMDL
MODEL 3
REMARK VINA RESULT:     -10.1      4.664     10.332
REMARK SMILES CC[NH+](CC)[C@@H](C(=O)OCCOCCOCCOC(=O)c1ccc(-c2c3nc(c(-c4cccc(S(=O)(=O)[O-])c4F)c4ccc([nH]4)c(-c4cccc(S(=O)(=O)[O-])c4F)c4nc(c(-c5cccc(S(=O)(=O)[O-])c5F)c5ccc2[nH]5)C=C4)C=C3)cc1)c1ccc(C2CC2)cc1
REMARK SMILES IDX 14 1 13 2 12 3 11 4 10 5 9 6 7 7 8 8 6 9 3 10 2 12 1 13 4 14
REMARK SMILES IDX 5 15 84 16 85 17 92 18 86 19 91 20 87 21 88 22 89 23 90 24
REMARK SMILES IDX 15 25 16 26 17 27 18 28 19 29 20 30 21 31 22 32 83 33 23 34
REMARK SMILES IDX 82 35 24 36 25 37 26 38 76 39 27 40 81 41 75 42 77 43 28 44
REMARK SMILES IDX 80 45 74 46 73 47 29 49 61 50 41 51 60 52 42 53 45 54 59 55
REMARK SMILES IDX 78 56 43 57 44 58 58 60 79 61 46 62 30 63 31 64 39 65 32 66
REMARK SMILES IDX 34 67 40 68 33 69 35 70 36 71 37 72 38 73 62 74 63 75 71 76
REMARK SMILES IDX 64 77 66 78 72 79 65 80 67 81 68 82 69 83 70 84 47 85 48 86
REMARK SMILES IDX 56 87 49 88 51 89 57 90 50 91 52 92 53 93 54 94 55 95
REMARK H PARENT 3 11 77 48 45 59
REMARK Flexibility Score: inf
ROOT
ATOM      1  C   UNL A   1      34.671  23.201  24.477  1.00  0.00     0.188 C 
ENDROOT
BRANCH   1   2
ATOM      2  C   UNL A   1      34.279  23.113  23.009  1.00  0.00     0.188 C 
BRANCH   2   3
ATOM      3  O   UNL A   1      32.890  23.206  22.729  1.00  0.00    -0.376 OA
BRANCH   3   4
ATOM      4  C   UNL A   1      32.042  22.384  23.525  1.00  0.00     0.202 C 
BRANCH   4   5
ATOM      5  C   UNL A   1      31.092  23.121  24.479  1.00  0.00     0.261 C 
BRANCH   5   6
ATOM      6  O   UNL A   1      30.814  24.496  24.121  1.00  0.00    -0.459 OA
BRANCH   6   7
ATOM      7  C   UNL A   1      30.622  25.356  25.162  1.00  0.00     0.369 C 
ATOM      8  O   UNL A   1      30.317  24.974  26.292  1.00  0.00    -0.245 OA
BRANCH   7   9
ATOM      9  C   UNL A   1      30.789  26.862  24.847  1.00  0.00     0.326 C 
BRANCH   9  10
ATOM     10  N   UNL A   1      30.743  27.312  23.427  1.00  0.00    -0.320 N 
ATOM     11  H   UNL A   1      30.430  26.398  23.098  1.00  0.00     0.349 HD
BRANCH  10  12
ATOM     12  C   UNL A   1      29.625  28.089  22.901  1.00  0.00     0.259 C 
ATOM     13  C   UNL A   1      29.994  29.450  22.313  1.00  0.00     0.071 C 
ENDBRANCH  10  12
BRANCH  10  14
ATOM     14  C   UNL A   1      32.026  27.580  22.779  1.00  0.00     0.259 C 
ATOM     15  C   UNL A   1      32.615  26.474  21.905  1.00  0.00     0.071 C 
ENDBRANCH  10  14
ENDBRANCH   9  10
BRANCH   9  16
ATOM     16  C   UNL A   1      31.863  27.566  25.689  1.00  0.00     0.021 A 
ATOM     17  C   UNL A   1      31.581  28.831  26.230  1.00  0.00     0.011 A 
ATOM     18  C   UNL A   1      33.147  27.051  25.908  1.00  0.00     0.011 A 
ATOM     19  C   UNL A   1      32.565  29.572  26.896  1.00  0.00     0.004 A 
ATOM     20  C   UNL A   1      34.131  27.806  26.568  1.00  0.00     0.004 A 
ATOM     21  C   UNL A   1      33.874  29.092  27.069  1.00  0.00    -0.045 A 
BRANCH  21  22
ATOM     22  C   UNL A   1      34.903  29.961  27.770  1.00  0.00     0.019 C 
ATOM     23  C   UNL A   1      35.995  29.401  28.641  1.00  0.00     0.009 C 
ATOM     24  C   UNL A   1      36.337  29.959  27.292  1.00  0.00     0.009 C 
ENDBRANCH  21  22
ENDBRANCH   9  16
ENDBRANCH   7   9
ENDBRANCH   6   7
ENDBRANCH   5   6
ENDBRANCH   4   5
ENDBRANCH   3   4
ENDBRANCH   2   3
ENDBRANCH   1   2
BRANCH   1  25
ATOM     25  O   UNL A   1      36.065  23.085  24.726  1.00  0.00    -0.376 OA
BRANCH  25  26
ATOM     26  C   UNL A   1      36.705  21.903  24.244  1.00  0.00     0.202 C 
BRANCH  26  27
ATOM     27  C   UNL A   1      37.538  21.068  25.238  1.00  0.00     0.261 C 
BRANCH  27  28
ATOM     28  O   UNL A   1      38.972  21.194  25.126  1.00  0.00    -0.460 OA
BRANCH  28  29
ATOM     29  C   UNL A   1      39.714  20.933  26.234  1.00  0.00     0.338 C 
ATOM     30  O   UNL A   1      40.151  19.855  26.566  1.00  0.00    -0.246 OA
BRANCH  29  31
ATOM     31  C   UNL A   1      40.139  22.237  26.827  1.00  0.00     0.060 A 
ATOM     32  C   UNL A   1      39.459  23.387  26.406  1.00  0.00     0.016 A 
ATOM     33  C   UNL A   1      41.122  22.343  27.812  1.00  0.00     0.016 A 
ATOM     34  C   UNL A   1      39.779  24.640  26.930  1.00  0.00     0.010 A 
ATOM     35  C   UNL A   1      41.464  23.606  28.322  1.00  0.00     0.010 A 
ATOM     36  C   UNL A   1      40.818  24.766  27.860  1.00  0.00    -0.014 A 
BRANCH  36  37
ATOM     37  C   UNL A   1      41.360  26.120  28.159  1.00  0.00     0.031 A 
ATOM     38  C   UNL A   1      42.677  26.508  27.542  1.00  0.00     0.074 A 
ATOM     39  C   UNL A   1      40.695  27.010  28.920  1.00  0.00     0.049 A 
ATOM     40  N   UNL A   1      43.348  27.626  27.646  1.00  0.00    -0.248 NA
ATOM     41  C   UNL A   1      43.333  25.487  26.710  1.00  0.00     0.031 C 
ATOM     42  C   UNL A   1      39.413  26.769  29.573  1.00  0.00     0.029 A 
ATOM     43  N   UNL A   1      41.003  28.310  29.252  1.00  0.00    -0.354 N 
ATOM     44  C   UNL A   1      44.541  27.412  26.966  1.00  0.00     0.074 A 
ATOM     45  C   UNL A   1      44.483  26.074  26.420  1.00  0.00     0.031 C 
ATOM     46  C   UNL A   1      39.021  27.898  30.191  1.00  0.00     0.029 A 
ATOM     47  C   UNL A   1      40.028  28.942  29.990  1.00  0.00     0.049 A 
ATOM     48  H   UNL A   1      41.844  28.748  28.986  1.00  0.00     0.167 HD
ATOM     49  C   UNL A   1      45.600  28.244  26.828  1.00  0.00     0.034 A 
ATOM     50  C   UNL A   1      39.950  30.218  30.430  1.00  0.00     0.034 A 
ATOM     51  C   UNL A   1      45.652  29.585  27.344  1.00  0.00     0.049 A 
ATOM     52  C   UNL A   1      41.107  31.157  30.179  1.00  0.00     0.074 A 
ATOM     53  C   UNL A   1      46.688  30.498  27.262  1.00  0.00     0.029 A 
ATOM     54  N   UNL A   1      44.626  30.205  28.039  1.00  0.00    -0.354 N 
ATOM     55  N   UNL A   1      42.207  30.959  29.492  1.00  0.00    -0.248 NA
ATOM     56  C   UNL A   1      41.014  32.501  30.775  1.00  0.00     0.031 C 
ATOM     57  C   UNL A   1      46.300  31.661  27.932  1.00  0.00     0.029 A 
ATOM     58  C   UNL A   1      45.006  31.489  28.395  1.00  0.00     0.049 A 
ATOM     59  H   UNL A   1      43.757  29.795  28.248  1.00  0.00     0.167 HD
ATOM     60  C   UNL A   1      42.932  32.144  29.576  1.00  0.00     0.074 A 
ATOM     61  C   UNL A   1      42.121  33.078  30.328  1.00  0.00     0.031 C 
ATOM     62  C   UNL A   1      44.176  32.423  29.110  1.00  0.00     0.034 A 
BRANCH  49  63
ATOM     63  C   UNL A   1      46.815  27.701  26.123  1.00  0.00     0.023 A 
ATOM     64  C   UNL A   1      47.016  27.952  24.752  1.00  0.00     0.012 A 
ATOM     65  C   UNL A   1      47.770  26.951  26.838  1.00  0.00     0.148 A 
ATOM     66  C   UNL A   1      48.131  27.432  24.094  1.00  0.00     0.002 A 
ATOM     67  C   UNL A   1      48.902  26.478  26.188  1.00  0.00     0.091 A 
ATOM     68  F   UNL A   1      47.544  26.701  28.136  1.00  0.00    -0.205 F 
ATOM     69  C   UNL A   1      49.076  26.704  24.813  1.00  0.00     0.022 A 
BRANCH  67  70
ATOM     70  S   UNL A   1      50.213  25.602  27.045  1.00  0.00     0.127 S 
ATOM     71  O   UNL A   1      51.204  25.443  25.982  1.00  0.00    -0.237 OA
ATOM     72  O   UNL A   1      50.587  26.556  28.089  1.00  0.00    -0.237 OA
ATOM     73  O   UNL A   1      49.620  24.366  27.535  1.00  0.00    -0.744 OA
ENDBRANCH  67  70
ENDBRANCH  49  63
BRANCH  50  74
ATOM     74  C   UNL A   1      38.713  30.721  31.104  1.00  0.00     0.023 A 
ATOM     75  C   UNL A   1      38.440  30.321  32.430  1.00  0.00     0.012 A 
ATOM     76  C   UNL A   1      37.807  31.579  30.456  1.00  0.00     0.148 A 
ATOM     77  C   UNL A   1      37.280  30.743  33.083  1.00  0.00     0.002 A 
ATOM     78  C   UNL A   1      36.692  32.057  31.139  1.00  0.00     0.091 A 
ATOM     79  F   UNL A   1      38.048  31.916  29.181  1.00  0.00    -0.205 F 
ATOM     80  C   UNL A   1      36.414  31.624  32.443  1.00  0.00     0.022 A 
BRANCH  78  81
ATOM     81  S   UNL A   1      35.622  33.321  30.441  1.00  0.00     0.127 S 
ATOM     82  O   UNL A   1      34.353  33.044  31.109  1.00  0.00    -0.237 OA
ATOM     83  O   UNL A   1      36.287  34.553  30.865  1.00  0.00    -0.237 OA
ATOM     84  O   UNL A   1      35.650  33.093  29.002  1.00  0.00    -0.744 OA
ENDBRANCH  78  81
ENDBRANCH  50  74
BRANCH  62  85
ATOM     85  C   UNL A   1      44.748  33.791  29.395  1.00  0.00     0.023 A 
ATOM     86  C   UNL A   1      45.463  34.015  30.589  1.00  0.00     0.012 A 
ATOM     87  C   UNL A   1      44.650  34.829  28.448  1.00  0.00     0.148 A 
ATOM     88  C   UNL A   1      46.037  35.258  30.854  1.00  0.00     0.002 A 
ATOM     89  C   UNL A   1      45.267  36.050  28.695  1.00  0.00     0.091 A 
ATOM     90  F   UNL A   1      43.956  34.605  27.323  1.00  0.00    -0.205 F 
ATOM     91  C   UNL A   1      45.949  36.272  29.903  1.00  0.00     0.022 A 
BRANCH  89  92
ATOM     92  S   UNL A   1      45.291  37.383  27.488  1.00  0.00     0.127 S 
ATOM     93  O   UNL A   1      45.962  38.446  28.233  1.00  0.00    -0.237 OA
ATOM     94  O   UNL A   1      46.083  36.803  26.403  1.00  0.00    -0.237 OA
ATOM     95  O   UNL A   1      43.898  37.640  27.149  1.00  0.00    -0.744 OA
ENDBRANCH  89  92
ENDBRANCH  62  85
ENDBRANCH  36  37
ENDBRANCH  29  31
ENDBRANCH  28  29
ENDBRANCH  27  28
ENDBRANCH  26  27
ENDBRANCH  25  26
ENDBRANCH   1  25
TORSDOF 25
ENDMDL
