MODEL 1
REMARK VINA RESULT:     -11.0      0.000      0.000
REMARK SMILES CC(=O)Nc1cccc(-c2ccc(F)c(C(=O)OCCOCCOCCOC(=O)c3ccc(-c4c5nc(c(-c6cccc(S(=O)(=O)[O-])c6F)c6ccc([nH]6)c(-c6cccc(S(=O)(=O)[O-])c6F)c6nc(c(-c7cccc(S(=O)(=O)[O-])c7F)c7ccc4[nH]7)C=C6)C=C5)cc3)c2)c1
REMARK SMILES IDX 23 1 22 2 21 3 20 4 19 5 18 6 16 7 17 8 15 9 10 10 11 11
REMARK SMILES IDX 93 12 12 13 13 14 14 15 9 16 5 17 6 18 94 19 7 20 8 21 4 22
REMARK SMILES IDX 1 23 2 24 3 25 24 27 25 28 26 29 27 30 28 31 29 32 30 33
REMARK SMILES IDX 31 34 92 35 32 36 91 37 33 38 34 39 35 40 85 41 36 42 90 43
REMARK SMILES IDX 84 44 86 45 37 46 89 47 83 48 82 49 38 51 70 52 50 53 69 54
REMARK SMILES IDX 51 55 54 56 68 57 87 58 52 59 53 60 67 62 88 63 55 64 39 65
REMARK SMILES IDX 40 66 48 67 41 68 43 69 49 70 42 71 44 72 45 73 46 74 47 75
REMARK SMILES IDX 71 76 72 77 80 78 73 79 75 80 81 81 74 82 76 83 77 84 78 85
REMARK SMILES IDX 79 86 56 87 57 88 65 89 58 90 60 91 66 92 59 93 61 94 62 95
REMARK SMILES IDX 63 96 64 97
REMARK H PARENT 4 26 86 50 54 61
REMARK Flexibility Score: inf
ROOT
ATOM      1  C   UNL A   1      36.760  21.930  24.660  1.00  0.00     0.188 C 
ENDROOT
BRANCH   1   2
ATOM      2  C   UNL A   1      35.388  21.425  25.159  1.00  0.00     0.188 C 
BRANCH   2   3
ATOM      3  O   UNL A   1      34.316  22.175  24.617  1.00  0.00    -0.376 OA
BRANCH   3   4
ATOM      4  C   UNL A   1      33.094  21.512  24.363  1.00  0.00     0.202 C 
BRANCH   4   5
ATOM      5  C   UNL A   1      32.314  21.860  23.084  1.00  0.00     0.261 C 
BRANCH   5   6
ATOM      6  O   UNL A   1      31.925  23.233  22.963  1.00  0.00    -0.460 OA
BRANCH   6   7
ATOM      7  C   UNL A   1      32.804  24.098  22.407  1.00  0.00     0.341 C 
ATOM      8  O   UNL A   1      33.637  23.854  21.554  1.00  0.00    -0.246 OA
BRANCH   7   9
ATOM      9  C   UNL A   1      32.544  25.425  22.995  1.00  0.00     0.096 A 
ATOM     10  C   UNL A   1      31.066  27.358  23.287  1.00  0.00    -0.017 A 
ATOM     11  C   UNL A   1      32.083  27.978  24.032  1.00  0.00     0.012 A 
ATOM     12  C   UNL A   1      31.327  26.079  22.755  1.00  0.00     0.027 A 
ATOM     13  C   UNL A   1      33.307  27.334  24.254  1.00  0.00     0.041 A 
ATOM     14  C   UNL A   1      33.527  26.057  23.743  1.00  0.00     0.137 A 
ATOM     15  F   UNL A   1      34.720  25.481  23.938  1.00  0.00    -0.206 F 
BRANCH  10  16
ATOM     16  C   UNL A   1      29.743  27.983  23.101  1.00  0.00    -0.016 A 
ATOM     17  C   UNL A   1      28.427  29.842  22.187  1.00  0.00     0.041 A 
ATOM     18  C   UNL A   1      27.278  29.301  22.765  1.00  0.00     0.026 A 
ATOM     19  C   UNL A   1      29.643  29.188  22.378  1.00  0.00     0.034 A 
ATOM     20  C   UNL A   1      27.342  28.093  23.463  1.00  0.00     0.003 A 
ATOM     21  C   UNL A   1      28.565  27.435  23.625  1.00  0.00     0.009 A 
BRANCH  17  22
ATOM     22  N   UNL A   1      28.308  31.061  21.497  1.00  0.00    -0.326 N 
ATOM     23  C   UNL A   1      28.743  32.698  23.333  1.00  0.00     0.114 C 
ATOM     24  C   UNL A   1      28.286  32.353  21.940  1.00  0.00     0.221 C 
ATOM     25  O   UNL A   1      27.948  33.243  21.154  1.00  0.00    -0.275 OA
ATOM     26  H   UNL A   1      28.223  30.966  20.521  1.00  0.00     0.169 HD
ENDBRANCH  17  22
ENDBRANCH  10  16
ENDBRANCH   7   9
ENDBRANCH   6   7
ENDBRANCH   5   6
ENDBRANCH   4   5
ENDBRANCH   3   4
ENDBRANCH   2   3
ENDBRANCH   1   2
BRANCH   1  27
ATOM     27  O   UNL A   1      37.957  21.270  25.063  1.00  0.00    -0.376 OA
BRANCH  27  28
ATOM     28  C   UNL A   1      37.959  19.855  25.200  1.00  0.00     0.202 C 
BRANCH  28  29
ATOM     29  C   UNL A   1      39.206  19.174  25.774  1.00  0.00     0.261 C 
BRANCH  29  30
ATOM     30  O   UNL A   1      40.413  19.945  25.680  1.00  0.00    -0.460 OA
BRANCH  30  31
ATOM     31  C   UNL A   1      41.117  20.064  26.834  1.00  0.00     0.338 C 
ATOM     32  O   UNL A   1      41.430  19.173  27.605  1.00  0.00    -0.246 OA
BRANCH  31  33
ATOM     33  C   UNL A   1      41.628  21.444  26.958  1.00  0.00     0.060 A 
ATOM     34  C   UNL A   1      41.924  21.927  28.241  1.00  0.00     0.016 A 
ATOM     35  C   UNL A   1      41.774  22.266  25.841  1.00  0.00     0.016 A 
ATOM     36  C   UNL A   1      42.362  23.239  28.410  1.00  0.00     0.010 A 
ATOM     37  C   UNL A   1      42.190  23.589  26.016  1.00  0.00     0.010 A 
ATOM     38  C   UNL A   1      42.468  24.087  27.301  1.00  0.00    -0.014 A 
BRANCH  38  39
ATOM     39  C   UNL A   1      42.757  25.526  27.492  1.00  0.00     0.031 A 
ATOM     40  C   UNL A   1      44.099  26.063  27.081  1.00  0.00     0.074 A 
ATOM     41  C   UNL A   1      41.847  26.341  28.053  1.00  0.00     0.049 A 
ATOM     42  N   UNL A   1      44.574  27.276  27.192  1.00  0.00    -0.248 NA
ATOM     43  C   UNL A   1      45.028  25.104  26.464  1.00  0.00     0.031 C 
ATOM     44  C   UNL A   1      40.510  25.939  28.486  1.00  0.00     0.029 A 
ATOM     45  N   UNL A   1      41.924  27.671  28.380  1.00  0.00    -0.354 N 
ATOM     46  C   UNL A   1      45.865  27.224  26.682  1.00  0.00     0.074 A 
ATOM     47  C   UNL A   1      46.101  25.858  26.268  1.00  0.00     0.031 C 
ATOM     48  C   UNL A   1      39.903  26.995  29.055  1.00  0.00     0.029 A 
ATOM     49  C   UNL A   1      40.816  28.137  29.046  1.00  0.00     0.049 A 
ATOM     50  H   UNL A   1      42.699  28.237  28.160  1.00  0.00     0.167 HD
ATOM     51  C   UNL A   1      46.768  28.226  26.559  1.00  0.00     0.034 A 
ATOM     52  C   UNL A   1      40.577  29.340  29.605  1.00  0.00     0.034 A 
ATOM     53  C   UNL A   1      46.530  29.584  26.963  1.00  0.00     0.049 A 
ATOM     54  C   UNL A   1      41.621  30.423  29.506  1.00  0.00     0.074 A 
ATOM     55  C   UNL A   1      47.354  30.685  26.812  1.00  0.00     0.029 A 
ATOM     56  N   UNL A   1      45.394  30.024  27.626  1.00  0.00    -0.354 N 
ATOM     57  N   UNL A   1      42.778  30.401  28.889  1.00  0.00    -0.248 NA
ATOM     58  C   UNL A   1      41.316  31.702  30.164  1.00  0.00     0.031 C 
ATOM     59  C   UNL A   1      46.729  31.784  27.411  1.00  0.00     0.029 A 
ATOM     60  C   UNL A   1      45.507  31.372  27.918  1.00  0.00     0.049 A 
ATOM     61  H   UNL A   1      44.620  29.460  27.854  1.00  0.00     0.167 HD
ATOM     62  C   UNL A   1      43.329  31.666  29.063  1.00  0.00     0.074 A 
ATOM     63  C   UNL A   1      42.367  32.439  29.825  1.00  0.00     0.031 C 
ATOM     64  C   UNL A   1      44.528  32.143  28.645  1.00  0.00     0.034 A 
BRANCH  51  65
ATOM     65  C   UNL A   1      48.095  27.885  25.936  1.00  0.00     0.023 A 
ATOM     66  C   UNL A   1      49.200  27.602  26.765  1.00  0.00     0.012 A 
ATOM     67  C   UNL A   1      48.243  27.817  24.537  1.00  0.00     0.148 A 
ATOM     68  C   UNL A   1      50.440  27.289  26.211  1.00  0.00     0.002 A 
ATOM     69  C   UNL A   1      49.473  27.467  23.994  1.00  0.00     0.091 A 
ATOM     70  F   UNL A   1      47.190  28.119  23.766  1.00  0.00    -0.205 F 
ATOM     71  C   UNL A   1      50.575  27.212  24.828  1.00  0.00     0.022 A 
BRANCH  69  72
ATOM     72  S   UNL A   1      49.721  27.279  22.224  1.00  0.00     0.127 S 
ATOM     73  O   UNL A   1      51.083  26.750  22.172  1.00  0.00    -0.237 OA
ATOM     74  O   UNL A   1      48.680  26.315  21.864  1.00  0.00    -0.237 OA
ATOM     75  O   UNL A   1      49.536  28.606  21.657  1.00  0.00    -0.744 OA
ENDBRANCH  69  72
ENDBRANCH  51  65
BRANCH  52  76
ATOM     76  C   UNL A   1      39.274  29.596  30.279  1.00  0.00     0.023 A 
ATOM     77  C   UNL A   1      39.065  29.105  31.581  1.00  0.00     0.012 A 
ATOM     78  C   UNL A   1      38.259  30.346  29.653  1.00  0.00     0.148 A 
ATOM     79  C   UNL A   1      37.859  29.341  32.244  1.00  0.00     0.002 A 
ATOM     80  C   UNL A   1      37.080  30.619  30.336  1.00  0.00     0.091 A 
ATOM     81  F   UNL A   1      38.474  30.787  28.406  1.00  0.00    -0.205 F 
ATOM     82  C   UNL A   1      36.873  30.107  31.627  1.00  0.00     0.022 A 
BRANCH  80  83
ATOM     83  S   UNL A   1      35.797  31.684  29.668  1.00  0.00     0.127 S 
ATOM     84  O   UNL A   1      35.044  32.034  30.869  1.00  0.00    -0.237 OA
ATOM     85  O   UNL A   1      36.583  32.776  29.093  1.00  0.00    -0.237 OA
ATOM     86  O   UNL A   1      35.082  30.876  28.690  1.00  0.00    -0.744 OA
ENDBRANCH  80  83
ENDBRANCH  52  76
BRANCH  64  87
ATOM     87  C   UNL A   1      44.880  33.566  28.997  1.00  0.00     0.023 A 
ATOM     88  C   UNL A   1      45.450  33.849  30.253  1.00  0.00     0.012 A 
ATOM     89  C   UNL A   1      44.722  34.607  28.060  1.00  0.00     0.148 A 
ATOM     90  C   UNL A   1      45.834  35.149  30.582  1.00  0.00     0.002 A 
ATOM     91  C   UNL A   1      45.149  35.892  28.377  1.00  0.00     0.091 A 
ATOM     92  F   UNL A   1      44.162  34.321  26.875  1.00  0.00    -0.205 F 
ATOM     93  C   UNL A   1      45.695  36.167  29.641  1.00  0.00     0.022 A 
BRANCH  91  94
ATOM     94  S   UNL A   1      45.093  37.246  27.198  1.00  0.00     0.127 S 
ATOM     95  O   UNL A   1      43.679  37.264  26.830  1.00  0.00    -0.237 OA
ATOM     96  O   UNL A   1      45.528  38.384  28.009  1.00  0.00    -0.237 OA
ATOM     97  O   UNL A   1      46.012  36.883  26.127  1.00  0.00    -0.744 OA
ENDBRANCH  91  94
ENDBRANCH  64  87
ENDBRANCH  38  39
ENDBRANCH  31  33
ENDBRANCH  30  31
ENDBRANCH  29  30
ENDBRANCH  28  29
ENDBRANCH  27  28
ENDBRANCH   1  27
TORSDOF 22
ENDMDL
MODEL 2
REMARK VINA RESULT:     -10.7      5.906     11.288
REMARK SMILES CC(=O)Nc1cccc(-c2ccc(F)c(C(=O)OCCOCCOCCOC(=O)c3ccc(-c4c5nc(c(-c6cccc(S(=O)(=O)[O-])c6F)c6ccc([nH]6)c(-c6cccc(S(=O)(=O)[O-])c6F)c6nc(c(-c7cccc(S(=O)(=O)[O-])c7F)c7ccc4[nH]7)C=C6)C=C5)cc3)c2)c1
REMARK SMILES IDX 23 1 22 2 21 3 20 4 19 5 18 6 16 7 17 8 15 9 10 10 11 11
REMARK SMILES IDX 93 12 12 13 13 14 14 15 9 16 5 17 6 18 94 19 7 20 8 21 4 22
REMARK SMILES IDX 1 23 2 24 3 25 24 27 25 28 26 29 27 30 28 31 29 32 30 33
REMARK SMILES IDX 31 34 92 35 32 36 91 37 33 38 34 39 35 40 85 41 36 42 90 43
REMARK SMILES IDX 84 44 86 45 37 46 89 47 83 48 82 49 38 51 70 52 50 53 69 54
REMARK SMILES IDX 51 55 54 56 68 57 87 58 52 59 53 60 67 62 88 63 55 64 39 65
REMARK SMILES IDX 40 66 48 67 41 68 43 69 49 70 42 71 44 72 45 73 46 74 47 75
REMARK SMILES IDX 71 76 72 77 80 78 73 79 75 80 81 81 74 82 76 83 77 84 78 85
REMARK SMILES IDX 79 86 56 87 57 88 65 89 58 90 60 91 66 92 59 93 61 94 62 95
REMARK SMILES IDX 63 96 64 97
REMARK H PARENT 4 26 86 50 54 61
REMARK Flexibility Score: inf
ROOT
ATOM      1  C   UNL A   1      32.489  36.329  31.528  1.00  0.00     0.188 C 
ENDROOT
BRANCH   1   2
ATOM      2  C   UNL A   1      33.022  36.800  30.157  1.00  0.00     0.188 C 
BRANCH   2   3
ATOM      3  O   UNL A   1      32.451  36.071  29.086  1.00  0.00    -0.376 OA
BRANCH   3   4
ATOM      4  C   UNL A   1      33.146  34.942  28.595  1.00  0.00     0.202 C 
BRANCH   4   5
ATOM      5  C   UNL A   1      34.520  35.147  27.937  1.00  0.00     0.261 C 
BRANCH   5   6
ATOM      6  O   UNL A   1      35.260  33.946  27.687  1.00  0.00    -0.460 OA
BRANCH   6   7
ATOM      7  C   UNL A   1      36.087  33.493  28.657  1.00  0.00     0.341 C 
ATOM      8  O   UNL A   1      36.610  34.145  29.541  1.00  0.00    -0.246 OA
BRANCH   7   9
ATOM      9  C   UNL A   1      36.215  32.035  28.478  1.00  0.00     0.096 A 
ATOM     10  C   UNL A   1      37.585  30.005  28.557  1.00  0.00    -0.017 A 
ATOM     11  C   UNL A   1      36.487  29.287  28.052  1.00  0.00     0.012 A 
ATOM     12  C   UNL A   1      37.433  31.394  28.744  1.00  0.00     0.027 A 
ATOM     13  C   UNL A   1      35.276  29.931  27.767  1.00  0.00     0.041 A 
ATOM     14  C   UNL A   1      35.144  31.300  27.991  1.00  0.00     0.137 A 
ATOM     15  F   UNL A   1      33.987  31.895  27.673  1.00  0.00    -0.206 F 
BRANCH  10  16
ATOM     16  C   UNL A   1      38.846  29.340  28.934  1.00  0.00    -0.016 A 
ATOM     17  C   UNL A   1      40.996  28.393  28.224  1.00  0.00     0.041 A 
ATOM     18  C   UNL A   1      41.243  27.993  29.538  1.00  0.00     0.026 A 
ATOM     19  C   UNL A   1      39.796  29.043  27.938  1.00  0.00     0.034 A 
ATOM     20  C   UNL A   1      40.332  28.298  30.552  1.00  0.00     0.003 A 
ATOM     21  C   UNL A   1      39.145  28.972  30.253  1.00  0.00     0.009 A 
BRANCH  17  22
ATOM     22  N   UNL A   1      41.945  28.058  27.243  1.00  0.00    -0.326 N 
ATOM     23  C   UNL A   1      43.413  30.079  27.283  1.00  0.00     0.114 C 
ATOM     24  C   UNL A   1      42.946  28.787  26.665  1.00  0.00     0.221 C 
ATOM     25  O   UNL A   1      43.507  28.334  25.663  1.00  0.00    -0.275 OA
ATOM     26  H   UNL A   1      41.874  27.134  26.912  1.00  0.00     0.169 HD
ENDBRANCH  17  22
ENDBRANCH  10  16
ENDBRANCH   7   9
ENDBRANCH   6   7
ENDBRANCH   5   6
ENDBRANCH   4   5
ENDBRANCH   3   4
ENDBRANCH   2   3
ENDBRANCH   1   2
BRANCH   1  27
ATOM     27  O   UNL A   1      32.585  37.181  32.666  1.00  0.00    -0.376 OA
BRANCH  27  28
ATOM     28  C   UNL A   1      33.702  37.055  33.537  1.00  0.00     0.202 C 
BRANCH  28  29
ATOM     29  C   UNL A   1      34.736  35.960  33.253  1.00  0.00     0.261 C 
BRANCH  29  30
ATOM     30  O   UNL A   1      34.700  34.846  34.156  1.00  0.00    -0.460 OA
BRANCH  30  31
ATOM     31  C   UNL A   1      34.625  33.624  33.570  1.00  0.00     0.338 C 
ATOM     32  O   UNL A   1      33.630  33.077  33.126  1.00  0.00    -0.246 OA
BRANCH  31  33
ATOM     33  C   UNL A   1      35.986  33.088  33.374  1.00  0.00     0.060 A 
ATOM     34  C   UNL A   1      37.031  33.645  34.124  1.00  0.00     0.016 A 
ATOM     35  C   UNL A   1      36.242  32.086  32.438  1.00  0.00     0.016 A 
ATOM     36  C   UNL A   1      38.339  33.203  33.937  1.00  0.00     0.010 A 
ATOM     37  C   UNL A   1      37.559  31.662  32.234  1.00  0.00     0.010 A 
ATOM     38  C   UNL A   1      38.614  32.231  32.967  1.00  0.00    -0.014 A 
BRANCH  38  39
ATOM     39  C   UNL A   1      40.017  31.888  32.637  1.00  0.00     0.031 A 
ATOM     40  C   UNL A   1      40.733  32.678  31.578  1.00  0.00     0.074 A 
ATOM     41  C   UNL A   1      40.636  30.866  33.252  1.00  0.00     0.049 A 
ATOM     42  N   UNL A   1      41.943  32.525  31.108  1.00  0.00    -0.248 NA
ATOM     43  C   UNL A   1      39.983  33.787  30.967  1.00  0.00     0.031 C 
ATOM     44  C   UNL A   1      40.050  30.032  34.299  1.00  0.00     0.029 A 
ATOM     45  N   UNL A   1      41.889  30.340  33.060  1.00  0.00    -0.354 N 
ATOM     46  C   UNL A   1      42.094  33.500  30.130  1.00  0.00     0.074 A 
ATOM     47  C   UNL A   1      40.849  34.235  30.070  1.00  0.00     0.031 C 
ATOM     48  C   UNL A   1      40.931  29.073  34.634  1.00  0.00     0.029 A 
ATOM     49  C   UNL A   1      42.131  29.214  33.810  1.00  0.00     0.049 A 
ATOM     50  H   UNL A   1      42.550  30.730  32.443  1.00  0.00     0.167 HD
ATOM     51  C   UNL A   1      43.176  33.767  29.361  1.00  0.00     0.034 A 
ATOM     52  C   UNL A   1      43.190  28.380  33.814  1.00  0.00     0.034 A 
ATOM     53  C   UNL A   1      44.415  33.042  29.428  1.00  0.00     0.049 A 
ATOM     54  C   UNL A   1      44.359  28.665  32.906  1.00  0.00     0.074 A 
ATOM     55  C   UNL A   1      45.593  33.284  28.742  1.00  0.00     0.029 A 
ATOM     56  N   UNL A   1      44.630  31.914  30.205  1.00  0.00    -0.354 N 
ATOM     57  N   UNL A   1      44.548  29.677  32.095  1.00  0.00    -0.248 NA
ATOM     58  C   UNL A   1      45.470  27.701  32.931  1.00  0.00     0.031 C 
ATOM     59  C   UNL A   1      46.509  32.282  29.082  1.00  0.00     0.029 A 
ATOM     60  C   UNL A   1      45.909  31.429  29.994  1.00  0.00     0.049 A 
ATOM     61  H   UNL A   1      43.969  31.516  30.817  1.00  0.00     0.167 HD
ATOM     62  C   UNL A   1      45.805  29.487  31.531  1.00  0.00     0.074 A 
ATOM     63  C   UNL A   1      46.343  28.273  32.112  1.00  0.00     0.031 C 
ATOM     64  C   UNL A   1      46.450  30.239  30.604  1.00  0.00     0.034 A 
BRANCH  51  65
ATOM     65  C   UNL A   1      43.068  34.915  28.394  1.00  0.00     0.023 A 
ATOM     66  C   UNL A   1      42.772  34.657  27.040  1.00  0.00     0.012 A 
ATOM     67  C   UNL A   1      43.231  36.245  28.826  1.00  0.00     0.148 A 
ATOM     68  C   UNL A   1      42.671  35.703  26.124  1.00  0.00     0.002 A 
ATOM     69  C   UNL A   1      43.092  37.285  27.914  1.00  0.00     0.091 A 
ATOM     70  F   UNL A   1      43.543  36.468  30.110  1.00  0.00    -0.205 F 
ATOM     71  C   UNL A   1      42.822  37.016  26.562  1.00  0.00     0.022 A 
BRANCH  69  72
ATOM     72  S   UNL A   1      43.204  39.010  28.403  1.00  0.00     0.127 S 
ATOM     73  O   UNL A   1      44.272  38.965  29.400  1.00  0.00    -0.237 OA
ATOM     74  O   UNL A   1      43.570  39.667  27.148  1.00  0.00    -0.237 OA
ATOM     75  O   UNL A   1      41.884  39.364  28.907  1.00  0.00    -0.744 OA
ENDBRANCH  69  72
ENDBRANCH  51  65
BRANCH  52  76
ATOM     76  C   UNL A   1      43.208  27.212  34.738  1.00  0.00     0.023 A 
ATOM     77  C   UNL A   1      42.525  26.037  34.375  1.00  0.00     0.012 A 
ATOM     78  C   UNL A   1      43.919  27.250  35.953  1.00  0.00     0.148 A 
ATOM     79  C   UNL A   1      42.536  24.921  35.214  1.00  0.00     0.002 A 
ATOM     80  C   UNL A   1      43.967  26.120  36.761  1.00  0.00     0.091 A 
ATOM     81  F   UNL A   1      44.546  28.386  36.287  1.00  0.00    -0.205 F 
ATOM     82  C   UNL A   1      43.265  24.959  36.400  1.00  0.00     0.022 A 
BRANCH  80  83
ATOM     83  S   UNL A   1      44.966  26.036  38.252  1.00  0.00     0.127 S 
ATOM     84  O   UNL A   1      46.319  26.115  37.709  1.00  0.00    -0.237 OA
ATOM     85  O   UNL A   1      44.523  27.227  38.978  1.00  0.00    -0.237 OA
ATOM     86  O   UNL A   1      44.616  24.775  38.892  1.00  0.00    -0.744 OA
ENDBRANCH  80  83
ENDBRANCH  52  76
BRANCH  64  87
ATOM     87  C   UNL A   1      47.813  29.780  30.152  1.00  0.00     0.023 A 
ATOM     88  C   UNL A   1      48.953  30.174  30.879  1.00  0.00     0.012 A 
ATOM     89  C   UNL A   1      47.959  28.897  29.063  1.00  0.00     0.148 A 
ATOM     90  C   UNL A   1      50.220  29.719  30.514  1.00  0.00     0.002 A 
ATOM     91  C   UNL A   1      49.219  28.411  28.733  1.00  0.00     0.091 A 
ATOM     92  F   UNL A   1      46.864  28.547  28.373  1.00  0.00    -0.205 F 
ATOM     93  C   UNL A   1      50.352  28.829  29.450  1.00  0.00     0.022 A 
BRANCH  91  94
ATOM     94  S   UNL A   1      49.474  27.193  27.437  1.00  0.00     0.127 S 
ATOM     95  O   UNL A   1      49.338  28.007  26.231  1.00  0.00    -0.237 OA
ATOM     96  O   UNL A   1      50.835  26.729  27.710  1.00  0.00    -0.237 OA
ATOM     97  O   UNL A   1      48.443  26.182  27.629  1.00  0.00    -0.744 OA
ENDBRANCH  91  94
ENDBRANCH  64  87
ENDBRANCH  38  39
ENDBRANCH  31  33
ENDBRANCH  30  31
ENDBRANCH  29  30
ENDBRANCH  28  29
ENDBRANCH  27  28
ENDBRANCH   1  27
TORSDOF 22
ENDMDL
MODEL 3
REMARK VINA RESULT:     -10.7      1.473      7.559
REMARK SMILES CC(=O)Nc1cccc(-c2ccc(F)c(C(=O)OCCOCCOCCOC(=O)c3ccc(-c4c5nc(c(-c6cccc(S(=O)(=O)[O-])c6F)c6ccc([nH]6)c(-c6cccc(S(=O)(=O)[O-])c6F)c6nc(c(-c7cccc(S(=O)(=O)[O-])c7F)c7ccc4[nH]7)C=C6)C=C5)cc3)c2)c1
REMARK SMILES IDX 23 1 22 2 21 3 20 4 19 5 18 6 16 7 17 8 15 9 10 10 11 11
REMARK SMILES IDX 93 12 12 13 13 14 14 15 9 16 5 17 6 18 94 19 7 20 8 21 4 22
REMARK SMILES IDX 1 23 2 24 3 25 24 27 25 28 26 29 27 30 28 31 29 32 30 33
REMARK SMILES IDX 31 34 92 35 32 36 91 37 33 38 34 39 35 40 85 41 36 42 90 43
REMARK SMILES IDX 84 44 86 45 37 46 89 47 83 48 82 49 38 51 70 52 50 53 69 54
REMARK SMILES IDX 51 55 54 56 68 57 87 58 52 59 53 60 67 62 88 63 55 64 39 65
REMARK SMILES IDX 40 66 48 67 41 68 43 69 49 70 42 71 44 72 45 73 46 74 47 75
REMARK SMILES IDX 71 76 72 77 80 78 73 79 75 80 81 81 74 82 76 83 77 84 78 85
REMARK SMILES IDX 79 86 56 87 57 88 65 89 58 90 60 91 66 92 59 93 61 94 62 95
REMARK SMILES IDX 63 96 64 97
REMARK H PARENT 4 26 86 50 54 61
REMARK Flexibility Score: inf
ROOT
ATOM      1  C   UNL A   1      36.401  21.788  25.421  1.00  0.00     0.188 C 
ENDROOT
BRANCH   1   2
ATOM      2  C   UNL A   1      35.239  20.771  25.392  1.00  0.00     0.188 C 
BRANCH   2   3
ATOM      3  O   UNL A   1      34.375  20.983  24.290  1.00  0.00    -0.376 OA
BRANCH   3   4
ATOM      4  C   UNL A   1      33.053  20.488  24.367  1.00  0.00     0.202 C 
BRANCH   4   5
ATOM      5  C   UNL A   1      32.137  20.993  25.493  1.00  0.00     0.261 C 
BRANCH   5   6
ATOM      6  O   UNL A   1      31.467  22.230  25.224  1.00  0.00    -0.460 OA
BRANCH   6   7
ATOM      7  C   UNL A   1      31.285  23.094  26.249  1.00  0.00     0.341 C 
ATOM      8  O   UNL A   1      30.684  22.888  27.286  1.00  0.00    -0.246 OA
BRANCH   7   9
ATOM      9  C   UNL A   1      31.992  24.340  25.901  1.00  0.00     0.096 A 
ATOM     10  C   UNL A   1      31.957  26.598  24.950  1.00  0.00    -0.017 A 
ATOM     11  C   UNL A   1      33.345  26.669  25.157  1.00  0.00     0.012 A 
ATOM     12  C   UNL A   1      31.297  25.406  25.312  1.00  0.00     0.027 A 
ATOM     13  C   UNL A   1      34.043  25.595  25.726  1.00  0.00     0.041 A 
ATOM     14  C   UNL A   1      33.361  24.441  26.104  1.00  0.00     0.137 A 
ATOM     15  F   UNL A   1      34.059  23.417  26.609  1.00  0.00    -0.206 F 
BRANCH  10  16
ATOM     16  C   UNL A   1      31.188  27.740  24.421  1.00  0.00    -0.016 A 
ATOM     17  C   UNL A   1      30.649  30.131  24.554  1.00  0.00     0.041 A 
ATOM     18  C   UNL A   1      29.702  29.965  23.542  1.00  0.00     0.026 A 
ATOM     19  C   UNL A   1      31.363  29.016  24.991  1.00  0.00     0.034 A 
ATOM     20  C   UNL A   1      29.526  28.717  22.939  1.00  0.00     0.003 A 
ATOM     21  C   UNL A   1      30.268  27.614  23.371  1.00  0.00     0.009 A 
BRANCH  17  22
ATOM     22  N   UNL A   1      30.784  31.406  25.128  1.00  0.00    -0.326 N 
ATOM     23  C   UNL A   1      32.338  30.919  27.023  1.00  0.00     0.114 C 
ATOM     24  C   UNL A   1      31.381  31.819  26.286  1.00  0.00     0.221 C 
ATOM     25  O   UNL A   1      31.173  32.970  26.682  1.00  0.00    -0.275 OA
ATOM     26  H   UNL A   1      30.375  32.131  24.603  1.00  0.00     0.169 HD
ENDBRANCH  17  22
ENDBRANCH  10  16
ENDBRANCH   7   9
ENDBRANCH   6   7
ENDBRANCH   5   6
ENDBRANCH   4   5
ENDBRANCH   3   4
ENDBRANCH   2   3
ENDBRANCH   1   2
BRANCH   1  27
ATOM     27  O   UNL A   1      37.752  21.334  25.391  1.00  0.00    -0.376 OA
BRANCH  27  28
ATOM     28  C   UNL A   1      38.052  20.083  24.786  1.00  0.00     0.202 C 
BRANCH  28  29
ATOM     29  C   UNL A   1      38.930  19.088  25.553  1.00  0.00     0.261 C 
BRANCH  29  30
ATOM     30  O   UNL A   1      39.727  19.665  26.597  1.00  0.00    -0.460 OA
BRANCH  30  31
ATOM     31  C   UNL A   1      41.020  19.915  26.270  1.00  0.00     0.338 C 
ATOM     32  O   UNL A   1      41.758  19.223  25.590  1.00  0.00    -0.246 OA
BRANCH  31  33
ATOM     33  C   UNL A   1      41.387  21.273  26.716  1.00  0.00     0.060 A 
ATOM     34  C   UNL A   1      41.107  22.349  25.862  1.00  0.00     0.016 A 
ATOM     35  C   UNL A   1      42.033  21.486  27.934  1.00  0.00     0.016 A 
ATOM     36  C   UNL A   1      41.479  23.643  26.221  1.00  0.00     0.010 A 
ATOM     37  C   UNL A   1      42.428  22.782  28.281  1.00  0.00     0.010 A 
ATOM     38  C   UNL A   1      42.169  23.862  27.419  1.00  0.00    -0.014 A 
BRANCH  38  39
ATOM     39  C   UNL A   1      42.725  25.201  27.722  1.00  0.00     0.031 A 
ATOM     40  C   UNL A   1      41.851  26.220  28.398  1.00  0.00     0.074 A 
ATOM     41  C   UNL A   1      43.984  25.516  27.372  1.00  0.00     0.049 A 
ATOM     42  N   UNL A   1      42.121  27.457  28.720  1.00  0.00    -0.248 NA
ATOM     43  C   UNL A   1      40.492  25.784  28.756  1.00  0.00     0.031 C 
ATOM     44  C   UNL A   1      44.929  24.613  26.719  1.00  0.00     0.029 A 
ATOM     45  N   UNL A   1      44.672  26.698  27.493  1.00  0.00    -0.354 N 
ATOM     46  C   UNL A   1      40.961  27.959  29.297  1.00  0.00     0.074 A 
ATOM     47  C   UNL A   1      39.983  26.893  29.275  1.00  0.00     0.031 C 
ATOM     48  C   UNL A   1      46.066  25.284  26.465  1.00  0.00     0.029 A 
ATOM     49  C   UNL A   1      45.918  26.668  26.916  1.00  0.00     0.049 A 
ATOM     50  H   UNL A   1      44.307  27.491  27.948  1.00  0.00     0.167 HD
ATOM     51  C   UNL A   1      40.735  29.191  29.810  1.00  0.00     0.034 A 
ATOM     52  C   UNL A   1      46.826  27.650  26.750  1.00  0.00     0.034 A 
ATOM     53  C   UNL A   1      41.710  30.247  29.840  1.00  0.00     0.049 A 
ATOM     54  C   UNL A   1      46.528  29.030  27.279  1.00  0.00     0.074 A 
ATOM     55  C   UNL A   1      41.600  31.505  30.405  1.00  0.00     0.029 A 
ATOM     56  N   UNL A   1      42.965  30.180  29.255  1.00  0.00    -0.354 N 
ATOM     57  N   UNL A   1      45.485  29.448  27.954  1.00  0.00    -0.248 NA
ATOM     58  C   UNL A   1      47.543  30.067  27.037  1.00  0.00     0.031 C 
ATOM     59  C   UNL A   1      42.778  32.210  30.133  1.00  0.00     0.029 A 
ATOM     60  C   UNL A   1      43.629  31.384  29.418  1.00  0.00     0.049 A 
ATOM     61  H   UNL A   1      43.331  29.391  28.792  1.00  0.00     0.167 HD
ATOM     62  C   UNL A   1      45.727  30.788  28.240  1.00  0.00     0.074 A 
ATOM     63  C   UNL A   1      47.027  31.106  27.683  1.00  0.00     0.031 C 
ATOM     64  C   UNL A   1      44.939  31.680  28.891  1.00  0.00     0.034 A 
BRANCH  51  65
ATOM     65  C   UNL A   1      39.377  29.452  30.406  1.00  0.00     0.023 A 
ATOM     66  C   UNL A   1      39.066  28.932  31.679  1.00  0.00     0.012 A 
ATOM     67  C   UNL A   1      38.423  30.229  29.723  1.00  0.00     0.148 A 
ATOM     68  C   UNL A   1      37.814  29.157  32.249  1.00  0.00     0.002 A 
ATOM     69  C   UNL A   1      37.191  30.479  30.314  1.00  0.00     0.091 A 
ATOM     70  F   UNL A   1      38.727  30.688  28.500  1.00  0.00    -0.205 F 
ATOM     71  C   UNL A   1      36.880  29.936  31.572  1.00  0.00     0.022 A 
BRANCH  69  72
ATOM     72  S   UNL A   1      35.953  31.529  29.543  1.00  0.00     0.127 S 
ATOM     73  O   UNL A   1      35.192  31.988  30.704  1.00  0.00    -0.237 OA
ATOM     74  O   UNL A   1      36.772  32.561  28.906  1.00  0.00    -0.237 OA
ATOM     75  O   UNL A   1      35.232  30.671  28.614  1.00  0.00    -0.744 OA
ENDBRANCH  69  72
ENDBRANCH  51  65
BRANCH  52  76
ATOM     76  C   UNL A   1      48.123  27.353  26.081  1.00  0.00     0.023 A 
ATOM     77  C   UNL A   1      49.193  26.851  26.846  1.00  0.00     0.012 A 
ATOM     78  C   UNL A   1      48.292  27.535  24.694  1.00  0.00     0.148 A 
ATOM     79  C   UNL A   1      50.416  26.550  26.244  1.00  0.00     0.002 A 
ATOM     80  C   UNL A   1      49.496  27.188  24.093  1.00  0.00     0.091 A 
ATOM     81  F   UNL A   1      47.266  28.032  23.990  1.00  0.00    -0.205 F 
ATOM     82  C   UNL A   1      50.564  26.707  24.868  1.00  0.00     0.022 A 
BRANCH  80  83
ATOM     83  S   UNL A   1      49.746  27.254  22.315  1.00  0.00     0.127 S 
ATOM     84  O   UNL A   1      51.125  26.790  22.190  1.00  0.00    -0.237 OA
ATOM     85  O   UNL A   1      48.733  26.313  21.835  1.00  0.00    -0.237 OA
ATOM     86  O   UNL A   1      49.511  28.640  21.935  1.00  0.00    -0.744 OA
ENDBRANCH  80  83
ENDBRANCH  52  76
BRANCH  64  87
ATOM     87  C   UNL A   1      45.451  33.090  29.042  1.00  0.00     0.023 A 
ATOM     88  C   UNL A   1      46.241  33.424  30.158  1.00  0.00     0.012 A 
ATOM     89  C   UNL A   1      45.218  34.058  28.045  1.00  0.00     0.148 A 
ATOM     90  C   UNL A   1      46.772  34.707  30.294  1.00  0.00     0.002 A 
ATOM     91  C   UNL A   1      45.788  35.322  28.164  1.00  0.00     0.091 A 
ATOM     92  F   UNL A   1      44.449  33.727  26.998  1.00  0.00    -0.205 F 
ATOM     93  C   UNL A   1      46.556  35.651  29.292  1.00  0.00     0.022 A 
BRANCH  91  94
ATOM     94  S   UNL A   1      45.640  36.571  26.882  1.00  0.00     0.127 S 
ATOM     95  O   UNL A   1      46.165  35.865  25.714  1.00  0.00    -0.237 OA
ATOM     96  O   UNL A   1      44.197  36.815  26.849  1.00  0.00    -0.237 OA
ATOM     97  O   UNL A   1      46.433  37.706  27.334  1.00  0.00    -0.744 OA
ENDBRANCH  91  94
ENDBRANCH  64  87
ENDBRANCH  38  39
ENDBRANCH  31  33
ENDBRANCH  30  31
ENDBRANCH  29  30
ENDBRANCH  28  29
ENDBRANCH  27  28
ENDBRANCH   1  27
TORSDOF 22
ENDMDL
