MODEL 1
REMARK VINA RESULT:     -11.0      0.000      0.000
REMARK SMILES COc1ccc([C@@](C)(NC(=O)c2csc(C)n2)C(=O)OCCOCCOCCOC(=O)c2ccc(-c3c4nc(c(-c5cccc(S(=O)(=O)[O-])c5F)c5ccc([nH]5)c(-c5cccc(S(=O)(=O)[O-])c5F)c5nc(c(-c6cccc(S(=O)(=O)[O-])c6F)c6ccc3[nH]6)C=C5)C=C4)cc2)cc1
REMARK SMILES IDX 25 1 24 2 23 3 22 4 21 5 20 6 18 7 19 8 7 9 8 10 6 11 3 12
REMARK SMILES IDX 4 13 96 14 5 15 95 16 2 17 1 18 9 19 10 20 11 22 12 23 13 24
REMARK SMILES IDX 17 25 14 26 15 27 16 28 26 29 27 30 28 31 29 32 30 33 31 34
REMARK SMILES IDX 32 35 33 36 94 37 34 38 93 39 35 40 36 41 37 42 87 43 38 44
REMARK SMILES IDX 92 45 86 46 88 47 39 48 91 49 85 50 84 51 40 53 72 54 52 55
REMARK SMILES IDX 71 56 53 57 56 58 70 59 89 60 54 61 55 62 69 64 90 65 57 66
REMARK SMILES IDX 41 67 42 68 50 69 43 70 45 71 51 72 44 73 46 74 47 75 48 76
REMARK SMILES IDX 49 77 73 78 74 79 82 80 75 81 77 82 83 83 76 84 78 85 79 86
REMARK SMILES IDX 80 87 81 88 58 89 59 90 67 91 60 92 62 93 68 94 61 95 63 96
REMARK SMILES IDX 64 97 65 98 66 99
REMARK H PARENT 9 21 88 52 56 63
REMARK Flexibility Score: inf
ROOT
ATOM      1  C   UNL A   1      32.021  30.374  25.821  1.00  0.00     0.188 C 
ENDROOT
BRANCH   1   2
ATOM      2  C   UNL A   1      33.275  29.701  26.375  1.00  0.00     0.188 C 
BRANCH   2   3
ATOM      3  O   UNL A   1      33.790  28.597  25.627  1.00  0.00    -0.376 OA
BRANCH   3   4
ATOM      4  C   UNL A   1      33.685  27.367  26.375  1.00  0.00     0.202 C 
BRANCH   4   5
ATOM      5  C   UNL A   1      33.984  26.095  25.558  1.00  0.00     0.261 C 
BRANCH   5   6
ATOM      6  O   UNL A   1      33.035  25.092  25.915  1.00  0.00    -0.461 OA
BRANCH   6   7
ATOM      7  C   UNL A   1      31.728  25.190  25.600  1.00  0.00     0.336 C 
ATOM      8  O   UNL A   1      30.835  25.447  26.397  1.00  0.00    -0.249 OA
BRANCH   7   9
ATOM      9  C   UNL A   1      31.576  25.145  24.040  1.00  0.00     0.161 C 
ATOM     10  C   UNL A   1      30.532  24.066  23.701  1.00  0.00     0.053 C 
BRANCH   9  11
ATOM     11  C   UNL A   1      31.070  26.553  23.527  1.00  0.00    -0.011 A 
ATOM     12  C   UNL A   1      30.174  29.128  22.624  1.00  0.00     0.118 A 
ATOM     13  C   UNL A   1      29.289  28.207  23.187  1.00  0.00     0.047 A 
ATOM     14  C   UNL A   1      31.505  28.762  22.489  1.00  0.00     0.047 A 
ATOM     15  C   UNL A   1      29.719  26.936  23.613  1.00  0.00     0.010 A 
ATOM     16  C   UNL A   1      31.943  27.507  22.952  1.00  0.00     0.010 A 
BRANCH  12  17
ATOM     17  O   UNL A   1      29.627  30.335  22.290  1.00  0.00    -0.497 OA
ATOM     18  C   UNL A   1      28.973  31.075  23.321  1.00  0.00     0.278 C 
ENDBRANCH  12  17
ENDBRANCH   9  11
BRANCH   9  19
ATOM     19  N   UNL A   1      32.845  24.817  23.310  1.00  0.00    -0.331 N 
ATOM     20  C   UNL A   1      33.219  23.605  22.744  1.00  0.00     0.271 C 
ATOM     21  H   UNL A   1      33.493  25.552  23.222  1.00  0.00     0.165 HD
ATOM     22  O   UNL A   1      33.384  23.587  21.521  1.00  0.00    -0.267 OA
BRANCH  20  23
ATOM     23  C   UNL A   1      33.697  22.484  23.579  1.00  0.00     0.139 A 
ATOM     24  C   UNL A   1      34.989  22.463  24.078  1.00  0.00     0.101 A 
ATOM     25  N   UNL A   1      32.998  21.289  23.816  1.00  0.00    -0.236 NA
ATOM     26  S   UNL A   1      35.280  21.076  25.019  1.00  0.00    -0.127 S 
ATOM     27  C   UNL A   1      33.730  20.485  24.573  1.00  0.00     0.090 A 
ATOM     28  C   UNL A   1      33.324  19.143  25.077  1.00  0.00     0.079 C 
ENDBRANCH  20  23
ENDBRANCH   9  19
ENDBRANCH   7   9
ENDBRANCH   6   7
ENDBRANCH   5   6
ENDBRANCH   4   5
ENDBRANCH   3   4
ENDBRANCH   2   3
ENDBRANCH   1   2
BRANCH   1  29
ATOM     29  O   UNL A   1      31.614  31.542  26.505  1.00  0.00    -0.376 OA
BRANCH  29  30
ATOM     30  C   UNL A   1      32.568  32.033  27.453  1.00  0.00     0.202 C 
BRANCH  30  31
ATOM     31  C   UNL A   1      32.599  33.571  27.495  1.00  0.00     0.261 C 
BRANCH  31  32
ATOM     32  O   UNL A   1      32.523  34.110  28.827  1.00  0.00    -0.460 OA
BRANCH  32  33
ATOM     33  C   UNL A   1      33.594  34.838  29.229  1.00  0.00     0.338 C 
ATOM     34  O   UNL A   1      33.590  35.988  29.635  1.00  0.00    -0.246 OA
BRANCH  33  35
ATOM     35  C   UNL A   1      34.714  33.893  29.402  1.00  0.00     0.060 A 
ATOM     36  C   UNL A   1      34.509  32.779  30.232  1.00  0.00     0.016 A 
ATOM     37  C   UNL A   1      35.915  34.062  28.713  1.00  0.00     0.016 A 
ATOM     38  C   UNL A   1      35.519  31.840  30.394  1.00  0.00     0.010 A 
ATOM     39  C   UNL A   1      36.952  33.152  28.924  1.00  0.00     0.010 A 
ATOM     40  C   UNL A   1      36.767  32.068  29.799  1.00  0.00    -0.014 A 
BRANCH  40  41
ATOM     41  C   UNL A   1      37.939  31.379  30.375  1.00  0.00     0.031 A 
ATOM     42  C   UNL A   1      38.248  31.670  31.820  1.00  0.00     0.074 A 
ATOM     43  C   UNL A   1      38.672  30.505  29.665  1.00  0.00     0.049 A 
ATOM     44  N   UNL A   1      39.175  31.170  32.588  1.00  0.00    -0.248 NA
ATOM     45  C   UNL A   1      37.388  32.668  32.485  1.00  0.00     0.031 C 
ATOM     46  C   UNL A   1      38.447  30.150  28.267  1.00  0.00     0.029 A 
ATOM     47  N   UNL A   1      39.747  29.741  30.040  1.00  0.00    -0.354 N 
ATOM     48  C   UNL A   1      39.037  31.821  33.809  1.00  0.00     0.074 A 
ATOM     49  C   UNL A   1      37.923  32.731  33.693  1.00  0.00     0.031 C 
ATOM     50  C   UNL A   1      39.341  29.209  27.909  1.00  0.00     0.029 A 
ATOM     51  C   UNL A   1      40.211  28.914  29.046  1.00  0.00     0.049 A 
ATOM     52  H   UNL A   1      40.149  29.781  30.939  1.00  0.00     0.167 HD
ATOM     53  C   UNL A   1      39.785  31.688  34.926  1.00  0.00     0.034 A 
ATOM     54  C   UNL A   1      41.218  28.016  29.072  1.00  0.00     0.034 A 
ATOM     55  C   UNL A   1      40.903  30.797  35.028  1.00  0.00     0.049 A 
ATOM     56  C   UNL A   1      42.011  27.857  30.348  1.00  0.00     0.074 A 
ATOM     57  C   UNL A   1      41.764  30.610  36.092  1.00  0.00     0.029 A 
ATOM     58  N   UNL A   1      41.318  29.944  34.016  1.00  0.00    -0.354 N 
ATOM     59  N   UNL A   1      41.828  28.430  31.514  1.00  0.00    -0.248 NA
ATOM     60  C   UNL A   1      43.142  26.918  30.313  1.00  0.00     0.031 C 
ATOM     61  C   UNL A   1      42.713  29.653  35.716  1.00  0.00     0.029 A 
ATOM     62  C   UNL A   1      42.424  29.226  34.428  1.00  0.00     0.049 A 
ATOM     63  H   UNL A   1      40.889  29.863  33.133  1.00  0.00     0.167 HD
ATOM     64  C   UNL A   1      42.814  27.916  32.352  1.00  0.00     0.074 A 
ATOM     65  C   UNL A   1      43.558  26.948  31.572  1.00  0.00     0.031 C 
ATOM     66  C   UNL A   1      43.109  28.238  33.637  1.00  0.00     0.034 A 
BRANCH  53  67
ATOM     67  C   UNL A   1      39.426  32.552  36.102  1.00  0.00     0.023 A 
ATOM     68  C   UNL A   1      40.022  33.821  36.249  1.00  0.00     0.012 A 
ATOM     69  C   UNL A   1      38.500  32.105  37.063  1.00  0.00     0.148 A 
ATOM     70  C   UNL A   1      39.720  34.621  37.352  1.00  0.00     0.002 A 
ATOM     71  C   UNL A   1      38.173  32.924  38.136  1.00  0.00     0.091 A 
ATOM     72  F   UNL A   1      37.977  30.878  36.925  1.00  0.00    -0.205 F 
ATOM     73  C   UNL A   1      38.790  34.177  38.289  1.00  0.00     0.022 A 
BRANCH  71  74
ATOM     74  S   UNL A   1      36.940  32.468  39.360  1.00  0.00     0.127 S 
ATOM     75  O   UNL A   1      37.368  31.117  39.720  1.00  0.00    -0.237 OA
ATOM     76  O   UNL A   1      37.154  33.475  40.400  1.00  0.00    -0.237 OA
ATOM     77  O   UNL A   1      35.654  32.556  38.684  1.00  0.00    -0.744 OA
ENDBRANCH  71  74
ENDBRANCH  53  67
BRANCH  54  78
ATOM     78  C   UNL A   1      41.491  27.146  27.891  1.00  0.00     0.023 A 
ATOM     79  C   UNL A   1      42.207  27.675  26.798  1.00  0.00     0.012 A 
ATOM     80  C   UNL A   1      41.069  25.804  27.838  1.00  0.00     0.148 A 
ATOM     81  C   UNL A   1      42.471  26.898  25.669  1.00  0.00     0.002 A 
ATOM     82  C   UNL A   1      41.393  25.015  26.739  1.00  0.00     0.091 A 
ATOM     83  F   UNL A   1      40.357  25.318  28.865  1.00  0.00    -0.205 F 
ATOM     84  C   UNL A   1      42.078  25.563  25.645  1.00  0.00     0.022 A 
BRANCH  82  85
ATOM     85  S   UNL A   1      41.061  23.249  26.719  1.00  0.00     0.127 S 
ATOM     86  O   UNL A   1      41.489  22.846  28.055  1.00  0.00    -0.237 OA
ATOM     87  O   UNL A   1      39.616  23.206  26.495  1.00  0.00    -0.237 OA
ATOM     88  O   UNL A   1      41.847  22.733  25.606  1.00  0.00    -0.744 OA
ENDBRANCH  82  85
ENDBRANCH  54  78
BRANCH  66  89
ATOM     89  C   UNL A   1      44.282  27.544  34.277  1.00  0.00     0.023 A 
ATOM     90  C   UNL A   1      45.564  28.120  34.181  1.00  0.00     0.012 A 
ATOM     91  C   UNL A   1      44.101  26.380  35.049  1.00  0.00     0.148 A 
ATOM     92  C   UNL A   1      46.656  27.530  34.815  1.00  0.00     0.002 A 
ATOM     93  C   UNL A   1      45.185  25.823  35.717  1.00  0.00     0.091 A 
ATOM     94  F   UNL A   1      42.875  25.840  35.115  1.00  0.00    -0.205 F 
ATOM     95  C   UNL A   1      46.464  26.390  35.592  1.00  0.00     0.022 A 
BRANCH  93  96
ATOM     96  S   UNL A   1      45.011  24.414  36.817  1.00  0.00     0.127 S 
ATOM     97  O   UNL A   1      44.335  23.447  35.957  1.00  0.00    -0.237 OA
ATOM     98  O   UNL A   1      46.404  24.088  37.129  1.00  0.00    -0.237 OA
ATOM     99  O   UNL A   1      44.237  24.891  37.955  1.00  0.00    -0.744 OA
ENDBRANCH  93  96
ENDBRANCH  66  89
ENDBRANCH  40  41
ENDBRANCH  33  35
ENDBRANCH  32  33
ENDBRANCH  31  32
ENDBRANCH  30  31
ENDBRANCH  29  30
ENDBRANCH   1  29
TORSDOF 24
ENDMDL
MODEL 2
REMARK VINA RESULT:     -10.4      2.059      8.323
REMARK SMILES COc1ccc([C@@](C)(NC(=O)c2csc(C)n2)C(=O)OCCOCCOCCOC(=O)c2ccc(-c3c4nc(c(-c5cccc(S(=O)(=O)[O-])c5F)c5ccc([nH]5)c(-c5cccc(S(=O)(=O)[O-])c5F)c5nc(c(-c6cccc(S(=O)(=O)[O-])c6F)c6ccc3[nH]6)C=C5)C=C4)cc2)cc1
REMARK SMILES IDX 25 1 24 2 23 3 22 4 21 5 20 6 18 7 19 8 7 9 8 10 6 11 3 12
REMARK SMILES IDX 4 13 96 14 5 15 95 16 2 17 1 18 9 19 10 20 11 22 12 23 13 24
REMARK SMILES IDX 17 25 14 26 15 27 16 28 26 29 27 30 28 31 29 32 30 33 31 34
REMARK SMILES IDX 32 35 33 36 94 37 34 38 93 39 35 40 36 41 37 42 87 43 38 44
REMARK SMILES IDX 92 45 86 46 88 47 39 48 91 49 85 50 84 51 40 53 72 54 52 55
REMARK SMILES IDX 71 56 53 57 56 58 70 59 89 60 54 61 55 62 69 64 90 65 57 66
REMARK SMILES IDX 41 67 42 68 50 69 43 70 45 71 51 72 44 73 46 74 47 75 48 76
REMARK SMILES IDX 49 77 73 78 74 79 82 80 75 81 77 82 83 83 76 84 78 85 79 86
REMARK SMILES IDX 80 87 81 88 58 89 59 90 67 91 60 92 62 93 68 94 61 95 63 96
REMARK SMILES IDX 64 97 65 98 66 99
REMARK H PARENT 9 21 88 52 56 63
REMARK Flexibility Score: inf
ROOT
ATOM      1  C   UNL A   1      31.886  30.175  26.300  1.00  0.00     0.188 C 
ENDROOT
BRANCH   1   2
ATOM      2  C   UNL A   1      31.966  28.786  26.930  1.00  0.00     0.188 C 
BRANCH   2   3
ATOM      3  O   UNL A   1      31.175  27.763  26.322  1.00  0.00    -0.376 OA
BRANCH   3   4
ATOM      4  C   UNL A   1      31.896  26.514  26.262  1.00  0.00     0.202 C 
BRANCH   4   5
ATOM      5  C   UNL A   1      31.004  25.268  26.094  1.00  0.00     0.261 C 
BRANCH   5   6
ATOM      6  O   UNL A   1      31.633  24.379  25.174  1.00  0.00    -0.461 OA
BRANCH   6   7
ATOM      7  C   UNL A   1      32.683  23.607  25.519  1.00  0.00     0.336 C 
ATOM      8  O   UNL A   1      32.926  23.228  26.658  1.00  0.00    -0.249 OA
BRANCH   7   9
ATOM      9  C   UNL A   1      33.393  23.102  24.216  1.00  0.00     0.161 C 
ATOM     10  C   UNL A   1      34.791  23.741  24.165  1.00  0.00     0.053 C 
BRANCH   9  11
ATOM     11  C   UNL A   1      33.531  21.527  24.277  1.00  0.00    -0.011 A 
ATOM     12  C   UNL A   1      33.753  18.667  24.415  1.00  0.00     0.118 A 
ATOM     13  C   UNL A   1      34.802  19.497  24.811  1.00  0.00     0.047 A 
ATOM     14  C   UNL A   1      32.596  19.258  23.929  1.00  0.00     0.047 A 
ATOM     15  C   UNL A   1      34.707  20.900  24.727  1.00  0.00     0.010 A 
ATOM     16  C   UNL A   1      32.484  20.660  23.882  1.00  0.00     0.010 A 
BRANCH  12  17
ATOM     17  O   UNL A   1      33.969  17.329  24.587  1.00  0.00    -0.497 OA
ATOM     18  C   UNL A   1      32.873  16.531  25.030  1.00  0.00     0.278 C 
ENDBRANCH  12  17
ENDBRANCH   9  11
BRANCH   9  19
ATOM     19  N   UNL A   1      32.670  23.453  22.949  1.00  0.00    -0.331 N 
ATOM     20  C   UNL A   1      32.959  24.472  22.051  1.00  0.00     0.271 C 
ATOM     21  H   UNL A   1      31.893  22.890  22.726  1.00  0.00     0.165 HD
ATOM     22  O   UNL A   1      33.271  24.136  20.906  1.00  0.00    -0.267 OA
BRANCH  20  23
ATOM     23  C   UNL A   1      32.614  25.877  22.349  1.00  0.00     0.139 A 
ATOM     24  C   UNL A   1      33.582  26.783  22.752  1.00  0.00     0.101 A 
ATOM     25  N   UNL A   1      31.311  26.398  22.422  1.00  0.00    -0.236 NA
ATOM     26  S   UNL A   1      32.927  28.331  23.014  1.00  0.00    -0.127 S 
ATOM     27  C   UNL A   1      31.359  27.681  22.749  1.00  0.00     0.090 A 
ATOM     28  C   UNL A   1      30.192  28.597  22.886  1.00  0.00     0.079 C 
ENDBRANCH  20  23
ENDBRANCH   9  19
ENDBRANCH   7   9
ENDBRANCH   6   7
ENDBRANCH   5   6
ENDBRANCH   4   5
ENDBRANCH   3   4
ENDBRANCH   2   3
ENDBRANCH   1   2
BRANCH   1  29
ATOM     29  O   UNL A   1      31.884  31.251  27.216  1.00  0.00    -0.376 OA
BRANCH  29  30
ATOM     30  C   UNL A   1      33.124  31.962  27.294  1.00  0.00     0.202 C 
BRANCH  30  31
ATOM     31  C   UNL A   1      32.911  33.485  27.353  1.00  0.00     0.261 C 
BRANCH  31  32
ATOM     32  O   UNL A   1      32.520  33.960  28.655  1.00  0.00    -0.460 OA
BRANCH  32  33
ATOM     33  C   UNL A   1      33.386  34.814  29.253  1.00  0.00     0.338 C 
ATOM     34  O   UNL A   1      33.161  35.960  29.607  1.00  0.00    -0.246 OA
BRANCH  33  35
ATOM     35  C   UNL A   1      34.541  34.013  29.700  1.00  0.00     0.060 A 
ATOM     36  C   UNL A   1      34.292  32.922  30.549  1.00  0.00     0.016 A 
ATOM     37  C   UNL A   1      35.830  34.285  29.243  1.00  0.00     0.016 A 
ATOM     38  C   UNL A   1      35.341  32.112  30.964  1.00  0.00     0.010 A 
ATOM     39  C   UNL A   1      36.893  33.510  29.708  1.00  0.00     0.010 A 
ATOM     40  C   UNL A   1      36.652  32.452  30.603  1.00  0.00    -0.014 A 
BRANCH  40  41
ATOM     41  C   UNL A   1      37.752  31.929  31.437  1.00  0.00     0.031 A 
ATOM     42  C   UNL A   1      38.614  30.860  30.820  1.00  0.00     0.074 A 
ATOM     43  C   UNL A   1      38.002  32.406  32.668  1.00  0.00     0.049 A 
ATOM     44  N   UNL A   1      39.671  30.266  31.300  1.00  0.00    -0.248 NA
ATOM     45  C   UNL A   1      38.223  30.398  29.474  1.00  0.00     0.031 C 
ATOM     46  C   UNL A   1      37.232  33.445  33.346  1.00  0.00     0.029 A 
ATOM     47  N   UNL A   1      38.996  32.086  33.556  1.00  0.00    -0.354 N 
ATOM     48  C   UNL A   1      40.043  29.335  30.336  1.00  0.00     0.074 A 
ATOM     49  C   UNL A   1      39.121  29.458  29.233  1.00  0.00     0.031 C 
ATOM     50  C   UNL A   1      37.804  33.701  34.537  1.00  0.00     0.029 A 
ATOM     51  C   UNL A   1      38.965  32.828  34.712  1.00  0.00     0.049 A 
ATOM     52  H   UNL A   1      39.670  31.388  33.382  1.00  0.00     0.167 HD
ATOM     53  C   UNL A   1      41.055  28.439  30.374  1.00  0.00     0.034 A 
ATOM     54  C   UNL A   1      39.796  32.804  35.775  1.00  0.00     0.034 A 
ATOM     55  C   UNL A   1      41.955  28.309  31.481  1.00  0.00     0.049 A 
ATOM     56  C   UNL A   1      40.944  31.822  35.771  1.00  0.00     0.074 A 
ATOM     57  C   UNL A   1      42.987  27.407  31.653  1.00  0.00     0.029 A 
ATOM     58  N   UNL A   1      41.920  29.105  32.616  1.00  0.00    -0.354 N 
ATOM     59  N   UNL A   1      41.325  30.995  34.826  1.00  0.00    -0.248 NA
ATOM     60  C   UNL A   1      41.784  31.781  36.977  1.00  0.00     0.031 C 
ATOM     61  C   UNL A   1      43.569  27.650  32.902  1.00  0.00     0.029 A 
ATOM     62  C   UNL A   1      42.914  28.719  33.494  1.00  0.00     0.049 A 
ATOM     63  H   UNL A   1      41.281  29.838  32.773  1.00  0.00     0.167 HD
ATOM     64  C   UNL A   1      42.450  30.342  35.320  1.00  0.00     0.074 A 
ATOM     65  C   UNL A   1      42.719  30.907  36.626  1.00  0.00     0.031 C 
ATOM     66  C   UNL A   1      43.177  29.338  34.767  1.00  0.00     0.034 A 
BRANCH  53  67
ATOM     67  C   UNL A   1      41.207  27.522  29.192  1.00  0.00     0.023 A 
ATOM     68  C   UNL A   1      40.517  26.293  29.164  1.00  0.00     0.012 A 
ATOM     69  C   UNL A   1      42.036  27.878  28.112  1.00  0.00     0.148 A 
ATOM     70  C   UNL A   1      40.673  25.420  28.088  1.00  0.00     0.002 A 
ATOM     71  C   UNL A   1      42.153  27.022  27.025  1.00  0.00     0.091 A 
ATOM     72  F   UNL A   1      42.714  29.033  28.180  1.00  0.00    -0.205 F 
ATOM     73  C   UNL A   1      41.482  25.788  27.015  1.00  0.00     0.022 A 
BRANCH  71  74
ATOM     74  S   UNL A   1      43.120  27.435  25.569  1.00  0.00     0.127 S 
ATOM     75  O   UNL A   1      42.701  26.394  24.632  1.00  0.00    -0.237 OA
ATOM     76  O   UNL A   1      42.635  28.778  25.249  1.00  0.00    -0.237 OA
ATOM     77  O   UNL A   1      44.515  27.376  25.985  1.00  0.00    -0.744 OA
ENDBRANCH  71  74
ENDBRANCH  53  67
BRANCH  54  78
ATOM     78  C   UNL A   1      39.628  33.778  36.892  1.00  0.00     0.023 A 
ATOM     79  C   UNL A   1      39.937  35.136  36.672  1.00  0.00     0.012 A 
ATOM     80  C   UNL A   1      39.155  33.388  38.159  1.00  0.00     0.148 A 
ATOM     81  C   UNL A   1      39.807  36.077  37.695  1.00  0.00     0.002 A 
ATOM     82  C   UNL A   1      38.963  34.341  39.155  1.00  0.00     0.091 A 
ATOM     83  F   UNL A   1      38.896  32.090  38.372  1.00  0.00    -0.205 F 
ATOM     84  C   UNL A   1      39.305  35.683  38.933  1.00  0.00     0.022 A 
BRANCH  82  85
ATOM     85  S   UNL A   1      38.166  33.927  40.711  1.00  0.00     0.127 S 
ATOM     86  O   UNL A   1      38.098  35.226  41.372  1.00  0.00    -0.237 OA
ATOM     87  O   UNL A   1      36.879  33.389  40.270  1.00  0.00    -0.237 OA
ATOM     88  O   UNL A   1      39.041  32.936  41.326  1.00  0.00    -0.744 OA
ENDBRANCH  82  85
ENDBRANCH  54  78
BRANCH  66  89
ATOM     89  C   UNL A   1      44.326  28.786  35.570  1.00  0.00     0.023 A 
ATOM     90  C   UNL A   1      45.608  29.348  35.420  1.00  0.00     0.012 A 
ATOM     91  C   UNL A   1      44.117  27.782  36.535  1.00  0.00     0.148 A 
ATOM     92  C   UNL A   1      46.676  28.896  36.193  1.00  0.00     0.002 A 
ATOM     93  C   UNL A   1      45.175  27.369  37.337  1.00  0.00     0.091 A 
ATOM     94  F   UNL A   1      42.891  27.251  36.652  1.00  0.00    -0.205 F 
ATOM     95  C   UNL A   1      46.456  27.917  37.159  1.00  0.00     0.022 A 
BRANCH  93  96
ATOM     96  S   UNL A   1      44.961  26.186  38.670  1.00  0.00     0.127 S 
ATOM     97  O   UNL A   1      44.305  25.077  37.981  1.00  0.00    -0.237 OA
ATOM     98  O   UNL A   1      46.342  25.921  39.077  1.00  0.00    -0.237 OA
ATOM     99  O   UNL A   1      44.157  26.863  39.679  1.00  0.00    -0.744 OA
ENDBRANCH  93  96
ENDBRANCH  66  89
ENDBRANCH  40  41
ENDBRANCH  33  35
ENDBRANCH  32  33
ENDBRANCH  31  32
ENDBRANCH  30  31
ENDBRANCH  29  30
ENDBRANCH   1  29
TORSDOF 24
ENDMDL
MODEL 3
REMARK VINA RESULT:     -10.3      1.966      3.721
REMARK SMILES COc1ccc([C@@](C)(NC(=O)c2csc(C)n2)C(=O)OCCOCCOCCOC(=O)c2ccc(-c3c4nc(c(-c5cccc(S(=O)(=O)[O-])c5F)c5ccc([nH]5)c(-c5cccc(S(=O)(=O)[O-])c5F)c5nc(c(-c6cccc(S(=O)(=O)[O-])c6F)c6ccc3[nH]6)C=C5)C=C4)cc2)cc1
REMARK SMILES IDX 25 1 24 2 23 3 22 4 21 5 20 6 18 7 19 8 7 9 8 10 6 11 3 12
REMARK SMILES IDX 4 13 96 14 5 15 95 16 2 17 1 18 9 19 10 20 11 22 12 23 13 24
REMARK SMILES IDX 17 25 14 26 15 27 16 28 26 29 27 30 28 31 29 32 30 33 31 34
REMARK SMILES IDX 32 35 33 36 94 37 34 38 93 39 35 40 36 41 37 42 87 43 38 44
REMARK SMILES IDX 92 45 86 46 88 47 39 48 91 49 85 50 84 51 40 53 72 54 52 55
REMARK SMILES IDX 71 56 53 57 56 58 70 59 89 60 54 61 55 62 69 64 90 65 57 66
REMARK SMILES IDX 41 67 42 68 50 69 43 70 45 71 51 72 44 73 46 74 47 75 48 76
REMARK SMILES IDX 49 77 73 78 74 79 82 80 75 81 77 82 83 83 76 84 78 85 79 86
REMARK SMILES IDX 80 87 81 88 58 89 59 90 67 91 60 92 62 93 68 94 61 95 63 96
REMARK SMILES IDX 64 97 65 98 66 99
REMARK H PARENT 9 21 88 52 56 63
REMARK Flexibility Score: inf
ROOT
ATOM      1  C   UNL A   1      31.411  29.922  25.367  1.00  0.00     0.188 C 
ENDROOT
BRANCH   1   2
ATOM      2  C   UNL A   1      31.348  28.858  24.274  1.00  0.00     0.188 C 
BRANCH   2   3
ATOM      3  O   UNL A   1      31.500  27.500  24.696  1.00  0.00    -0.376 OA
BRANCH   3   4
ATOM      4  C   UNL A   1      30.296  26.742  24.456  1.00  0.00     0.202 C 
BRANCH   4   5
ATOM      5  C   UNL A   1      30.170  25.459  25.300  1.00  0.00     0.261 C 
BRANCH   5   6
ATOM      6  O   UNL A   1      30.176  24.335  24.423  1.00  0.00    -0.461 OA
BRANCH   6   7
ATOM      7  C   UNL A   1      31.306  23.670  24.109  1.00  0.00     0.336 C 
ATOM      8  O   UNL A   1      32.043  23.950  23.171  1.00  0.00    -0.249 OA
BRANCH   7   9
ATOM      9  C   UNL A   1      31.631  22.649  25.253  1.00  0.00     0.161 C 
ATOM     10  C   UNL A   1      30.359  22.474  26.101  1.00  0.00     0.053 C 
BRANCH   9  11
ATOM     11  C   UNL A   1      32.037  21.262  24.611  1.00  0.00    -0.011 A 
ATOM     12  C   UNL A   1      32.813  18.750  23.455  1.00  0.00     0.118 A 
ATOM     13  C   UNL A   1      32.327  19.793  22.666  1.00  0.00     0.047 A 
ATOM     14  C   UNL A   1      32.896  18.946  24.825  1.00  0.00     0.047 A 
ATOM     15  C   UNL A   1      31.926  21.020  23.229  1.00  0.00     0.010 A 
ATOM     16  C   UNL A   1      32.533  20.186  25.385  1.00  0.00     0.010 A 
BRANCH  12  17
ATOM     17  O   UNL A   1      33.200  17.632  22.772  1.00  0.00    -0.497 OA
ATOM     18  C   UNL A   1      33.948  16.645  23.481  1.00  0.00     0.278 C 
ENDBRANCH  12  17
ENDBRANCH   9  11
BRANCH   9  19
ATOM     19  N   UNL A   1      32.745  23.080  26.161  1.00  0.00    -0.331 N 
ATOM     20  C   UNL A   1      33.909  23.759  25.826  1.00  0.00     0.271 C 
ATOM     21  H   UNL A   1      32.637  22.854  27.113  1.00  0.00     0.165 HD
ATOM     22  O   UNL A   1      34.066  24.878  26.323  1.00  0.00    -0.267 OA
BRANCH  20  23
ATOM     23  C   UNL A   1      35.039  23.068  25.172  1.00  0.00     0.139 A 
ATOM     24  C   UNL A   1      35.622  23.578  24.024  1.00  0.00     0.101 A 
ATOM     25  N   UNL A   1      35.523  21.795  25.514  1.00  0.00    -0.236 NA
ATOM     26  S   UNL A   1      36.909  22.604  23.484  1.00  0.00    -0.127 S 
ATOM     27  C   UNL A   1      36.514  21.460  24.702  1.00  0.00     0.090 A 
ATOM     28  C   UNL A   1      37.316  20.205  24.765  1.00  0.00     0.079 C 
ENDBRANCH  20  23
ENDBRANCH   9  19
ENDBRANCH   7   9
ENDBRANCH   6   7
ENDBRANCH   5   6
ENDBRANCH   4   5
ENDBRANCH   3   4
ENDBRANCH   2   3
ENDBRANCH   1   2
BRANCH   1  29
ATOM     29  O   UNL A   1      30.728  31.125  25.073  1.00  0.00    -0.376 OA
BRANCH  29  30
ATOM     30  C   UNL A   1      30.918  32.162  26.042  1.00  0.00     0.202 C 
BRANCH  30  31
ATOM     31  C   UNL A   1      32.029  31.813  27.048  1.00  0.00     0.261 C 
BRANCH  31  32
ATOM     32  O   UNL A   1      33.201  32.641  26.920  1.00  0.00    -0.460 OA
BRANCH  32  33
ATOM     33  C   UNL A   1      33.691  33.147  28.077  1.00  0.00     0.338 C 
ATOM     34  O   UNL A   1      33.087  33.809  28.904  1.00  0.00    -0.246 OA
BRANCH  33  35
ATOM     35  C   UNL A   1      34.986  32.483  28.322  1.00  0.00     0.060 A 
ATOM     36  C   UNL A   1      34.982  31.092  28.514  1.00  0.00     0.016 A 
ATOM     37  C   UNL A   1      36.183  33.200  28.297  1.00  0.00     0.016 A 
ATOM     38  C   UNL A   1      36.180  30.415  28.707  1.00  0.00     0.010 A 
ATOM     39  C   UNL A   1      37.380  32.530  28.553  1.00  0.00     0.010 A 
ATOM     40  C   UNL A   1      37.371  31.147  28.801  1.00  0.00    -0.014 A 
BRANCH  40  41
ATOM     41  C   UNL A   1      38.511  30.517  29.499  1.00  0.00     0.031 A 
ATOM     42  C   UNL A   1      38.671  30.847  30.959  1.00  0.00     0.074 A 
ATOM     43  C   UNL A   1      39.341  29.662  28.879  1.00  0.00     0.049 A 
ATOM     44  N   UNL A   1      39.540  30.399  31.821  1.00  0.00    -0.248 NA
ATOM     45  C   UNL A   1      37.713  31.821  31.520  1.00  0.00     0.031 C 
ATOM     46  C   UNL A   1      39.262  29.273  27.474  1.00  0.00     0.029 A 
ATOM     47  N   UNL A   1      40.405  28.950  29.369  1.00  0.00    -0.354 N 
ATOM     48  C   UNL A   1      39.263  31.066  33.009  1.00  0.00     0.074 A 
ATOM     49  C   UNL A   1      38.130  31.927  32.770  1.00  0.00     0.031 C 
ATOM     50  C   UNL A   1      40.222  28.363  27.221  1.00  0.00     0.029 A 
ATOM     51  C   UNL A   1      40.993  28.125  28.441  1.00  0.00     0.049 A 
ATOM     52  H   UNL A   1      40.719  29.023  30.300  1.00  0.00     0.167 HD
ATOM     53  C   UNL A   1      39.908  30.984  34.194  1.00  0.00     0.034 A 
ATOM     54  C   UNL A   1      42.027  27.270  28.579  1.00  0.00     0.034 A 
ATOM     55  C   UNL A   1      41.045  30.142  34.418  1.00  0.00     0.049 A 
ATOM     56  C   UNL A   1      42.703  27.167  29.927  1.00  0.00     0.074 A 
ATOM     57  C   UNL A   1      41.809  30.010  35.562  1.00  0.00     0.029 A 
ATOM     58  N   UNL A   1      41.587  29.289  33.469  1.00  0.00    -0.354 N 
ATOM     59  N   UNL A   1      42.389  27.752  31.059  1.00  0.00    -0.248 NA
ATOM     60  C   UNL A   1      43.869  26.275  30.018  1.00  0.00     0.031 C 
ATOM     61  C   UNL A   1      42.826  29.087  35.297  1.00  0.00     0.029 A 
ATOM     62  C   UNL A   1      42.677  28.625  33.997  1.00  0.00     0.049 A 
ATOM     63  H   UNL A   1      41.246  29.174  32.552  1.00  0.00     0.167 HD
ATOM     64  C   UNL A   1      43.312  27.295  31.996  1.00  0.00     0.074 A 
ATOM     65  C   UNL A   1      44.163  26.345  31.309  1.00  0.00     0.031 C 
ATOM     66  C   UNL A   1      43.472  27.652  33.295  1.00  0.00     0.034 A 
BRANCH  53  67
ATOM     67  C   UNL A   1      39.406  31.854  35.312  1.00  0.00     0.023 A 
ATOM     68  C   UNL A   1      38.440  31.356  36.210  1.00  0.00     0.012 A 
ATOM     69  C   UNL A   1      39.891  33.166  35.471  1.00  0.00     0.148 A 
ATOM     70  C   UNL A   1      37.944  32.163  37.234  1.00  0.00     0.002 A 
ATOM     71  C   UNL A   1      39.423  33.949  36.519  1.00  0.00     0.091 A 
ATOM     72  F   UNL A   1      40.779  33.632  34.581  1.00  0.00    -0.205 F 
ATOM     73  C   UNL A   1      38.442  33.454  37.394  1.00  0.00     0.022 A 
BRANCH  71  74
ATOM     74  S   UNL A   1      40.048  35.601  36.845  1.00  0.00     0.127 S 
ATOM     75  O   UNL A   1      39.382  35.925  38.105  1.00  0.00    -0.237 OA
ATOM     76  O   UNL A   1      41.489  35.366  36.958  1.00  0.00    -0.237 OA
ATOM     77  O   UNL A   1      39.653  36.412  35.703  1.00  0.00    -0.744 OA
ENDBRANCH  71  74
ENDBRANCH  53  67
BRANCH  54  78
ATOM     78  C   UNL A   1      42.444  26.391  27.448  1.00  0.00     0.023 A 
ATOM     79  C   UNL A   1      43.308  26.905  26.460  1.00  0.00     0.012 A 
ATOM     80  C   UNL A   1      42.014  25.055  27.343  1.00  0.00     0.148 A 
ATOM     81  C   UNL A   1      43.710  26.119  25.379  1.00  0.00     0.002 A 
ATOM     82  C   UNL A   1      42.472  24.256  26.300  1.00  0.00     0.091 A 
ATOM     83  F   UNL A   1      41.165  24.583  28.267  1.00  0.00    -0.205 F 
ATOM     84  C   UNL A   1      43.305  24.790  25.306  1.00  0.00     0.022 A 
BRANCH  82  85
ATOM     85  S   UNL A   1      42.120  22.495  26.241  1.00  0.00     0.127 S 
ATOM     86  O   UNL A   1      42.940  22.060  25.114  1.00  0.00    -0.237 OA
ATOM     87  O   UNL A   1      42.581  22.040  27.552  1.00  0.00    -0.237 OA
ATOM     88  O   UNL A   1      40.676  22.407  26.060  1.00  0.00    -0.744 OA
ENDBRANCH  82  85
ENDBRANCH  54  78
BRANCH  66  89
ATOM     89  C   UNL A   1      44.606  27.019  34.057  1.00  0.00     0.023 A 
ATOM     90  C   UNL A   1      45.815  27.724  34.211  1.00  0.00     0.012 A 
ATOM     91  C   UNL A   1      44.442  25.774  34.696  1.00  0.00     0.148 A 
ATOM     92  C   UNL A   1      46.859  27.186  34.961  1.00  0.00     0.002 A 
ATOM     93  C   UNL A   1      45.469  25.266  35.482  1.00  0.00     0.091 A 
ATOM     94  F   UNL A   1      43.288  25.113  34.525  1.00  0.00    -0.205 F 
ATOM     95  C   UNL A   1      46.681  25.964  35.606  1.00  0.00     0.022 A 
BRANCH  93  96
ATOM     96  S   UNL A   1      45.292  23.749  36.427  1.00  0.00     0.127 S 
ATOM     97  O   UNL A   1      44.179  23.099  35.739  1.00  0.00    -0.237 OA
ATOM     98  O   UNL A   1      46.591  23.105  36.231  1.00  0.00    -0.237 OA
ATOM     99  O   UNL A   1      45.027  24.163  37.798  1.00  0.00    -0.744 OA
ENDBRANCH  93  96
ENDBRANCH  66  89
ENDBRANCH  40  41
ENDBRANCH  33  35
ENDBRANCH  32  33
ENDBRANCH  31  32
ENDBRANCH  30  31
ENDBRANCH  29  30
ENDBRANCH   1  29
TORSDOF 24
ENDMDL
