MODEL 1
REMARK VINA RESULT:     -10.3      0.000      0.000
REMARK SMILES CCCN1CCC[C@@]2(CCN(c3ccc(C(=O)OCCOCCOCCOC(=O)c4ccc(-c5c6nc(c(-c7cccc(S(=O)(=O)[O-])c7F)c7ccc([nH]7)c(-c7cccc(S(=O)(=O)[O-])c7F)c7nc(c(-c8cccc(S(=O)(=O)[O-])c8F)c8ccc5[nH]8)C=C7)C=C6)cc4)cn3)C2)C1=O
REMARK SMILES IDX 22 1 21 2 20 3 19 4 18 5 16 6 17 7 15 8 12 9 13 10 94 11
REMARK SMILES IDX 14 12 93 13 11 14 4 15 5 16 96 17 6 18 8 19 97 20 7 21 9 22
REMARK SMILES IDX 95 23 10 24 3 25 2 26 1 27 23 28 24 29 25 30 26 31 27 32
REMARK SMILES IDX 28 33 29 34 30 35 31 36 92 37 32 38 91 39 33 40 34 41 35 42
REMARK SMILES IDX 85 43 36 44 90 45 84 46 86 47 37 48 89 49 83 50 82 51 38 53
REMARK SMILES IDX 70 54 50 55 69 56 51 57 54 58 68 59 87 60 52 61 53 62 67 64
REMARK SMILES IDX 88 65 55 66 39 67 40 68 48 69 41 70 43 71 49 72 42 73 44 74
REMARK SMILES IDX 45 75 46 76 47 77 71 78 72 79 80 80 73 81 75 82 81 83 74 84
REMARK SMILES IDX 76 85 77 86 78 87 79 88 56 89 57 90 65 91 58 92 60 93 66 94
REMARK SMILES IDX 59 95 61 96 62 97 63 98 64 99
REMARK H PARENT 86 52 54 63
REMARK Flexibility Score: inf
ROOT
ATOM      1  C   UNL A   1      33.168  28.929  27.245  1.00  0.00     0.188 C 
ENDROOT
BRANCH   1   2
ATOM      2  O   UNL A   1      32.654  28.627  25.965  1.00  0.00    -0.376 OA
BRANCH   2   3
ATOM      3  C   UNL A   1      33.421  28.864  24.798  1.00  0.00     0.202 C 
BRANCH   3   4
ATOM      4  C   UNL A   1      32.832  28.987  23.381  1.00  0.00     0.261 C 
BRANCH   4   5
ATOM      5  O   UNL A   1      31.504  29.513  23.282  1.00  0.00    -0.460 OA
BRANCH   5   6
ATOM      6  C   UNL A   1      30.625  28.752  22.583  1.00  0.00     0.339 C 
ATOM      7  O   UNL A   1      29.987  29.083  21.596  1.00  0.00    -0.246 OA
BRANCH   6   8
ATOM      8  C   UNL A   1      30.644  27.377  23.097  1.00  0.00     0.078 A 
ATOM      9  C   UNL A   1      30.594  24.859  24.218  1.00  0.00     0.128 A 
ATOM     10  C   UNL A   1      31.398  25.110  23.103  1.00  0.00     0.048 A 
ATOM     11  N   UNL A   1      29.790  25.809  24.733  1.00  0.00    -0.238 NA
ATOM     12  C   UNL A   1      31.417  26.376  22.523  1.00  0.00     0.021 A 
ATOM     13  C   UNL A   1      29.845  27.050  24.184  1.00  0.00     0.129 A 
BRANCH   9  14
ATOM     14  N   UNL A   1      30.747  23.649  24.874  1.00  0.00    -0.356 N 
ATOM     15  N   UNL A   1      34.641  21.682  25.598  1.00  0.00    -0.342 N 
ATOM     16  C   UNL A   1      34.588  20.322  25.096  1.00  0.00     0.119 C 
ATOM     17  C   UNL A   1      33.525  22.194  26.263  1.00  0.00     0.230 C 
ATOM     18  C   UNL A   1      33.391  20.140  24.186  1.00  0.00     0.023 C 
ATOM     19  C   UNL A   1      32.178  21.868  25.598  1.00  0.00     0.069 C 
ATOM     20  O   UNL A   1      33.626  23.020  27.168  1.00  0.00    -0.274 OA
ATOM     21  C   UNL A   1      32.131  20.453  24.993  1.00  0.00     0.021 C 
ATOM     22  C   UNL A   1      31.004  22.109  26.572  1.00  0.00     0.040 C 
ATOM     23  C   UNL A   1      31.968  22.936  24.493  1.00  0.00     0.135 C 
ATOM     24  C   UNL A   1      30.594  23.563  26.319  1.00  0.00     0.119 C 
BRANCH  15  25
ATOM     25  C   UNL A   1      35.716  22.625  25.288  1.00  0.00     0.119 C 
BRANCH  25  26
ATOM     26  C   UNL A   1      35.357  24.025  24.795  1.00  0.00     0.018 C 
ATOM     27  C   UNL A   1      34.975  24.080  23.319  1.00  0.00     0.006 C 
ENDBRANCH  25  26
ENDBRANCH  15  25
ENDBRANCH   9  14
ENDBRANCH   6   8
ENDBRANCH   5   6
ENDBRANCH   4   5
ENDBRANCH   3   4
ENDBRANCH   2   3
ENDBRANCH   1   2
BRANCH   1  28
ATOM     28  C   UNL A   1      34.325  29.940  27.370  1.00  0.00     0.188 C 
BRANCH  28  29
ATOM     29  O   UNL A   1      34.028  31.317  27.331  1.00  0.00    -0.376 OA
BRANCH  29  30
ATOM     30  C   UNL A   1      32.681  31.755  27.314  1.00  0.00     0.202 C 
BRANCH  30  31
ATOM     31  C   UNL A   1      32.196  33.220  27.365  1.00  0.00     0.261 C 
BRANCH  31  32
ATOM     32  O   UNL A   1      33.156  34.248  27.611  1.00  0.00    -0.460 OA
BRANCH  32  33
ATOM     33  C   UNL A   1      33.333  34.584  28.913  1.00  0.00     0.338 C 
ATOM     34  O   UNL A   1      32.588  35.252  29.609  1.00  0.00    -0.246 OA
BRANCH  33  35
ATOM     35  C   UNL A   1      34.508  33.860  29.434  1.00  0.00     0.060 A 
ATOM     36  C   UNL A   1      34.327  32.941  30.478  1.00  0.00     0.016 A 
ATOM     37  C   UNL A   1      35.779  34.108  28.918  1.00  0.00     0.016 A 
ATOM     38  C   UNL A   1      35.426  32.277  31.020  1.00  0.00     0.010 A 
ATOM     39  C   UNL A   1      36.882  33.458  29.480  1.00  0.00     0.010 A 
ATOM     40  C   UNL A   1      36.714  32.560  30.551  1.00  0.00    -0.014 A 
BRANCH  40  41
ATOM     41  C   UNL A   1      37.899  32.038  31.274  1.00  0.00     0.031 A 
ATOM     42  C   UNL A   1      38.672  30.898  30.670  1.00  0.00     0.074 A 
ATOM     43  C   UNL A   1      38.275  32.557  32.457  1.00  0.00     0.049 A 
ATOM     44  N   UNL A   1      39.699  30.247  31.149  1.00  0.00    -0.248 NA
ATOM     45  C   UNL A   1      38.222  30.425  29.350  1.00  0.00     0.031 C 
ATOM     46  C   UNL A   1      37.615  33.668  33.140  1.00  0.00     0.029 A 
ATOM     47  N   UNL A   1      39.292  32.194  33.305  1.00  0.00    -0.354 N 
ATOM     48  C   UNL A   1      39.999  29.269  30.209  1.00  0.00     0.074 A 
ATOM     49  C   UNL A   1      39.039  29.404  29.135  1.00  0.00     0.031 C 
ATOM     50  C   UNL A   1      38.224  33.875  34.321  1.00  0.00     0.029 A 
ATOM     51  C   UNL A   1      39.295  32.895  34.489  1.00  0.00     0.049 A 
ATOM     52  H   UNL A   1      39.953  31.499  33.087  1.00  0.00     0.167 HD
ATOM     53  C   UNL A   1      40.991  28.347  30.231  1.00  0.00     0.034 A 
ATOM     54  C   UNL A   1      40.057  32.742  35.590  1.00  0.00     0.034 A 
ATOM     55  C   UNL A   1      41.952  28.220  31.293  1.00  0.00     0.049 A 
ATOM     56  C   UNL A   1      41.134  31.686  35.603  1.00  0.00     0.074 A 
ATOM     57  C   UNL A   1      43.023  27.349  31.384  1.00  0.00     0.029 A 
ATOM     58  N   UNL A   1      41.949  28.972  32.458  1.00  0.00    -0.354 N 
ATOM     59  N   UNL A   1      41.478  30.842  34.660  1.00  0.00    -0.248 NA
ATOM     60  C   UNL A   1      41.949  31.581  36.823  1.00  0.00     0.031 C 
ATOM     61  C   UNL A   1      43.643  27.545  32.623  1.00  0.00     0.029 A 
ATOM     62  C   UNL A   1      42.987  28.572  33.282  1.00  0.00     0.049 A 
ATOM     63  H   UNL A   1      41.304  29.686  32.668  1.00  0.00     0.167 HD
ATOM     64  C   UNL A   1      42.571  30.137  35.156  1.00  0.00     0.074 A 
ATOM     65  C   UNL A   1      42.843  30.666  36.477  1.00  0.00     0.031 C 
ATOM     66  C   UNL A   1      43.280  29.138  34.575  1.00  0.00     0.034 A 
BRANCH  53  67
ATOM     67  C   UNL A   1      41.094  27.402  29.062  1.00  0.00     0.023 A 
ATOM     68  C   UNL A   1      40.282  26.250  29.017  1.00  0.00     0.012 A 
ATOM     69  C   UNL A   1      41.953  27.684  27.982  1.00  0.00     0.148 A 
ATOM     70  C   UNL A   1      40.350  25.376  27.932  1.00  0.00     0.002 A 
ATOM     71  C   UNL A   1      41.978  26.836  26.882  1.00  0.00     0.091 A 
ATOM     72  F   UNL A   1      42.731  28.774  28.052  1.00  0.00    -0.205 F 
ATOM     73  C   UNL A   1      41.188  25.674  26.861  1.00  0.00     0.022 A 
BRANCH  71  74
ATOM     74  S   UNL A   1      42.961  27.174  25.418  1.00  0.00     0.127 S 
ATOM     75  O   UNL A   1      42.230  28.292  24.823  1.00  0.00    -0.237 OA
ATOM     76  O   UNL A   1      44.257  27.532  25.996  1.00  0.00    -0.237 OA
ATOM     77  O   UNL A   1      42.961  25.945  24.637  1.00  0.00    -0.744 OA
ENDBRANCH  71  74
ENDBRANCH  53  67
BRANCH  54  78
ATOM     78  C   UNL A   1      39.847  33.623  36.774  1.00  0.00     0.023 A 
ATOM     79  C   UNL A   1      40.364  34.933  36.768  1.00  0.00     0.012 A 
ATOM     80  C   UNL A   1      39.141  33.169  37.904  1.00  0.00     0.148 A 
ATOM     81  C   UNL A   1      40.214  35.762  37.880  1.00  0.00     0.002 A 
ATOM     82  C   UNL A   1      38.946  34.019  38.987  1.00  0.00     0.091 A 
ATOM     83  F   UNL A   1      38.670  31.915  37.897  1.00  0.00    -0.205 F 
ATOM     84  C   UNL A   1      39.497  35.310  38.985  1.00  0.00     0.022 A 
BRANCH  82  85
ATOM     85  S   UNL A   1      37.939  33.565  40.403  1.00  0.00     0.127 S 
ATOM     86  O   UNL A   1      36.752  33.007  39.760  1.00  0.00    -0.237 OA
ATOM     87  O   UNL A   1      38.792  32.585  41.077  1.00  0.00    -0.237 OA
ATOM     88  O   UNL A   1      37.730  34.797  41.152  1.00  0.00    -0.744 OA
ENDBRANCH  82  85
ENDBRANCH  54  78
BRANCH  66  89
ATOM     89  C   UNL A   1      44.454  28.572  35.336  1.00  0.00     0.023 A 
ATOM     90  C   UNL A   1      45.752  29.075  35.113  1.00  0.00     0.012 A 
ATOM     91  C   UNL A   1      44.257  27.588  36.327  1.00  0.00     0.148 A 
ATOM     92  C   UNL A   1      46.838  28.582  35.835  1.00  0.00     0.002 A 
ATOM     93  C   UNL A   1      45.336  27.140  37.079  1.00  0.00     0.091 A 
ATOM     94  F   UNL A   1      43.019  27.111  36.517  1.00  0.00    -0.205 F 
ATOM     95  C   UNL A   1      46.629  27.624  36.824  1.00  0.00     0.022 A 
BRANCH  93  96
ATOM     96  S   UNL A   1      45.150  25.984  38.441  1.00  0.00     0.127 S 
ATOM     97  O   UNL A   1      44.627  24.801  37.759  1.00  0.00    -0.237 OA
ATOM     98  O   UNL A   1      46.525  25.851  38.924  1.00  0.00    -0.237 OA
ATOM     99  O   UNL A   1      44.236  26.614  39.385  1.00  0.00    -0.744 OA
ENDBRANCH  93  96
ENDBRANCH  66  89
ENDBRANCH  40  41
ENDBRANCH  33  35
ENDBRANCH  32  33
ENDBRANCH  31  32
ENDBRANCH  30  31
ENDBRANCH  29  30
ENDBRANCH  28  29
ENDBRANCH   1  28
TORSDOF 23
ENDMDL
MODEL 2
REMARK VINA RESULT:     -10.3      0.868      7.496
REMARK SMILES CCCN1CCC[C@@]2(CCN(c3ccc(C(=O)OCCOCCOCCOC(=O)c4ccc(-c5c6nc(c(-c7cccc(S(=O)(=O)[O-])c7F)c7ccc([nH]7)c(-c7cccc(S(=O)(=O)[O-])c7F)c7nc(c(-c8cccc(S(=O)(=O)[O-])c8F)c8ccc5[nH]8)C=C7)C=C6)cc4)cn3)C2)C1=O
REMARK SMILES IDX 22 1 21 2 20 3 19 4 18 5 16 6 17 7 15 8 12 9 13 10 94 11
REMARK SMILES IDX 14 12 93 13 11 14 4 15 5 16 96 17 6 18 8 19 97 20 7 21 9 22
REMARK SMILES IDX 95 23 10 24 3 25 2 26 1 27 23 28 24 29 25 30 26 31 27 32
REMARK SMILES IDX 28 33 29 34 30 35 31 36 92 37 32 38 91 39 33 40 34 41 35 42
REMARK SMILES IDX 85 43 36 44 90 45 84 46 86 47 37 48 89 49 83 50 82 51 38 53
REMARK SMILES IDX 70 54 50 55 69 56 51 57 54 58 68 59 87 60 52 61 53 62 67 64
REMARK SMILES IDX 88 65 55 66 39 67 40 68 48 69 41 70 43 71 49 72 42 73 44 74
REMARK SMILES IDX 45 75 46 76 47 77 71 78 72 79 80 80 73 81 75 82 81 83 74 84
REMARK SMILES IDX 76 85 77 86 78 87 79 88 56 89 57 90 65 91 58 92 60 93 66 94
REMARK SMILES IDX 59 95 61 96 62 97 63 98 64 99
REMARK H PARENT 86 52 54 63
REMARK Flexibility Score: inf
ROOT
ATOM      1  C   UNL A   1      34.044  28.789  26.857  1.00  0.00     0.188 C 
ENDROOT
BRANCH   1   2
ATOM      2  O   UNL A   1      34.143  28.481  25.483  1.00  0.00    -0.376 OA
BRANCH   2   3
ATOM      3  C   UNL A   1      33.141  28.891  24.570  1.00  0.00     0.202 C 
BRANCH   3   4
ATOM      4  C   UNL A   1      32.386  27.940  23.624  1.00  0.00     0.261 C 
BRANCH   4   5
ATOM      5  O   UNL A   1      31.156  28.425  23.074  1.00  0.00    -0.460 OA
BRANCH   5   6
ATOM      6  C   UNL A   1      30.034  27.803  23.513  1.00  0.00     0.339 C 
ATOM      7  O   UNL A   1      28.878  28.147  23.323  1.00  0.00    -0.246 OA
BRANCH   6   8
ATOM      8  C   UNL A   1      30.393  26.532  24.154  1.00  0.00     0.078 A 
ATOM      9  C   UNL A   1      31.105  24.242  25.515  1.00  0.00     0.128 A 
ATOM     10  C   UNL A   1      30.975  24.215  24.124  1.00  0.00     0.048 A 
ATOM     11  N   UNL A   1      30.834  25.355  26.224  1.00  0.00    -0.238 NA
ATOM     12  C   UNL A   1      30.602  25.364  23.431  1.00  0.00     0.021 A 
ATOM     13  C   UNL A   1      30.508  26.479  25.536  1.00  0.00     0.129 A 
BRANCH   9  14
ATOM     14  N   UNL A   1      31.657  23.137  26.141  1.00  0.00    -0.356 N 
ATOM     15  N   UNL A   1      35.660  21.495  25.223  1.00  0.00    -0.342 N 
ATOM     16  C   UNL A   1      35.536  20.080  24.925  1.00  0.00     0.119 C 
ATOM     17  C   UNL A   1      34.900  22.027  26.267  1.00  0.00     0.230 C 
ATOM     18  C   UNL A   1      34.088  19.717  24.667  1.00  0.00     0.023 C 
ATOM     19  C   UNL A   1      33.440  21.545  26.308  1.00  0.00     0.069 C 
ATOM     20  O   UNL A   1      35.298  22.968  26.951  1.00  0.00    -0.274 OA
ATOM     21  C   UNL A   1      33.284  20.063  25.920  1.00  0.00     0.021 C 
ATOM     22  C   UNL A   1      32.794  21.846  27.678  1.00  0.00     0.040 C 
ATOM     23  C   UNL A   1      32.656  22.448  25.320  1.00  0.00     0.135 C 
ATOM     24  C   UNL A   1      32.163  23.230  27.503  1.00  0.00     0.119 C 
BRANCH  15  25
ATOM     25  C   UNL A   1      36.384  22.447  24.379  1.00  0.00     0.119 C 
BRANCH  25  26
ATOM     26  C   UNL A   1      35.684  23.035  23.156  1.00  0.00     0.018 C 
ATOM     27  C   UNL A   1      34.822  24.255  23.466  1.00  0.00     0.006 C 
ENDBRANCH  25  26
ENDBRANCH  15  25
ENDBRANCH   9  14
ENDBRANCH   6   8
ENDBRANCH   5   6
ENDBRANCH   4   5
ENDBRANCH   3   4
ENDBRANCH   2   3
ENDBRANCH   1   2
BRANCH   1  28
ATOM     28  C   UNL A   1      34.945  29.892  27.446  1.00  0.00     0.188 C 
BRANCH  28  29
ATOM     29  O   UNL A   1      34.510  31.231  27.376  1.00  0.00    -0.376 OA
BRANCH  29  30
ATOM     30  C   UNL A   1      33.133  31.540  27.502  1.00  0.00     0.202 C 
BRANCH  30  31
ATOM     31  C   UNL A   1      32.508  32.951  27.486  1.00  0.00     0.261 C 
BRANCH  31  32
ATOM     32  O   UNL A   1      33.374  34.082  27.596  1.00  0.00    -0.460 OA
BRANCH  32  33
ATOM     33  C   UNL A   1      33.408  34.677  28.814  1.00  0.00     0.338 C 
ATOM     34  O   UNL A   1      32.583  35.442  29.283  1.00  0.00    -0.246 OA
BRANCH  33  35
ATOM     35  C   UNL A   1      34.533  34.115  29.586  1.00  0.00     0.060 A 
ATOM     36  C   UNL A   1      35.843  34.389  29.169  1.00  0.00     0.016 A 
ATOM     37  C   UNL A   1      34.295  33.302  30.694  1.00  0.00     0.016 A 
ATOM     38  C   UNL A   1      36.923  33.834  29.854  1.00  0.00     0.010 A 
ATOM     39  C   UNL A   1      35.379  32.727  31.363  1.00  0.00     0.010 A 
ATOM     40  C   UNL A   1      36.697  32.969  30.931  1.00  0.00    -0.014 A 
BRANCH  40  41
ATOM     41  C   UNL A   1      37.822  32.196  31.510  1.00  0.00     0.031 A 
ATOM     42  C   UNL A   1      38.419  32.652  32.814  1.00  0.00     0.074 A 
ATOM     43  C   UNL A   1      38.317  31.114  30.883  1.00  0.00     0.049 A 
ATOM     44  N   UNL A   1      39.438  32.169  33.473  1.00  0.00    -0.248 NA
ATOM     45  C   UNL A   1      37.782  33.814  33.456  1.00  0.00     0.031 C 
ATOM     46  C   UNL A   1      37.819  30.567  29.622  1.00  0.00     0.029 A 
ATOM     47  N   UNL A   1      39.371  30.299  31.213  1.00  0.00    -0.354 N 
ATOM     48  C   UNL A   1      39.588  32.983  34.588  1.00  0.00     0.074 A 
ATOM     49  C   UNL A   1      38.561  33.999  34.513  1.00  0.00     0.031 C 
ATOM     50  C   UNL A   1      38.590  29.524  29.267  1.00  0.00     0.029 A 
ATOM     51  C   UNL A   1      39.651  29.350  30.258  1.00  0.00     0.049 A 
ATOM     52  H   UNL A   1      39.879  30.387  32.052  1.00  0.00     0.167 HD
ATOM     53  C   UNL A   1      40.492  32.888  35.592  1.00  0.00     0.034 A 
ATOM     54  C   UNL A   1      40.663  28.463  30.181  1.00  0.00     0.034 A 
ATOM     55  C   UNL A   1      41.506  31.872  35.673  1.00  0.00     0.049 A 
ATOM     56  C   UNL A   1      41.677  28.399  31.295  1.00  0.00     0.074 A 
ATOM     57  C   UNL A   1      42.437  31.664  36.674  1.00  0.00     0.029 A 
ATOM     58  N   UNL A   1      41.735  30.903  34.708  1.00  0.00    -0.354 N 
ATOM     59  N   UNL A   1      41.739  29.103  32.400  1.00  0.00    -0.248 NA
ATOM     60  C   UNL A   1      42.745  27.395  31.167  1.00  0.00     0.031 C 
ATOM     61  C   UNL A   1      43.257  30.596  36.295  1.00  0.00     0.029 A 
ATOM     62  C   UNL A   1      42.805  30.108  35.080  1.00  0.00     0.049 A 
ATOM     63  H   UNL A   1      41.213  30.797  33.879  1.00  0.00     0.167 HD
ATOM     64  C   UNL A   1      42.824  28.602  33.114  1.00  0.00     0.074 A 
ATOM     65  C   UNL A   1      43.379  27.521  32.324  1.00  0.00     0.031 C 
ATOM     66  C   UNL A   1      43.321  29.003  34.310  1.00  0.00     0.034 A 
BRANCH  53  67
ATOM     67  C   UNL A   1      40.422  33.912  36.696  1.00  0.00     0.023 A 
ATOM     68  C   UNL A   1      40.973  35.195  36.500  1.00  0.00     0.012 A 
ATOM     69  C   UNL A   1      39.760  33.621  37.905  1.00  0.00     0.148 A 
ATOM     70  C   UNL A   1      40.897  36.161  37.503  1.00  0.00     0.002 A 
ATOM     71  C   UNL A   1      39.645  34.605  38.881  1.00  0.00     0.091 A 
ATOM     72  F   UNL A   1      39.260  32.390  38.080  1.00  0.00    -0.205 F 
ATOM     73  C   UNL A   1      40.225  35.869  38.687  1.00  0.00     0.022 A 
BRANCH  71  74
ATOM     74  S   UNL A   1      38.729  34.356  40.405  1.00  0.00     0.127 S 
ATOM     75  O   UNL A   1      39.673  33.561  41.190  1.00  0.00    -0.237 OA
ATOM     76  O   UNL A   1      38.547  35.728  40.879  1.00  0.00    -0.237 OA
ATOM     77  O   UNL A   1      37.500  33.671  40.031  1.00  0.00    -0.744 OA
ENDBRANCH  71  74
ENDBRANCH  53  67
BRANCH  54  78
ATOM     78  C   UNL A   1      40.764  27.543  29.012  1.00  0.00     0.023 A 
ATOM     79  C   UNL A   1      39.945  26.398  28.952  1.00  0.00     0.012 A 
ATOM     80  C   UNL A   1      41.669  27.793  27.962  1.00  0.00     0.148 A 
ATOM     81  C   UNL A   1      40.050  25.502  27.888  1.00  0.00     0.002 A 
ATOM     82  C   UNL A   1      41.729  26.927  26.877  1.00  0.00     0.091 A 
ATOM     83  F   UNL A   1      42.451  28.878  28.044  1.00  0.00    -0.205 F 
ATOM     84  C   UNL A   1      40.934  25.770  26.846  1.00  0.00     0.022 A 
BRANCH  82  85
ATOM     85  S   UNL A   1      42.752  27.251  25.437  1.00  0.00     0.127 S 
ATOM     86  O   UNL A   1      44.070  27.428  26.040  1.00  0.00    -0.237 OA
ATOM     87  O   UNL A   1      42.588  26.018  24.667  1.00  0.00    -0.237 OA
ATOM     88  O   UNL A   1      42.184  28.435  24.807  1.00  0.00    -0.744 OA
ENDBRANCH  82  85
ENDBRANCH  54  78
BRANCH  66  89
ATOM     89  C   UNL A   1      44.498  28.248  34.874  1.00  0.00     0.023 A 
ATOM     90  C   UNL A   1      45.811  28.698  34.630  1.00  0.00     0.012 A 
ATOM     91  C   UNL A   1      44.297  27.130  35.709  1.00  0.00     0.148 A 
ATOM     92  C   UNL A   1      46.905  28.026  35.174  1.00  0.00     0.002 A 
ATOM     93  C   UNL A   1      45.389  26.497  36.291  1.00  0.00     0.091 A 
ATOM     94  F   UNL A   1      43.043  26.706  35.921  1.00  0.00    -0.205 F 
ATOM     95  C   UNL A   1      46.694  26.933  36.013  1.00  0.00     0.022 A 
BRANCH  93  96
ATOM     96  S   UNL A   1      45.212  25.148  37.464  1.00  0.00     0.127 S 
ATOM     97  O   UNL A   1      44.362  25.753  38.489  1.00  0.00    -0.237 OA
ATOM     98  O   UNL A   1      44.554  24.120  36.656  1.00  0.00    -0.237 OA
ATOM     99  O   UNL A   1      46.560  24.805  37.895  1.00  0.00    -0.744 OA
ENDBRANCH  93  96
ENDBRANCH  66  89
ENDBRANCH  40  41
ENDBRANCH  33  35
ENDBRANCH  32  33
ENDBRANCH  31  32
ENDBRANCH  30  31
ENDBRANCH  29  30
ENDBRANCH  28  29
ENDBRANCH   1  28
TORSDOF 23
ENDMDL
MODEL 3
REMARK VINA RESULT:      -9.8      1.781      7.278
REMARK SMILES CCCN1CCC[C@@]2(CCN(c3ccc(C(=O)OCCOCCOCCOC(=O)c4ccc(-c5c6nc(c(-c7cccc(S(=O)(=O)[O-])c7F)c7ccc([nH]7)c(-c7cccc(S(=O)(=O)[O-])c7F)c7nc(c(-c8cccc(S(=O)(=O)[O-])c8F)c8ccc5[nH]8)C=C7)C=C6)cc4)cn3)C2)C1=O
REMARK SMILES IDX 22 1 21 2 20 3 19 4 18 5 16 6 17 7 15 8 12 9 13 10 94 11
REMARK SMILES IDX 14 12 93 13 11 14 4 15 5 16 96 17 6 18 8 19 97 20 7 21 9 22
REMARK SMILES IDX 95 23 10 24 3 25 2 26 1 27 23 28 24 29 25 30 26 31 27 32
REMARK SMILES IDX 28 33 29 34 30 35 31 36 92 37 32 38 91 39 33 40 34 41 35 42
REMARK SMILES IDX 85 43 36 44 90 45 84 46 86 47 37 48 89 49 83 50 82 51 38 53
REMARK SMILES IDX 70 54 50 55 69 56 51 57 54 58 68 59 87 60 52 61 53 62 67 64
REMARK SMILES IDX 88 65 55 66 39 67 40 68 48 69 41 70 43 71 49 72 42 73 44 74
REMARK SMILES IDX 45 75 46 76 47 77 71 78 72 79 80 80 73 81 75 82 81 83 74 84
REMARK SMILES IDX 76 85 77 86 78 87 79 88 56 89 57 90 65 91 58 92 60 93 66 94
REMARK SMILES IDX 59 95 61 96 62 97 63 98 64 99
REMARK H PARENT 86 52 54 63
REMARK Flexibility Score: inf
ROOT
ATOM      1  C   UNL A   1      34.070  28.746  27.214  1.00  0.00     0.188 C 
ENDROOT
BRANCH   1   2
ATOM      2  O   UNL A   1      33.537  28.506  25.929  1.00  0.00    -0.376 OA
BRANCH   2   3
ATOM      3  C   UNL A   1      32.352  29.152  25.499  1.00  0.00     0.202 C 
BRANCH   3   4
ATOM      4  C   UNL A   1      32.075  29.584  24.048  1.00  0.00     0.261 C 
BRANCH   4   5
ATOM      5  O   UNL A   1      30.701  29.683  23.659  1.00  0.00    -0.460 OA
BRANCH   5   6
ATOM      6  C   UNL A   1      30.304  28.816  22.695  1.00  0.00     0.339 C 
ATOM      7  O   UNL A   1      30.022  29.080  21.536  1.00  0.00    -0.246 OA
BRANCH   6   8
ATOM      8  C   UNL A   1      30.395  27.440  23.199  1.00  0.00     0.078 A 
ATOM      9  C   UNL A   1      30.460  24.910  24.294  1.00  0.00     0.128 A 
ATOM     10  C   UNL A   1      31.340  25.247  23.261  1.00  0.00     0.048 A 
ATOM     11  N   UNL A   1      29.532  25.780  24.736  1.00  0.00    -0.238 NA
ATOM     12  C   UNL A   1      31.303  26.519  22.694  1.00  0.00     0.021 A 
ATOM     13  C   UNL A   1      29.529  27.028  24.203  1.00  0.00     0.129 A 
BRANCH   9  14
ATOM     14  N   UNL A   1      30.657  23.708  24.953  1.00  0.00    -0.356 N 
ATOM     15  N   UNL A   1      34.607  21.811  25.551  1.00  0.00    -0.342 N 
ATOM     16  C   UNL A   1      34.558  20.446  25.062  1.00  0.00     0.119 C 
ATOM     17  C   UNL A   1      33.507  22.311  26.252  1.00  0.00     0.230 C 
ATOM     18  C   UNL A   1      33.332  20.237  24.197  1.00  0.00     0.023 C 
ATOM     19  C   UNL A   1      32.142  21.957  25.638  1.00  0.00     0.069 C 
ATOM     20  O   UNL A   1      33.627  23.146  27.145  1.00  0.00    -0.274 OA
ATOM     21  C   UNL A   1      32.097  20.537  25.047  1.00  0.00     0.021 C 
ATOM     22  C   UNL A   1      31.000  22.187  26.652  1.00  0.00     0.040 C 
ATOM     23  C   UNL A   1      31.875  23.012  24.533  1.00  0.00     0.135 C 
ATOM     24  C   UNL A   1      30.558  23.632  26.403  1.00  0.00     0.119 C 
BRANCH  15  25
ATOM     25  C   UNL A   1      35.655  22.768  25.194  1.00  0.00     0.119 C 
BRANCH  25  26
ATOM     26  C   UNL A   1      36.736  22.349  24.201  1.00  0.00     0.018 C 
ATOM     27  C   UNL A   1      36.697  23.120  22.884  1.00  0.00     0.006 C 
ENDBRANCH  25  26
ENDBRANCH  15  25
ENDBRANCH   9  14
ENDBRANCH   6   8
ENDBRANCH   5   6
ENDBRANCH   4   5
ENDBRANCH   3   4
ENDBRANCH   2   3
ENDBRANCH   1   2
BRANCH   1  28
ATOM     28  C   UNL A   1      35.079  29.895  27.405  1.00  0.00     0.188 C 
BRANCH  28  29
ATOM     29  O   UNL A   1      34.589  31.189  27.675  1.00  0.00    -0.376 OA
BRANCH  29  30
ATOM     30  C   UNL A   1      33.208  31.471  27.533  1.00  0.00     0.202 C 
BRANCH  30  31
ATOM     31  C   UNL A   1      32.559  32.872  27.514  1.00  0.00     0.261 C 
BRANCH  31  32
ATOM     32  O   UNL A   1      33.404  34.016  27.640  1.00  0.00    -0.460 OA
BRANCH  32  33
ATOM     33  C   UNL A   1      33.473  34.559  28.881  1.00  0.00     0.338 C 
ATOM     34  O   UNL A   1      32.673  35.319  29.399  1.00  0.00    -0.246 OA
BRANCH  33  35
ATOM     35  C   UNL A   1      34.601  33.943  29.606  1.00  0.00     0.060 A 
ATOM     36  C   UNL A   1      35.908  34.208  29.174  1.00  0.00     0.016 A 
ATOM     37  C   UNL A   1      34.369  33.089  30.683  1.00  0.00     0.016 A 
ATOM     38  C   UNL A   1      36.990  33.605  29.812  1.00  0.00     0.010 A 
ATOM     39  C   UNL A   1      35.454  32.466  31.306  1.00  0.00     0.010 A 
ATOM     40  C   UNL A   1      36.768  32.699  30.857  1.00  0.00    -0.014 A 
BRANCH  40  41
ATOM     41  C   UNL A   1      37.888  31.881  31.380  1.00  0.00     0.031 A 
ATOM     42  C   UNL A   1      38.424  32.181  32.753  1.00  0.00     0.074 A 
ATOM     43  C   UNL A   1      38.432  30.896  30.643  1.00  0.00     0.049 A 
ATOM     44  N   UNL A   1      39.430  31.638  33.388  1.00  0.00    -0.248 NA
ATOM     45  C   UNL A   1      37.737  33.241  33.509  1.00  0.00     0.031 C 
ATOM     46  C   UNL A   1      37.995  30.502  29.305  1.00  0.00     0.029 A 
ATOM     47  N   UNL A   1      39.492  30.065  30.911  1.00  0.00    -0.354 N 
ATOM     48  C   UNL A   1      39.518  32.308  34.601  1.00  0.00     0.074 A 
ATOM     49  C   UNL A   1      38.470  33.306  34.611  1.00  0.00     0.031 C 
ATOM     50  C   UNL A   1      38.803  29.527  28.854  1.00  0.00     0.029 A 
ATOM     51  C   UNL A   1      39.830  29.249  29.857  1.00  0.00     0.049 A 
ATOM     52  H   UNL A   1      39.965  30.057  31.775  1.00  0.00     0.167 HD
ATOM     53  C   UNL A   1      40.385  32.105  35.621  1.00  0.00     0.034 A 
ATOM     54  C   UNL A   1      40.865  28.398  29.712  1.00  0.00     0.034 A 
ATOM     55  C   UNL A   1      41.419  31.106  35.615  1.00  0.00     0.049 A 
ATOM     56  C   UNL A   1      41.837  28.214  30.849  1.00  0.00     0.074 A 
ATOM     57  C   UNL A   1      42.316  30.792  36.620  1.00  0.00     0.029 A 
ATOM     58  N   UNL A   1      41.707  30.271  34.547  1.00  0.00    -0.354 N 
ATOM     59  N   UNL A   1      41.841  28.775  32.035  1.00  0.00    -0.248 NA
ATOM     60  C   UNL A   1      42.932  27.254  30.640  1.00  0.00     0.031 C 
ATOM     61  C   UNL A   1      43.175  29.795  36.144  1.00  0.00     0.029 A 
ATOM     62  C   UNL A   1      42.781  29.455  34.860  1.00  0.00     0.049 A 
ATOM     63  H   UNL A   1      41.220  30.259  33.691  1.00  0.00     0.167 HD
ATOM     64  C   UNL A   1      42.909  28.208  32.724  1.00  0.00     0.074 A 
ATOM     65  C   UNL A   1      43.519  27.246  31.829  1.00  0.00     0.031 C 
ATOM     66  C   UNL A   1      43.351  28.465  33.980  1.00  0.00     0.034 A 
BRANCH  53  67
ATOM     67  C   UNL A   1      40.249  32.981  36.840  1.00  0.00     0.023 A 
ATOM     68  C   UNL A   1      39.249  32.705  37.795  1.00  0.00     0.012 A 
ATOM     69  C   UNL A   1      41.148  34.041  37.067  1.00  0.00     0.148 A 
ATOM     70  C   UNL A   1      39.124  33.493  38.939  1.00  0.00     0.002 A 
ATOM     71  C   UNL A   1      41.049  34.790  38.234  1.00  0.00     0.091 A 
ATOM     72  F   UNL A   1      42.080  34.300  36.138  1.00  0.00    -0.205 F 
ATOM     73  C   UNL A   1      40.030  34.527  39.164  1.00  0.00     0.022 A 
BRANCH  71  74
ATOM     74  S   UNL A   1      42.215  36.089  38.655  1.00  0.00     0.127 S 
ATOM     75  O   UNL A   1      43.487  35.367  38.619  1.00  0.00    -0.237 OA
ATOM     76  O   UNL A   1      42.023  37.039  37.559  1.00  0.00    -0.237 OA
ATOM     77  O   UNL A   1      41.817  36.582  39.966  1.00  0.00    -0.744 OA
ENDBRANCH  71  74
ENDBRANCH  53  67
BRANCH  54  78
ATOM     78  C   UNL A   1      41.031  27.634  28.442  1.00  0.00     0.023 A 
ATOM     79  C   UNL A   1      41.706  28.225  27.356  1.00  0.00     0.012 A 
ATOM     80  C   UNL A   1      40.521  26.329  28.304  1.00  0.00     0.148 A 
ATOM     81  C   UNL A   1      41.838  27.545  26.145  1.00  0.00     0.002 A 
ATOM     82  C   UNL A   1      40.705  25.635  27.114  1.00  0.00     0.091 A 
ATOM     83  F   UNL A   1      39.868  25.790  29.342  1.00  0.00    -0.205 F 
ATOM     84  C   UNL A   1      41.347  26.247  26.026  1.00  0.00     0.022 A 
BRANCH  82  85
ATOM     85  S   UNL A   1      40.210  23.920  26.908  1.00  0.00     0.127 S 
ATOM     86  O   UNL A   1      40.987  23.524  25.736  1.00  0.00    -0.237 OA
ATOM     87  O   UNL A   1      40.653  23.326  28.169  1.00  0.00    -0.237 OA
ATOM     88  O   UNL A   1      38.766  23.944  26.727  1.00  0.00    -0.744 OA
ENDBRANCH  82  85
ENDBRANCH  54  78
BRANCH  66  89
ATOM     89  C   UNL A   1      44.524  27.668  34.492  1.00  0.00     0.023 A 
ATOM     90  C   UNL A   1      45.839  28.138  34.302  1.00  0.00     0.012 A 
ATOM     91  C   UNL A   1      44.316  26.483  35.228  1.00  0.00     0.148 A 
ATOM     92  C   UNL A   1      46.928  27.425  34.801  1.00  0.00     0.002 A 
ATOM     93  C   UNL A   1      45.403  25.806  35.769  1.00  0.00     0.091 A 
ATOM     94  F   UNL A   1      43.061  26.041  35.389  1.00  0.00    -0.205 F 
ATOM     95  C   UNL A   1      46.710  26.266  35.543  1.00  0.00     0.022 A 
BRANCH  93  96
ATOM     96  S   UNL A   1      45.216  24.362  36.822  1.00  0.00     0.127 S 
ATOM     97  O   UNL A   1      46.537  24.272  37.443  1.00  0.00    -0.237 OA
ATOM     98  O   UNL A   1      44.144  24.778  37.727  1.00  0.00    -0.237 OA
ATOM     99  O   UNL A   1      44.866  23.258  35.938  1.00  0.00    -0.744 OA
ENDBRANCH  93  96
ENDBRANCH  66  89
ENDBRANCH  40  41
ENDBRANCH  33  35
ENDBRANCH  32  33
ENDBRANCH  31  32
ENDBRANCH  30  31
ENDBRANCH  29  30
ENDBRANCH  28  29
ENDBRANCH   1  28
TORSDOF 23
ENDMDL
