MODEL 1
REMARK VINA RESULT:     -10.2      0.000      0.000
REMARK SMILES Cn1cc(CCC(=O)N2CCCC2)cc1C(=O)OCCOCCOCCOC(=O)c1ccc(-c2c3nc(c(-c4cccc(S(=O)(=O)[O-])c4F)c4ccc([nH]4)c(-c4cccc(S(=O)(=O)[O-])c4F)c4nc(c(-c5cccc(S(=O)(=O)[O-])c5F)c5ccc2[nH]5)C=C4)C=C3)cc1
REMARK SMILES IDX 22 1 21 2 20 3 19 4 18 5 16 6 17 7 15 8 1 9 2 10 3 11 4 12
REMARK SMILES IDX 14 13 5 14 6 15 7 16 8 17 9 18 10 19 13 20 11 21 12 22 23 23
REMARK SMILES IDX 24 24 25 25 26 26 27 27 28 28 29 29 30 30 31 31 92 32 32 33
REMARK SMILES IDX 91 34 33 35 34 36 35 37 85 38 36 39 90 40 84 41 86 42 37 43
REMARK SMILES IDX 89 44 83 45 82 46 38 48 70 49 50 50 69 51 51 52 54 53 68 54
REMARK SMILES IDX 87 55 52 56 53 57 67 59 88 60 55 61 39 62 40 63 48 64 41 65
REMARK SMILES IDX 43 66 49 67 42 68 44 69 45 70 46 71 47 72 71 73 72 74 80 75
REMARK SMILES IDX 73 76 75 77 81 78 74 79 76 80 77 81 78 82 79 83 56 84 57 85
REMARK SMILES IDX 65 86 58 87 60 88 66 89 59 90 61 91 62 92 63 93 64 94
REMARK H PARENT 86 47 54 58
REMARK Flexibility Score: inf
ROOT
ATOM      1  C   UNL A   1      35.974  23.119  24.730  1.00  0.00     0.188 C 
ENDROOT
BRANCH   1   2
ATOM      2  O   UNL A   1      35.302  22.227  23.855  1.00  0.00    -0.376 OA
BRANCH   2   3
ATOM      3  C   UNL A   1      34.469  21.260  24.477  1.00  0.00     0.202 C 
BRANCH   3   4
ATOM      4  C   UNL A   1      33.305  21.882  25.251  1.00  0.00     0.261 C 
BRANCH   4   5
ATOM      5  O   UNL A   1      33.681  22.658  26.399  1.00  0.00    -0.459 OA
BRANCH   5   6
ATOM      6  C   UNL A   1      32.718  22.937  27.315  1.00  0.00     0.355 C 
ATOM      7  O   UNL A   1      32.667  22.450  28.436  1.00  0.00    -0.244 OA
BRANCH   6   8
ATOM      8  C   UNL A   1      31.841  23.960  26.788  1.00  0.00     0.127 A 
ATOM      9  C   UNL A   1      29.613  22.767  26.979  1.00  0.00     0.150 C 
ATOM     10  N   UNL A   1      30.468  23.893  26.673  1.00  0.00    -0.345 N 
ATOM     11  C   UNL A   1      29.978  25.085  26.204  1.00  0.00     0.089 A 
ATOM     12  C   UNL A   1      31.040  25.883  25.839  1.00  0.00    -0.029 A 
ATOM     13  C   UNL A   1      32.211  25.201  26.279  1.00  0.00     0.039 A 
BRANCH  12  14
ATOM     14  C   UNL A   1      30.950  27.194  25.125  1.00  0.00     0.047 C 
BRANCH  14  15
ATOM     15  C   UNL A   1      30.897  27.049  23.605  1.00  0.00     0.105 C 
BRANCH  15  16
ATOM     16  C   UNL A   1      30.988  28.375  22.864  1.00  0.00     0.222 C 
ATOM     17  O   UNL A   1      32.088  28.805  22.506  1.00  0.00    -0.275 OA
ATOM     18  N   UNL A   1      29.825  29.052  22.568  1.00  0.00    -0.343 N 
ATOM     19  C   UNL A   1      28.480  28.791  23.059  1.00  0.00     0.119 C 
ATOM     20  C   UNL A   1      29.839  30.215  21.696  1.00  0.00     0.119 C 
ATOM     21  C   UNL A   1      27.575  29.648  22.192  1.00  0.00     0.023 C 
ATOM     22  C   UNL A   1      28.461  30.841  21.856  1.00  0.00     0.023 C 
ENDBRANCH  15  16
ENDBRANCH  14  15
ENDBRANCH  12  14
ENDBRANCH   6   8
ENDBRANCH   5   6
ENDBRANCH   4   5
ENDBRANCH   3   4
ENDBRANCH   2   3
ENDBRANCH   1   2
BRANCH   1  23
ATOM     23  C   UNL A   1      37.431  22.709  25.027  1.00  0.00     0.188 C 
BRANCH  23  24
ATOM     24  O   UNL A   1      37.735  21.516  25.746  1.00  0.00    -0.376 OA
BRANCH  24  25
ATOM     25  C   UNL A   1      38.109  20.341  25.044  1.00  0.00     0.202 C 
BRANCH  25  26
ATOM     26  C   UNL A   1      39.265  19.500  25.598  1.00  0.00     0.261 C 
BRANCH  26  27
ATOM     27  O   UNL A   1      39.880  20.032  26.779  1.00  0.00    -0.460 OA
BRANCH  27  28
ATOM     28  C   UNL A   1      41.152  20.470  26.620  1.00  0.00     0.338 C 
ATOM     29  O   UNL A   1      42.066  19.887  26.060  1.00  0.00    -0.246 OA
BRANCH  28  30
ATOM     30  C   UNL A   1      41.262  21.868  27.083  1.00  0.00     0.060 A 
ATOM     31  C   UNL A   1      40.814  22.878  26.223  1.00  0.00     0.016 A 
ATOM     32  C   UNL A   1      41.841  22.191  28.313  1.00  0.00     0.016 A 
ATOM     33  C   UNL A   1      40.968  24.217  26.575  1.00  0.00     0.010 A 
ATOM     34  C   UNL A   1      42.014  23.536  28.656  1.00  0.00     0.010 A 
ATOM     35  C   UNL A   1      41.604  24.554  27.776  1.00  0.00    -0.014 A 
BRANCH  35  36
ATOM     36  C   UNL A   1      41.980  25.964  28.035  1.00  0.00     0.031 A 
ATOM     37  C   UNL A   1      43.366  26.423  27.673  1.00  0.00     0.074 A 
ATOM     38  C   UNL A   1      41.106  26.825  28.587  1.00  0.00     0.049 A 
ATOM     39  N   UNL A   1      43.908  27.605  27.807  1.00  0.00    -0.248 NA
ATOM     40  C   UNL A   1      44.260  25.413  27.083  1.00  0.00     0.031 C 
ATOM     41  C   UNL A   1      39.737  26.501  28.983  1.00  0.00     0.029 A 
ATOM     42  N   UNL A   1      41.255  28.145  28.930  1.00  0.00    -0.354 N 
ATOM     43  C   UNL A   1      45.211  27.478  27.341  1.00  0.00     0.074 A 
ATOM     44  C   UNL A   1      45.381  26.103  26.928  1.00  0.00     0.031 C 
ATOM     45  C   UNL A   1      39.179  27.589  29.544  1.00  0.00     0.029 A 
ATOM     46  C   UNL A   1      40.155  28.678  29.558  1.00  0.00     0.049 A 
ATOM     47  H   UNL A   1      42.072  28.661  28.745  1.00  0.00     0.167 HD
ATOM     48  C   UNL A   1      46.174  28.425  27.247  1.00  0.00     0.034 A 
ATOM     49  C   UNL A   1      39.964  29.899  30.096  1.00  0.00     0.034 A 
ATOM     50  C   UNL A   1      46.002  29.796  27.642  1.00  0.00     0.049 A 
ATOM     51  C   UNL A   1      41.062  30.929  30.002  1.00  0.00     0.074 A 
ATOM     52  C   UNL A   1      46.901  30.842  27.533  1.00  0.00     0.029 A 
ATOM     53  N   UNL A   1      44.860  30.310  28.238  1.00  0.00    -0.354 N 
ATOM     54  N   UNL A   1      42.237  30.834  29.427  1.00  0.00    -0.248 NA
ATOM     55  C   UNL A   1      40.795  32.244  30.604  1.00  0.00     0.031 C 
ATOM     56  C   UNL A   1      46.310  31.984  28.084  1.00  0.00     0.029 A 
ATOM     57  C   UNL A   1      45.036  31.654  28.518  1.00  0.00     0.049 A 
ATOM     58  H   UNL A   1      44.045  29.793  28.433  1.00  0.00     0.167 HD
ATOM     59  C   UNL A   1      42.832  32.084  29.565  1.00  0.00     0.074 A 
ATOM     60  C   UNL A   1      41.882  32.924  30.264  1.00  0.00     0.031 C 
ATOM     61  C   UNL A   1      44.061  32.495  29.162  1.00  0.00     0.034 A 
BRANCH  48  62
ATOM     62  C   UNL A   1      47.497  28.011  26.664  1.00  0.00     0.023 A 
ATOM     63  C   UNL A   1      48.583  27.750  27.524  1.00  0.00     0.012 A 
ATOM     64  C   UNL A   1      47.656  27.841  25.276  1.00  0.00     0.148 A 
ATOM     65  C   UNL A   1      49.816  27.353  27.009  1.00  0.00     0.002 A 
ATOM     66  C   UNL A   1      48.878  27.408  24.773  1.00  0.00     0.091 A 
ATOM     67  F   UNL A   1      46.621  28.123  24.472  1.00  0.00    -0.205 F 
ATOM     68  C   UNL A   1      49.961  27.174  25.636  1.00  0.00     0.022 A 
BRANCH  66  69
ATOM     69  S   UNL A   1      49.138  27.085  23.025  1.00  0.00     0.127 S 
ATOM     70  O   UNL A   1      48.781  28.372  22.430  1.00  0.00    -0.237 OA
ATOM     71  O   UNL A   1      50.566  26.767  22.976  1.00  0.00    -0.237 OA
ATOM     72  O   UNL A   1      48.260  25.972  22.692  1.00  0.00    -0.744 OA
ENDBRANCH  66  69
ENDBRANCH  48  62
BRANCH  49  73
ATOM     73  C   UNL A   1      38.659  30.238  30.730  1.00  0.00     0.023 A 
ATOM     74  C   UNL A   1      38.405  29.828  32.053  1.00  0.00     0.012 A 
ATOM     75  C   UNL A   1      37.678  30.975  30.039  1.00  0.00     0.148 A 
ATOM     76  C   UNL A   1      37.188  30.124  32.668  1.00  0.00     0.002 A 
ATOM     77  C   UNL A   1      36.487  31.309  30.674  1.00  0.00     0.091 A 
ATOM     78  F   UNL A   1      37.931  31.339  28.774  1.00  0.00    -0.205 F 
ATOM     79  C   UNL A   1      36.234  30.872  31.983  1.00  0.00     0.022 A 
BRANCH  77  80
ATOM     80  S   UNL A   1      35.250  32.364  29.910  1.00  0.00     0.127 S 
ATOM     81  O   UNL A   1      36.066  33.457  29.391  1.00  0.00    -0.237 OA
ATOM     82  O   UNL A   1      34.684  31.479  28.892  1.00  0.00    -0.237 OA
ATOM     83  O   UNL A   1      34.324  32.718  30.978  1.00  0.00    -0.744 OA
ENDBRANCH  77  80
ENDBRANCH  49  73
BRANCH  61  84
ATOM     84  C   UNL A   1      44.451  33.925  29.437  1.00  0.00     0.023 A 
ATOM     85  C   UNL A   1      45.147  34.243  30.619  1.00  0.00     0.012 A 
ATOM     86  C   UNL A   1      44.207  34.935  28.485  1.00  0.00     0.148 A 
ATOM     87  C   UNL A   1      45.571  35.550  30.863  1.00  0.00     0.002 A 
ATOM     88  C   UNL A   1      44.673  36.225  28.713  1.00  0.00     0.091 A 
ATOM     89  F   UNL A   1      43.526  34.617  27.373  1.00  0.00    -0.205 F 
ATOM     90  C   UNL A   1      45.345  36.536  29.905  1.00  0.00     0.022 A 
BRANCH  88  91
ATOM     91  S   UNL A   1      44.511  37.534  27.492  1.00  0.00     0.127 S 
ATOM     92  O   UNL A   1      44.733  38.728  28.304  1.00  0.00    -0.237 OA
ATOM     93  O   UNL A   1      45.592  37.224  26.554  1.00  0.00    -0.237 OA
ATOM     94  O   UNL A   1      43.173  37.392  26.934  1.00  0.00    -0.744 OA
ENDBRANCH  88  91
ENDBRANCH  61  84
ENDBRANCH  35  36
ENDBRANCH  28  30
ENDBRANCH  27  28
ENDBRANCH  26  27
ENDBRANCH  25  26
ENDBRANCH  24  25
ENDBRANCH  23  24
ENDBRANCH   1  23
TORSDOF 23
ENDMDL
MODEL 2
REMARK VINA RESULT:      -9.5      0.896      7.434
REMARK SMILES Cn1cc(CCC(=O)N2CCCC2)cc1C(=O)OCCOCCOCCOC(=O)c1ccc(-c2c3nc(c(-c4cccc(S(=O)(=O)[O-])c4F)c4ccc([nH]4)c(-c4cccc(S(=O)(=O)[O-])c4F)c4nc(c(-c5cccc(S(=O)(=O)[O-])c5F)c5ccc2[nH]5)C=C4)C=C3)cc1
REMARK SMILES IDX 22 1 21 2 20 3 19 4 18 5 16 6 17 7 15 8 1 9 2 10 3 11 4 12
REMARK SMILES IDX 14 13 5 14 6 15 7 16 8 17 9 18 10 19 13 20 11 21 12 22 23 23
REMARK SMILES IDX 24 24 25 25 26 26 27 27 28 28 29 29 30 30 31 31 92 32 32 33
REMARK SMILES IDX 91 34 33 35 34 36 35 37 85 38 36 39 90 40 84 41 86 42 37 43
REMARK SMILES IDX 89 44 83 45 82 46 38 48 70 49 50 50 69 51 51 52 54 53 68 54
REMARK SMILES IDX 87 55 52 56 53 57 67 59 88 60 55 61 39 62 40 63 48 64 41 65
REMARK SMILES IDX 43 66 49 67 42 68 44 69 45 70 46 71 47 72 71 73 72 74 80 75
REMARK SMILES IDX 73 76 75 77 81 78 74 79 76 80 77 81 78 82 79 83 56 84 57 85
REMARK SMILES IDX 65 86 58 87 60 88 66 89 59 90 61 91 62 92 63 93 64 94
REMARK H PARENT 86 47 54 58
REMARK Flexibility Score: inf
ROOT
ATOM      1  C   UNL A   1      35.787  22.298  25.333  1.00  0.00     0.188 C 
ENDROOT
BRANCH   1   2
ATOM      2  O   UNL A   1      35.143  21.915  24.128  1.00  0.00    -0.376 OA
BRANCH   2   3
ATOM      3  C   UNL A   1      34.029  21.047  24.269  1.00  0.00     0.202 C 
BRANCH   3   4
ATOM      4  C   UNL A   1      32.968  21.587  25.231  1.00  0.00     0.261 C 
BRANCH   4   5
ATOM      5  O   UNL A   1      33.454  22.504  26.223  1.00  0.00    -0.459 OA
BRANCH   5   6
ATOM      6  C   UNL A   1      32.621  22.826  27.245  1.00  0.00     0.355 C 
ATOM      7  O   UNL A   1      32.748  22.427  28.395  1.00  0.00    -0.244 OA
BRANCH   6   8
ATOM      8  C   UNL A   1      31.640  23.782  26.777  1.00  0.00     0.127 A 
ATOM      9  C   UNL A   1      29.512  22.486  27.244  1.00  0.00     0.150 C 
ATOM     10  N   UNL A   1      30.268  23.640  26.809  1.00  0.00    -0.345 N 
ATOM     11  C   UNL A   1      29.668  24.786  26.352  1.00  0.00     0.089 A 
ATOM     12  C   UNL A   1      30.642  25.620  25.849  1.00  0.00    -0.029 A 
ATOM     13  C   UNL A   1      31.887  25.017  26.188  1.00  0.00     0.039 A 
BRANCH  12  14
ATOM     14  C   UNL A   1      30.407  26.894  25.101  1.00  0.00     0.047 C 
BRANCH  14  15
ATOM     15  C   UNL A   1      30.482  26.725  23.585  1.00  0.00     0.105 C 
BRANCH  15  16
ATOM     16  C   UNL A   1      30.845  28.005  22.847  1.00  0.00     0.222 C 
ATOM     17  O   UNL A   1      32.021  28.229  22.544  1.00  0.00    -0.275 OA
ATOM     18  N   UNL A   1      29.837  28.875  22.491  1.00  0.00    -0.343 N 
ATOM     19  C   UNL A   1      28.444  28.862  22.913  1.00  0.00     0.119 C 
ATOM     20  C   UNL A   1      30.101  30.007  21.618  1.00  0.00     0.119 C 
ATOM     21  C   UNL A   1      27.751  29.858  21.999  1.00  0.00     0.023 C 
ATOM     22  C   UNL A   1      28.850  30.870  21.706  1.00  0.00     0.023 C 
ENDBRANCH  15  16
ENDBRANCH  14  15
ENDBRANCH  12  14
ENDBRANCH   6   8
ENDBRANCH   5   6
ENDBRANCH   4   5
ENDBRANCH   3   4
ENDBRANCH   2   3
ENDBRANCH   1   2
BRANCH   1  23
ATOM     23  C   UNL A   1      37.314  22.457  25.192  1.00  0.00     0.188 C 
BRANCH  23  24
ATOM     24  O   UNL A   1      38.212  21.456  25.663  1.00  0.00    -0.376 OA
BRANCH  24  25
ATOM     25  C   UNL A   1      38.286  20.201  25.002  1.00  0.00     0.202 C 
BRANCH  25  26
ATOM     26  C   UNL A   1      39.297  19.169  25.514  1.00  0.00     0.261 C 
BRANCH  26  27
ATOM     27  O   UNL A   1      40.143  19.633  26.574  1.00  0.00    -0.460 OA
BRANCH  27  28
ATOM     28  C   UNL A   1      41.382  20.027  26.193  1.00  0.00     0.338 C 
ATOM     29  O   UNL A   1      42.156  19.422  25.469  1.00  0.00    -0.246 OA
BRANCH  28  30
ATOM     30  C   UNL A   1      41.628  21.412  26.644  1.00  0.00     0.060 A 
ATOM     31  C   UNL A   1      41.366  22.450  25.742  1.00  0.00     0.016 A 
ATOM     32  C   UNL A   1      42.155  21.689  27.909  1.00  0.00     0.016 A 
ATOM     33  C   UNL A   1      41.657  23.768  26.087  1.00  0.00     0.010 A 
ATOM     34  C   UNL A   1      42.465  23.010  28.246  1.00  0.00     0.010 A 
ATOM     35  C   UNL A   1      42.244  24.051  27.326  1.00  0.00    -0.014 A 
BRANCH  35  36
ATOM     36  C   UNL A   1      42.770  25.411  27.593  1.00  0.00     0.031 A 
ATOM     37  C   UNL A   1      41.863  26.427  28.232  1.00  0.00     0.074 A 
ATOM     38  C   UNL A   1      44.033  25.743  27.270  1.00  0.00     0.049 A 
ATOM     39  N   UNL A   1      42.109  27.668  28.558  1.00  0.00    -0.248 NA
ATOM     40  C   UNL A   1      40.494  25.981  28.544  1.00  0.00     0.031 C 
ATOM     41  C   UNL A   1      45.007  24.850  26.645  1.00  0.00     0.029 A 
ATOM     42  N   UNL A   1      44.702  26.933  27.403  1.00  0.00    -0.354 N 
ATOM     43  C   UNL A   1      40.925  28.161  29.091  1.00  0.00     0.074 A 
ATOM     44  C   UNL A   1      39.957  27.088  29.038  1.00  0.00     0.031 C 
ATOM     45  C   UNL A   1      46.143  25.535  26.423  1.00  0.00     0.029 A 
ATOM     46  C   UNL A   1      45.970  26.915  26.876  1.00  0.00     0.049 A 
ATOM     47  H   UNL A   1      44.310  27.726  27.836  1.00  0.00     0.167 HD
ATOM     48  C   UNL A   1      40.670  29.391  29.597  1.00  0.00     0.034 A 
ATOM     49  C   UNL A   1      46.880  27.902  26.758  1.00  0.00     0.034 A 
ATOM     50  C   UNL A   1      41.634  30.454  29.665  1.00  0.00     0.049 A 
ATOM     51  C   UNL A   1      46.563  29.271  27.305  1.00  0.00     0.074 A 
ATOM     52  C   UNL A   1      41.486  31.717  30.211  1.00  0.00     0.029 A 
ATOM     53  N   UNL A   1      42.922  30.387  29.156  1.00  0.00    -0.354 N 
ATOM     54  N   UNL A   1      45.488  29.679  27.938  1.00  0.00    -0.248 NA
ATOM     55  C   UNL A   1      47.595  30.306  27.151  1.00  0.00     0.031 C 
ATOM     56  C   UNL A   1      42.678  32.421  30.012  1.00  0.00     0.029 A 
ATOM     57  C   UNL A   1      43.575  31.589  29.360  1.00  0.00     0.049 A 
ATOM     58  H   UNL A   1      43.314  29.598  28.715  1.00  0.00     0.167 HD
ATOM     59  C   UNL A   1      45.731  31.003  28.288  1.00  0.00     0.074 A 
ATOM     60  C   UNL A   1      47.060  31.325  27.811  1.00  0.00     0.031 C 
ATOM     61  C   UNL A   1      44.920  31.879  28.933  1.00  0.00     0.034 A 
BRANCH  48  62
ATOM     62  C   UNL A   1      39.292  29.641  30.146  1.00  0.00     0.023 A 
ATOM     63  C   UNL A   1      39.010  29.311  31.488  1.00  0.00     0.012 A 
ATOM     64  C   UNL A   1      38.292  30.236  29.354  1.00  0.00     0.148 A 
ATOM     65  C   UNL A   1      37.744  29.544  32.024  1.00  0.00     0.002 A 
ATOM     66  C   UNL A   1      37.044  30.500  29.907  1.00  0.00     0.091 A 
ATOM     67  F   UNL A   1      38.570  30.514  28.073  1.00  0.00    -0.205 F 
ATOM     68  C   UNL A   1      36.765  30.146  31.237  1.00  0.00     0.022 A 
BRANCH  66  69
ATOM     69  S   UNL A   1      35.743  31.333  28.991  1.00  0.00     0.127 S 
ATOM     70  O   UNL A   1      34.835  31.733  30.064  1.00  0.00    -0.237 OA
ATOM     71  O   UNL A   1      36.465  32.438  28.359  1.00  0.00    -0.237 OA
ATOM     72  O   UNL A   1      35.218  30.344  28.058  1.00  0.00    -0.744 OA
ENDBRANCH  66  69
ENDBRANCH  48  62
BRANCH  49  73
ATOM     73  C   UNL A   1      48.206  27.622  26.138  1.00  0.00     0.023 A 
ATOM     74  C   UNL A   1      49.295  27.272  26.958  1.00  0.00     0.012 A 
ATOM     75  C   UNL A   1      48.389  27.687  24.743  1.00  0.00     0.148 A 
ATOM     76  C   UNL A   1      50.549  27.014  26.404  1.00  0.00     0.002 A 
ATOM     77  C   UNL A   1      49.629  27.381  24.193  1.00  0.00     0.091 A 
ATOM     78  F   UNL A   1      47.346  28.042  23.980  1.00  0.00    -0.205 F 
ATOM     79  C   UNL A   1      50.715  27.059  25.022  1.00  0.00     0.022 A 
BRANCH  77  80
ATOM     80  S   UNL A   1      49.905  27.304  22.419  1.00  0.00     0.127 S 
ATOM     81  O   UNL A   1      49.702  28.694  22.023  1.00  0.00    -0.237 OA
ATOM     82  O   UNL A   1      51.290  26.838  22.348  1.00  0.00    -0.237 OA
ATOM     83  O   UNL A   1      48.926  26.351  21.912  1.00  0.00    -0.744 OA
ENDBRANCH  77  80
ENDBRANCH  49  73
BRANCH  61  84
ATOM     84  C   UNL A   1      45.447  33.267  29.193  1.00  0.00     0.023 A 
ATOM     85  C   UNL A   1      46.230  33.512  30.337  1.00  0.00     0.012 A 
ATOM     86  C   UNL A   1      45.242  34.304  28.261  1.00  0.00     0.148 A 
ATOM     87  C   UNL A   1      46.780  34.775  30.564  1.00  0.00     0.002 A 
ATOM     88  C   UNL A   1      45.830  35.546  28.469  1.00  0.00     0.091 A 
ATOM     89  F   UNL A   1      44.477  34.057  27.186  1.00  0.00    -0.205 F 
ATOM     90  C   UNL A   1      46.590  35.786  29.625  1.00  0.00     0.022 A 
BRANCH  88  91
ATOM     91  S   UNL A   1      45.717  36.876  27.266  1.00  0.00     0.127 S 
ATOM     92  O   UNL A   1      44.274  36.964  27.052  1.00  0.00    -0.237 OA
ATOM     93  O   UNL A   1      46.296  38.007  27.993  1.00  0.00    -0.237 OA
ATOM     94  O   UNL A   1      46.498  36.438  26.116  1.00  0.00    -0.744 OA
ENDBRANCH  88  91
ENDBRANCH  61  84
ENDBRANCH  35  36
ENDBRANCH  28  30
ENDBRANCH  27  28
ENDBRANCH  26  27
ENDBRANCH  25  26
ENDBRANCH  24  25
ENDBRANCH  23  24
ENDBRANCH   1  23
TORSDOF 23
ENDMDL
MODEL 3
REMARK VINA RESULT:      -9.4      6.099     11.233
REMARK SMILES Cn1cc(CCC(=O)N2CCCC2)cc1C(=O)OCCOCCOCCOC(=O)c1ccc(-c2c3nc(c(-c4cccc(S(=O)(=O)[O-])c4F)c4ccc([nH]4)c(-c4cccc(S(=O)(=O)[O-])c4F)c4nc(c(-c5cccc(S(=O)(=O)[O-])c5F)c5ccc2[nH]5)C=C4)C=C3)cc1
REMARK SMILES IDX 22 1 21 2 20 3 19 4 18 5 16 6 17 7 15 8 1 9 2 10 3 11 4 12
REMARK SMILES IDX 14 13 5 14 6 15 7 16 8 17 9 18 10 19 13 20 11 21 12 22 23 23
REMARK SMILES IDX 24 24 25 25 26 26 27 27 28 28 29 29 30 30 31 31 92 32 32 33
REMARK SMILES IDX 91 34 33 35 34 36 35 37 85 38 36 39 90 40 84 41 86 42 37 43
REMARK SMILES IDX 89 44 83 45 82 46 38 48 70 49 50 50 69 51 51 52 54 53 68 54
REMARK SMILES IDX 87 55 52 56 53 57 67 59 88 60 55 61 39 62 40 63 48 64 41 65
REMARK SMILES IDX 43 66 49 67 42 68 44 69 45 70 46 71 47 72 71 73 72 74 80 75
REMARK SMILES IDX 73 76 75 77 81 78 74 79 76 80 77 81 78 82 79 83 56 84 57 85
REMARK SMILES IDX 65 86 58 87 60 88 66 89 59 90 61 91 62 92 63 93 64 94
REMARK H PARENT 86 47 54 58
REMARK Flexibility Score: inf
ROOT
ATOM      1  C   UNL A   1      33.697  37.547  32.079  1.00  0.00     0.188 C 
ENDROOT
BRANCH   1   2
ATOM      2  O   UNL A   1      32.699  37.174  31.140  1.00  0.00    -0.376 OA
BRANCH   2   3
ATOM      3  C   UNL A   1      32.632  35.793  30.824  1.00  0.00     0.202 C 
BRANCH   3   4
ATOM      4  C   UNL A   1      33.112  35.480  29.405  1.00  0.00     0.261 C 
BRANCH   4   5
ATOM      5  O   UNL A   1      33.806  34.231  29.257  1.00  0.00    -0.459 OA
BRANCH   5   6
ATOM      6  C   UNL A   1      34.450  34.003  28.084  1.00  0.00     0.355 C 
ATOM      7  O   UNL A   1      34.707  34.866  27.255  1.00  0.00    -0.244 OA
BRANCH   6   8
ATOM      8  C   UNL A   1      34.861  32.617  28.027  1.00  0.00     0.127 A 
ATOM      9  C   UNL A   1      37.276  32.846  28.763  1.00  0.00     0.150 C 
ATOM     10  N   UNL A   1      36.099  32.107  28.360  1.00  0.00    -0.345 N 
ATOM     11  C   UNL A   1      36.087  30.740  28.254  1.00  0.00     0.089 A 
ATOM     12  C   UNL A   1      34.895  30.355  27.680  1.00  0.00    -0.029 A 
ATOM     13  C   UNL A   1      34.097  31.532  27.609  1.00  0.00     0.039 A 
BRANCH  12  14
ATOM     14  C   UNL A   1      34.542  28.972  27.232  1.00  0.00     0.047 C 
BRANCH  14  15
ATOM     15  C   UNL A   1      33.826  28.941  25.883  1.00  0.00     0.105 C 
BRANCH  15  16
ATOM     16  C   UNL A   1      32.794  27.828  25.768  1.00  0.00     0.222 C 
ATOM     17  O   UNL A   1      32.867  26.843  26.509  1.00  0.00    -0.275 OA
ATOM     18  N   UNL A   1      31.766  27.966  24.860  1.00  0.00    -0.343 N 
ATOM     19  C   UNL A   1      31.626  28.955  23.802  1.00  0.00     0.119 C 
ATOM     20  C   UNL A   1      30.652  27.033  24.847  1.00  0.00     0.119 C 
ATOM     21  C   UNL A   1      30.193  28.807  23.319  1.00  0.00     0.023 C 
ATOM     22  C   UNL A   1      29.909  27.329  23.552  1.00  0.00     0.023 C 
ENDBRANCH  15  16
ENDBRANCH  14  15
ENDBRANCH  12  14
ENDBRANCH   6   8
ENDBRANCH   5   6
ENDBRANCH   4   5
ENDBRANCH   3   4
ENDBRANCH   2   3
ENDBRANCH   1   2
BRANCH   1  23
ATOM     23  C   UNL A   1      33.563  36.830  33.436  1.00  0.00     0.188 C 
BRANCH  23  24
ATOM     24  O   UNL A   1      34.606  35.999  33.944  1.00  0.00    -0.376 OA
BRANCH  24  25
ATOM     25  C   UNL A   1      35.110  34.932  33.155  1.00  0.00     0.202 C 
BRANCH  25  26
ATOM     26  C   UNL A   1      34.816  33.496  33.602  1.00  0.00     0.261 C 
BRANCH  26  27
ATOM     27  O   UNL A   1      35.976  32.666  33.754  1.00  0.00    -0.460 OA
BRANCH  27  28
ATOM     28  C   UNL A   1      36.256  31.868  32.696  1.00  0.00     0.338 C 
ATOM     29  O   UNL A   1      35.578  31.709  31.694  1.00  0.00    -0.246 OA
BRANCH  28  30
ATOM     30  C   UNL A   1      37.618  31.314  32.834  1.00  0.00     0.060 A 
ATOM     31  C   UNL A   1      38.659  31.964  32.158  1.00  0.00     0.016 A 
ATOM     32  C   UNL A   1      37.867  30.151  33.566  1.00  0.00     0.016 A 
ATOM     33  C   UNL A   1      39.949  31.438  32.187  1.00  0.00     0.010 A 
ATOM     34  C   UNL A   1      39.159  29.613  33.578  1.00  0.00     0.010 A 
ATOM     35  C   UNL A   1      40.198  30.238  32.865  1.00  0.00    -0.014 A 
BRANCH  35  36
ATOM     36  C   UNL A   1      41.504  29.560  32.696  1.00  0.00     0.031 A 
ATOM     37  C   UNL A   1      42.593  29.823  33.700  1.00  0.00     0.074 A 
ATOM     38  C   UNL A   1      41.724  28.725  31.664  1.00  0.00     0.049 A 
ATOM     39  N   UNL A   1      43.806  29.339  33.751  1.00  0.00    -0.248 NA
ATOM     40  C   UNL A   1      42.269  30.756  34.792  1.00  0.00     0.031 C 
ATOM     41  C   UNL A   1      40.751  28.391  30.626  1.00  0.00     0.029 A 
ATOM     42  N   UNL A   1      42.850  28.025  31.312  1.00  0.00    -0.354 N 
ATOM     43  C   UNL A   1      44.400  29.924  34.862  1.00  0.00     0.074 A 
ATOM     44  C   UNL A   1      43.417  30.806  35.453  1.00  0.00     0.031 C 
ATOM     45  C   UNL A   1      41.334  27.570  29.734  1.00  0.00     0.029 A 
ATOM     46  C   UNL A   1      42.722  27.334  30.130  1.00  0.00     0.049 A 
ATOM     47  H   UNL A   1      43.672  28.018  31.852  1.00  0.00     0.167 HD
ATOM     48  C   UNL A   1      45.645  29.734  35.358  1.00  0.00     0.034 A 
ATOM     49  C   UNL A   1      43.625  26.608  29.442  1.00  0.00     0.034 A 
ATOM     50  C   UNL A   1      46.618  28.847  34.782  1.00  0.00     0.049 A 
ATOM     51  C   UNL A   1      45.014  26.431  30.002  1.00  0.00     0.074 A 
ATOM     52  C   UNL A   1      47.887  28.544  35.245  1.00  0.00     0.029 A 
ATOM     53  N   UNL A   1      46.440  28.133  33.607  1.00  0.00    -0.354 N 
ATOM     54  N   UNL A   1      45.513  26.876  31.131  1.00  0.00    -0.248 NA
ATOM     55  C   UNL A   1      45.954  25.626  29.209  1.00  0.00     0.031 C 
ATOM     56  C   UNL A   1      48.484  27.663  34.336  1.00  0.00     0.029 A 
ATOM     57  C   UNL A   1      47.579  27.402  33.319  1.00  0.00     0.049 A 
ATOM     58  H   UNL A   1      45.622  28.145  33.059  1.00  0.00     0.167 HD
ATOM     59  C   UNL A   1      46.809  26.375  31.199  1.00  0.00     0.074 A 
ATOM     60  C   UNL A   1      47.014  25.581  30.006  1.00  0.00     0.031 C 
ATOM     61  C   UNL A   1      47.750  26.568  32.157  1.00  0.00     0.034 A 
BRANCH  48  62
ATOM     62  C   UNL A   1      46.014  30.481  36.610  1.00  0.00     0.023 A 
ATOM     63  C   UNL A   1      46.463  31.814  36.515  1.00  0.00     0.012 A 
ATOM     64  C   UNL A   1      45.878  29.884  37.878  1.00  0.00     0.148 A 
ATOM     65  C   UNL A   1      46.800  32.532  37.662  1.00  0.00     0.002 A 
ATOM     66  C   UNL A   1      46.180  30.620  39.019  1.00  0.00     0.091 A 
ATOM     67  F   UNL A   1      45.479  28.607  37.945  1.00  0.00    -0.205 F 
ATOM     68  C   UNL A   1      46.649  31.939  38.912  1.00  0.00     0.022 A 
BRANCH  66  69
ATOM     69  S   UNL A   1      45.953  29.961  40.675  1.00  0.00     0.127 S 
ATOM     70  O   UNL A   1      46.315  31.110  41.502  1.00  0.00    -0.237 OA
ATOM     71  O   UNL A   1      44.528  29.627  40.684  1.00  0.00    -0.237 OA
ATOM     72  O   UNL A   1      46.842  28.811  40.770  1.00  0.00    -0.744 OA
ENDBRANCH  66  69
ENDBRANCH  48  62
BRANCH  49  73
ATOM     73  C   UNL A   1      43.232  25.947  28.166  1.00  0.00     0.023 A 
ATOM     74  C   UNL A   1      43.245  26.688  26.969  1.00  0.00     0.012 A 
ATOM     75  C   UNL A   1      42.862  24.588  28.129  1.00  0.00     0.148 A 
ATOM     76  C   UNL A   1      42.874  26.096  25.761  1.00  0.00     0.002 A 
ATOM     77  C   UNL A   1      42.540  23.991  26.915  1.00  0.00     0.091 A 
ATOM     78  F   UNL A   1      42.836  23.905  29.281  1.00  0.00    -0.205 F 
ATOM     79  C   UNL A   1      42.531  24.747  25.732  1.00  0.00     0.022 A 
BRANCH  77  80
ATOM     80  S   UNL A   1      42.195  22.235  26.766  1.00  0.00     0.127 S 
ATOM     81  O   UNL A   1      41.924  22.102  25.337  1.00  0.00    -0.237 OA
ATOM     82  O   UNL A   1      43.455  21.640  27.212  1.00  0.00    -0.237 OA
ATOM     83  O   UNL A   1      41.066  21.981  27.651  1.00  0.00    -0.744 OA
ENDBRANCH  77  80
ENDBRANCH  49  73
BRANCH  61  84
ATOM     84  C   UNL A   1      49.085  25.890  31.980  1.00  0.00     0.023 A 
ATOM     85  C   UNL A   1      50.056  26.471  31.142  1.00  0.00     0.012 A 
ATOM     86  C   UNL A   1      49.408  24.730  32.711  1.00  0.00     0.148 A 
ATOM     87  C   UNL A   1      51.320  25.893  31.014  1.00  0.00     0.002 A 
ATOM     88  C   UNL A   1      50.683  24.185  32.614  1.00  0.00     0.091 A 
ATOM     89  F   UNL A   1      48.463  24.180  33.490  1.00  0.00    -0.205 F 
ATOM     90  C   UNL A   1      51.636  24.759  31.758  1.00  0.00     0.022 A 
BRANCH  88  91
ATOM     91  S   UNL A   1      51.206  22.783  33.608  1.00  0.00     0.127 S 
ATOM     92  O   UNL A   1      52.598  22.624  33.192  1.00  0.00    -0.237 OA
ATOM     93  O   UNL A   1      51.031  23.283  34.973  1.00  0.00    -0.237 OA
ATOM     94  O   UNL A   1      50.314  21.687  33.251  1.00  0.00    -0.744 OA
ENDBRANCH  88  91
ENDBRANCH  61  84
ENDBRANCH  35  36
ENDBRANCH  28  30
ENDBRANCH  27  28
ENDBRANCH  26  27
ENDBRANCH  25  26
ENDBRANCH  24  25
ENDBRANCH  23  24
ENDBRANCH   1  23
TORSDOF 23
ENDMDL
