MODEL 1
REMARK VINA RESULT:     -12.4      0.000      0.000
REMARK SMILES Cc1ccc(Nc2c(C)cccc2Cl)c(CC(=O)OCCOCCOCCOC(=O)c2ccc(-c3c4nc(c(-c5cccc(S(=O)(=O)[O-])c5F)c5ccc([nH]5)c(-c5cccc(S(=O)(=O)[O-])c5F)c5nc(c(-c6cccc(S(=O)(=O)[O-])c6F)c6ccc3[nH]6)C=C5)C=C4)cc2)c1
REMARK SMILES IDX 23 1 22 2 21 3 20 4 19 5 17 6 18 7 16 8 15 9 1 10 2 11 3 12
REMARK SMILES IDX 94 13 4 14 5 15 6 16 7 18 8 19 13 20 9 21 10 22 12 23 14 24
REMARK SMILES IDX 11 25 24 26 25 27 26 28 27 29 28 30 29 31 30 32 31 33 32 34
REMARK SMILES IDX 93 35 33 36 92 37 34 38 35 39 36 40 86 41 37 42 91 43 85 44
REMARK SMILES IDX 87 45 38 46 90 47 84 48 83 49 39 51 71 52 51 53 70 54 52 55
REMARK SMILES IDX 55 56 69 57 88 58 53 59 54 60 68 62 89 63 56 64 40 65 41 66
REMARK SMILES IDX 49 67 42 68 44 69 50 70 43 71 45 72 46 73 47 74 48 75 72 76
REMARK SMILES IDX 73 77 81 78 74 79 76 80 82 81 75 82 77 83 78 84 79 85 80 86
REMARK SMILES IDX 57 87 58 88 66 89 59 90 61 91 67 92 60 93 62 94 63 95 64 96
REMARK SMILES IDX 65 97
REMARK H PARENT 6 17 87 50 55 61
REMARK Flexibility Score: inf
ROOT
ATOM      1  C   UNL A   1      30.861  27.836  24.359  1.00  0.00     0.188 C 
ENDROOT
BRANCH   1   2
ATOM      2  O   UNL A   1      30.837  26.431  24.439  1.00  0.00    -0.376 OA
BRANCH   2   3
ATOM      3  C   UNL A   1      30.913  25.749  25.684  1.00  0.00     0.202 C 
BRANCH   3   4
ATOM      4  C   UNL A   1      30.795  24.178  26.195  1.00  0.00     0.261 C 
BRANCH   4   5
ATOM      5  O   UNL A   1      31.886  22.754  26.580  1.00  0.00    -0.463 OA
BRANCH   5   6
ATOM      6  C   UNL A   1      33.483  22.287  26.595  1.00  0.00     0.310 C 
ATOM      7  O   UNL A   1      34.479  22.619  27.262  1.00  0.00    -0.252 OA
BRANCH   6   8
ATOM      8  C   UNL A   1      33.745  21.066  25.936  1.00  0.00     0.160 C 
BRANCH   8   9
ATOM      9  C   UNL A   1      34.571  21.424  24.789  1.00  0.00    -0.013 A 
ATOM     10  C   UNL A   1      32.479  23.759  22.463  1.00  0.00     0.044 C 
ATOM     11  C   UNL A   1      33.656  23.157  23.154  1.00  0.00    -0.051 A 
ATOM     12  C   UNL A   1      34.884  23.733  23.203  1.00  0.00     0.005 A 
ATOM     13  C   UNL A   1      33.522  22.028  23.923  1.00  0.00     0.009 A 
ATOM     14  C   UNL A   1      35.911  23.107  23.958  1.00  0.00     0.026 A 
ATOM     15  C   UNL A   1      35.980  21.661  24.719  1.00  0.00     0.042 A 
BRANCH  15  16
ATOM     16  N   UNL A   1      37.749  20.853  25.361  1.00  0.00    -0.354 N 
ATOM     17  H   UNL A   1      37.787  19.870  25.304  1.00  0.00     0.167 HD
BRANCH  16  18
ATOM     18  C   UNL A   1      39.289  21.632  26.028  1.00  0.00     0.060 A 
ATOM     19  C   UNL A   1      40.619  20.855  26.479  1.00  0.00    -0.026 A 
ATOM     20  C   UNL A   1      39.197  22.925  26.615  1.00  0.00     0.064 A 
ATOM     21  C   UNL A   1      41.357  19.514  26.114  1.00  0.00     0.046 C 
ATOM     22  C   UNL A   1      41.474  21.399  27.483  1.00  0.00     0.005 A 
ATOM     23  C   UNL A   1      40.147  23.361  27.605  1.00  0.00     0.023 A 
ATOM     24  Cl  UNL A   1      38.107  24.176  26.272  1.00  0.00    -0.082 Cl
ATOM     25  C   UNL A   1      41.224  22.611  28.065  1.00  0.00     0.002 A 
ENDBRANCH  16  18
ENDBRANCH  15  16
ENDBRANCH   8   9
ENDBRANCH   6   8
ENDBRANCH   5   6
ENDBRANCH   4   5
ENDBRANCH   3   4
ENDBRANCH   2   3
ENDBRANCH   1   2
BRANCH   1  26
ATOM     26  C   UNL A   1      32.132  28.500  23.884  1.00  0.00     0.188 C 
BRANCH  26  27
ATOM     27  O   UNL A   1      32.819  29.174  24.907  1.00  0.00    -0.376 OA
BRANCH  27  28
ATOM     28  C   UNL A   1      32.024  29.552  26.016  1.00  0.00     0.202 C 
BRANCH  28  29
ATOM     29  C   UNL A   1      32.634  30.524  27.107  1.00  0.00     0.261 C 
BRANCH  29  30
ATOM     30  O   UNL A   1      34.097  30.804  27.022  1.00  0.00    -0.460 OA
BRANCH  30  31
ATOM     31  C   UNL A   1      35.116  30.074  27.710  1.00  0.00     0.338 C 
ATOM     32  O   UNL A   1      35.354  28.963  27.280  1.00  0.00    -0.246 OA
BRANCH  31  33
ATOM     33  C   UNL A   1      35.765  30.956  29.046  1.00  0.00     0.060 A 
ATOM     34  C   UNL A   1      36.804  32.567  29.554  1.00  0.00     0.016 A 
ATOM     35  C   UNL A   1      36.620  29.425  29.443  1.00  0.00     0.016 A 
ATOM     36  C   UNL A   1      38.635  32.320  30.004  1.00  0.00     0.010 A 
ATOM     37  C   UNL A   1      38.295  29.379  29.812  1.00  0.00     0.010 A 
ATOM     38  C   UNL A   1      39.463  30.694  30.063  1.00  0.00    -0.014 A 
BRANCH  38  39
ATOM     39  C   UNL A   1      41.155  30.062  30.666  1.00  0.00     0.031 A 
ATOM     40  C   UNL A   1      42.208  28.701  29.796  1.00  0.00     0.074 A 
ATOM     41  C   UNL A   1      41.900  30.674  31.616  1.00  0.00     0.049 A 
ATOM     42  N   UNL A   1      42.416  27.457  30.206  1.00  0.00    -0.248 NA
ATOM     43  C   UNL A   1      42.501  28.534  28.151  1.00  0.00     0.031 C 
ATOM     44  C   UNL A   1      43.359  30.569  31.825  1.00  0.00     0.029 A 
ATOM     45  N   UNL A   1      41.555  31.668  32.524  1.00  0.00    -0.354 N 
ATOM     46  C   UNL A   1      42.870  26.688  29.081  1.00  0.00     0.074 A 
ATOM     47  C   UNL A   1      42.320  27.248  27.916  1.00  0.00     0.031 C 
ATOM     48  C   UNL A   1      43.692  31.186  32.980  1.00  0.00     0.029 A 
ATOM     49  C   UNL A   1      42.441  31.576  33.609  1.00  0.00     0.049 A 
ATOM     50  H   UNL A   1      40.822  32.318  32.424  1.00  0.00     0.167 HD
ATOM     51  C   UNL A   1      44.153  26.208  28.982  1.00  0.00     0.034 A 
ATOM     52  C   UNL A   1      41.911  31.096  34.767  1.00  0.00     0.034 A 
ATOM     53  C   UNL A   1      44.846  26.691  30.166  1.00  0.00     0.049 A 
ATOM     54  C   UNL A   1      42.411  29.676  34.942  1.00  0.00     0.074 A 
ATOM     55  C   UNL A   1      45.645  27.792  30.427  1.00  0.00     0.029 A 
ATOM     56  N   UNL A   1      44.281  26.325  31.371  1.00  0.00    -0.354 N 
ATOM     57  N   UNL A   1      42.909  28.947  33.974  1.00  0.00    -0.248 NA
ATOM     58  C   UNL A   1      42.568  29.048  36.244  1.00  0.00     0.031 C 
ATOM     59  C   UNL A   1      45.514  28.087  31.825  1.00  0.00     0.029 A 
ATOM     60  C   UNL A   1      44.619  27.188  32.392  1.00  0.00     0.049 A 
ATOM     61  H   UNL A   1      43.704  25.537  31.489  1.00  0.00     0.167 HD
ATOM     62  C   UNL A   1      43.476  27.818  34.472  1.00  0.00     0.074 A 
ATOM     63  C   UNL A   1      43.240  27.934  35.906  1.00  0.00     0.031 C 
ATOM     64  C   UNL A   1      44.103  26.865  33.718  1.00  0.00     0.034 A 
BRANCH  51  65
ATOM     65  C   UNL A   1      44.834  25.726  27.668  1.00  0.00     0.023 A 
ATOM     66  C   UNL A   1      45.629  26.680  27.001  1.00  0.00     0.012 A 
ATOM     67  C   UNL A   1      44.797  24.428  27.051  1.00  0.00     0.148 A 
ATOM     68  C   UNL A   1      46.325  26.401  25.815  1.00  0.00     0.002 A 
ATOM     69  C   UNL A   1      45.451  24.166  25.830  1.00  0.00     0.091 A 
ATOM     70  F   UNL A   1      44.176  23.410  27.664  1.00  0.00    -0.205 F 
ATOM     71  C   UNL A   1      46.229  25.152  25.222  1.00  0.00     0.022 A 
BRANCH  69  72
ATOM     72  S   UNL A   1      45.333  22.599  24.920  1.00  0.00     0.127 S 
ATOM     73  O   UNL A   1      44.004  22.112  25.302  1.00  0.00    -0.237 OA
ATOM     74  O   UNL A   1      45.435  23.029  23.527  1.00  0.00    -0.237 OA
ATOM     75  O   UNL A   1      46.427  21.767  25.408  1.00  0.00    -0.744 OA
ENDBRANCH  69  72
ENDBRANCH  51  65
BRANCH  52  76
ATOM     76  C   UNL A   1      40.520  31.661  34.944  1.00  0.00     0.023 A 
ATOM     77  C   UNL A   1      39.501  31.086  34.120  1.00  0.00     0.012 A 
ATOM     78  C   UNL A   1      40.121  32.345  36.106  1.00  0.00     0.148 A 
ATOM     79  C   UNL A   1      38.165  31.067  34.520  1.00  0.00     0.002 A 
ATOM     80  C   UNL A   1      38.771  32.367  36.469  1.00  0.00     0.091 A 
ATOM     81  F   UNL A   1      41.064  32.915  36.865  1.00  0.00    -0.205 F 
ATOM     82  C   UNL A   1      37.806  31.699  35.703  1.00  0.00     0.022 A 
BRANCH  80  83
ATOM     83  S   UNL A   1      38.176  33.232  37.926  1.00  0.00     0.127 S 
ATOM     84  O   UNL A   1      36.733  33.051  37.793  1.00  0.00    -0.237 OA
ATOM     85  O   UNL A   1      38.775  32.481  39.030  1.00  0.00    -0.237 OA
ATOM     86  O   UNL A   1      38.656  34.599  37.800  1.00  0.00    -0.744 OA
ENDBRANCH  80  83
ENDBRANCH  52  76
BRANCH  64  87
ATOM     87  C   UNL A   1      44.220  25.426  34.189  1.00  0.00     0.023 A 
ATOM     88  C   UNL A   1      43.195  24.500  33.931  1.00  0.00     0.012 A 
ATOM     89  C   UNL A   1      45.428  24.901  34.720  1.00  0.00     0.148 A 
ATOM     90  C   UNL A   1      43.289  23.171  34.331  1.00  0.00     0.002 A 
ATOM     91  C   UNL A   1      45.588  23.539  34.911  1.00  0.00     0.091 A 
ATOM     92  F   UNL A   1      46.437  25.711  35.071  1.00  0.00    -0.205 F 
ATOM     93  C   UNL A   1      44.498  22.682  34.794  1.00  0.00     0.022 A 
BRANCH  91  94
ATOM     94  S   UNL A   1      47.214  22.814  35.144  1.00  0.00     0.127 S 
ATOM     95  O   UNL A   1      47.480  23.133  36.544  1.00  0.00    -0.237 OA
ATOM     96  O   UNL A   1      46.958  21.396  34.878  1.00  0.00    -0.237 OA
ATOM     97  O   UNL A   1      48.076  23.458  34.163  1.00  0.00    -0.744 OA
ENDBRANCH  91  94
ENDBRANCH  64  87
ENDBRANCH  38  39
ENDBRANCH  31  33
ENDBRANCH  30  31
ENDBRANCH  29  30
ENDBRANCH  28  29
ENDBRANCH  27  28
ENDBRANCH  26  27
ENDBRANCH   1  26
TORSDOF 23
ENDMDL
MODEL 2
REMARK VINA RESULT:     -11.9      2.307      2.946
REMARK SMILES Cc1ccc(Nc2c(C)cccc2Cl)c(CC(=O)OCCOCCOCCOC(=O)c2ccc(-c3c4nc(c(-c5cccc(S(=O)(=O)[O-])c5F)c5ccc([nH]5)c(-c5cccc(S(=O)(=O)[O-])c5F)c5nc(c(-c6cccc(S(=O)(=O)[O-])c6F)c6ccc3[nH]6)C=C5)C=C4)cc2)c1
REMARK SMILES IDX 23 1 22 2 21 3 20 4 19 5 17 6 18 7 16 8 15 9 1 10 2 11 3 12
REMARK SMILES IDX 94 13 4 14 5 15 6 16 7 18 8 19 13 20 9 21 10 22 12 23 14 24
REMARK SMILES IDX 11 25 24 26 25 27 26 28 27 29 28 30 29 31 30 32 31 33 32 34
REMARK SMILES IDX 93 35 33 36 92 37 34 38 35 39 36 40 86 41 37 42 91 43 85 44
REMARK SMILES IDX 87 45 38 46 90 47 84 48 83 49 39 51 71 52 51 53 70 54 52 55
REMARK SMILES IDX 55 56 69 57 88 58 53 59 54 60 68 62 89 63 56 64 40 65 41 66
REMARK SMILES IDX 49 67 42 68 44 69 50 70 43 71 45 72 46 73 47 74 48 75 72 76
REMARK SMILES IDX 73 77 81 78 74 79 76 80 82 81 75 82 77 83 78 84 79 85 80 86
REMARK SMILES IDX 57 87 58 88 66 89 59 90 61 91 67 92 60 93 62 94 63 95 64 96
REMARK SMILES IDX 65 97
REMARK H PARENT 6 17 87 50 55 61
REMARK Flexibility Score: inf
ROOT
ATOM      1  C   UNL A   1      31.645  28.405  24.306  1.00  0.00     0.188 C 
ENDROOT
BRANCH   1   2
ATOM      2  O   UNL A   1      31.274  27.180  23.719  1.00  0.00    -0.376 OA
BRANCH   2   3
ATOM      3  C   UNL A   1      32.055  26.004  23.880  1.00  0.00     0.202 C 
BRANCH   3   4
ATOM      4  C   UNL A   1      32.522  24.739  22.919  1.00  0.00     0.261 C 
BRANCH   4   5
ATOM      5  O   UNL A   1      34.034  23.780  22.519  1.00  0.00    -0.463 OA
BRANCH   5   6
ATOM      6  C   UNL A   1      35.521  23.353  23.131  1.00  0.00     0.310 C 
ATOM      7  O   UNL A   1      36.589  22.964  22.625  1.00  0.00    -0.252 OA
BRANCH   6   8
ATOM      8  C   UNL A   1      35.757  23.780  24.456  1.00  0.00     0.160 C 
BRANCH   8   9
ATOM      9  C   UNL A   1      35.961  22.553  25.218  1.00  0.00    -0.013 A 
ATOM     10  C   UNL A   1      32.669  20.460  25.063  1.00  0.00     0.044 C 
ATOM     11  C   UNL A   1      34.124  20.784  25.146  1.00  0.00    -0.051 A 
ATOM     12  C   UNL A   1      35.115  19.878  24.950  1.00  0.00     0.005 A 
ATOM     13  C   UNL A   1      34.552  22.080  25.285  1.00  0.00     0.009 A 
ATOM     14  C   UNL A   1      36.466  20.316  24.975  1.00  0.00     0.026 A 
ATOM     15  C   UNL A   1      37.140  21.755  25.361  1.00  0.00     0.042 A 
BRANCH  15  16
ATOM     16  N   UNL A   1      39.147  21.955  25.717  1.00  0.00    -0.354 N 
ATOM     17  H   UNL A   1      39.719  21.654  24.975  1.00  0.00     0.167 HD
BRANCH  16  18
ATOM     18  C   UNL A   1      40.080  22.599  27.179  1.00  0.00     0.060 A 
ATOM     19  C   UNL A   1      40.214  24.140  27.608  1.00  0.00    -0.026 A 
ATOM     20  C   UNL A   1      41.117  21.796  27.731  1.00  0.00     0.064 A 
ATOM     21  C   UNL A   1      39.372  25.461  27.460  1.00  0.00     0.046 C 
ATOM     22  C   UNL A   1      41.360  24.599  28.322  1.00  0.00     0.005 A 
ATOM     23  C   UNL A   1      42.210  22.389  28.457  1.00  0.00     0.023 A 
ATOM     24  Cl  UNL A   1      41.268  20.109  27.741  1.00  0.00    -0.082 Cl
ATOM     25  C   UNL A   1      42.360  23.750  28.708  1.00  0.00     0.002 A 
ENDBRANCH  16  18
ENDBRANCH  15  16
ENDBRANCH   8   9
ENDBRANCH   6   8
ENDBRANCH   5   6
ENDBRANCH   4   5
ENDBRANCH   3   4
ENDBRANCH   2   3
ENDBRANCH   1   2
BRANCH   1  26
ATOM     26  C   UNL A   1      33.103  28.798  24.274  1.00  0.00     0.188 C 
BRANCH  26  27
ATOM     27  O   UNL A   1      33.597  29.193  25.527  1.00  0.00    -0.376 OA
BRANCH  27  28
ATOM     28  C   UNL A   1      32.798  30.136  26.217  1.00  0.00     0.202 C 
BRANCH  28  29
ATOM     29  C   UNL A   1      33.262  30.646  27.643  1.00  0.00     0.261 C 
BRANCH  29  30
ATOM     30  O   UNL A   1      34.610  31.281  27.728  1.00  0.00    -0.460 OA
BRANCH  30  31
ATOM     31  C   UNL A   1      35.821  30.601  28.066  1.00  0.00     0.338 C 
ATOM     32  O   UNL A   1      36.225  29.800  27.247  1.00  0.00    -0.246 OA
BRANCH  31  33
ATOM     33  C   UNL A   1      36.424  31.069  29.616  1.00  0.00     0.060 A 
ATOM     34  C   UNL A   1      37.201  32.571  30.649  1.00  0.00     0.016 A 
ATOM     35  C   UNL A   1      37.573  29.700  29.410  1.00  0.00     0.016 A 
ATOM     36  C   UNL A   1      39.082  32.555  30.937  1.00  0.00     0.010 A 
ATOM     37  C   UNL A   1      39.256  29.865  29.698  1.00  0.00     0.010 A 
ATOM     38  C   UNL A   1      40.188  31.214  30.382  1.00  0.00    -0.014 A 
BRANCH  38  39
ATOM     39  C   UNL A   1      42.016  30.763  30.675  1.00  0.00     0.031 A 
ATOM     40  C   UNL A   1      43.011  29.449  29.675  1.00  0.00     0.074 A 
ATOM     41  C   UNL A   1      42.864  31.491  31.439  1.00  0.00     0.049 A 
ATOM     42  N   UNL A   1      43.409  28.253  30.087  1.00  0.00    -0.248 NA
ATOM     43  C   UNL A   1      43.006  29.213  28.013  1.00  0.00     0.031 C 
ATOM     44  C   UNL A   1      44.339  31.522  31.370  1.00  0.00     0.029 A 
ATOM     45  N   UNL A   1      42.603  32.502  32.356  1.00  0.00    -0.354 N 
ATOM     46  C   UNL A   1      43.715  27.462  28.928  1.00  0.00     0.074 A 
ATOM     47  C   UNL A   1      42.906  27.906  27.868  1.00  0.00     0.031 C 
ATOM     48  C   UNL A   1      44.823  32.230  32.414  1.00  0.00     0.029 A 
ATOM     49  C   UNL A   1      43.681  32.548  33.254  1.00  0.00     0.049 A 
ATOM     50  H   UNL A   1      41.806  33.080  32.372  1.00  0.00     0.167 HD
ATOM     51  C   UNL A   1      44.996  27.088  28.605  1.00  0.00     0.034 A 
ATOM     52  C   UNL A   1      43.423  32.092  34.510  1.00  0.00     0.034 A 
ATOM     53  C   UNL A   1      45.849  27.695  29.614  1.00  0.00     0.049 A 
ATOM     54  C   UNL A   1      44.080  30.732  34.644  1.00  0.00     0.074 A 
ATOM     55  C   UNL A   1      46.575  28.874  29.673  1.00  0.00     0.029 A 
ATOM     56  N   UNL A   1      45.557  27.353  30.919  1.00  0.00    -0.354 N 
ATOM     57  N   UNL A   1      44.454  29.994  33.629  1.00  0.00    -0.248 NA
ATOM     58  C   UNL A   1      44.536  30.195  35.916  1.00  0.00     0.031 C 
ATOM     59  C   UNL A   1      46.681  29.236  31.057  1.00  0.00     0.029 A 
ATOM     60  C   UNL A   1      45.996  28.299  31.820  1.00  0.00     0.049 A 
ATOM     61  H   UNL A   1      45.089  26.526  31.176  1.00  0.00     0.167 HD
ATOM     62  C   UNL A   1      45.208  28.947  34.053  1.00  0.00     0.074 A 
ATOM     63  C   UNL A   1      45.235  29.125  35.500  1.00  0.00     0.031 C 
ATOM     64  C   UNL A   1      45.771  28.009  33.232  1.00  0.00     0.034 A 
BRANCH  51  65
ATOM     65  C   UNL A   1      45.461  26.591  27.205  1.00  0.00     0.023 A 
ATOM     66  C   UNL A   1      44.933  25.354  26.784  1.00  0.00     0.012 A 
ATOM     67  C   UNL A   1      46.330  27.235  26.258  1.00  0.00     0.148 A 
ATOM     68  C   UNL A   1      45.238  24.775  25.542  1.00  0.00     0.002 A 
ATOM     69  C   UNL A   1      46.679  26.626  25.035  1.00  0.00     0.091 A 
ATOM     70  F   UNL A   1      46.788  28.472  26.498  1.00  0.00    -0.205 F 
ATOM     71  C   UNL A   1      46.117  25.401  24.673  1.00  0.00     0.022 A 
BRANCH  69  72
ATOM     72  S   UNL A   1      47.877  27.310  23.855  1.00  0.00     0.127 S 
ATOM     73  O   UNL A   1      48.445  26.103  23.246  1.00  0.00    -0.237 OA
ATOM     74  O   UNL A   1      47.032  28.092  22.956  1.00  0.00    -0.237 OA
ATOM     75  O   UNL A   1      48.834  28.072  24.649  1.00  0.00    -0.744 OA
ENDBRANCH  69  72
ENDBRANCH  51  65
BRANCH  52  76
ATOM     76  C   UNL A   1      42.043  32.546  34.927  1.00  0.00     0.023 A 
ATOM     77  C   UNL A   1      41.753  33.933  34.726  1.00  0.00     0.012 A 
ATOM     78  C   UNL A   1      40.962  31.658  35.062  1.00  0.00     0.148 A 
ATOM     79  C   UNL A   1      40.449  34.382  34.520  1.00  0.00     0.002 A 
ATOM     80  C   UNL A   1      39.654  32.129  34.909  1.00  0.00     0.091 A 
ATOM     81  F   UNL A   1      41.222  30.365  35.285  1.00  0.00    -0.205 F 
ATOM     82  C   UNL A   1      39.402  33.473  34.600  1.00  0.00     0.022 A 
BRANCH  80  83
ATOM     83  S   UNL A   1      38.217  31.066  35.084  1.00  0.00     0.127 S 
ATOM     84  O   UNL A   1      38.189  30.412  33.778  1.00  0.00    -0.237 OA
ATOM     85  O   UNL A   1      38.587  30.181  36.190  1.00  0.00    -0.237 OA
ATOM     86  O   UNL A   1      37.100  31.952  35.372  1.00  0.00    -0.744 OA
ENDBRANCH  80  83
ENDBRANCH  52  76
BRANCH  64  87
ATOM     87  C   UNL A   1      46.109  26.615  33.730  1.00  0.00     0.023 A 
ATOM     88  C   UNL A   1      47.384  26.324  34.241  1.00  0.00     0.012 A 
ATOM     89  C   UNL A   1      45.117  25.611  33.895  1.00  0.00     0.148 A 
ATOM     90  C   UNL A   1      47.711  25.061  34.726  1.00  0.00     0.002 A 
ATOM     91  C   UNL A   1      45.398  24.439  34.576  1.00  0.00     0.091 A 
ATOM     92  F   UNL A   1      43.890  25.762  33.375  1.00  0.00    -0.205 F 
ATOM     93  C   UNL A   1      46.709  24.126  34.922  1.00  0.00     0.022 A 
BRANCH  91  94
ATOM     94  S   UNL A   1      44.085  23.375  35.184  1.00  0.00     0.127 S 
ATOM     95  O   UNL A   1      43.603  22.767  33.946  1.00  0.00    -0.237 OA
ATOM     96  O   UNL A   1      44.815  22.464  36.069  1.00  0.00    -0.237 OA
ATOM     97  O   UNL A   1      43.152  24.256  35.872  1.00  0.00    -0.744 OA
ENDBRANCH  91  94
ENDBRANCH  64  87
ENDBRANCH  38  39
ENDBRANCH  31  33
ENDBRANCH  30  31
ENDBRANCH  29  30
ENDBRANCH  28  29
ENDBRANCH  27  28
ENDBRANCH  26  27
ENDBRANCH   1  26
TORSDOF 23
ENDMDL
MODEL 3
REMARK VINA RESULT:     -11.5      2.566      4.606
REMARK SMILES Cc1ccc(Nc2c(C)cccc2Cl)c(CC(=O)OCCOCCOCCOC(=O)c2ccc(-c3c4nc(c(-c5cccc(S(=O)(=O)[O-])c5F)c5ccc([nH]5)c(-c5cccc(S(=O)(=O)[O-])c5F)c5nc(c(-c6cccc(S(=O)(=O)[O-])c6F)c6ccc3[nH]6)C=C5)C=C4)cc2)c1
REMARK SMILES IDX 23 1 22 2 21 3 20 4 19 5 17 6 18 7 16 8 15 9 1 10 2 11 3 12
REMARK SMILES IDX 94 13 4 14 5 15 6 16 7 18 8 19 13 20 9 21 10 22 12 23 14 24
REMARK SMILES IDX 11 25 24 26 25 27 26 28 27 29 28 30 29 31 30 32 31 33 32 34
REMARK SMILES IDX 93 35 33 36 92 37 34 38 35 39 36 40 86 41 37 42 91 43 85 44
REMARK SMILES IDX 87 45 38 46 90 47 84 48 83 49 39 51 71 52 51 53 70 54 52 55
REMARK SMILES IDX 55 56 69 57 88 58 53 59 54 60 68 62 89 63 56 64 40 65 41 66
REMARK SMILES IDX 49 67 42 68 44 69 50 70 43 71 45 72 46 73 47 74 48 75 72 76
REMARK SMILES IDX 73 77 81 78 74 79 76 80 82 81 75 82 77 83 78 84 79 85 80 86
REMARK SMILES IDX 57 87 58 88 66 89 59 90 61 91 67 92 60 93 62 94 63 95 64 96
REMARK SMILES IDX 65 97
REMARK H PARENT 6 17 87 50 55 61
REMARK Flexibility Score: inf
ROOT
ATOM      1  C   UNL A   1      39.096  27.734  29.434  1.00  0.00     0.188 C 
ENDROOT
BRANCH   1   2
ATOM      2  O   UNL A   1      39.294  26.376  29.118  1.00  0.00    -0.376 OA
BRANCH   2   3
ATOM      3  C   UNL A   1      39.371  25.922  27.774  1.00  0.00     0.202 C 
BRANCH   3   4
ATOM      4  C   UNL A   1      38.985  24.534  26.958  1.00  0.00     0.261 C 
BRANCH   4   5
ATOM      5  O   UNL A   1      37.500  23.648  26.344  1.00  0.00    -0.463 OA
BRANCH   5   6
ATOM      6  C   UNL A   1      37.027  22.429  25.315  1.00  0.00     0.310 C 
ATOM      7  O   UNL A   1      37.511  21.924  24.286  1.00  0.00    -0.252 OA
BRANCH   6   8
ATOM      8  C   UNL A   1      36.032  21.573  25.835  1.00  0.00     0.160 C 
BRANCH   8   9
ATOM      9  C   UNL A   1      34.881  21.753  24.958  1.00  0.00    -0.013 A 
ATOM     10  C   UNL A   1      32.699  18.521  25.134  1.00  0.00     0.044 C 
ATOM     11  C   UNL A   1      33.066  19.960  24.989  1.00  0.00    -0.051 A 
ATOM     12  C   UNL A   1      32.172  20.980  25.043  1.00  0.00     0.005 A 
ATOM     13  C   UNL A   1      34.380  20.352  24.938  1.00  0.00     0.009 A 
ATOM     14  C   UNL A   1      32.646  22.317  24.971  1.00  0.00     0.026 A 
ATOM     15  C   UNL A   1      34.130  22.936  24.671  1.00  0.00     0.042 A 
BRANCH  15  16
ATOM     16  N   UNL A   1      34.412  24.911  24.209  1.00  0.00    -0.354 N 
ATOM     17  H   UNL A   1      35.356  25.165  24.086  1.00  0.00     0.167 HD
BRANCH  16  18
ATOM     18  C   UNL A   1      33.217  26.305  23.978  1.00  0.00     0.060 A 
ATOM     19  C   UNL A   1      32.723  27.320  25.119  1.00  0.00    -0.026 A 
ATOM     20  C   UNL A   1      32.317  26.253  22.878  1.00  0.00     0.064 A 
ATOM     21  C   UNL A   1      33.285  27.915  26.463  1.00  0.00     0.046 C 
ATOM     22  C   UNL A   1      31.438  27.934  25.038  1.00  0.00     0.005 A 
ATOM     23  C   UNL A   1      31.054  26.944  22.918  1.00  0.00     0.023 A 
ATOM     24  Cl  UNL A   1      32.518  25.508  21.370  1.00  0.00    -0.082 Cl
ATOM     25  C   UNL A   1      30.601  27.722  23.978  1.00  0.00     0.002 A 
ENDBRANCH  16  18
ENDBRANCH  15  16
ENDBRANCH   8   9
ENDBRANCH   6   8
ENDBRANCH   5   6
ENDBRANCH   4   5
ENDBRANCH   3   4
ENDBRANCH   2   3
ENDBRANCH   1   2
BRANCH   1  26
ATOM     26  C   UNL A   1      38.385  28.069  30.724  1.00  0.00     0.188 C 
BRANCH  26  27
ATOM     27  O   UNL A   1      37.231  28.845  30.533  1.00  0.00    -0.376 OA
BRANCH  27  28
ATOM     28  C   UNL A   1      37.061  29.358  29.225  1.00  0.00     0.202 C 
BRANCH  28  29
ATOM     29  C   UNL A   1      35.760  30.195  28.887  1.00  0.00     0.261 C 
BRANCH  29  30
ATOM     30  O   UNL A   1      35.881  31.682  28.932  1.00  0.00    -0.460 OA
BRANCH  30  31
ATOM     31  C   UNL A   1      35.581  32.498  30.067  1.00  0.00     0.338 C 
ATOM     32  O   UNL A   1      34.468  32.366  30.536  1.00  0.00    -0.246 OA
BRANCH  31  33
ATOM     33  C   UNL A   1      36.898  33.531  30.498  1.00  0.00     0.060 A 
ATOM     34  C   UNL A   1      38.426  34.568  29.777  1.00  0.00     0.016 A 
ATOM     35  C   UNL A   1      37.417  32.171  31.554  1.00  0.00     0.016 A 
ATOM     36  C   UNL A   1      40.160  33.805  29.955  1.00  0.00     0.010 A 
ATOM     37  C   UNL A   1      39.032  31.593  31.577  1.00  0.00     0.010 A 
ATOM     38  C   UNL A   1      40.500  32.226  30.803  1.00  0.00    -0.014 A 
BRANCH  38  39
ATOM     39  C   UNL A   1      42.072  31.298  31.350  1.00  0.00     0.031 A 
ATOM     40  C   UNL A   1      42.897  29.846  30.388  1.00  0.00     0.074 A 
ATOM     41  C   UNL A   1      42.903  31.725  32.330  1.00  0.00     0.049 A 
ATOM     42  N   UNL A   1      42.907  28.562  30.718  1.00  0.00    -0.248 NA
ATOM     43  C   UNL A   1      43.162  29.738  28.734  1.00  0.00     0.031 C 
ATOM     44  C   UNL A   1      44.326  31.378  32.520  1.00  0.00     0.029 A 
ATOM     45  N   UNL A   1      42.717  32.701  33.301  1.00  0.00    -0.354 N 
ATOM     46  C   UNL A   1      43.235  27.802  29.544  1.00  0.00     0.074 A 
ATOM     47  C   UNL A   1      42.782  28.514  28.421  1.00  0.00     0.031 C 
ATOM     48  C   UNL A   1      44.751  31.862  33.708  1.00  0.00     0.029 A 
ATOM     49  C   UNL A   1      43.577  32.403  34.371  1.00  0.00     0.049 A 
ATOM     50  H   UNL A   1      42.096  33.464  33.248  1.00  0.00     0.167 HD
ATOM     51  C   UNL A   1      44.426  27.134  29.404  1.00  0.00     0.034 A 
ATOM     52  C   UNL A   1      42.976  31.941  35.501  1.00  0.00     0.034 A 
ATOM     53  C   UNL A   1      45.185  27.426  30.609  1.00  0.00     0.049 A 
ATOM     54  C   UNL A   1      43.246  30.452  35.583  1.00  0.00     0.074 A 
ATOM     55  C   UNL A   1      46.147  28.369  30.932  1.00  0.00     0.029 A 
ATOM     56  N   UNL A   1      44.568  27.079  31.795  1.00  0.00    -0.354 N 
ATOM     57  N   UNL A   1      43.623  29.716  34.567  1.00  0.00    -0.248 NA
ATOM     58  C   UNL A   1      43.300  29.726  36.842  1.00  0.00     0.031 C 
ATOM     59  C   UNL A   1      46.063  28.593  32.346  1.00  0.00     0.029 A 
ATOM     60  C   UNL A   1      45.036  27.813  32.864  1.00  0.00     0.049 A 
ATOM     61  H   UNL A   1      43.874  26.386  31.868  1.00  0.00     0.167 HD
ATOM     62  C   UNL A   1      44.005  28.482  34.989  1.00  0.00     0.074 A 
ATOM     63  C   UNL A   1      43.789  28.544  36.429  1.00  0.00     0.031 C 
ATOM     64  C   UNL A   1      44.475  27.492  34.172  1.00  0.00     0.034 A 
BRANCH  51  65
ATOM     65  C   UNL A   1      45.024  26.634  28.056  1.00  0.00     0.023 A 
ATOM     66  C   UNL A   1      44.746  25.295  27.718  1.00  0.00     0.012 A 
ATOM     67  C   UNL A   1      45.794  27.359  27.082  1.00  0.00     0.148 A 
ATOM     68  C   UNL A   1      45.195  24.696  26.531  1.00  0.00     0.002 A 
ATOM     69  C   UNL A   1      46.292  26.741  25.917  1.00  0.00     0.091 A 
ATOM     70  F   UNL A   1      46.010  28.673  27.239  1.00  0.00    -0.205 F 
ATOM     71  C   UNL A   1      45.976  25.411  25.637  1.00  0.00     0.022 A 
BRANCH  69  72
ATOM     72  S   UNL A   1      47.387  27.549  24.716  1.00  0.00     0.127 S 
ATOM     73  O   UNL A   1      46.580  28.689  24.270  1.00  0.00    -0.237 OA
ATOM     74  O   UNL A   1      48.541  27.917  25.533  1.00  0.00    -0.237 OA
ATOM     75  O   UNL A   1      47.638  26.563  23.672  1.00  0.00    -0.744 OA
ENDBRANCH  69  72
ENDBRANCH  51  65
BRANCH  52  76
ATOM     76  C   UNL A   1      41.691  32.706  35.725  1.00  0.00     0.023 A 
ATOM     77  C   UNL A   1      40.482  31.949  35.600  1.00  0.00     0.012 A 
ATOM     78  C   UNL A   1      41.643  33.914  36.442  1.00  0.00     0.148 A 
ATOM     79  C   UNL A   1      39.323  32.310  36.287  1.00  0.00     0.002 A 
ATOM     80  C   UNL A   1      40.459  34.294  37.082  1.00  0.00     0.091 A 
ATOM     81  F   UNL A   1      42.760  34.645  36.535  1.00  0.00    -0.205 F 
ATOM     82  C   UNL A   1      39.320  33.478  37.038  1.00  0.00     0.022 A 
BRANCH  80  83
ATOM     83  S   UNL A   1      40.308  35.828  38.003  1.00  0.00     0.127 S 
ATOM     84  O   UNL A   1      40.288  36.808  36.919  1.00  0.00    -0.237 OA
ATOM     85  O   UNL A   1      39.028  35.678  38.697  1.00  0.00    -0.237 OA
ATOM     86  O   UNL A   1      41.466  35.880  38.881  1.00  0.00    -0.744 OA
ENDBRANCH  80  83
ENDBRANCH  52  76
BRANCH  64  87
ATOM     87  C   UNL A   1      44.363  26.026  34.552  1.00  0.00     0.023 A 
ATOM     88  C   UNL A   1      43.199  25.295  34.260  1.00  0.00     0.012 A 
ATOM     89  C   UNL A   1      45.476  25.280  35.023  1.00  0.00     0.148 A 
ATOM     90  C   UNL A   1      43.081  23.945  34.575  1.00  0.00     0.002 A 
ATOM     91  C   UNL A   1      45.416  23.901  35.127  1.00  0.00     0.091 A 
ATOM     92  F   UNL A   1      46.607  25.894  35.400  1.00  0.00    -0.205 F 
ATOM     93  C   UNL A   1      44.201  23.240  34.981  1.00  0.00     0.022 A 
BRANCH  91  94
ATOM     94  S   UNL A   1      46.906  22.910  35.279  1.00  0.00     0.127 S 
ATOM     95  O   UNL A   1      47.249  23.110  36.684  1.00  0.00    -0.237 OA
ATOM     96  O   UNL A   1      46.416  21.569  34.954  1.00  0.00    -0.237 OA
ATOM     97  O   UNL A   1      47.842  23.456  34.305  1.00  0.00    -0.744 OA
ENDBRANCH  91  94
ENDBRANCH  64  87
ENDBRANCH  38  39
ENDBRANCH  31  33
ENDBRANCH  30  31
ENDBRANCH  29  30
ENDBRANCH  28  29
ENDBRANCH  27  28
ENDBRANCH  26  27
ENDBRANCH   1  26
TORSDOF 23
ENDMDL
