MODEL 1
REMARK VINA RESULT:     -10.1      0.000      0.000
REMARK SMILES COc1ccccc1[C@@H]1C[N@@H+](Cc2cn3cc(C)ccc3n2)C[C@H]1C(=O)OCCOCCOCCOC(=O)c1ccc(-c2c3nc(c(-c4cccc(S(=O)(=O)[O-])c4F)c4ccc([nH]4)c(-c4cccc(S(=O)(=O)[O-])c4F)c4nc(c(-c5cccc(S(=O)(=O)[O-])c5F)c5ccc2[nH]5)C=C4)C=C3)cc1
REMARK SMILES IDX 32 1 31 2 30 3 29 4 28 5 27 6 25 7 26 8 24 9 9 10 10 11
REMARK SMILES IDX 11 12 23 13 8 15 3 16 4 17 5 18 7 19 6 20 2 21 1 22 12 23
REMARK SMILES IDX 13 24 14 25 22 26 15 27 21 28 16 29 20 30 17 31 19 32 18 33
REMARK SMILES IDX 33 34 34 35 35 36 36 37 37 38 38 39 39 40 40 41 101 42 41 43
REMARK SMILES IDX 100 44 42 45 43 46 44 47 94 48 45 49 99 50 93 51 95 52 46 53
REMARK SMILES IDX 98 54 92 55 91 56 47 58 79 59 59 60 78 61 60 62 63 63 77 64
REMARK SMILES IDX 96 65 61 66 62 67 76 69 97 70 64 71 48 72 49 73 57 74 50 75
REMARK SMILES IDX 52 76 58 77 51 78 53 79 54 80 55 81 56 82 80 83 81 84 89 85
REMARK SMILES IDX 82 86 84 87 90 88 83 89 85 90 86 91 87 92 88 93 65 94 66 95
REMARK SMILES IDX 74 96 67 97 69 98 75 99 68 100 70 101 71 102 72 103 73 104
REMARK H PARENT 11 14 95 57 63 68
REMARK Flexibility Score: inf
ROOT
ATOM      1  C   UNL A   1      35.274  32.204  27.827  1.00  0.00     0.188 C 
ENDROOT
BRANCH   1   2
ATOM      2  C   UNL A   1      33.990  31.370  27.902  1.00  0.00     0.188 C 
BRANCH   2   3
ATOM      3  O   UNL A   1      33.831  30.284  26.998  1.00  0.00    -0.376 OA
BRANCH   3   4
ATOM      4  C   UNL A   1      32.594  30.165  26.301  1.00  0.00     0.202 C 
BRANCH   4   5
ATOM      5  C   UNL A   1      31.633  29.051  26.748  1.00  0.00     0.261 C 
BRANCH   5   6
ATOM      6  O   UNL A   1      32.263  27.795  27.113  1.00  0.00    -0.463 OA
BRANCH   6   7
ATOM      7  C   UNL A   1      31.894  26.722  26.383  1.00  0.00     0.315 C 
ATOM      8  O   UNL A   1      30.731  26.313  26.331  1.00  0.00    -0.252 OA
BRANCH   7   9
ATOM      9  C   UNL A   1      32.982  25.949  25.646  1.00  0.00     0.167 C 
ATOM     10  C   UNL A   1      32.843  24.679  24.789  1.00  0.00     0.098 C 
ATOM     11  C   UNL A   1      33.942  24.861  23.729  1.00  0.00     0.272 C 
ATOM     12  N   UNL A   1      34.019  26.293  23.461  1.00  0.00    -0.329 N 
ATOM     13  C   UNL A   1      33.632  26.972  24.702  1.00  0.00     0.278 C 
ATOM     14  H   UNL A   1      34.974  26.548  23.206  1.00  0.00     0.348 HD
BRANCH  10  15
ATOM     15  C   UNL A   1      32.978  23.255  25.338  1.00  0.00     0.004 A 
ATOM     16  C   UNL A   1      33.937  22.781  26.254  1.00  0.00     0.122 A 
ATOM     17  C   UNL A   1      33.972  21.422  26.621  1.00  0.00     0.047 A 
ATOM     18  C   UNL A   1      33.117  20.497  26.024  1.00  0.00     0.004 A 
ATOM     19  C   UNL A   1      32.169  22.276  24.711  1.00  0.00     0.008 A 
ATOM     20  C   UNL A   1      32.241  20.922  25.038  1.00  0.00     0.001 A 
BRANCH  16  21
ATOM     21  O   UNL A   1      35.071  23.493  26.550  1.00  0.00    -0.496 OA
ATOM     22  C   UNL A   1      36.263  23.026  25.939  1.00  0.00     0.278 C 
ENDBRANCH  16  21
ENDBRANCH  10  15
BRANCH  12  23
ATOM     23  C   UNL A   1      33.284  26.734  22.268  1.00  0.00     0.321 C 
BRANCH  23  24
ATOM     24  C   UNL A   1      32.012  27.484  22.524  1.00  0.00     0.114 A 
ATOM     25  C   UNL A   1      31.842  28.848  22.688  1.00  0.00     0.122 A 
ATOM     26  N   UNL A   1      30.803  26.832  22.664  1.00  0.00    -0.228 NA
ATOM     27  N   UNL A   1      30.507  29.035  22.931  1.00  0.00    -0.306 N 
ATOM     28  C   UNL A   1      29.918  27.777  22.915  1.00  0.00     0.137 A 
ATOM     29  C   UNL A   1      29.810  30.220  23.158  1.00  0.00     0.096 A 
ATOM     30  C   UNL A   1      28.519  27.722  23.173  1.00  0.00     0.048 A 
ATOM     31  C   UNL A   1      28.488  30.174  23.419  1.00  0.00    -0.034 A 
ATOM     32  C   UNL A   1      27.841  28.855  23.448  1.00  0.00     0.009 A 
ATOM     33  C   UNL A   1      27.625  31.395  23.527  1.00  0.00     0.046 C 
ENDBRANCH  23  24
ENDBRANCH  12  23
ENDBRANCH   7   9
ENDBRANCH   6   7
ENDBRANCH   5   6
ENDBRANCH   4   5
ENDBRANCH   3   4
ENDBRANCH   2   3
ENDBRANCH   1   2
BRANCH   1  34
ATOM     34  O   UNL A   1      35.237  33.443  28.511  1.00  0.00    -0.376 OA
BRANCH  34  35
ATOM     35  C   UNL A   1      36.247  33.697  29.466  1.00  0.00     0.202 C 
BRANCH  35  36
ATOM     36  C   UNL A   1      36.248  32.729  30.633  1.00  0.00     0.261 C 
BRANCH  36  37
ATOM     37  O   UNL A   1      37.293  31.794  30.511  1.00  0.00    -0.460 OA
BRANCH  37  38
ATOM     38  C   UNL A   1      36.921  30.513  30.699  1.00  0.00     0.338 C 
ATOM     39  O   UNL A   1      36.032  30.078  31.406  1.00  0.00    -0.246 OA
BRANCH  38  40
ATOM     40  C   UNL A   1      37.807  29.695  29.883  1.00  0.00     0.060 A 
ATOM     41  C   UNL A   1      37.922  28.361  30.274  1.00  0.00     0.016 A 
ATOM     42  C   UNL A   1      38.767  30.372  29.125  1.00  0.00     0.016 A 
ATOM     43  C   UNL A   1      39.160  27.794  30.195  1.00  0.00     0.010 A 
ATOM     44  C   UNL A   1      40.014  29.832  29.104  1.00  0.00     0.010 A 
ATOM     45  C   UNL A   1      40.196  28.603  29.734  1.00  0.00    -0.014 A 
BRANCH  45  46
ATOM     46  C   UNL A   1      41.536  28.148  29.957  1.00  0.00     0.031 A 
ATOM     47  C   UNL A   1      41.991  27.191  28.939  1.00  0.00     0.074 A 
ATOM     48  C   UNL A   1      42.283  28.717  30.918  1.00  0.00     0.049 A 
ATOM     49  N   UNL A   1      42.384  25.977  29.122  1.00  0.00    -0.248 NA
ATOM     50  C   UNL A   1      41.826  27.579  27.528  1.00  0.00     0.031 C 
ATOM     51  C   UNL A   1      41.953  29.904  31.719  1.00  0.00     0.029 A 
ATOM     52  N   UNL A   1      43.584  28.481  31.224  1.00  0.00    -0.354 N 
ATOM     53  C   UNL A   1      42.756  25.544  27.857  1.00  0.00     0.074 A 
ATOM     54  C   UNL A   1      42.188  26.461  26.907  1.00  0.00     0.031 C 
ATOM     55  C   UNL A   1      43.104  30.447  32.173  1.00  0.00     0.029 A 
ATOM     56  C   UNL A   1      44.210  29.592  31.774  1.00  0.00     0.049 A 
ATOM     57  H   UNL A   1      44.034  27.619  31.072  1.00  0.00     0.167 HD
ATOM     58  C   UNL A   1      43.763  24.651  27.690  1.00  0.00     0.034 A 
ATOM     59  C   UNL A   1      45.541  29.840  31.752  1.00  0.00     0.034 A 
ATOM     60  C   UNL A   1      44.055  23.922  28.893  1.00  0.00     0.049 A 
ATOM     61  C   UNL A   1      46.228  28.558  31.438  1.00  0.00     0.074 A 
ATOM     62  C   UNL A   1      43.299  23.171  29.772  1.00  0.00     0.029 A 
ATOM     63  N   UNL A   1      45.219  24.228  29.556  1.00  0.00    -0.354 N 
ATOM     64  N   UNL A   1      46.255  27.527  32.237  1.00  0.00    -0.248 NA
ATOM     65  C   UNL A   1      46.538  28.272  30.044  1.00  0.00     0.031 C 
ATOM     66  C   UNL A   1      43.840  23.453  31.058  1.00  0.00     0.029 A 
ATOM     67  C   UNL A   1      44.910  24.334  30.888  1.00  0.00     0.049 A 
ATOM     68  H   UNL A   1      46.107  24.349  29.151  1.00  0.00     0.167 HD
ATOM     69  C   UNL A   1      46.155  26.424  31.395  1.00  0.00     0.074 A 
ATOM     70  C   UNL A   1      46.459  26.939  30.062  1.00  0.00     0.031 C 
ATOM     71  C   UNL A   1      45.542  25.269  31.797  1.00  0.00     0.034 A 
BRANCH  58  72
ATOM     72  C   UNL A   1      44.708  24.716  26.527  1.00  0.00     0.023 A 
ATOM     73  C   UNL A   1      45.053  23.505  25.900  1.00  0.00     0.012 A 
ATOM     74  C   UNL A   1      45.451  25.866  26.173  1.00  0.00     0.148 A 
ATOM     75  C   UNL A   1      46.094  23.443  24.971  1.00  0.00     0.002 A 
ATOM     76  C   UNL A   1      46.410  25.820  25.173  1.00  0.00     0.091 A 
ATOM     77  F   UNL A   1      45.342  26.991  26.891  1.00  0.00    -0.205 F 
ATOM     78  C   UNL A   1      46.759  24.603  24.588  1.00  0.00     0.022 A 
BRANCH  76  79
ATOM     79  S   UNL A   1      47.197  27.329  24.602  1.00  0.00     0.127 S 
ATOM     80  O   UNL A   1      46.070  28.253  24.558  1.00  0.00    -0.237 OA
ATOM     81  O   UNL A   1      48.174  27.589  25.660  1.00  0.00    -0.237 OA
ATOM     82  O   UNL A   1      47.796  26.965  23.322  1.00  0.00    -0.744 OA
ENDBRANCH  76  79
ENDBRANCH  58  72
BRANCH  59  83
ATOM     83  C   UNL A   1      46.234  31.150  31.727  1.00  0.00     0.023 A 
ATOM     84  C   UNL A   1      47.117  31.478  32.774  1.00  0.00     0.012 A 
ATOM     85  C   UNL A   1      46.203  32.003  30.599  1.00  0.00     0.148 A 
ATOM     86  C   UNL A   1      47.941  32.607  32.697  1.00  0.00     0.002 A 
ATOM     87  C   UNL A   1      46.997  33.146  30.544  1.00  0.00     0.091 A 
ATOM     88  F   UNL A   1      45.473  31.654  29.531  1.00  0.00    -0.205 F 
ATOM     89  C   UNL A   1      47.878  33.445  31.587  1.00  0.00     0.022 A 
BRANCH  87  90
ATOM     90  S   UNL A   1      46.911  34.281  29.150  1.00  0.00     0.127 S 
ATOM     91  O   UNL A   1      47.793  35.368  29.576  1.00  0.00    -0.237 OA
ATOM     92  O   UNL A   1      47.429  33.466  28.056  1.00  0.00    -0.237 OA
ATOM     93  O   UNL A   1      45.506  34.664  29.056  1.00  0.00    -0.744 OA
ENDBRANCH  87  90
ENDBRANCH  59  83
BRANCH  71  94
ATOM     94  C   UNL A   1      45.193  25.096  33.259  1.00  0.00     0.023 A 
ATOM     95  C   UNL A   1      43.954  25.526  33.779  1.00  0.00     0.012 A 
ATOM     96  C   UNL A   1      46.023  24.300  34.070  1.00  0.00     0.148 A 
ATOM     97  C   UNL A   1      43.563  25.195  35.079  1.00  0.00     0.002 A 
ATOM     98  C   UNL A   1      45.608  23.930  35.346  1.00  0.00     0.091 A 
ATOM     99  F   UNL A   1      47.197  23.886  33.570  1.00  0.00    -0.205 F 
ATOM    100  C   UNL A   1      44.383  24.385  35.857  1.00  0.00     0.022 A 
BRANCH  98 101
ATOM    101  S   UNL A   1      46.551  22.764  36.334  1.00  0.00     0.127 S 
ATOM    102  O   UNL A   1      46.482  21.550  35.526  1.00  0.00    -0.237 OA
ATOM    103  O   UNL A   1      47.876  23.386  36.388  1.00  0.00    -0.237 OA
ATOM    104  O   UNL A   1      45.875  22.707  37.624  1.00  0.00    -0.744 OA
ENDBRANCH  98 101
ENDBRANCH  71  94
ENDBRANCH  45  46
ENDBRANCH  38  40
ENDBRANCH  37  38
ENDBRANCH  36  37
ENDBRANCH  35  36
ENDBRANCH  34  35
ENDBRANCH   1  34
TORSDOF 24
ENDMDL
MODEL 2
REMARK VINA RESULT:     -10.0      2.927      8.292
REMARK SMILES COc1ccccc1[C@@H]1C[N@@H+](Cc2cn3cc(C)ccc3n2)C[C@H]1C(=O)OCCOCCOCCOC(=O)c1ccc(-c2c3nc(c(-c4cccc(S(=O)(=O)[O-])c4F)c4ccc([nH]4)c(-c4cccc(S(=O)(=O)[O-])c4F)c4nc(c(-c5cccc(S(=O)(=O)[O-])c5F)c5ccc2[nH]5)C=C4)C=C3)cc1
REMARK SMILES IDX 32 1 31 2 30 3 29 4 28 5 27 6 25 7 26 8 24 9 9 10 10 11
REMARK SMILES IDX 11 12 23 13 8 15 3 16 4 17 5 18 7 19 6 20 2 21 1 22 12 23
REMARK SMILES IDX 13 24 14 25 22 26 15 27 21 28 16 29 20 30 17 31 19 32 18 33
REMARK SMILES IDX 33 34 34 35 35 36 36 37 37 38 38 39 39 40 40 41 101 42 41 43
REMARK SMILES IDX 100 44 42 45 43 46 44 47 94 48 45 49 99 50 93 51 95 52 46 53
REMARK SMILES IDX 98 54 92 55 91 56 47 58 79 59 59 60 78 61 60 62 63 63 77 64
REMARK SMILES IDX 96 65 61 66 62 67 76 69 97 70 64 71 48 72 49 73 57 74 50 75
REMARK SMILES IDX 52 76 58 77 51 78 53 79 54 80 55 81 56 82 80 83 81 84 89 85
REMARK SMILES IDX 82 86 84 87 90 88 83 89 85 90 86 91 87 92 88 93 65 94 66 95
REMARK SMILES IDX 74 96 67 97 69 98 75 99 68 100 70 101 71 102 72 103 73 104
REMARK H PARENT 11 14 95 57 63 68
REMARK Flexibility Score: inf
ROOT
ATOM      1  C   UNL A   1      34.376  32.048  28.512  1.00  0.00     0.188 C 
ENDROOT
BRANCH   1   2
ATOM      2  C   UNL A   1      34.451  30.717  27.754  1.00  0.00     0.188 C 
BRANCH   2   3
ATOM      3  O   UNL A   1      33.766  30.601  26.514  1.00  0.00    -0.376 OA
BRANCH   3   4
ATOM      4  C   UNL A   1      32.349  30.754  26.511  1.00  0.00     0.202 C 
BRANCH   4   5
ATOM      5  C   UNL A   1      31.528  29.727  25.715  1.00  0.00     0.261 C 
BRANCH   5   6
ATOM      6  O   UNL A   1      32.090  28.390  25.657  1.00  0.00    -0.463 OA
BRANCH   6   7
ATOM      7  C   UNL A   1      31.386  27.431  26.294  1.00  0.00     0.315 C 
ATOM      8  O   UNL A   1      31.170  27.452  27.509  1.00  0.00    -0.252 OA
BRANCH   7   9
ATOM      9  C   UNL A   1      30.898  26.240  25.477  1.00  0.00     0.167 C 
ATOM     10  C   UNL A   1      31.726  25.241  24.650  1.00  0.00     0.098 C 
ATOM     11  C   UNL A   1      30.921  23.938  24.784  1.00  0.00     0.272 C 
ATOM     12  N   UNL A   1      30.342  23.950  26.123  1.00  0.00    -0.329 N 
ATOM     13  C   UNL A   1      30.129  25.358  26.474  1.00  0.00     0.278 C 
ATOM     14  H   UNL A   1      29.451  23.452  26.121  1.00  0.00     0.348 HD
BRANCH  10  15
ATOM     15  C   UNL A   1      32.048  25.421  23.163  1.00  0.00     0.004 A 
ATOM     16  C   UNL A   1      31.540  26.404  22.292  1.00  0.00     0.122 A 
ATOM     17  C   UNL A   1      31.885  26.404  20.927  1.00  0.00     0.047 A 
ATOM     18  C   UNL A   1      32.667  25.385  20.386  1.00  0.00     0.004 A 
ATOM     19  C   UNL A   1      32.789  24.372  22.565  1.00  0.00     0.008 A 
ATOM     20  C   UNL A   1      33.085  24.345  21.202  1.00  0.00     0.001 A 
BRANCH  16  21
ATOM     21  O   UNL A   1      30.444  27.163  22.615  1.00  0.00    -0.496 OA
ATOM     22  C   UNL A   1      30.567  28.552  22.360  1.00  0.00     0.278 C 
ENDBRANCH  16  21
ENDBRANCH  10  15
BRANCH  12  23
ATOM     23  C   UNL A   1      31.092  23.177  27.122  1.00  0.00     0.321 C 
BRANCH  23  24
ATOM     24  C   UNL A   1      32.320  22.479  26.621  1.00  0.00     0.114 A 
ATOM     25  C   UNL A   1      33.640  22.877  26.742  1.00  0.00     0.122 A 
ATOM     26  N   UNL A   1      32.241  21.299  25.909  1.00  0.00    -0.228 NA
ATOM     27  N   UNL A   1      34.382  21.926  26.094  1.00  0.00    -0.306 N 
ATOM     28  C   UNL A   1      33.485  20.989  25.596  1.00  0.00     0.137 A 
ATOM     29  C   UNL A   1      35.763  21.847  25.928  1.00  0.00     0.096 A 
ATOM     30  C   UNL A   1      34.035  19.906  24.854  1.00  0.00     0.048 A 
ATOM     31  C   UNL A   1      36.290  20.832  25.213  1.00  0.00    -0.034 A 
ATOM     32  C   UNL A   1      35.365  19.846  24.639  1.00  0.00     0.009 A 
ATOM     33  C   UNL A   1      37.764  20.577  25.104  1.00  0.00     0.046 C 
ENDBRANCH  23  24
ENDBRANCH  12  23
ENDBRANCH   7   9
ENDBRANCH   6   7
ENDBRANCH   5   6
ENDBRANCH   4   5
ENDBRANCH   3   4
ENDBRANCH   2   3
ENDBRANCH   1   2
BRANCH   1  34
ATOM     34  O   UNL A   1      34.270  31.942  29.920  1.00  0.00    -0.376 OA
BRANCH  34  35
ATOM     35  C   UNL A   1      34.899  32.937  30.702  1.00  0.00     0.202 C 
BRANCH  35  36
ATOM     36  C   UNL A   1      36.395  32.746  30.854  1.00  0.00     0.261 C 
BRANCH  36  37
ATOM     37  O   UNL A   1      36.799  31.500  30.339  1.00  0.00    -0.460 OA
BRANCH  37  38
ATOM     38  C   UNL A   1      37.751  31.570  29.389  1.00  0.00     0.338 C 
ATOM     39  O   UNL A   1      38.258  32.560  28.896  1.00  0.00    -0.246 OA
BRANCH  38  40
ATOM     40  C   UNL A   1      38.085  30.201  29.025  1.00  0.00     0.060 A 
ATOM     41  C   UNL A   1      38.180  29.303  30.087  1.00  0.00     0.016 A 
ATOM     42  C   UNL A   1      38.706  30.014  27.787  1.00  0.00     0.016 A 
ATOM     43  C   UNL A   1      39.178  28.374  30.030  1.00  0.00     0.010 A 
ATOM     44  C   UNL A   1      39.740  29.132  27.754  1.00  0.00     0.010 A 
ATOM     45  C   UNL A   1      40.011  28.413  28.916  1.00  0.00    -0.014 A 
BRANCH  45  46
ATOM     46  C   UNL A   1      41.245  27.688  28.990  1.00  0.00     0.031 A 
ATOM     47  C   UNL A   1      41.982  27.942  30.236  1.00  0.00     0.074 A 
ATOM     48  C   UNL A   1      41.537  26.767  28.056  1.00  0.00     0.049 A 
ATOM     49  N   UNL A   1      43.168  28.430  30.362  1.00  0.00    -0.248 NA
ATOM     50  C   UNL A   1      41.240  27.792  31.500  1.00  0.00     0.031 C 
ATOM     51  C   UNL A   1      40.656  26.265  26.993  1.00  0.00     0.029 A 
ATOM     52  N   UNL A   1      42.605  25.933  28.002  1.00  0.00    -0.354 N 
ATOM     53  C   UNL A   1      43.405  28.404  31.730  1.00  0.00     0.074 A 
ATOM     54  C   UNL A   1      42.136  28.229  32.380  1.00  0.00     0.031 C 
ATOM     55  C   UNL A   1      41.093  25.044  26.616  1.00  0.00     0.029 A 
ATOM     56  C   UNL A   1      42.319  24.746  27.339  1.00  0.00     0.049 A 
ATOM     57  H   UNL A   1      43.485  26.144  28.389  1.00  0.00     0.167 HD
ATOM     58  C   UNL A   1      44.655  28.210  32.220  1.00  0.00     0.034 A 
ATOM     59  C   UNL A   1      42.968  23.570  27.508  1.00  0.00     0.034 A 
ATOM     60  C   UNL A   1      45.675  28.479  31.246  1.00  0.00     0.049 A 
ATOM     61  C   UNL A   1      44.265  23.869  28.172  1.00  0.00     0.074 A 
ATOM     62  C   UNL A   1      45.971  29.557  30.434  1.00  0.00     0.029 A 
ATOM     63  N   UNL A   1      46.348  27.405  30.715  1.00  0.00    -0.354 N 
ATOM     64  N   UNL A   1      45.241  24.529  27.610  1.00  0.00    -0.248 NA
ATOM     65  C   UNL A   1      44.323  23.794  29.625  1.00  0.00     0.031 C 
ATOM     66  C   UNL A   1      46.426  28.983  29.212  1.00  0.00     0.029 A 
ATOM     67  C   UNL A   1      46.408  27.596  29.359  1.00  0.00     0.049 A 
ATOM     68  H   UNL A   1      46.717  26.642  31.215  1.00  0.00     0.167 HD
ATOM     69  C   UNL A   1      45.780  25.303  28.633  1.00  0.00     0.074 A 
ATOM     70  C   UNL A   1      45.259  24.716  29.864  1.00  0.00     0.031 C 
ATOM     71  C   UNL A   1      46.345  26.525  28.384  1.00  0.00     0.034 A 
BRANCH  58  72
ATOM     72  C   UNL A   1      44.911  27.428  33.474  1.00  0.00     0.023 A 
ATOM     73  C   UNL A   1      45.770  27.996  34.433  1.00  0.00     0.012 A 
ATOM     74  C   UNL A   1      44.544  26.073  33.652  1.00  0.00     0.148 A 
ATOM     75  C   UNL A   1      46.247  27.246  35.510  1.00  0.00     0.002 A 
ATOM     76  C   UNL A   1      44.933  25.367  34.780  1.00  0.00     0.091 A 
ATOM     77  F   UNL A   1      43.931  25.403  32.669  1.00  0.00    -0.205 F 
ATOM     78  C   UNL A   1      45.810  25.939  35.699  1.00  0.00     0.022 A 
BRANCH  76  79
ATOM     79  S   UNL A   1      44.292  23.718  35.082  1.00  0.00     0.127 S 
ATOM     80  O   UNL A   1      42.869  23.981  35.262  1.00  0.00    -0.237 OA
ATOM     81  O   UNL A   1      44.644  23.017  33.847  1.00  0.00    -0.237 OA
ATOM     82  O   UNL A   1      45.025  23.251  36.255  1.00  0.00    -0.744 OA
ENDBRANCH  76  79
ENDBRANCH  58  72
BRANCH  59  83
ATOM     83  C   UNL A   1      42.434  22.194  27.371  1.00  0.00     0.023 A 
ATOM     84  C   UNL A   1      41.137  21.913  27.841  1.00  0.00     0.012 A 
ATOM     85  C   UNL A   1      43.090  21.198  26.610  1.00  0.00     0.148 A 
ATOM     86  C   UNL A   1      40.516  20.691  27.558  1.00  0.00     0.002 A 
ATOM     87  C   UNL A   1      42.483  19.969  26.364  1.00  0.00     0.091 A 
ATOM     88  F   UNL A   1      44.269  21.478  26.039  1.00  0.00    -0.205 F 
ATOM     89  C   UNL A   1      41.189  19.716  26.826  1.00  0.00     0.022 A 
BRANCH  87  90
ATOM     90  S   UNL A   1      43.336  18.666  25.463  1.00  0.00     0.127 S 
ATOM     91  O   UNL A   1      44.586  18.533  26.214  1.00  0.00    -0.237 OA
ATOM     92  O   UNL A   1      42.417  17.541  25.602  1.00  0.00    -0.237 OA
ATOM     93  O   UNL A   1      43.514  19.188  24.113  1.00  0.00    -0.744 OA
ENDBRANCH  87  90
ENDBRANCH  59  83
BRANCH  71  94
ATOM     94  C   UNL A   1      46.617  26.928  26.952  1.00  0.00     0.023 A 
ATOM     95  C   UNL A   1      45.617  27.510  26.145  1.00  0.00     0.012 A 
ATOM     96  C   UNL A   1      47.943  26.925  26.482  1.00  0.00     0.148 A 
ATOM     97  C   UNL A   1      45.924  28.051  24.894  1.00  0.00     0.002 A 
ATOM     98  C   UNL A   1      48.254  27.510  25.258  1.00  0.00     0.091 A 
ATOM     99  F   UNL A   1      48.894  26.378  27.256  1.00  0.00    -0.205 F 
ATOM    100  C   UNL A   1      47.244  28.065  24.457  1.00  0.00     0.022 A 
BRANCH  98 101
ATOM    101  S   UNL A   1      49.956  27.694  24.714  1.00  0.00     0.127 S 
ATOM    102  O   UNL A   1      49.791  28.088  23.318  1.00  0.00    -0.237 OA
ATOM    103  O   UNL A   1      50.461  28.753  25.591  1.00  0.00    -0.237 OA
ATOM    104  O   UNL A   1      50.581  26.396  24.938  1.00  0.00    -0.744 OA
ENDBRANCH  98 101
ENDBRANCH  71  94
ENDBRANCH  45  46
ENDBRANCH  38  40
ENDBRANCH  37  38
ENDBRANCH  36  37
ENDBRANCH  35  36
ENDBRANCH  34  35
ENDBRANCH   1  34
TORSDOF 24
ENDMDL
MODEL 3
REMARK VINA RESULT:      -9.4      4.963     11.354
REMARK SMILES COc1ccccc1[C@@H]1C[N@@H+](Cc2cn3cc(C)ccc3n2)C[C@H]1C(=O)OCCOCCOCCOC(=O)c1ccc(-c2c3nc(c(-c4cccc(S(=O)(=O)[O-])c4F)c4ccc([nH]4)c(-c4cccc(S(=O)(=O)[O-])c4F)c4nc(c(-c5cccc(S(=O)(=O)[O-])c5F)c5ccc2[nH]5)C=C4)C=C3)cc1
REMARK SMILES IDX 32 1 31 2 30 3 29 4 28 5 27 6 25 7 26 8 24 9 9 10 10 11
REMARK SMILES IDX 11 12 23 13 8 15 3 16 4 17 5 18 7 19 6 20 2 21 1 22 12 23
REMARK SMILES IDX 13 24 14 25 22 26 15 27 21 28 16 29 20 30 17 31 19 32 18 33
REMARK SMILES IDX 33 34 34 35 35 36 36 37 37 38 38 39 39 40 40 41 101 42 41 43
REMARK SMILES IDX 100 44 42 45 43 46 44 47 94 48 45 49 99 50 93 51 95 52 46 53
REMARK SMILES IDX 98 54 92 55 91 56 47 58 79 59 59 60 78 61 60 62 63 63 77 64
REMARK SMILES IDX 96 65 61 66 62 67 76 69 97 70 64 71 48 72 49 73 57 74 50 75
REMARK SMILES IDX 52 76 58 77 51 78 53 79 54 80 55 81 56 82 80 83 81 84 89 85
REMARK SMILES IDX 82 86 84 87 90 88 83 89 85 90 86 91 87 92 88 93 65 94 66 95
REMARK SMILES IDX 74 96 67 97 69 98 75 99 68 100 70 101 71 102 72 103 73 104
REMARK H PARENT 11 14 95 57 63 68
REMARK Flexibility Score: inf
ROOT
ATOM      1  C   UNL A   1      45.924  30.627  29.302  1.00  0.00     0.188 C 
ENDROOT
BRANCH   1   2
ATOM      2  C   UNL A   1      46.469  29.225  29.011  1.00  0.00     0.188 C 
BRANCH   2   3
ATOM      3  O   UNL A   1      45.564  28.130  29.006  1.00  0.00    -0.376 OA
BRANCH   3   4
ATOM      4  C   UNL A   1      45.485  27.327  27.831  1.00  0.00     0.202 C 
BRANCH   4   5
ATOM      5  C   UNL A   1      45.161  25.835  28.013  1.00  0.00     0.261 C 
BRANCH   5   6
ATOM      6  O   UNL A   1      43.838  25.428  27.576  1.00  0.00    -0.463 OA
BRANCH   6   7
ATOM      7  C   UNL A   1      43.229  24.499  28.343  1.00  0.00     0.315 C 
ATOM      8  O   UNL A   1      43.838  23.575  28.888  1.00  0.00    -0.252 OA
BRANCH   7   9
ATOM      9  C   UNL A   1      41.712  24.567  28.481  1.00  0.00     0.167 C 
ATOM     10  C   UNL A   1      40.701  25.314  27.593  1.00  0.00     0.098 C 
ATOM     11  C   UNL A   1      39.457  24.413  27.661  1.00  0.00     0.272 C 
ATOM     12  N   UNL A   1      39.947  23.042  27.752  1.00  0.00    -0.329 N 
ATOM     13  C   UNL A   1      41.239  23.106  28.443  1.00  0.00     0.278 C 
ATOM     14  H   UNL A   1      39.291  22.474  28.287  1.00  0.00     0.348 HD
BRANCH  10  15
ATOM     15  C   UNL A   1      40.233  26.750  27.848  1.00  0.00     0.004 A 
ATOM     16  C   UNL A   1      40.413  27.868  27.011  1.00  0.00     0.122 A 
ATOM     17  C   UNL A   1      39.976  29.145  27.412  1.00  0.00     0.047 A 
ATOM     18  C   UNL A   1      39.435  29.351  28.680  1.00  0.00     0.004 A 
ATOM     19  C   UNL A   1      39.735  27.010  29.148  1.00  0.00     0.008 A 
ATOM     20  C   UNL A   1      39.352  28.286  29.563  1.00  0.00     0.001 A 
BRANCH  16  21
ATOM     21  O   UNL A   1      41.305  27.859  25.970  1.00  0.00    -0.496 OA
ATOM     22  C   UNL A   1      42.391  28.763  26.089  1.00  0.00     0.278 C 
ENDBRANCH  16  21
ENDBRANCH  10  15
BRANCH  12  23
ATOM     23  C   UNL A   1      39.972  22.315  26.475  1.00  0.00     0.321 C 
BRANCH  23  24
ATOM     24  C   UNL A   1      41.257  21.617  26.145  1.00  0.00     0.114 A 
ATOM     25  C   UNL A   1      42.419  22.164  25.632  1.00  0.00     0.122 A 
ATOM     26  N   UNL A   1      41.400  20.253  26.302  1.00  0.00    -0.228 NA
ATOM     27  N   UNL A   1      43.290  21.119  25.473  1.00  0.00    -0.306 N 
ATOM     28  C   UNL A   1      42.621  19.975  25.887  1.00  0.00     0.137 A 
ATOM     29  C   UNL A   1      44.600  21.127  24.998  1.00  0.00     0.096 A 
ATOM     30  C   UNL A   1      43.331  18.745  25.787  1.00  0.00     0.048 A 
ATOM     31  C   UNL A   1      45.273  19.964  24.885  1.00  0.00    -0.034 A 
ATOM     32  C   UNL A   1      44.580  18.730  25.278  1.00  0.00     0.009 A 
ATOM     33  C   UNL A   1      46.728  19.884  24.530  1.00  0.00     0.046 C 
ENDBRANCH  23  24
ENDBRANCH  12  23
ENDBRANCH   7   9
ENDBRANCH   6   7
ENDBRANCH   5   6
ENDBRANCH   4   5
ENDBRANCH   3   4
ENDBRANCH   2   3
ENDBRANCH   1   2
BRANCH   1  34
ATOM     34  O   UNL A   1      44.624  30.892  28.806  1.00  0.00    -0.376 OA
BRANCH  34  35
ATOM     35  C   UNL A   1      44.480  31.937  27.867  1.00  0.00     0.202 C 
BRANCH  35  36
ATOM     36  C   UNL A   1      45.181  33.221  28.262  1.00  0.00     0.261 C 
BRANCH  36  37
ATOM     37  O   UNL A   1      44.610  34.329  27.608  1.00  0.00    -0.460 OA
BRANCH  37  38
ATOM     38  C   UNL A   1      44.778  35.503  28.247  1.00  0.00     0.338 C 
ATOM     39  O   UNL A   1      45.752  36.231  28.251  1.00  0.00    -0.246 OA
BRANCH  38  40
ATOM     40  C   UNL A   1      43.544  35.765  28.974  1.00  0.00     0.060 A 
ATOM     41  C   UNL A   1      43.672  35.862  30.359  1.00  0.00     0.016 A 
ATOM     42  C   UNL A   1      42.350  35.445  28.321  1.00  0.00     0.016 A 
ATOM     43  C   UNL A   1      42.683  35.306  31.117  1.00  0.00     0.010 A 
ATOM     44  C   UNL A   1      41.394  34.834  29.069  1.00  0.00     0.010 A 
ATOM     45  C   UNL A   1      41.638  34.689  30.434  1.00  0.00    -0.014 A 
BRANCH  45  46
ATOM     46  C   UNL A   1      40.781  33.821  31.186  1.00  0.00     0.031 A 
ATOM     47  C   UNL A   1      39.494  33.574  30.521  1.00  0.00     0.074 A 
ATOM     48  C   UNL A   1      41.249  33.208  32.286  1.00  0.00     0.049 A 
ATOM     49  N   UNL A   1      38.315  33.838  30.968  1.00  0.00    -0.248 NA
ATOM     50  C   UNL A   1      39.535  33.136  29.115  1.00  0.00     0.031 C 
ATOM     51  C   UNL A   1      42.636  33.185  32.772  1.00  0.00     0.029 A 
ATOM     52  N   UNL A   1      40.622  32.300  33.075  1.00  0.00    -0.354 N 
ATOM     53  C   UNL A   1      37.460  33.355  29.987  1.00  0.00     0.074 A 
ATOM     54  C   UNL A   1      38.244  33.153  28.799  1.00  0.00     0.031 C 
ATOM     55  C   UNL A   1      42.795  32.097  33.556  1.00  0.00     0.029 A 
ATOM     56  C   UNL A   1      41.511  31.429  33.692  1.00  0.00     0.049 A 
ATOM     57  H   UNL A   1      39.646  32.262  33.197  1.00  0.00     0.167 HD
ATOM     58  C   UNL A   1      36.240  32.854  30.305  1.00  0.00     0.034 A 
ATOM     59  C   UNL A   1      41.217  30.184  34.136  1.00  0.00     0.034 A 
ATOM     60  C   UNL A   1      35.794  33.278  31.603  1.00  0.00     0.049 A 
ATOM     61  C   UNL A   1      39.737  30.087  34.242  1.00  0.00     0.074 A 
ATOM     62  C   UNL A   1      35.644  34.506  32.217  1.00  0.00     0.029 A 
ATOM     63  N   UNL A   1      35.793  32.345  32.612  1.00  0.00    -0.354 N 
ATOM     64  N   UNL A   1      39.018  30.755  35.103  1.00  0.00    -0.248 NA
ATOM     65  C   UNL A   1      39.003  29.555  33.103  1.00  0.00     0.031 C 
ATOM     66  C   UNL A   1      36.022  34.289  33.573  1.00  0.00     0.029 A 
ATOM     67  C   UNL A   1      36.350  32.940  33.714  1.00  0.00     0.049 A 
ATOM     68  H   UNL A   1      35.456  31.422  32.553  1.00  0.00     0.167 HD
ATOM     69  C   UNL A   1      37.860  31.093  34.411  1.00  0.00     0.074 A 
ATOM     70  C   UNL A   1      37.855  30.224  33.238  1.00  0.00     0.031 C 
ATOM     71  C   UNL A   1      37.174  32.246  34.683  1.00  0.00     0.034 A 
BRANCH  58  72
ATOM     72  C   UNL A   1      35.635  31.693  29.574  1.00  0.00     0.023 A 
ATOM     73  C   UNL A   1      36.327  30.469  29.609  1.00  0.00     0.012 A 
ATOM     74  C   UNL A   1      34.555  31.803  28.667  1.00  0.00     0.148 A 
ATOM     75  C   UNL A   1      35.966  29.410  28.773  1.00  0.00     0.002 A 
ATOM     76  C   UNL A   1      34.133  30.715  27.919  1.00  0.00     0.091 A 
ATOM     77  F   UNL A   1      34.006  32.996  28.409  1.00  0.00    -0.205 F 
ATOM     78  C   UNL A   1      34.854  29.522  27.945  1.00  0.00     0.022 A 
BRANCH  76  79
ATOM     79  S   UNL A   1      32.641  30.821  26.927  1.00  0.00     0.127 S 
ATOM     80  O   UNL A   1      32.307  32.236  27.043  1.00  0.00    -0.237 OA
ATOM     81  O   UNL A   1      33.113  30.399  25.609  1.00  0.00    -0.237 OA
ATOM     82  O   UNL A   1      31.719  29.878  27.554  1.00  0.00    -0.744 OA
ENDBRANCH  76  79
ENDBRANCH  58  72
BRANCH  59  83
ATOM     83  C   UNL A   1      42.108  29.003  34.225  1.00  0.00     0.023 A 
ATOM     84  C   UNL A   1      43.139  28.850  33.278  1.00  0.00     0.012 A 
ATOM     85  C   UNL A   1      42.096  28.126  35.336  1.00  0.00     0.148 A 
ATOM     86  C   UNL A   1      44.123  27.866  33.436  1.00  0.00     0.002 A 
ATOM     87  C   UNL A   1      43.055  27.125  35.467  1.00  0.00     0.091 A 
ATOM     88  F   UNL A   1      41.209  28.325  36.320  1.00  0.00    -0.205 F 
ATOM     89  C   UNL A   1      44.079  26.999  34.525  1.00  0.00     0.022 A 
BRANCH  87  90
ATOM     90  S   UNL A   1      43.007  25.955  36.834  1.00  0.00     0.127 S 
ATOM     91  O   UNL A   1      41.664  25.384  36.710  1.00  0.00    -0.237 OA
ATOM     92  O   UNL A   1      44.093  25.041  36.496  1.00  0.00    -0.237 OA
ATOM     93  O   UNL A   1      43.195  26.762  38.034  1.00  0.00    -0.744 OA
ENDBRANCH  87  90
ENDBRANCH  59  83
BRANCH  71  94
ATOM     94  C   UNL A   1      37.533  33.037  35.922  1.00  0.00     0.023 A 
ATOM     95  C   UNL A   1      37.091  32.646  37.203  1.00  0.00     0.012 A 
ATOM     96  C   UNL A   1      38.503  34.052  35.826  1.00  0.00     0.148 A 
ATOM     97  C   UNL A   1      37.580  33.266  38.355  1.00  0.00     0.002 A 
ATOM     98  C   UNL A   1      39.026  34.632  36.978  1.00  0.00     0.091 A 
ATOM     99  F   UNL A   1      38.929  34.416  34.606  1.00  0.00    -0.205 F 
ATOM    100  C   UNL A   1      38.558  34.249  38.244  1.00  0.00     0.022 A 
BRANCH  98 101
ATOM    101  S   UNL A   1      40.396  35.792  36.903  1.00  0.00     0.127 S 
ATOM    102  O   UNL A   1      40.516  36.216  38.295  1.00  0.00    -0.237 OA
ATOM    103  O   UNL A   1      41.498  34.956  36.422  1.00  0.00    -0.237 OA
ATOM    104  O   UNL A   1      39.984  36.823  35.959  1.00  0.00    -0.744 OA
ENDBRANCH  98 101
ENDBRANCH  71  94
ENDBRANCH  45  46
ENDBRANCH  38  40
ENDBRANCH  37  38
ENDBRANCH  36  37
ENDBRANCH  35  36
ENDBRANCH  34  35
ENDBRANCH   1  34
TORSDOF 24
ENDMDL
