MODEL 1
REMARK VINA RESULT:     -10.3      0.000      0.000
REMARK SMILES O=C(/C=C/c1ccc(O)cc1)NC[C@@H]1CC[C@H](C(=O)OCCOCCOCCOC(=O)c2ccc(-c3c4nc(c(-c5cccc(S(=O)(=O)[O-])c5F)c5ccc([nH]5)c(-c5cccc(S(=O)(=O)[O-])c5F)c5nc(c(-c6cccc(S(=O)(=O)[O-])c6F)c6ccc3[nH]6)C=C5)C=C4)cc2)O1
REMARK SMILES IDX 24 1 23 2 22 3 21 4 20 5 18 6 19 7 17 8 14 9 15 10 95 11
REMARK SMILES IDX 16 12 13 13 12 14 1 15 2 16 3 18 4 19 5 20 6 21 11 22 7 23
REMARK SMILES IDX 10 24 8 25 9 26 25 28 26 29 27 30 28 31 29 32 30 33 31 34
REMARK SMILES IDX 32 35 33 36 94 37 34 38 93 39 35 40 36 41 37 42 87 43 38 44
REMARK SMILES IDX 92 45 86 46 88 47 39 48 91 49 85 50 84 51 40 53 72 54 52 55
REMARK SMILES IDX 71 56 53 57 56 58 70 59 89 60 54 61 55 62 69 64 90 65 57 66
REMARK SMILES IDX 41 67 42 68 50 69 43 70 45 71 51 72 44 73 46 74 47 75 48 76
REMARK SMILES IDX 49 77 73 78 74 79 82 80 75 81 77 82 83 83 76 84 78 85 79 86
REMARK SMILES IDX 80 87 81 88 58 89 59 90 67 91 60 92 62 93 68 94 61 95 63 96
REMARK SMILES IDX 64 97 65 98 66 99
REMARK H PARENT 12 17 9 27 88 52 56 63
REMARK Flexibility Score: inf
ROOT
ATOM      1  C   UNL A   1      33.389  28.737  26.889  1.00  0.00     0.188 C 
ENDROOT
BRANCH   1   2
ATOM      2  O   UNL A   1      34.124  28.614  25.677  1.00  0.00    -0.376 OA
BRANCH   2   3
ATOM      3  C   UNL A   1      33.390  28.301  24.491  1.00  0.00     0.202 C 
BRANCH   3   4
ATOM      4  C   UNL A   1      33.599  26.911  23.865  1.00  0.00     0.261 C 
BRANCH   4   5
ATOM      5  O   UNL A   1      34.492  26.076  24.632  1.00  0.00    -0.461 OA
BRANCH   5   6
ATOM      6  C   UNL A   1      33.905  25.113  25.391  1.00  0.00     0.335 C 
ATOM      7  O   UNL A   1      33.185  25.350  26.355  1.00  0.00    -0.249 OA
BRANCH   6   8
ATOM      8  C   UNL A   1      34.153  23.691  24.852  1.00  0.00     0.228 C 
ATOM      9  C   UNL A   1      32.298  22.273  24.934  1.00  0.00     0.138 C 
ATOM     10  C   UNL A   1      33.091  22.076  26.214  1.00  0.00     0.037 C 
ATOM     11  O   UNL A   1      32.977  23.261  24.143  1.00  0.00    -0.361 OA
ATOM     12  C   UNL A   1      34.456  22.569  25.830  1.00  0.00     0.047 C 
BRANCH   9  13
ATOM     13  C   UNL A   1      30.850  22.695  25.196  1.00  0.00     0.148 C 
BRANCH  13  14
ATOM     14  N   UNL A   1      30.646  24.078  24.818  1.00  0.00    -0.350 N 
ATOM     15  O   UNL A   1      29.854  24.826  26.844  1.00  0.00    -0.270 OA
ATOM     16  C   UNL A   1      30.081  25.002  25.654  1.00  0.00     0.244 C 
ATOM     17  H   UNL A   1      30.927  24.367  23.919  1.00  0.00     0.163 HD
BRANCH  16  18
ATOM     18  C   UNL A   1      29.776  26.310  25.023  1.00  0.00     0.072 C 
ATOM     19  C   UNL A   1      29.816  26.507  23.695  1.00  0.00     0.014 C 
BRANCH  19  20
ATOM     20  C   UNL A   1      29.499  27.780  23.037  1.00  0.00    -0.025 A 
ATOM     21  C   UNL A   1      28.204  28.314  23.027  1.00  0.00     0.012 A 
ATOM     22  C   UNL A   1      30.544  28.524  22.472  1.00  0.00     0.012 A 
ATOM     23  C   UNL A   1      27.953  29.561  22.445  1.00  0.00     0.047 A 
ATOM     24  C   UNL A   1      30.295  29.768  21.890  1.00  0.00     0.047 A 
ATOM     25  C   UNL A   1      29.003  30.277  21.882  1.00  0.00     0.115 A 
BRANCH  25  26
ATOM     26  O   UNL A   1      28.805  31.500  21.315  1.00  0.00    -0.508 OA
ATOM     27  H   UNL A   1      28.144  32.072  21.653  1.00  0.00     0.293 HD
ENDBRANCH  25  26
ENDBRANCH  19  20
ENDBRANCH  16  18
ENDBRANCH  13  14
ENDBRANCH   9  13
ENDBRANCH   6   8
ENDBRANCH   5   6
ENDBRANCH   4   5
ENDBRANCH   3   4
ENDBRANCH   2   3
ENDBRANCH   1   2
BRANCH   1  28
ATOM     28  C   UNL A   1      31.915  29.141  26.766  1.00  0.00     0.188 C 
BRANCH  28  29
ATOM     29  O   UNL A   1      31.698  30.537  26.753  1.00  0.00    -0.376 OA
BRANCH  29  30
ATOM     30  C   UNL A   1      32.783  31.428  26.976  1.00  0.00     0.202 C 
BRANCH  30  31
ATOM     31  C   UNL A   1      32.508  32.917  27.281  1.00  0.00     0.261 C 
BRANCH  31  32
ATOM     32  O   UNL A   1      33.648  33.787  27.402  1.00  0.00    -0.460 OA
BRANCH  32  33
ATOM     33  C   UNL A   1      34.029  34.144  28.653  1.00  0.00     0.338 C 
ATOM     34  O   UNL A   1      33.390  34.829  29.436  1.00  0.00    -0.246 OA
BRANCH  33  35
ATOM     35  C   UNL A   1      35.207  33.311  29.025  1.00  0.00     0.060 A 
ATOM     36  C   UNL A   1      34.972  32.084  29.667  1.00  0.00     0.016 A 
ATOM     37  C   UNL A   1      36.509  33.670  28.666  1.00  0.00     0.016 A 
ATOM     38  C   UNL A   1      36.037  31.239  29.986  1.00  0.00     0.010 A 
ATOM     39  C   UNL A   1      37.577  32.831  29.007  1.00  0.00     0.010 A 
ATOM     40  C   UNL A   1      37.353  31.626  29.699  1.00  0.00    -0.014 A 
BRANCH  40  41
ATOM     41  C   UNL A   1      38.491  30.873  30.291  1.00  0.00     0.031 A 
ATOM     42  C   UNL A   1      38.928  31.226  31.690  1.00  0.00     0.074 A 
ATOM     43  C   UNL A   1      39.119  29.884  29.625  1.00  0.00     0.049 A 
ATOM     44  N   UNL A   1      39.908  30.736  32.403  1.00  0.00    -0.248 NA
ATOM     45  C   UNL A   1      38.150  32.274  32.375  1.00  0.00     0.031 C 
ATOM     46  C   UNL A   1      38.797  29.432  28.273  1.00  0.00     0.029 A 
ATOM     47  N   UNL A   1      40.185  29.098  29.997  1.00  0.00    -0.354 N 
ATOM     48  C   UNL A   1      39.877  31.424  33.611  1.00  0.00     0.074 A 
ATOM     49  C   UNL A   1      38.794  32.380  33.527  1.00  0.00     0.031 C 
ATOM     50  C   UNL A   1      39.670  28.472  27.914  1.00  0.00     0.029 A 
ATOM     51  C   UNL A   1      40.627  28.258  29.000  1.00  0.00     0.049 A 
ATOM     52  H   UNL A   1      40.594  29.134  30.891  1.00  0.00     0.167 HD
ATOM     53  C   UNL A   1      40.663  31.265  34.703  1.00  0.00     0.034 A 
ATOM     54  C   UNL A   1      41.696  27.436  28.959  1.00  0.00     0.034 A 
ATOM     55  C   UNL A   1      41.735  30.314  34.797  1.00  0.00     0.049 A 
ATOM     56  C   UNL A   1      42.584  27.310  30.174  1.00  0.00     0.074 A 
ATOM     57  C   UNL A   1      42.574  30.069  35.870  1.00  0.00     0.029 A 
ATOM     58  N   UNL A   1      42.126  29.455  33.783  1.00  0.00    -0.354 N 
ATOM     59  N   UNL A   1      42.477  27.893  31.343  1.00  0.00    -0.248 NA
ATOM     60  C   UNL A   1      43.724  26.383  30.074  1.00  0.00     0.031 C 
ATOM     61  C   UNL A   1      43.489  29.081  35.495  1.00  0.00     0.029 A 
ATOM     62  C   UNL A   1      43.195  28.684  34.201  1.00  0.00     0.049 A 
ATOM     63  H   UNL A   1      41.705  29.402  32.894  1.00  0.00     0.167 HD
ATOM     64  C   UNL A   1      43.506  27.376  32.126  1.00  0.00     0.074 A 
ATOM     65  C   UNL A   1      44.207  26.411  31.308  1.00  0.00     0.031 C 
ATOM     66  C   UNL A   1      43.851  27.683  33.401  1.00  0.00     0.034 A 
BRANCH  53  67
ATOM     67  C   UNL A   1      40.369  32.120  35.906  1.00  0.00     0.023 A 
ATOM     68  C   UNL A   1      41.192  33.230  36.185  1.00  0.00     0.012 A 
ATOM     69  C   UNL A   1      39.240  31.875  36.710  1.00  0.00     0.148 A 
ATOM     70  C   UNL A   1      40.907  34.072  37.260  1.00  0.00     0.002 A 
ATOM     71  C   UNL A   1      38.937  32.744  37.752  1.00  0.00     0.091 A 
ATOM     72  F   UNL A   1      38.482  30.803  36.438  1.00  0.00    -0.205 F 
ATOM     73  C   UNL A   1      39.775  33.836  38.034  1.00  0.00     0.022 A 
BRANCH  71  74
ATOM     74  S   UNL A   1      37.461  32.576  38.760  1.00  0.00     0.127 S 
ATOM     75  O   UNL A   1      37.602  31.210  39.265  1.00  0.00    -0.237 OA
ATOM     76  O   UNL A   1      37.658  33.620  39.766  1.00  0.00    -0.237 OA
ATOM     77  O   UNL A   1      36.332  32.791  37.866  1.00  0.00    -0.744 OA
ENDBRANCH  71  74
ENDBRANCH  53  67
BRANCH  54  78
ATOM     78  C   UNL A   1      42.005  26.654  27.725  1.00  0.00     0.023 A 
ATOM     79  C   UNL A   1      42.539  27.304  26.594  1.00  0.00     0.012 A 
ATOM     80  C   UNL A   1      41.729  25.275  27.652  1.00  0.00     0.148 A 
ATOM     81  C   UNL A   1      42.745  26.607  25.402  1.00  0.00     0.002 A 
ATOM     82  C   UNL A   1      41.993  24.573  26.482  1.00  0.00     0.091 A 
ATOM     83  F   UNL A   1      41.198  24.676  28.728  1.00  0.00    -0.205 F 
ATOM     84  C   UNL A   1      42.481  25.241  25.349  1.00  0.00     0.022 A 
BRANCH  82  85
ATOM     85  S   UNL A   1      41.796  22.792  26.366  1.00  0.00     0.127 S 
ATOM     86  O   UNL A   1      42.411  22.507  25.072  1.00  0.00    -0.237 OA
ATOM     87  O   UNL A   1      42.556  22.327  27.527  1.00  0.00    -0.237 OA
ATOM     88  O   UNL A   1      40.361  22.553  26.455  1.00  0.00    -0.744 OA
ENDBRANCH  82  85
ENDBRANCH  54  78
BRANCH  66  89
ATOM     89  C   UNL A   1      45.007  26.935  34.018  1.00  0.00     0.023 A 
ATOM     90  C   UNL A   1      46.329  27.369  33.797  1.00  0.00     0.012 A 
ATOM     91  C   UNL A   1      44.777  25.833  34.867  1.00  0.00     0.148 A 
ATOM     92  C   UNL A   1      47.404  26.693  34.373  1.00  0.00     0.002 A 
ATOM     93  C   UNL A   1      45.851  25.198  35.481  1.00  0.00     0.091 A 
ATOM     94  F   UNL A   1      43.514  25.425  35.058  1.00  0.00    -0.205 F 
ATOM     95  C   UNL A   1      47.165  25.616  35.222  1.00  0.00     0.022 A 
BRANCH  93  96
ATOM     96  S   UNL A   1      45.633  23.865  36.665  1.00  0.00     0.127 S 
ATOM     97  O   UNL A   1      47.016  23.578  37.047  1.00  0.00    -0.237 OA
ATOM     98  O   UNL A   1      44.833  24.504  37.710  1.00  0.00    -0.237 OA
ATOM     99  O   UNL A   1      44.950  22.796  35.949  1.00  0.00    -0.744 OA
ENDBRANCH  93  96
ENDBRANCH  66  89
ENDBRANCH  40  41
ENDBRANCH  33  35
ENDBRANCH  32  33
ENDBRANCH  31  32
ENDBRANCH  30  31
ENDBRANCH  29  30
ENDBRANCH  28  29
ENDBRANCH   1  28
TORSDOF 25
ENDMDL
MODEL 2
REMARK VINA RESULT:     -10.3      2.033      7.746
REMARK SMILES O=C(/C=C/c1ccc(O)cc1)NC[C@@H]1CC[C@H](C(=O)OCCOCCOCCOC(=O)c2ccc(-c3c4nc(c(-c5cccc(S(=O)(=O)[O-])c5F)c5ccc([nH]5)c(-c5cccc(S(=O)(=O)[O-])c5F)c5nc(c(-c6cccc(S(=O)(=O)[O-])c6F)c6ccc3[nH]6)C=C5)C=C4)cc2)O1
REMARK SMILES IDX 24 1 23 2 22 3 21 4 20 5 18 6 19 7 17 8 14 9 15 10 95 11
REMARK SMILES IDX 16 12 13 13 12 14 1 15 2 16 3 18 4 19 5 20 6 21 11 22 7 23
REMARK SMILES IDX 10 24 8 25 9 26 25 28 26 29 27 30 28 31 29 32 30 33 31 34
REMARK SMILES IDX 32 35 33 36 94 37 34 38 93 39 35 40 36 41 37 42 87 43 38 44
REMARK SMILES IDX 92 45 86 46 88 47 39 48 91 49 85 50 84 51 40 53 72 54 52 55
REMARK SMILES IDX 71 56 53 57 56 58 70 59 89 60 54 61 55 62 69 64 90 65 57 66
REMARK SMILES IDX 41 67 42 68 50 69 43 70 45 71 51 72 44 73 46 74 47 75 48 76
REMARK SMILES IDX 49 77 73 78 74 79 82 80 75 81 77 82 83 83 76 84 78 85 79 86
REMARK SMILES IDX 80 87 81 88 58 89 59 90 67 91 60 92 62 93 68 94 61 95 63 96
REMARK SMILES IDX 64 97 65 98 66 99
REMARK H PARENT 12 17 9 27 88 52 56 63
REMARK Flexibility Score: inf
ROOT
ATOM      1  C   UNL A   1      32.999  29.431  25.520  1.00  0.00     0.188 C 
ENDROOT
BRANCH   1   2
ATOM      2  O   UNL A   1      32.725  28.037  25.589  1.00  0.00    -0.376 OA
BRANCH   2   3
ATOM      3  C   UNL A   1      31.424  27.642  26.030  1.00  0.00     0.202 C 
BRANCH   3   4
ATOM      4  C   UNL A   1      31.313  26.363  26.881  1.00  0.00     0.261 C 
BRANCH   4   5
ATOM      5  O   UNL A   1      31.074  25.180  26.089  1.00  0.00    -0.461 OA
BRANCH   5   6
ATOM      6  C   UNL A   1      31.758  24.065  26.460  1.00  0.00     0.335 C 
ATOM      7  O   UNL A   1      31.235  23.089  26.987  1.00  0.00    -0.249 OA
BRANCH   6   8
ATOM      8  C   UNL A   1      33.244  24.111  26.052  1.00  0.00     0.228 C 
ATOM      9  C   UNL A   1      33.682  23.418  23.865  1.00  0.00     0.138 C 
ATOM     10  C   UNL A   1      33.825  22.208  24.773  1.00  0.00     0.037 C 
ATOM     11  O   UNL A   1      33.327  24.543  24.683  1.00  0.00    -0.361 OA
ATOM     12  C   UNL A   1      34.068  22.836  26.114  1.00  0.00     0.047 C 
BRANCH   9  13
ATOM     13  C   UNL A   1      32.645  23.206  22.759  1.00  0.00     0.148 C 
BRANCH  13  14
ATOM     14  N   UNL A   1      31.885  24.419  22.535  1.00  0.00    -0.350 N 
ATOM     15  O   UNL A   1      33.279  25.355  20.963  1.00  0.00    -0.270 OA
ATOM     16  C   UNL A   1      32.319  25.428  21.719  1.00  0.00     0.244 C 
ATOM     17  H   UNL A   1      31.018  24.522  22.990  1.00  0.00     0.163 HD
BRANCH  16  18
ATOM     18  C   UNL A   1      31.503  26.666  21.770  1.00  0.00     0.072 C 
ATOM     19  C   UNL A   1      30.569  26.887  22.710  1.00  0.00     0.014 C 
BRANCH  19  20
ATOM     20  C   UNL A   1      29.760  28.108  22.803  1.00  0.00    -0.025 A 
ATOM     21  C   UNL A   1      30.280  29.373  22.500  1.00  0.00     0.012 A 
ATOM     22  C   UNL A   1      28.402  27.992  23.127  1.00  0.00     0.012 A 
ATOM     23  C   UNL A   1      29.461  30.506  22.539  1.00  0.00     0.047 A 
ATOM     24  C   UNL A   1      27.583  29.121  23.166  1.00  0.00     0.047 A 
ATOM     25  C   UNL A   1      28.118  30.369  22.871  1.00  0.00     0.115 A 
BRANCH  25  26
ATOM     26  O   UNL A   1      27.282  31.445  22.909  1.00  0.00    -0.508 OA
ATOM     27  H   UNL A   1      27.634  32.309  22.992  1.00  0.00     0.293 HD
ENDBRANCH  25  26
ENDBRANCH  19  20
ENDBRANCH  16  18
ENDBRANCH  13  14
ENDBRANCH   9  13
ENDBRANCH   6   8
ENDBRANCH   5   6
ENDBRANCH   4   5
ENDBRANCH   3   4
ENDBRANCH   2   3
ENDBRANCH   1   2
BRANCH   1  28
ATOM     28  C   UNL A   1      31.811  30.379  25.722  1.00  0.00     0.188 C 
BRANCH  28  29
ATOM     29  O   UNL A   1      31.791  31.019  26.981  1.00  0.00    -0.376 OA
BRANCH  29  30
ATOM     30  C   UNL A   1      32.807  31.953  27.321  1.00  0.00     0.202 C 
BRANCH  30  31
ATOM     31  C   UNL A   1      32.515  33.469  27.258  1.00  0.00     0.261 C 
BRANCH  31  32
ATOM     32  O   UNL A   1      32.276  34.147  28.504  1.00  0.00    -0.460 OA
BRANCH  32  33
ATOM     33  C   UNL A   1      33.181  35.080  28.889  1.00  0.00     0.338 C 
ATOM     34  O   UNL A   1      32.987  36.283  28.975  1.00  0.00    -0.246 OA
BRANCH  33  35
ATOM     35  C   UNL A   1      34.345  34.367  29.486  1.00  0.00     0.060 A 
ATOM     36  C   UNL A   1      34.098  33.443  30.514  1.00  0.00     0.016 A 
ATOM     37  C   UNL A   1      35.640  34.520  28.986  1.00  0.00     0.016 A 
ATOM     38  C   UNL A   1      35.146  32.705  31.068  1.00  0.00     0.010 A 
ATOM     39  C   UNL A   1      36.694  33.796  29.558  1.00  0.00     0.010 A 
ATOM     40  C   UNL A   1      36.460  32.909  30.625  1.00  0.00    -0.014 A 
BRANCH  40  41
ATOM     41  C   UNL A   1      37.597  32.347  31.402  1.00  0.00     0.031 A 
ATOM     42  C   UNL A   1      38.365  31.194  30.808  1.00  0.00     0.074 A 
ATOM     43  C   UNL A   1      37.964  32.847  32.598  1.00  0.00     0.049 A 
ATOM     44  N   UNL A   1      39.368  30.518  31.305  1.00  0.00    -0.248 NA
ATOM     45  C   UNL A   1      37.942  30.745  29.469  1.00  0.00     0.031 C 
ATOM     46  C   UNL A   1      37.320  33.963  33.287  1.00  0.00     0.029 A 
ATOM     47  N   UNL A   1      38.963  32.454  33.458  1.00  0.00    -0.354 N 
ATOM     48  C   UNL A   1      39.686  29.557  30.352  1.00  0.00     0.074 A 
ATOM     49  C   UNL A   1      38.756  29.723  29.255  1.00  0.00     0.031 C 
ATOM     50  C   UNL A   1      37.916  34.143  34.480  1.00  0.00     0.029 A 
ATOM     51  C   UNL A   1      38.969  33.141  34.651  1.00  0.00     0.049 A 
ATOM     52  H   UNL A   1      39.613  31.748  33.242  1.00  0.00     0.167 HD
ATOM     53  C   UNL A   1      40.673  28.630  30.372  1.00  0.00     0.034 A 
ATOM     54  C   UNL A   1      39.715  32.963  35.761  1.00  0.00     0.034 A 
ATOM     55  C   UNL A   1      41.604  28.463  31.454  1.00  0.00     0.049 A 
ATOM     56  C   UNL A   1      40.780  31.892  35.776  1.00  0.00     0.074 A 
ATOM     57  C   UNL A   1      42.650  27.562  31.555  1.00  0.00     0.029 A 
ATOM     58  N   UNL A   1      41.602  29.203  32.624  1.00  0.00    -0.354 N 
ATOM     59  N   UNL A   1      41.134  31.061  34.825  1.00  0.00    -0.248 NA
ATOM     60  C   UNL A   1      41.574  31.758  37.008  1.00  0.00     0.031 C 
ATOM     61  C   UNL A   1      43.263  27.740  32.798  1.00  0.00     0.029 A 
ATOM     62  C   UNL A   1      42.623  28.777  33.456  1.00  0.00     0.049 A 
ATOM     63  H   UNL A   1      40.967  29.926  32.835  1.00  0.00     0.167 HD
ATOM     64  C   UNL A   1      42.211  30.338  35.329  1.00  0.00     0.074 A 
ATOM     65  C   UNL A   1      42.472  30.848  36.657  1.00  0.00     0.031 C 
ATOM     66  C   UNL A   1      42.913  29.330  34.752  1.00  0.00     0.034 A 
BRANCH  53  67
ATOM     67  C   UNL A   1      40.823  27.740  29.168  1.00  0.00     0.023 A 
ATOM     68  C   UNL A   1      40.052  26.565  29.074  1.00  0.00     0.012 A 
ATOM     69  C   UNL A   1      41.662  28.106  28.097  1.00  0.00     0.148 A 
ATOM     70  C   UNL A   1      40.129  25.753  27.942  1.00  0.00     0.002 A 
ATOM     71  C   UNL A   1      41.700  27.317  26.954  1.00  0.00     0.091 A 
ATOM     72  F   UNL A   1      42.400  29.219  28.216  1.00  0.00    -0.205 F 
ATOM     73  C   UNL A   1      40.942  26.136  26.879  1.00  0.00     0.022 A 
BRANCH  71  74
ATOM     74  S   UNL A   1      42.653  27.760  25.498  1.00  0.00     0.127 S 
ATOM     75  O   UNL A   1      41.914  28.922  25.004  1.00  0.00    -0.237 OA
ATOM     76  O   UNL A   1      43.962  28.070  26.073  1.00  0.00    -0.237 OA
ATOM     77  O   UNL A   1      42.627  26.594  24.626  1.00  0.00    -0.744 OA
ENDBRANCH  71  74
ENDBRANCH  53  67
BRANCH  54  78
ATOM     78  C   UNL A   1      39.496  33.813  36.969  1.00  0.00     0.023 A 
ATOM     79  C   UNL A   1      39.976  35.137  36.995  1.00  0.00     0.012 A 
ATOM     80  C   UNL A   1      38.853  33.297  38.111  1.00  0.00     0.148 A 
ATOM     81  C   UNL A   1      39.864  35.914  38.150  1.00  0.00     0.002 A 
ATOM     82  C   UNL A   1      38.689  34.095  39.236  1.00  0.00     0.091 A 
ATOM     83  F   UNL A   1      38.424  32.027  38.079  1.00  0.00    -0.205 F 
ATOM     84  C   UNL A   1      39.214  35.396  39.267  1.00  0.00     0.022 A 
BRANCH  82  85
ATOM     85  S   UNL A   1      37.759  33.550  40.672  1.00  0.00     0.127 S 
ATOM     86  O   UNL A   1      37.644  34.786  41.442  1.00  0.00    -0.237 OA
ATOM     87  O   UNL A   1      36.512  33.082  40.065  1.00  0.00    -0.237 OA
ATOM     88  O   UNL A   1      38.561  32.496  41.279  1.00  0.00    -0.744 OA
ENDBRANCH  82  85
ENDBRANCH  54  78
BRANCH  66  89
ATOM     89  C   UNL A   1      44.066  28.741  35.527  1.00  0.00     0.023 A 
ATOM     90  C   UNL A   1      45.365  29.265  35.368  1.00  0.00     0.012 A 
ATOM     91  C   UNL A   1      43.850  27.705  36.458  1.00  0.00     0.148 A 
ATOM     92  C   UNL A   1      46.436  28.738  36.089  1.00  0.00     0.002 A 
ATOM     93  C   UNL A   1      44.914  27.221  37.212  1.00  0.00     0.091 A 
ATOM     94  F   UNL A   1      42.611  27.210  36.587  1.00  0.00    -0.205 F 
ATOM     95  C   UNL A   1      46.209  27.725  37.017  1.00  0.00     0.022 A 
BRANCH  93  96
ATOM     96  S   UNL A   1      44.700  25.986  38.499  1.00  0.00     0.127 S 
ATOM     97  O   UNL A   1      44.162  24.857  37.742  1.00  0.00    -0.237 OA
ATOM     98  O   UNL A   1      46.068  25.800  38.981  1.00  0.00    -0.237 OA
ATOM     99  O   UNL A   1      43.790  26.573  39.474  1.00  0.00    -0.744 OA
ENDBRANCH  93  96
ENDBRANCH  66  89
ENDBRANCH  40  41
ENDBRANCH  33  35
ENDBRANCH  32  33
ENDBRANCH  31  32
ENDBRANCH  30  31
ENDBRANCH  29  30
ENDBRANCH  28  29
ENDBRANCH   1  28
TORSDOF 25
ENDMDL
MODEL 3
REMARK VINA RESULT:     -10.0      1.146      7.368
REMARK SMILES O=C(/C=C/c1ccc(O)cc1)NC[C@@H]1CC[C@H](C(=O)OCCOCCOCCOC(=O)c2ccc(-c3c4nc(c(-c5cccc(S(=O)(=O)[O-])c5F)c5ccc([nH]5)c(-c5cccc(S(=O)(=O)[O-])c5F)c5nc(c(-c6cccc(S(=O)(=O)[O-])c6F)c6ccc3[nH]6)C=C5)C=C4)cc2)O1
REMARK SMILES IDX 24 1 23 2 22 3 21 4 20 5 18 6 19 7 17 8 14 9 15 10 95 11
REMARK SMILES IDX 16 12 13 13 12 14 1 15 2 16 3 18 4 19 5 20 6 21 11 22 7 23
REMARK SMILES IDX 10 24 8 25 9 26 25 28 26 29 27 30 28 31 29 32 30 33 31 34
REMARK SMILES IDX 32 35 33 36 94 37 34 38 93 39 35 40 36 41 37 42 87 43 38 44
REMARK SMILES IDX 92 45 86 46 88 47 39 48 91 49 85 50 84 51 40 53 72 54 52 55
REMARK SMILES IDX 71 56 53 57 56 58 70 59 89 60 54 61 55 62 69 64 90 65 57 66
REMARK SMILES IDX 41 67 42 68 50 69 43 70 45 71 51 72 44 73 46 74 47 75 48 76
REMARK SMILES IDX 49 77 73 78 74 79 82 80 75 81 77 82 83 83 76 84 78 85 79 86
REMARK SMILES IDX 80 87 81 88 58 89 59 90 67 91 60 92 62 93 68 94 61 95 63 96
REMARK SMILES IDX 64 97 65 98 66 99
REMARK H PARENT 12 17 9 27 88 52 56 63
REMARK Flexibility Score: inf
ROOT
ATOM      1  C   UNL A   1      33.552  28.859  27.182  1.00  0.00     0.188 C 
ENDROOT
BRANCH   1   2
ATOM      2  O   UNL A   1      34.300  28.360  26.080  1.00  0.00    -0.376 OA
BRANCH   2   3
ATOM      3  C   UNL A   1      33.626  28.246  24.824  1.00  0.00     0.202 C 
BRANCH   3   4
ATOM      4  C   UNL A   1      33.456  26.838  24.227  1.00  0.00     0.261 C 
BRANCH   4   5
ATOM      5  O   UNL A   1      34.406  25.886  24.752  1.00  0.00    -0.461 OA
BRANCH   5   6
ATOM      6  C   UNL A   1      33.922  24.998  25.661  1.00  0.00     0.335 C 
ATOM      7  O   UNL A   1      33.226  25.316  26.619  1.00  0.00    -0.249 OA
BRANCH   6   8
ATOM      8  C   UNL A   1      34.254  23.536  25.305  1.00  0.00     0.228 C 
ATOM      9  C   UNL A   1      32.428  22.079  25.349  1.00  0.00     0.138 C 
ATOM     10  C   UNL A   1      33.086  22.040  26.717  1.00  0.00     0.037 C 
ATOM     11  O   UNL A   1      33.166  22.999  24.530  1.00  0.00    -0.361 OA
ATOM     12  C   UNL A   1      34.473  22.532  26.424  1.00  0.00     0.047 C 
BRANCH   9  13
ATOM     13  C   UNL A   1      30.953  22.481  25.415  1.00  0.00     0.148 C 
BRANCH  13  14
ATOM     14  N   UNL A   1      30.711  23.664  24.615  1.00  0.00    -0.350 N 
ATOM     15  O   UNL A   1      30.002  25.036  26.320  1.00  0.00    -0.270 OA
ATOM     16  C   UNL A   1      30.171  24.812  25.128  1.00  0.00     0.244 C 
ATOM     17  H   UNL A   1      30.945  23.642  23.659  1.00  0.00     0.163 HD
BRANCH  16  18
ATOM     18  C   UNL A   1      29.818  25.841  24.119  1.00  0.00     0.072 C 
ATOM     19  C   UNL A   1      29.834  27.157  24.384  1.00  0.00     0.014 C 
BRANCH  19  20
ATOM     20  C   UNL A   1      29.512  28.202  23.405  1.00  0.00    -0.025 A 
ATOM     21  C   UNL A   1      28.192  28.571  23.112  1.00  0.00     0.012 A 
ATOM     22  C   UNL A   1      30.563  28.909  22.805  1.00  0.00     0.012 A 
ATOM     23  C   UNL A   1      27.927  29.616  22.220  1.00  0.00     0.047 A 
ATOM     24  C   UNL A   1      30.300  29.951  21.914  1.00  0.00     0.047 A 
ATOM     25  C   UNL A   1      28.985  30.297  21.630  1.00  0.00     0.115 A 
BRANCH  25  26
ATOM     26  O   UNL A   1      28.771  31.328  20.764  1.00  0.00    -0.508 OA
ATOM     27  H   UNL A   1      29.405  31.523  20.102  1.00  0.00     0.293 HD
ENDBRANCH  25  26
ENDBRANCH  19  20
ENDBRANCH  16  18
ENDBRANCH  13  14
ENDBRANCH   9  13
ENDBRANCH   6   8
ENDBRANCH   5   6
ENDBRANCH   4   5
ENDBRANCH   3   4
ENDBRANCH   2   3
ENDBRANCH   1   2
BRANCH   1  28
ATOM     28  C   UNL A   1      32.057  29.108  26.948  1.00  0.00     0.188 C 
BRANCH  28  29
ATOM     29  O   UNL A   1      31.742  30.438  26.593  1.00  0.00    -0.376 OA
BRANCH  29  30
ATOM     30  C   UNL A   1      32.621  31.497  26.949  1.00  0.00     0.202 C 
BRANCH  30  31
ATOM     31  C   UNL A   1      32.088  32.944  27.043  1.00  0.00     0.261 C 
BRANCH  31  32
ATOM     32  O   UNL A   1      33.053  33.989  27.258  1.00  0.00    -0.460 OA
BRANCH  32  33
ATOM     33  C   UNL A   1      33.208  34.443  28.526  1.00  0.00     0.338 C 
ATOM     34  O   UNL A   1      32.380  35.054  29.182  1.00  0.00    -0.246 OA
BRANCH  33  35
ATOM     35  C   UNL A   1      34.429  33.803  29.092  1.00  0.00     0.060 A 
ATOM     36  C   UNL A   1      34.270  32.640  29.861  1.00  0.00     0.016 A 
ATOM     37  C   UNL A   1      35.712  34.270  28.795  1.00  0.00     0.016 A 
ATOM     38  C   UNL A   1      35.386  31.968  30.367  1.00  0.00     0.010 A 
ATOM     39  C   UNL A   1      36.829  33.608  29.321  1.00  0.00     0.010 A 
ATOM     40  C   UNL A   1      36.673  32.473  30.138  1.00  0.00    -0.014 A 
BRANCH  40  41
ATOM     41  C   UNL A   1      37.826  31.933  30.908  1.00  0.00     0.031 A 
ATOM     42  C   UNL A   1      38.710  30.910  30.241  1.00  0.00     0.074 A 
ATOM     43  C   UNL A   1      38.106  32.342  32.160  1.00  0.00     0.049 A 
ATOM     44  N   UNL A   1      39.749  30.273  30.715  1.00  0.00    -0.248 NA
ATOM     45  C   UNL A   1      38.376  30.562  28.848  1.00  0.00     0.031 C 
ATOM     46  C   UNL A   1      37.343  33.329  32.922  1.00  0.00     0.029 A 
ATOM     47  N   UNL A   1      39.103  31.950  33.022  1.00  0.00    -0.354 N 
ATOM     48  C   UNL A   1      40.182  29.439  29.691  1.00  0.00     0.074 A 
ATOM     49  C   UNL A   1      39.281  29.635  28.575  1.00  0.00     0.031 C 
ATOM     50  C   UNL A   1      37.879  33.440  34.152  1.00  0.00     0.029 A 
ATOM     51  C   UNL A   1      39.007  32.516  34.273  1.00  0.00     0.049 A 
ATOM     52  H   UNL A   1      39.819  31.324  32.769  1.00  0.00     0.167 HD
ATOM     53  C   UNL A   1      41.244  28.600  29.667  1.00  0.00     0.034 A 
ATOM     54  C   UNL A   1      39.726  32.292  35.393  1.00  0.00     0.034 A 
ATOM     55  C   UNL A   1      42.147  28.404  30.767  1.00  0.00     0.049 A 
ATOM     56  C   UNL A   1      40.878  31.315  35.353  1.00  0.00     0.074 A 
ATOM     57  C   UNL A   1      43.262  27.586  30.828  1.00  0.00     0.029 A 
ATOM     58  N   UNL A   1      42.039  29.023  32.001  1.00  0.00    -0.354 N 
ATOM     59  N   UNL A   1      41.336  30.613  34.345  1.00  0.00    -0.248 NA
ATOM     60  C   UNL A   1      41.637  31.127  36.601  1.00  0.00     0.031 C 
ATOM     61  C   UNL A   1      43.812  27.691  32.109  1.00  0.00     0.029 A 
ATOM     62  C   UNL A   1      43.063  28.603  32.832  1.00  0.00     0.049 A 
ATOM     63  H   UNL A   1      41.337  29.667  32.251  1.00  0.00     0.167 HD
ATOM     64  C   UNL A   1      42.452  29.935  34.825  1.00  0.00     0.074 A 
ATOM     65  C   UNL A   1      42.620  30.332  36.206  1.00  0.00     0.031 C 
ATOM     66  C   UNL A   1      43.258  29.049  34.187  1.00  0.00     0.034 A 
BRANCH  53  67
ATOM     67  C   UNL A   1      41.512  27.847  28.391  1.00  0.00     0.023 A 
ATOM     68  C   UNL A   1      42.313  28.437  27.393  1.00  0.00     0.012 A 
ATOM     69  C   UNL A   1      41.041  26.531  28.214  1.00  0.00     0.148 A 
ATOM     70  C   UNL A   1      42.624  27.737  26.227  1.00  0.00     0.002 A 
ATOM     71  C   UNL A   1      41.392  25.824  27.071  1.00  0.00     0.091 A 
ATOM     72  F   UNL A   1      40.266  25.996  29.169  1.00  0.00    -0.205 F 
ATOM     73  C   UNL A   1      42.175  26.429  26.073  1.00  0.00     0.022 A 
BRANCH  71  74
ATOM     74  S   UNL A   1      40.932  24.109  26.809  1.00  0.00     0.127 S 
ATOM     75  O   UNL A   1      39.504  24.227  26.518  1.00  0.00    -0.237 OA
ATOM     76  O   UNL A   1      41.759  23.744  25.658  1.00  0.00    -0.237 OA
ATOM     77  O   UNL A   1      41.257  23.409  28.043  1.00  0.00    -0.744 OA
ENDBRANCH  71  74
ENDBRANCH  53  67
BRANCH  54  78
ATOM     78  C   UNL A   1      39.392  32.998  36.665  1.00  0.00     0.023 A 
ATOM     79  C   UNL A   1      40.011  34.226  36.972  1.00  0.00     0.012 A 
ATOM     80  C   UNL A   1      38.497  32.434  37.594  1.00  0.00     0.148 A 
ATOM     81  C   UNL A   1      39.782  34.854  38.199  1.00  0.00     0.002 A 
ATOM     82  C   UNL A   1      38.226  33.093  38.787  1.00  0.00     0.091 A 
ATOM     83  F   UNL A   1      37.936  31.252  37.298  1.00  0.00    -0.205 F 
ATOM     84  C   UNL A   1      38.884  34.291  39.102  1.00  0.00     0.022 A 
BRANCH  82  85
ATOM     85  S   UNL A   1      36.993  32.501  39.952  1.00  0.00     0.127 S 
ATOM     86  O   UNL A   1      37.516  31.182  40.297  1.00  0.00    -0.237 OA
ATOM     87  O   UNL A   1      37.082  33.499  41.019  1.00  0.00    -0.237 OA
ATOM     88  O   UNL A   1      35.732  32.515  39.223  1.00  0.00    -0.744 OA
ENDBRANCH  82  85
ENDBRANCH  54  78
BRANCH  66  89
ATOM     89  C   UNL A   1      44.429  28.484  34.952  1.00  0.00     0.023 A 
ATOM     90  C   UNL A   1      45.696  29.095  34.859  1.00  0.00     0.012 A 
ATOM     91  C   UNL A   1      44.259  27.379  35.811  1.00  0.00     0.148 A 
ATOM     92  C   UNL A   1      46.782  28.590  35.572  1.00  0.00     0.002 A 
ATOM     93  C   UNL A   1      45.334  26.914  36.560  1.00  0.00     0.091 A 
ATOM     94  F   UNL A   1      43.051  26.801  35.878  1.00  0.00    -0.205 F 
ATOM     95  C   UNL A   1      46.599  27.507  36.430  1.00  0.00     0.022 A 
BRANCH  93  96
ATOM     96  S   UNL A   1      45.171  25.589  37.762  1.00  0.00     0.127 S 
ATOM     97  O   UNL A   1      44.783  24.463  36.913  1.00  0.00    -0.237 OA
ATOM     98  O   UNL A   1      46.524  25.500  38.312  1.00  0.00    -0.237 OA
ATOM     99  O   UNL A   1      44.160  26.029  38.713  1.00  0.00    -0.744 OA
ENDBRANCH  93  96
ENDBRANCH  66  89
ENDBRANCH  40  41
ENDBRANCH  33  35
ENDBRANCH  32  33
ENDBRANCH  31  32
ENDBRANCH  30  31
ENDBRANCH  29  30
ENDBRANCH  28  29
ENDBRANCH   1  28
TORSDOF 25
ENDMDL
