MODEL 1
REMARK VINA RESULT:      -9.8      0.000      0.000
REMARK SMILES O=C(OCCOCCOCCOC(=O)[C@H]1CCCN(c2cc(-c3ccccn3)nc(-c3ccccc3F)n2)C1)c1ccc(-c2c3nc(c(-c4cccc(S(=O)(=O)[O-])c4F)c4ccc([nH]4)c(-c4cccc(S(=O)(=O)[O-])c4F)c4nc(c(-c5cccc(S(=O)(=O)[O-])c5F)c5ccc2[nH]5)C=C4)C=C3)cc1
REMARK SMILES IDX 7 1 6 2 5 3 4 4 3 5 2 6 1 7 40 8 41 9 102 10 42 11 101 12
REMARK SMILES IDX 43 13 44 14 45 15 95 16 46 17 100 18 94 19 96 20 47 21 99 22
REMARK SMILES IDX 93 23 92 24 48 26 80 27 60 28 79 29 61 30 64 31 78 32 97 33
REMARK SMILES IDX 62 34 63 35 77 37 98 38 65 39 49 40 50 41 58 42 51 43 53 44
REMARK SMILES IDX 59 45 52 46 54 47 55 48 56 49 57 50 81 51 82 52 90 53 83 54
REMARK SMILES IDX 85 55 91 56 84 57 86 58 87 59 88 60 89 61 66 62 67 63 75 64
REMARK SMILES IDX 68 65 70 66 76 67 69 68 71 69 72 70 73 71 74 72 8 73 9 74
REMARK SMILES IDX 10 75 11 76 12 77 13 78 14 79 15 80 16 81 39 82 17 83 19 84
REMARK SMILES IDX 18 85 20 86 21 87 38 88 22 89 30 90 29 91 23 92 24 93 28 94
REMARK SMILES IDX 25 95 27 96 26 97 31 98 32 99 36 100 33 101 35 102 37 103
REMARK SMILES IDX 34 104
REMARK H PARENT 96 25 64 36
REMARK Flexibility Score: inf
ROOT
ATOM      1  C   UNL A   1      34.344  28.634  26.892  1.00  0.00     0.188 C 
ENDROOT
BRANCH   1   2
ATOM      2  O   UNL A   1      34.275  30.061  26.817  1.00  0.00    -0.376 OA
BRANCH   2   3
ATOM      3  C   UNL A   1      32.992  30.596  27.169  1.00  0.00     0.202 C 
BRANCH   3   4
ATOM      4  C   UNL A   1      32.929  32.096  27.551  1.00  0.00     0.261 C 
BRANCH   4   5
ATOM      5  O   UNL A   1      34.115  32.619  28.181  1.00  0.00    -0.460 OA
BRANCH   5   6
ATOM      6  C   UNL A   1      34.246  33.351  29.317  1.00  0.00     0.338 C 
ATOM      7  O   UNL A   1      33.387  34.198  29.564  1.00  0.00    -0.246 OA
BRANCH   6   8
ATOM      8  C   UNL A   1      35.381  33.192  30.277  1.00  0.00     0.060 A 
ATOM      9  C   UNL A   1      36.524  33.985  30.274  1.00  0.00     0.016 A 
ATOM     10  C   UNL A   1      35.285  32.200  31.266  1.00  0.00     0.016 A 
ATOM     11  C   UNL A   1      37.598  33.733  31.107  1.00  0.00     0.010 A 
ATOM     12  C   UNL A   1      36.329  32.000  32.181  1.00  0.00     0.010 A 
ATOM     13  C   UNL A   1      37.510  32.750  32.078  1.00  0.00    -0.014 A 
BRANCH  13  14
ATOM     14  C   UNL A   1      38.711  32.448  32.878  1.00  0.00     0.031 A 
ATOM     15  C   UNL A   1      39.800  31.652  32.244  1.00  0.00     0.074 A 
ATOM     16  C   UNL A   1      38.949  33.038  34.064  1.00  0.00     0.049 A 
ATOM     17  N   UNL A   1      40.948  31.319  32.755  1.00  0.00    -0.248 NA
ATOM     18  C   UNL A   1      39.630  31.286  30.827  1.00  0.00     0.031 C 
ATOM     19  C   UNL A   1      38.194  34.159  34.606  1.00  0.00     0.029 A 
ATOM     20  N   UNL A   1      39.900  32.801  35.027  1.00  0.00    -0.354 N 
ATOM     21  C   UNL A   1      41.654  30.733  31.723  1.00  0.00     0.074 A 
ATOM     22  C   UNL A   1      40.794  30.714  30.561  1.00  0.00     0.031 C 
ATOM     23  C   UNL A   1      38.647  34.443  35.834  1.00  0.00     0.029 A 
ATOM     24  C   UNL A   1      39.639  33.471  36.199  1.00  0.00     0.049 A 
ATOM     25  H   UNL A   1      40.680  32.217  34.893  1.00  0.00     0.167 HD
ATOM     26  C   UNL A   1      42.927  30.290  31.753  1.00  0.00     0.034 A 
ATOM     27  C   UNL A   1      40.107  33.322  37.450  1.00  0.00     0.034 A 
ATOM     28  C   UNL A   1      43.739  30.311  32.936  1.00  0.00     0.049 A 
ATOM     29  C   UNL A   1      41.360  32.532  37.564  1.00  0.00     0.074 A 
ATOM     30  C   UNL A   1      45.021  29.825  33.101  1.00  0.00     0.029 A 
ATOM     31  N   UNL A   1      43.337  30.819  34.168  1.00  0.00    -0.354 N 
ATOM     32  N   UNL A   1      42.011  31.942  36.594  1.00  0.00    -0.248 NA
ATOM     33  C   UNL A   1      42.026  32.501  38.866  1.00  0.00     0.031 C 
ATOM     34  C   UNL A   1      45.366  29.972  34.447  1.00  0.00     0.029 A 
ATOM     35  C   UNL A   1      44.327  30.608  35.111  1.00  0.00     0.049 A 
ATOM     36  H   UNL A   1      42.476  31.261  34.342  1.00  0.00     0.167 HD
ATOM     37  C   UNL A   1      43.218  31.559  37.135  1.00  0.00     0.074 A 
ATOM     38  C   UNL A   1      43.185  31.942  38.537  1.00  0.00     0.031 C 
ATOM     39  C   UNL A   1      44.270  30.992  36.502  1.00  0.00     0.034 A 
BRANCH  26  40
ATOM     40  C   UNL A   1      43.461  29.689  30.490  1.00  0.00     0.023 A 
ATOM     41  C   UNL A   1      43.984  30.506  29.468  1.00  0.00     0.012 A 
ATOM     42  C   UNL A   1      43.423  28.295  30.316  1.00  0.00     0.148 A 
ATOM     43  C   UNL A   1      44.438  29.940  28.276  1.00  0.00     0.002 A 
ATOM     44  C   UNL A   1      43.919  27.735  29.150  1.00  0.00     0.091 A 
ATOM     45  F   UNL A   1      42.878  27.548  31.288  1.00  0.00    -0.205 F 
ATOM     46  C   UNL A   1      44.415  28.554  28.123  1.00  0.00     0.022 A 
BRANCH  44  47
ATOM     47  S   UNL A   1      43.988  25.962  28.890  1.00  0.00     0.127 S 
ATOM     48  O   UNL A   1      44.295  25.884  27.462  1.00  0.00    -0.237 OA
ATOM     49  O   UNL A   1      45.086  25.571  29.774  1.00  0.00    -0.237 OA
ATOM     50  O   UNL A   1      42.681  25.445  29.272  1.00  0.00    -0.744 OA
ENDBRANCH  44  47
ENDBRANCH  26  40
BRANCH  27  51
ATOM     51  C   UNL A   1      39.462  34.015  38.602  1.00  0.00     0.023 A 
ATOM     52  C   UNL A   1      38.642  33.298  39.489  1.00  0.00     0.012 A 
ATOM     53  C   UNL A   1      39.714  35.382  38.863  1.00  0.00     0.148 A 
ATOM     54  C   UNL A   1      38.065  33.927  40.596  1.00  0.00     0.002 A 
ATOM     55  C   UNL A   1      39.137  36.002  39.971  1.00  0.00     0.091 A 
ATOM     56  F   UNL A   1      40.548  36.042  38.047  1.00  0.00    -0.205 F 
ATOM     57  C   UNL A   1      38.308  35.277  40.836  1.00  0.00     0.022 A 
BRANCH  55  58
ATOM     58  S   UNL A   1      39.396  37.737  40.364  1.00  0.00     0.127 S 
ATOM     59  O   UNL A   1      40.727  37.995  39.819  1.00  0.00    -0.237 OA
ATOM     60  O   UNL A   1      38.302  38.377  39.635  1.00  0.00    -0.237 OA
ATOM     61  O   UNL A   1      39.304  37.818  41.812  1.00  0.00    -0.744 OA
ENDBRANCH  55  58
ENDBRANCH  27  51
BRANCH  39  62
ATOM     62  C   UNL A   1      45.496  30.750  37.323  1.00  0.00     0.023 A 
ATOM     63  C   UNL A   1      46.463  31.764  37.451  1.00  0.00     0.012 A 
ATOM     64  C   UNL A   1      45.624  29.555  38.053  1.00  0.00     0.148 A 
ATOM     65  C   UNL A   1      47.554  31.584  38.293  1.00  0.00     0.002 A 
ATOM     66  C   UNL A   1      46.677  29.411  38.940  1.00  0.00     0.091 A 
ATOM     67  F   UNL A   1      44.701  28.597  37.882  1.00  0.00    -0.205 F 
ATOM     68  C   UNL A   1      47.651  30.419  39.052  1.00  0.00     0.022 A 
BRANCH  66  69
ATOM     69  S   UNL A   1      46.814  28.005  40.046  1.00  0.00     0.127 S 
ATOM     70  O   UNL A   1      47.825  27.194  39.372  1.00  0.00    -0.237 OA
ATOM     71  O   UNL A   1      47.263  28.638  41.286  1.00  0.00    -0.237 OA
ATOM     72  O   UNL A   1      45.486  27.410  40.112  1.00  0.00    -0.744 OA
ENDBRANCH  66  69
ENDBRANCH  39  62
ENDBRANCH  13  14
ENDBRANCH   6   8
ENDBRANCH   5   6
ENDBRANCH   4   5
ENDBRANCH   3   4
ENDBRANCH   2   3
ENDBRANCH   1   2
BRANCH   1  73
ATOM     73  C   UNL A   1      33.064  27.888  26.523  1.00  0.00     0.188 C 
BRANCH  73  74
ATOM     74  O   UNL A   1      33.176  26.488  26.285  1.00  0.00    -0.376 OA
BRANCH  74  75
ATOM     75  C   UNL A   1      32.015  25.815  25.810  1.00  0.00     0.202 C 
BRANCH  75  76
ATOM     76  C   UNL A   1      31.631  24.497  26.493  1.00  0.00     0.261 C 
BRANCH  76  77
ATOM     77  O   UNL A   1      32.759  23.708  26.891  1.00  0.00    -0.463 OA
BRANCH  77  78
ATOM     78  C   UNL A   1      32.844  22.422  26.409  1.00  0.00     0.310 C 
ATOM     79  O   UNL A   1      31.897  21.757  26.034  1.00  0.00    -0.252 OA
BRANCH  78  80
ATOM     80  C   UNL A   1      34.308  21.991  26.400  1.00  0.00     0.118 C 
ATOM     81  C   UNL A   1      34.353  20.756  25.499  1.00  0.00     0.019 C 
ATOM     82  C   UNL A   1      35.250  23.132  25.960  1.00  0.00     0.133 C 
ATOM     83  C   UNL A   1      35.730  20.445  24.981  1.00  0.00     0.022 C 
ATOM     84  N   UNL A   1      36.509  22.631  25.417  1.00  0.00    -0.356 N 
ATOM     85  C   UNL A   1      36.418  21.632  24.370  1.00  0.00     0.118 C 
BRANCH  84  86
ATOM     86  C   UNL A   1      37.785  22.986  25.813  1.00  0.00     0.133 A 
ATOM     87  C   UNL A   1      38.783  22.023  25.761  1.00  0.00     0.077 A 
ATOM     88  N   UNL A   1      38.033  24.201  26.331  1.00  0.00    -0.211 NA
ATOM     89  C   UNL A   1      40.026  22.297  26.295  1.00  0.00     0.095 A 
ATOM     90  C   UNL A   1      39.274  24.384  26.845  1.00  0.00     0.165 A 
ATOM     91  N   UNL A   1      40.285  23.494  26.848  1.00  0.00    -0.226 NA
BRANCH  89  92
ATOM     92  C   UNL A   1      41.108  21.294  26.250  1.00  0.00     0.089 A 
ATOM     93  C   UNL A   1      42.422  21.672  25.949  1.00  0.00     0.030 A 
ATOM     94  N   UNL A   1      40.769  19.991  26.451  1.00  0.00    -0.255 NA
ATOM     95  C   UNL A   1      43.400  20.697  25.783  1.00  0.00     0.004 A 
ATOM     96  C   UNL A   1      41.729  19.066  26.229  1.00  0.00     0.112 A 
ATOM     97  C   UNL A   1      43.044  19.363  25.905  1.00  0.00     0.020 A 
ENDBRANCH  89  92
BRANCH  90  98
ATOM     98  C   UNL A   1      39.583  25.662  27.477  1.00  0.00     0.055 A 
ATOM     99  C   UNL A   1      39.189  25.957  28.794  1.00  0.00     0.015 A 
ATOM    100  C   UNL A   1      40.369  26.603  26.805  1.00  0.00     0.134 A 
ATOM    101  C   UNL A   1      39.578  27.155  29.408  1.00  0.00     0.001 A 
ATOM    102  C   UNL A   1      40.756  27.800  27.407  1.00  0.00     0.040 A 
ATOM    103  F   UNL A   1      40.775  26.376  25.545  1.00  0.00    -0.206 F 
ATOM    104  C   UNL A   1      40.361  28.076  28.713  1.00  0.00     0.003 A 
ENDBRANCH  90  98
ENDBRANCH  84  86
ENDBRANCH  78  80
ENDBRANCH  77  78
ENDBRANCH  76  77
ENDBRANCH  75  76
ENDBRANCH  74  75
ENDBRANCH  73  74
ENDBRANCH   1  73
TORSDOF 23
ENDMDL
MODEL 2
REMARK VINA RESULT:      -9.3      4.910      7.004
REMARK SMILES O=C(OCCOCCOCCOC(=O)[C@H]1CCCN(c2cc(-c3ccccn3)nc(-c3ccccc3F)n2)C1)c1ccc(-c2c3nc(c(-c4cccc(S(=O)(=O)[O-])c4F)c4ccc([nH]4)c(-c4cccc(S(=O)(=O)[O-])c4F)c4nc(c(-c5cccc(S(=O)(=O)[O-])c5F)c5ccc2[nH]5)C=C4)C=C3)cc1
REMARK SMILES IDX 7 1 6 2 5 3 4 4 3 5 2 6 1 7 40 8 41 9 102 10 42 11 101 12
REMARK SMILES IDX 43 13 44 14 45 15 95 16 46 17 100 18 94 19 96 20 47 21 99 22
REMARK SMILES IDX 93 23 92 24 48 26 80 27 60 28 79 29 61 30 64 31 78 32 97 33
REMARK SMILES IDX 62 34 63 35 77 37 98 38 65 39 49 40 50 41 58 42 51 43 53 44
REMARK SMILES IDX 59 45 52 46 54 47 55 48 56 49 57 50 81 51 82 52 90 53 83 54
REMARK SMILES IDX 85 55 91 56 84 57 86 58 87 59 88 60 89 61 66 62 67 63 75 64
REMARK SMILES IDX 68 65 70 66 76 67 69 68 71 69 72 70 73 71 74 72 8 73 9 74
REMARK SMILES IDX 10 75 11 76 12 77 13 78 14 79 15 80 16 81 39 82 17 83 19 84
REMARK SMILES IDX 18 85 20 86 21 87 38 88 22 89 30 90 29 91 23 92 24 93 28 94
REMARK SMILES IDX 25 95 27 96 26 97 31 98 32 99 36 100 33 101 35 102 37 103
REMARK SMILES IDX 34 104
REMARK H PARENT 96 25 64 36
REMARK Flexibility Score: inf
ROOT
ATOM      1  C   UNL A   1      32.684  29.511  26.554  1.00  0.00     0.188 C 
ENDROOT
BRANCH   1   2
ATOM      2  O   UNL A   1      32.781  30.671  27.386  1.00  0.00    -0.376 OA
BRANCH   2   3
ATOM      3  C   UNL A   1      34.114  30.946  27.839  1.00  0.00     0.202 C 
BRANCH   3   4
ATOM      4  C   UNL A   1      34.299  32.133  28.817  1.00  0.00     0.261 C 
BRANCH   4   5
ATOM      5  O   UNL A   1      34.797  31.779  30.123  1.00  0.00    -0.460 OA
BRANCH   5   6
ATOM      6  C   UNL A   1      35.587  32.485  30.973  1.00  0.00     0.338 C 
ATOM      7  O   UNL A   1      35.045  33.130  31.869  1.00  0.00    -0.246 OA
BRANCH   6   8
ATOM      8  C   UNL A   1      37.078  32.530  30.870  1.00  0.00     0.060 A 
ATOM      9  C   UNL A   1      37.891  33.358  31.636  1.00  0.00     0.016 A 
ATOM     10  C   UNL A   1      37.711  31.663  29.964  1.00  0.00     0.016 A 
ATOM     11  C   UNL A   1      39.254  33.448  31.433  1.00  0.00     0.010 A 
ATOM     12  C   UNL A   1      39.106  31.675  29.818  1.00  0.00     0.010 A 
ATOM     13  C   UNL A   1      39.881  32.601  30.534  1.00  0.00    -0.014 A 
BRANCH  13  14
ATOM     14  C   UNL A   1      41.319  32.796  30.274  1.00  0.00     0.031 A 
ATOM     15  C   UNL A   1      42.239  31.644  30.491  1.00  0.00     0.074 A 
ATOM     16  C   UNL A   1      41.792  33.893  29.653  1.00  0.00     0.049 A 
ATOM     17  N   UNL A   1      43.521  31.594  30.278  1.00  0.00    -0.248 NA
ATOM     18  C   UNL A   1      41.631  30.360  30.878  1.00  0.00     0.031 C 
ATOM     19  C   UNL A   1      40.971  34.901  28.995  1.00  0.00     0.029 A 
ATOM     20  N   UNL A   1      43.072  34.345  29.448  1.00  0.00    -0.354 N 
ATOM     21  C   UNL A   1      43.874  30.274  30.474  1.00  0.00     0.074 A 
ATOM     22  C   UNL A   1      42.682  29.555  30.864  1.00  0.00     0.031 C 
ATOM     23  C   UNL A   1      41.758  35.889  28.551  1.00  0.00     0.029 A 
ATOM     24  C   UNL A   1      43.105  35.637  28.979  1.00  0.00     0.049 A 
ATOM     25  H   UNL A   1      43.877  33.804  29.619  1.00  0.00     0.167 HD
ATOM     26  C   UNL A   1      45.091  29.720  30.299  1.00  0.00     0.034 A 
ATOM     27  C   UNL A   1      44.087  36.552  28.916  1.00  0.00     0.034 A 
ATOM     28  C   UNL A   1      46.253  30.476  29.929  1.00  0.00     0.049 A 
ATOM     29  C   UNL A   1      45.463  36.010  29.061  1.00  0.00     0.074 A 
ATOM     30  C   UNL A   1      47.553  30.032  29.790  1.00  0.00     0.029 A 
ATOM     31  N   UNL A   1      46.262  31.843  29.669  1.00  0.00    -0.354 N 
ATOM     32  N   UNL A   1      45.802  34.766  29.286  1.00  0.00    -0.248 NA
ATOM     33  C   UNL A   1      46.580  36.920  28.803  1.00  0.00     0.031 C 
ATOM     34  C   UNL A   1      48.359  31.140  29.518  1.00  0.00     0.029 A 
ATOM     35  C   UNL A   1      47.556  32.267  29.423  1.00  0.00     0.049 A 
ATOM     36  H   UNL A   1      45.467  32.421  29.661  1.00  0.00     0.167 HD
ATOM     37  C   UNL A   1      47.164  34.710  29.092  1.00  0.00     0.074 A 
ATOM     38  C   UNL A   1      47.595  36.063  28.780  1.00  0.00     0.031 C 
ATOM     39  C   UNL A   1      47.963  33.619  29.121  1.00  0.00     0.034 A 
BRANCH  26  40
ATOM     40  C   UNL A   1      45.211  28.254  30.584  1.00  0.00     0.023 A 
ATOM     41  C   UNL A   1      45.586  27.797  31.863  1.00  0.00     0.012 A 
ATOM     42  C   UNL A   1      44.961  27.327  29.558  1.00  0.00     0.148 A 
ATOM     43  C   UNL A   1      45.737  26.432  32.106  1.00  0.00     0.002 A 
ATOM     44  C   UNL A   1      45.067  25.971  29.819  1.00  0.00     0.091 A 
ATOM     45  F   UNL A   1      44.650  27.795  28.340  1.00  0.00    -0.205 F 
ATOM     46  C   UNL A   1      45.467  25.519  31.088  1.00  0.00     0.022 A 
BRANCH  44  47
ATOM     47  S   UNL A   1      44.680  24.724  28.590  1.00  0.00     0.127 S 
ATOM     48  O   UNL A   1      45.824  24.835  27.685  1.00  0.00    -0.237 OA
ATOM     49  O   UNL A   1      44.654  23.504  29.397  1.00  0.00    -0.237 OA
ATOM     50  O   UNL A   1      43.397  25.104  28.016  1.00  0.00    -0.744 OA
ENDBRANCH  44  47
ENDBRANCH  26  40
BRANCH  27  51
ATOM     51  C   UNL A   1      43.792  37.979  28.598  1.00  0.00     0.023 A 
ATOM     52  C   UNL A   1      43.694  38.399  27.261  1.00  0.00     0.012 A 
ATOM     53  C   UNL A   1      43.541  38.917  29.626  1.00  0.00     0.148 A 
ATOM     54  C   UNL A   1      43.378  39.724  26.950  1.00  0.00     0.002 A 
ATOM     55  C   UNL A   1      43.224  40.238  29.307  1.00  0.00     0.091 A 
ATOM     56  F   UNL A   1      43.576  38.493  30.897  1.00  0.00    -0.205 F 
ATOM     57  C   UNL A   1      43.147  40.644  27.969  1.00  0.00     0.022 A 
BRANCH  55  58
ATOM     58  S   UNL A   1      42.905  41.493  30.553  1.00  0.00     0.127 S 
ATOM     59  O   UNL A   1      43.669  42.637  30.061  1.00  0.00    -0.237 OA
ATOM     60  O   UNL A   1      41.454  41.643  30.465  1.00  0.00    -0.237 OA
ATOM     61  O   UNL A   1      43.393  40.925  31.799  1.00  0.00    -0.744 OA
ENDBRANCH  55  58
ENDBRANCH  27  51
BRANCH  39  62
ATOM     62  C   UNL A   1      49.406  33.837  28.795  1.00  0.00     0.023 A 
ATOM     63  C   UNL A   1      50.337  34.021  29.833  1.00  0.00     0.012 A 
ATOM     64  C   UNL A   1      49.844  33.744  27.462  1.00  0.00     0.148 A 
ATOM     65  C   UNL A   1      51.693  34.122  29.544  1.00  0.00     0.002 A 
ATOM     66  C   UNL A   1      51.200  33.779  27.188  1.00  0.00     0.091 A 
ATOM     67  F   UNL A   1      48.925  33.600  26.494  1.00  0.00    -0.205 F 
ATOM     68  C   UNL A   1      52.126  33.980  28.227  1.00  0.00     0.022 A 
BRANCH  66  69
ATOM     69  S   UNL A   1      51.855  33.480  25.545  1.00  0.00     0.127 S 
ATOM     70  O   UNL A   1      53.239  33.114  25.839  1.00  0.00    -0.237 OA
ATOM     71  O   UNL A   1      51.015  32.376  25.081  1.00  0.00    -0.237 OA
ATOM     72  O   UNL A   1      51.686  34.725  24.808  1.00  0.00    -0.744 OA
ENDBRANCH  66  69
ENDBRANCH  39  62
ENDBRANCH  13  14
ENDBRANCH   6   8
ENDBRANCH   5   6
ENDBRANCH   4   5
ENDBRANCH   3   4
ENDBRANCH   2   3
ENDBRANCH   1   2
BRANCH   1  73
ATOM     73  C   UNL A   1      33.782  28.466  26.742  1.00  0.00     0.188 C 
BRANCH  73  74
ATOM     74  O   UNL A   1      33.601  27.213  26.090  1.00  0.00    -0.376 OA
BRANCH  74  75
ATOM     75  C   UNL A   1      32.312  26.616  26.175  1.00  0.00     0.202 C 
BRANCH  75  76
ATOM     76  C   UNL A   1      32.198  25.125  25.836  1.00  0.00     0.261 C 
BRANCH  76  77
ATOM     77  O   UNL A   1      32.918  24.276  26.738  1.00  0.00    -0.463 OA
BRANCH  77  78
ATOM     78  C   UNL A   1      32.880  22.919  26.509  1.00  0.00     0.310 C 
ATOM     79  O   UNL A   1      31.866  22.277  26.308  1.00  0.00    -0.252 OA
BRANCH  78  80
ATOM     80  C   UNL A   1      34.304  22.373  26.525  1.00  0.00     0.118 C 
ATOM     81  C   UNL A   1      34.232  21.053  25.755  1.00  0.00     0.019 C 
ATOM     82  C   UNL A   1      35.323  23.384  25.955  1.00  0.00     0.133 C 
ATOM     83  C   UNL A   1      35.569  20.581  25.253  1.00  0.00     0.022 C 
ATOM     84  N   UNL A   1      36.527  22.730  25.450  1.00  0.00    -0.356 N 
ATOM     85  C   UNL A   1      36.334  21.641  24.512  1.00  0.00     0.118 C 
BRANCH  84  86
ATOM     86  C   UNL A   1      37.836  23.020  25.789  1.00  0.00     0.133 A 
ATOM     87  C   UNL A   1      38.766  21.991  25.761  1.00  0.00     0.077 A 
ATOM     88  N   UNL A   1      38.178  24.240  26.233  1.00  0.00    -0.211 NA
ATOM     89  C   UNL A   1      40.041  22.209  26.244  1.00  0.00     0.095 A 
ATOM     90  C   UNL A   1      39.444  24.367  26.701  1.00  0.00     0.165 A 
ATOM     91  N   UNL A   1      40.395  23.413  26.723  1.00  0.00    -0.226 NA
BRANCH  89  92
ATOM     92  C   UNL A   1      41.054  21.134  26.222  1.00  0.00     0.089 A 
ATOM     93  C   UNL A   1      42.407  21.431  26.020  1.00  0.00     0.030 A 
ATOM     94  N   UNL A   1      40.615  19.852  26.345  1.00  0.00    -0.255 NA
ATOM     95  C   UNL A   1      43.325  20.397  25.872  1.00  0.00     0.004 A 
ATOM     96  C   UNL A   1      41.523  18.871  26.142  1.00  0.00     0.112 A 
ATOM     97  C   UNL A   1      42.873  19.088  25.913  1.00  0.00     0.020 A 
ENDBRANCH  89  92
BRANCH  90  98
ATOM     98  C   UNL A   1      39.856  25.653  27.254  1.00  0.00     0.055 A 
ATOM     99  C   UNL A   1      39.523  26.042  28.563  1.00  0.00     0.015 A 
ATOM    100  C   UNL A   1      40.681  26.502  26.509  1.00  0.00     0.134 A 
ATOM    101  C   UNL A   1      40.009  27.242  29.100  1.00  0.00     0.001 A 
ATOM    102  C   UNL A   1      41.164  27.700  27.035  1.00  0.00     0.040 A 
ATOM    103  F   UNL A   1      41.032  26.182  25.254  1.00  0.00    -0.206 F 
ATOM    104  C   UNL A   1      40.829  28.071  28.334  1.00  0.00     0.003 A 
ENDBRANCH  90  98
ENDBRANCH  84  86
ENDBRANCH  78  80
ENDBRANCH  77  78
ENDBRANCH  76  77
ENDBRANCH  75  76
ENDBRANCH  74  75
ENDBRANCH  73  74
ENDBRANCH   1  73
TORSDOF 23
ENDMDL
MODEL 3
REMARK VINA RESULT:      -9.0      2.016      2.353
REMARK SMILES O=C(OCCOCCOCCOC(=O)[C@H]1CCCN(c2cc(-c3ccccn3)nc(-c3ccccc3F)n2)C1)c1ccc(-c2c3nc(c(-c4cccc(S(=O)(=O)[O-])c4F)c4ccc([nH]4)c(-c4cccc(S(=O)(=O)[O-])c4F)c4nc(c(-c5cccc(S(=O)(=O)[O-])c5F)c5ccc2[nH]5)C=C4)C=C3)cc1
REMARK SMILES IDX 7 1 6 2 5 3 4 4 3 5 2 6 1 7 40 8 41 9 102 10 42 11 101 12
REMARK SMILES IDX 43 13 44 14 45 15 95 16 46 17 100 18 94 19 96 20 47 21 99 22
REMARK SMILES IDX 93 23 92 24 48 26 80 27 60 28 79 29 61 30 64 31 78 32 97 33
REMARK SMILES IDX 62 34 63 35 77 37 98 38 65 39 49 40 50 41 58 42 51 43 53 44
REMARK SMILES IDX 59 45 52 46 54 47 55 48 56 49 57 50 81 51 82 52 90 53 83 54
REMARK SMILES IDX 85 55 91 56 84 57 86 58 87 59 88 60 89 61 66 62 67 63 75 64
REMARK SMILES IDX 68 65 70 66 76 67 69 68 71 69 72 70 73 71 74 72 8 73 9 74
REMARK SMILES IDX 10 75 11 76 12 77 13 78 14 79 15 80 16 81 39 82 17 83 19 84
REMARK SMILES IDX 18 85 20 86 21 87 38 88 22 89 30 90 29 91 23 92 24 93 28 94
REMARK SMILES IDX 25 95 27 96 26 97 31 98 32 99 36 100 33 101 35 102 37 103
REMARK SMILES IDX 34 104
REMARK H PARENT 96 25 64 36
REMARK Flexibility Score: inf
ROOT
ATOM      1  C   UNL A   1      34.367  28.234  26.511  1.00  0.00     0.188 C 
ENDROOT
BRANCH   1   2
ATOM      2  O   UNL A   1      34.322  29.458  27.250  1.00  0.00    -0.376 OA
BRANCH   2   3
ATOM      3  C   UNL A   1      33.236  30.317  26.878  1.00  0.00     0.202 C 
BRANCH   3   4
ATOM      4  C   UNL A   1      33.128  31.680  27.607  1.00  0.00     0.261 C 
BRANCH   4   5
ATOM      5  O   UNL A   1      34.150  31.932  28.591  1.00  0.00    -0.460 OA
BRANCH   5   6
ATOM      6  C   UNL A   1      34.975  33.002  28.735  1.00  0.00     0.338 C 
ATOM      7  O   UNL A   1      34.754  34.000  28.051  1.00  0.00    -0.246 OA
BRANCH   6   8
ATOM      8  C   UNL A   1      36.141  33.026  29.670  1.00  0.00     0.060 A 
ATOM      9  C   UNL A   1      37.207  33.914  29.567  1.00  0.00     0.016 A 
ATOM     10  C   UNL A   1      36.157  32.118  30.741  1.00  0.00     0.016 A 
ATOM     11  C   UNL A   1      38.318  33.831  30.385  1.00  0.00     0.010 A 
ATOM     12  C   UNL A   1      37.235  32.090  31.638  1.00  0.00     0.010 A 
ATOM     13  C   UNL A   1      38.341  32.930  31.437  1.00  0.00    -0.014 A 
BRANCH  13  14
ATOM     14  C   UNL A   1      39.582  32.805  32.223  1.00  0.00     0.031 A 
ATOM     15  C   UNL A   1      40.721  32.051  31.629  1.00  0.00     0.074 A 
ATOM     16  C   UNL A   1      39.795  33.517  33.345  1.00  0.00     0.049 A 
ATOM     17  N   UNL A   1      41.906  31.865  32.132  1.00  0.00    -0.248 NA
ATOM     18  C   UNL A   1      40.552  31.546  30.255  1.00  0.00     0.031 C 
ATOM     19  C   UNL A   1      38.956  34.615  33.810  1.00  0.00     0.029 A 
ATOM     20  N   UNL A   1      40.784  33.451  34.296  1.00  0.00    -0.354 N 
ATOM     21  C   UNL A   1      42.637  31.250  31.134  1.00  0.00     0.074 A 
ATOM     22  C   UNL A   1      41.755  31.054  30.004  1.00  0.00     0.031 C 
ATOM     23  C   UNL A   1      39.411  35.046  34.993  1.00  0.00     0.029 A 
ATOM     24  C   UNL A   1      40.492  34.200  35.412  1.00  0.00     0.049 A 
ATOM     25  H   UNL A   1      41.609  32.925  34.189  1.00  0.00     0.167 HD
ATOM     26  C   UNL A   1      43.944  30.922  31.164  1.00  0.00     0.034 A 
ATOM     27  C   UNL A   1      41.000  34.204  36.655  1.00  0.00     0.034 A 
ATOM     28  C   UNL A   1      44.778  31.119  32.314  1.00  0.00     0.049 A 
ATOM     29  C   UNL A   1      42.320  33.537  36.800  1.00  0.00     0.074 A 
ATOM     30  C   UNL A   1      46.101  30.761  32.482  1.00  0.00     0.029 A 
ATOM     31  N   UNL A   1      44.361  31.700  33.508  1.00  0.00    -0.354 N 
ATOM     32  N   UNL A   1      42.998  32.920  35.866  1.00  0.00    -0.248 NA
ATOM     33  C   UNL A   1      43.016  33.681  38.079  1.00  0.00     0.031 C 
ATOM     34  C   UNL A   1      46.463  31.058  33.799  1.00  0.00     0.029 A 
ATOM     35  C   UNL A   1      45.387  31.661  34.435  1.00  0.00     0.049 A 
ATOM     36  H   UNL A   1      43.469  32.081  33.669  1.00  0.00     0.167 HD
ATOM     37  C   UNL A   1      44.246  32.692  36.401  1.00  0.00     0.074 A 
ATOM     38  C   UNL A   1      44.212  33.195  37.765  1.00  0.00     0.031 C 
ATOM     39  C   UNL A   1      45.329  32.161  35.788  1.00  0.00     0.034 A 
BRANCH  26  40
ATOM     40  C   UNL A   1      44.499  30.257  29.942  1.00  0.00     0.023 A 
ATOM     41  C   UNL A   1      44.603  28.853  29.870  1.00  0.00     0.012 A 
ATOM     42  C   UNL A   1      44.935  31.045  28.862  1.00  0.00     0.148 A 
ATOM     43  C   UNL A   1      45.161  28.245  28.745  1.00  0.00     0.002 A 
ATOM     44  C   UNL A   1      45.444  30.432  27.729  1.00  0.00     0.091 A 
ATOM     45  F   UNL A   1      44.864  32.378  28.979  1.00  0.00    -0.205 F 
ATOM     46  C   UNL A   1      45.572  29.034  27.671  1.00  0.00     0.022 A 
BRANCH  44  47
ATOM     47  S   UNL A   1      45.939  31.360  26.276  1.00  0.00     0.127 S 
ATOM     48  O   UNL A   1      47.019  32.190  26.809  1.00  0.00    -0.237 OA
ATOM     49  O   UNL A   1      46.374  30.295  25.373  1.00  0.00    -0.237 OA
ATOM     50  O   UNL A   1      44.757  32.089  25.839  1.00  0.00    -0.744 OA
ENDBRANCH  44  47
ENDBRANCH  26  40
BRANCH  27  51
ATOM     51  C   UNL A   1      40.324  34.941  37.762  1.00  0.00     0.023 A 
ATOM     52  C   UNL A   1      40.334  36.345  37.785  1.00  0.00     0.012 A 
ATOM     53  C   UNL A   1      39.606  34.250  38.765  1.00  0.00     0.148 A 
ATOM     54  C   UNL A   1      39.670  37.048  38.794  1.00  0.00     0.002 A 
ATOM     55  C   UNL A   1      38.943  34.958  39.767  1.00  0.00     0.091 A 
ATOM     56  F   UNL A   1      39.549  32.912  38.699  1.00  0.00    -0.205 F 
ATOM     57  C   UNL A   1      38.979  36.358  39.786  1.00  0.00     0.022 A 
BRANCH  55  58
ATOM     58  S   UNL A   1      38.022  34.154  41.085  1.00  0.00     0.127 S 
ATOM     59  O   UNL A   1      37.472  35.285  41.829  1.00  0.00    -0.237 OA
ATOM     60  O   UNL A   1      37.037  33.380  40.333  1.00  0.00    -0.237 OA
ATOM     61  O   UNL A   1      39.004  33.367  41.811  1.00  0.00    -0.744 OA
ENDBRANCH  55  58
ENDBRANCH  27  51
BRANCH  39  62
ATOM     62  C   UNL A   1      46.590  32.100  36.589  1.00  0.00     0.023 A 
ATOM     63  C   UNL A   1      47.479  33.190  36.578  1.00  0.00     0.012 A 
ATOM     64  C   UNL A   1      46.828  31.004  37.437  1.00  0.00     0.148 A 
ATOM     65  C   UNL A   1      48.601  33.183  37.398  1.00  0.00     0.002 A 
ATOM     66  C   UNL A   1      47.911  31.033  38.298  1.00  0.00     0.091 A 
ATOM     67  F   UNL A   1      45.976  29.967  37.398  1.00  0.00    -0.205 F 
ATOM     68  C   UNL A   1      48.807  32.117  38.272  1.00  0.00     0.022 A 
BRANCH  66  69
ATOM     69  S   UNL A   1      48.182  29.769  39.541  1.00  0.00     0.127 S 
ATOM     70  O   UNL A   1      46.930  29.817  40.293  1.00  0.00    -0.237 OA
ATOM     71  O   UNL A   1      48.358  28.570  38.720  1.00  0.00    -0.237 OA
ATOM     72  O   UNL A   1      49.367  30.176  40.284  1.00  0.00    -0.744 OA
ENDBRANCH  66  69
ENDBRANCH  39  62
ENDBRANCH  13  14
ENDBRANCH   6   8
ENDBRANCH   5   6
ENDBRANCH   4   5
ENDBRANCH   3   4
ENDBRANCH   2   3
ENDBRANCH   1   2
BRANCH   1  73
ATOM     73  C   UNL A   1      33.067  27.433  26.474  1.00  0.00     0.188 C 
BRANCH  73  74
ATOM     74  O   UNL A   1      33.163  26.059  26.111  1.00  0.00    -0.376 OA
BRANCH  74  75
ATOM     75  C   UNL A   1      31.942  25.345  25.947  1.00  0.00     0.202 C 
BRANCH  75  76
ATOM     76  C   UNL A   1      31.740  24.085  26.797  1.00  0.00     0.261 C 
BRANCH  76  77
ATOM     77  O   UNL A   1      32.938  23.321  26.986  1.00  0.00    -0.463 OA
BRANCH  77  78
ATOM     78  C   UNL A   1      33.159  22.256  26.144  1.00  0.00     0.310 C 
ATOM     79  O   UNL A   1      32.284  21.573  25.644  1.00  0.00    -0.252 OA
BRANCH  78  80
ATOM     80  C   UNL A   1      34.660  22.097  25.926  1.00  0.00     0.118 C 
ATOM     81  C   UNL A   1      34.812  21.736  24.447  1.00  0.00     0.019 C 
ATOM     82  C   UNL A   1      35.448  23.354  26.355  1.00  0.00     0.133 C 
ATOM     83  C   UNL A   1      36.194  21.984  23.911  1.00  0.00     0.022 C 
ATOM     84  N   UNL A   1      36.735  23.460  25.673  1.00  0.00    -0.356 N 
ATOM     85  C   UNL A   1      36.718  23.355  24.227  1.00  0.00     0.118 C 
BRANCH  84  86
ATOM     86  C   UNL A   1      37.976  23.622  26.259  1.00  0.00     0.133 A 
ATOM     87  C   UNL A   1      38.887  22.579  26.171  1.00  0.00     0.077 A 
ATOM     88  N   UNL A   1      38.258  24.717  26.984  1.00  0.00    -0.211 NA
ATOM     89  C   UNL A   1      40.072  22.644  26.877  1.00  0.00     0.095 A 
ATOM     90  C   UNL A   1      39.435  24.696  27.656  1.00  0.00     0.165 A 
ATOM     91  N   UNL A   1      40.359  23.716  27.634  1.00  0.00    -0.226 NA
BRANCH  89  92
ATOM     92  C   UNL A   1      41.063  21.552  26.798  1.00  0.00     0.089 A 
ATOM     93  C   UNL A   1      42.195  21.672  25.984  1.00  0.00     0.030 A 
ATOM     94  N   UNL A   1      40.802  20.413  27.495  1.00  0.00    -0.255 NA
ATOM     95  C   UNL A   1      43.047  20.584  25.822  1.00  0.00     0.004 A 
ATOM     96  C   UNL A   1      41.618  19.358  27.273  1.00  0.00     0.112 A 
ATOM     97  C   UNL A   1      42.743  19.394  26.463  1.00  0.00     0.020 A 
ENDBRANCH  89  92
BRANCH  90  98
ATOM     98  C   UNL A   1      39.769  25.831  28.510  1.00  0.00     0.055 A 
ATOM     99  C   UNL A   1      38.888  26.305  29.498  1.00  0.00     0.015 A 
ATOM    100  C   UNL A   1      41.031  26.426  28.420  1.00  0.00     0.134 A 
ATOM    101  C   UNL A   1      39.271  27.337  30.365  1.00  0.00     0.001 A 
ATOM    102  C   UNL A   1      41.417  27.458  29.276  1.00  0.00     0.040 A 
ATOM    103  F   UNL A   1      41.913  26.016  27.496  1.00  0.00    -0.206 F 
ATOM    104  C   UNL A   1      40.537  27.914  30.252  1.00  0.00     0.003 A 
ENDBRANCH  90  98
ENDBRANCH  84  86
ENDBRANCH  78  80
ENDBRANCH  77  78
ENDBRANCH  76  77
ENDBRANCH  75  76
ENDBRANCH  74  75
ENDBRANCH  73  74
ENDBRANCH   1  73
TORSDOF 23
ENDMDL
