MODEL 1
REMARK VINA RESULT:     -11.0      0.000      0.000
REMARK SMILES O=C(OCCOCCOCCOC(=O)[C@@H]1[C@@H](C(=O)NCc2ccccc2Br)[C@H]2C=C[C@@H]1O2)c1ccc(-c2c3nc(c(-c4cccc(S(=O)(=O)[O-])c4F)c4ccc([nH]4)c(-c4cccc(S(=O)(=O)[O-])c4F)c4nc(c(-c5cccc(S(=O)(=O)[O-])c5F)c5ccc2[nH]5)C=C4)C=C3)cc1
REMARK SMILES IDX 7 1 6 2 5 3 4 4 3 5 2 6 1 7 33 8 34 9 95 10 35 11 94 12
REMARK SMILES IDX 36 13 37 14 38 15 88 16 39 17 93 18 87 19 89 20 40 21 92 22
REMARK SMILES IDX 86 23 85 24 41 26 73 27 53 28 72 29 54 30 57 31 71 32 90 33
REMARK SMILES IDX 55 34 56 35 70 37 91 38 58 39 42 40 43 41 51 42 44 43 46 44
REMARK SMILES IDX 52 45 45 46 47 47 48 48 49 49 50 50 74 51 75 52 83 53 76 54
REMARK SMILES IDX 78 55 84 56 77 57 79 58 80 59 81 60 82 61 59 62 60 63 68 64
REMARK SMILES IDX 61 65 63 66 69 67 62 68 64 69 65 70 66 71 67 72 8 73 9 74
REMARK SMILES IDX 10 75 11 76 12 77 13 78 14 79 15 80 16 81 31 82 28 83 30 84
REMARK SMILES IDX 32 85 29 86 17 87 18 88 19 89 20 91 21 92 22 93 26 94 23 95
REMARK SMILES IDX 25 96 27 97 24 98
REMARK H PARENT 89 25 57 36 19 90
REMARK Flexibility Score: inf
ROOT
ATOM      1  C   UNL A   1      36.669  22.016  25.221  1.00  0.00     0.188 C 
ENDROOT
BRANCH   1   2
ATOM      2  O   UNL A   1      37.867  21.341  24.812  1.00  0.00    -0.376 OA
BRANCH   2   3
ATOM      3  C   UNL A   1      37.744  19.913  24.815  1.00  0.00     0.202 C 
BRANCH   3   4
ATOM      4  C   UNL A   1      38.695  19.131  25.741  1.00  0.00     0.261 C 
BRANCH   4   5
ATOM      5  O   UNL A   1      40.076  19.503  25.625  1.00  0.00    -0.460 OA
BRANCH   5   6
ATOM      6  C   UNL A   1      40.906  20.041  26.552  1.00  0.00     0.338 C 
ATOM      7  O   UNL A   1      41.586  19.261  27.219  1.00  0.00    -0.246 OA
BRANCH   6   8
ATOM      8  C   UNL A   1      41.028  21.511  26.843  1.00  0.00     0.060 A 
ATOM      9  C   UNL A   1      40.596  22.557  26.022  1.00  0.00     0.016 A 
ATOM     10  C   UNL A   1      41.622  21.858  28.072  1.00  0.00     0.016 A 
ATOM     11  C   UNL A   1      40.808  23.892  26.361  1.00  0.00     0.010 A 
ATOM     12  C   UNL A   1      41.830  23.194  28.430  1.00  0.00     0.010 A 
ATOM     13  C   UNL A   1      41.453  24.213  27.552  1.00  0.00    -0.014 A 
BRANCH  13  14
ATOM     14  C   UNL A   1      41.893  25.604  27.758  1.00  0.00     0.031 A 
ATOM     15  C   UNL A   1      43.227  25.980  27.231  1.00  0.00     0.074 A 
ATOM     16  C   UNL A   1      41.101  26.508  28.353  1.00  0.00     0.049 A 
ATOM     17  N   UNL A   1      43.825  27.131  27.292  1.00  0.00    -0.248 NA
ATOM     18  C   UNL A   1      43.984  24.924  26.538  1.00  0.00     0.031 C 
ATOM     19  C   UNL A   1      39.773  26.195  28.825  1.00  0.00     0.029 A 
ATOM     20  N   UNL A   1      41.253  27.828  28.676  1.00  0.00    -0.354 N 
ATOM     21  C   UNL A   1      45.061  26.927  26.709  1.00  0.00     0.074 A 
ATOM     22  C   UNL A   1      45.110  25.555  26.256  1.00  0.00     0.031 C 
ATOM     23  C   UNL A   1      39.215  27.267  29.395  1.00  0.00     0.029 A 
ATOM     24  C   UNL A   1      40.174  28.349  29.361  1.00  0.00     0.049 A 
ATOM     25  H   UNL A   1      42.052  28.353  28.443  1.00  0.00     0.167 HD
ATOM     26  C   UNL A   1      46.076  27.812  26.612  1.00  0.00     0.034 A 
ATOM     27  C   UNL A   1      39.986  29.555  29.928  1.00  0.00     0.034 A 
ATOM     28  C   UNL A   1      45.998  29.141  27.146  1.00  0.00     0.049 A 
ATOM     29  C   UNL A   1      41.121  30.519  29.806  1.00  0.00     0.074 A 
ATOM     30  C   UNL A   1      46.967  30.122  27.158  1.00  0.00     0.029 A 
ATOM     31  N   UNL A   1      44.886  29.660  27.807  1.00  0.00    -0.354 N 
ATOM     32  N   UNL A   1      42.278  30.328  29.216  1.00  0.00    -0.248 NA
ATOM     33  C   UNL A   1      40.948  31.847  30.399  1.00  0.00     0.031 C 
ATOM     34  C   UNL A   1      46.459  31.215  27.869  1.00  0.00     0.029 A 
ATOM     35  C   UNL A   1      45.150  30.941  28.246  1.00  0.00     0.049 A 
ATOM     36  H   UNL A   1      44.036  29.181  27.941  1.00  0.00     0.167 HD
ATOM     37  C   UNL A   1      42.976  31.512  29.354  1.00  0.00     0.074 A 
ATOM     38  C   UNL A   1      42.097  32.425  30.069  1.00  0.00     0.031 C 
ATOM     39  C   UNL A   1      44.228  31.813  28.939  1.00  0.00     0.034 A 
BRANCH  26  40
ATOM     40  C   UNL A   1      47.350  27.286  26.019  1.00  0.00     0.023 A 
ATOM     41  C   UNL A   1      48.352  26.735  26.846  1.00  0.00     0.012 A 
ATOM     42  C   UNL A   1      47.598  27.449  24.645  1.00  0.00     0.148 A 
ATOM     43  C   UNL A   1      49.605  26.419  26.322  1.00  0.00     0.002 A 
ATOM     44  C   UNL A   1      48.829  27.082  24.121  1.00  0.00     0.091 A 
ATOM     45  F   UNL A   1      46.650  28.016  23.885  1.00  0.00    -0.205 F 
ATOM     46  C   UNL A   1      49.841  26.588  24.960  1.00  0.00     0.022 A 
BRANCH  44  47
ATOM     47  S   UNL A   1      49.205  27.206  22.371  1.00  0.00     0.127 S 
ATOM     48  O   UNL A   1      48.769  28.569  22.071  1.00  0.00    -0.237 OA
ATOM     49  O   UNL A   1      50.655  27.012  22.359  1.00  0.00    -0.237 OA
ATOM     50  O   UNL A   1      48.445  26.149  21.721  1.00  0.00    -0.744 OA
ENDBRANCH  44  47
ENDBRANCH  26  40
BRANCH  27  51
ATOM     51  C   UNL A   1      38.697  29.874  30.613  1.00  0.00     0.023 A 
ATOM     52  C   UNL A   1      38.487  29.464  31.943  1.00  0.00     0.012 A 
ATOM     53  C   UNL A   1      37.719  30.680  29.989  1.00  0.00     0.148 A 
ATOM     54  C   UNL A   1      37.332  29.843  32.634  1.00  0.00     0.002 A 
ATOM     55  C   UNL A   1      36.597  31.099  30.699  1.00  0.00     0.091 A 
ATOM     56  F   UNL A   1      37.922  31.052  28.717  1.00  0.00    -0.205 F 
ATOM     57  C   UNL A   1      36.397  30.672  32.019  1.00  0.00     0.022 A 
BRANCH  55  58
ATOM     58  S   UNL A   1      35.403  32.259  30.018  1.00  0.00     0.127 S 
ATOM     59  O   UNL A   1      36.240  33.430  29.767  1.00  0.00    -0.237 OA
ATOM     60  O   UNL A   1      34.945  31.566  28.813  1.00  0.00    -0.237 OA
ATOM     61  O   UNL A   1      34.382  32.421  31.045  1.00  0.00    -0.744 OA
ENDBRANCH  55  58
ENDBRANCH  27  51
BRANCH  39  62
ATOM     62  C   UNL A   1      44.711  33.204  29.212  1.00  0.00     0.023 A 
ATOM     63  C   UNL A   1      45.445  33.483  30.378  1.00  0.00     0.012 A 
ATOM     64  C   UNL A   1      44.535  34.198  28.233  1.00  0.00     0.148 A 
ATOM     65  C   UNL A   1      45.994  34.747  30.570  1.00  0.00     0.002 A 
ATOM     66  C   UNL A   1      45.135  35.433  28.402  1.00  0.00     0.091 A 
ATOM     67  F   UNL A   1      43.808  33.901  27.146  1.00  0.00    -0.205 F 
ATOM     68  C   UNL A   1      45.856  35.715  29.576  1.00  0.00     0.022 A 
BRANCH  66  69
ATOM     69  S   UNL A   1      45.109  36.690  27.124  1.00  0.00     0.127 S 
ATOM     70  O   UNL A   1      43.693  36.716  26.763  1.00  0.00    -0.237 OA
ATOM     71  O   UNL A   1      45.579  37.872  27.848  1.00  0.00    -0.237 OA
ATOM     72  O   UNL A   1      46.006  36.223  26.076  1.00  0.00    -0.744 OA
ENDBRANCH  66  69
ENDBRANCH  39  62
ENDBRANCH  13  14
ENDBRANCH   6   8
ENDBRANCH   5   6
ENDBRANCH   4   5
ENDBRANCH   3   4
ENDBRANCH   2   3
ENDBRANCH   1   2
BRANCH   1  73
ATOM     73  C   UNL A   1      35.410  21.150  25.230  1.00  0.00     0.188 C 
BRANCH  73  74
ATOM     74  O   UNL A   1      34.523  21.265  24.120  1.00  0.00    -0.376 OA
BRANCH  74  75
ATOM     75  C   UNL A   1      33.397  22.117  24.263  1.00  0.00     0.202 C 
BRANCH  75  76
ATOM     76  C   UNL A   1      33.456  23.527  23.668  1.00  0.00     0.261 C 
BRANCH  76  77
ATOM     77  O   UNL A   1      32.508  24.456  24.199  1.00  0.00    -0.463 OA
BRANCH  77  78
ATOM     78  C   UNL A   1      32.956  25.295  25.172  1.00  0.00     0.312 C 
ATOM     79  O   UNL A   1      33.526  24.926  26.196  1.00  0.00    -0.252 OA
BRANCH  78  80
ATOM     80  C   UNL A   1      32.645  26.738  24.887  1.00  0.00     0.147 C 
ATOM     81  C   UNL A   1      33.823  27.553  24.275  1.00  0.00     0.128 C 
ATOM     82  C   UNL A   1      32.360  27.508  26.186  1.00  0.00     0.157 C 
ATOM     83  C   UNL A   1      33.896  28.732  25.265  1.00  0.00     0.155 C 
ATOM     84  C   UNL A   1      31.715  28.824  25.868  1.00  0.00     0.004 C 
ATOM     85  O   UNL A   1      33.697  27.988  26.505  1.00  0.00    -0.365 OA
ATOM     86  C   UNL A   1      32.665  29.578  25.297  1.00  0.00     0.004 C 
BRANCH  81  87
ATOM     87  C   UNL A   1      33.485  27.876  22.835  1.00  0.00     0.227 C 
ATOM     88  O   UNL A   1      34.248  28.517  22.114  1.00  0.00    -0.275 OA
ATOM     89  N   UNL A   1      32.296  27.512  22.289  1.00  0.00    -0.352 N 
ATOM     90  H   UNL A   1      32.276  27.557  21.305  1.00  0.00     0.163 HD
BRANCH  89  91
ATOM     91  C   UNL A   1      31.051  27.069  22.883  1.00  0.00     0.152 C 
BRANCH  91  92
ATOM     92  C   UNL A   1      29.990  28.136  22.722  1.00  0.00    -0.015 A 
ATOM     93  C   UNL A   1      30.351  29.344  22.089  1.00  0.00     0.007 A 
ATOM     94  C   UNL A   1      28.663  28.005  23.158  1.00  0.00     0.022 A 
ATOM     95  C   UNL A   1      29.434  30.374  21.886  1.00  0.00     0.000 A 
ATOM     96  C   UNL A   1      27.736  29.036  22.942  1.00  0.00     0.016 A 
ATOM     97  Br  UNL A   1      28.019  26.455  24.047  1.00  0.00    -0.050 Br
ATOM     98  C   UNL A   1      28.122  30.217  22.309  1.00  0.00     0.001 A 
ENDBRANCH  91  92
ENDBRANCH  89  91
ENDBRANCH  81  87
ENDBRANCH  78  80
ENDBRANCH  77  78
ENDBRANCH  76  77
ENDBRANCH  75  76
ENDBRANCH  74  75
ENDBRANCH  73  74
ENDBRANCH   1  73
TORSDOF 23
ENDMDL
MODEL 2
REMARK VINA RESULT:     -10.5      3.152      9.021
REMARK SMILES O=C(OCCOCCOCCOC(=O)[C@@H]1[C@@H](C(=O)NCc2ccccc2Br)[C@H]2C=C[C@@H]1O2)c1ccc(-c2c3nc(c(-c4cccc(S(=O)(=O)[O-])c4F)c4ccc([nH]4)c(-c4cccc(S(=O)(=O)[O-])c4F)c4nc(c(-c5cccc(S(=O)(=O)[O-])c5F)c5ccc2[nH]5)C=C4)C=C3)cc1
REMARK SMILES IDX 7 1 6 2 5 3 4 4 3 5 2 6 1 7 33 8 34 9 95 10 35 11 94 12
REMARK SMILES IDX 36 13 37 14 38 15 88 16 39 17 93 18 87 19 89 20 40 21 92 22
REMARK SMILES IDX 86 23 85 24 41 26 73 27 53 28 72 29 54 30 57 31 71 32 90 33
REMARK SMILES IDX 55 34 56 35 70 37 91 38 58 39 42 40 43 41 51 42 44 43 46 44
REMARK SMILES IDX 52 45 45 46 47 47 48 48 49 49 50 50 74 51 75 52 83 53 76 54
REMARK SMILES IDX 78 55 84 56 77 57 79 58 80 59 81 60 82 61 59 62 60 63 68 64
REMARK SMILES IDX 61 65 63 66 69 67 62 68 64 69 65 70 66 71 67 72 8 73 9 74
REMARK SMILES IDX 10 75 11 76 12 77 13 78 14 79 15 80 16 81 31 82 28 83 30 84
REMARK SMILES IDX 32 85 29 86 17 87 18 88 19 89 20 91 21 92 22 93 26 94 23 95
REMARK SMILES IDX 25 96 27 97 24 98
REMARK H PARENT 89 25 57 36 19 90
REMARK Flexibility Score: inf
ROOT
ATOM      1  C   UNL A   1      41.739  21.595  26.187  1.00  0.00     0.188 C 
ENDROOT
BRANCH   1   2
ATOM      2  O   UNL A   1      41.825  20.397  25.401  1.00  0.00    -0.376 OA
BRANCH   2   3
ATOM      3  C   UNL A   1      42.244  19.252  26.153  1.00  0.00     0.202 C 
BRANCH   3   4
ATOM      4  C   UNL A   1      43.483  18.494  25.639  1.00  0.00     0.261 C 
BRANCH   4   5
ATOM      5  O   UNL A   1      44.038  19.017  24.425  1.00  0.00    -0.460 OA
BRANCH   5   6
ATOM      6  C   UNL A   1      45.047  19.904  24.248  1.00  0.00     0.338 C 
ATOM      7  O   UNL A   1      46.055  19.502  23.667  1.00  0.00    -0.246 OA
BRANCH   6   8
ATOM      8  C   UNL A   1      45.034  21.326  24.738  1.00  0.00     0.060 A 
ATOM      9  C   UNL A   1      44.745  22.462  23.976  1.00  0.00     0.016 A 
ATOM     10  C   UNL A   1      45.328  21.521  26.101  1.00  0.00     0.016 A 
ATOM     11  C   UNL A   1      44.814  23.745  24.516  1.00  0.00     0.010 A 
ATOM     12  C   UNL A   1      45.389  22.802  26.659  1.00  0.00     0.010 A 
ATOM     13  C   UNL A   1      45.167  23.919  25.850  1.00  0.00    -0.014 A 
BRANCH  13  14
ATOM     14  C   UNL A   1      45.486  25.279  26.320  1.00  0.00     0.031 A 
ATOM     15  C   UNL A   1      44.375  26.081  26.886  1.00  0.00     0.074 A 
ATOM     16  C   UNL A   1      46.739  25.756  26.285  1.00  0.00     0.049 A 
ATOM     17  N   UNL A   1      44.409  27.292  27.357  1.00  0.00    -0.248 NA
ATOM     18  C   UNL A   1      43.053  25.435  26.935  1.00  0.00     0.031 C 
ATOM     19  C   UNL A   1      47.858  24.983  25.798  1.00  0.00     0.029 A 
ATOM     20  N   UNL A   1      47.304  26.951  26.635  1.00  0.00    -0.354 N 
ATOM     21  C   UNL A   1      43.101  27.584  27.695  1.00  0.00     0.074 A 
ATOM     22  C   UNL A   1      42.305  26.409  27.422  1.00  0.00     0.031 C 
ATOM     23  C   UNL A   1      48.982  25.704  25.853  1.00  0.00     0.029 A 
ATOM     24  C   UNL A   1      48.653  27.020  26.353  1.00  0.00     0.049 A 
ATOM     25  H   UNL A   1      46.798  27.688  27.048  1.00  0.00     0.167 HD
ATOM     26  C   UNL A   1      42.618  28.759  28.151  1.00  0.00     0.034 A 
ATOM     27  C   UNL A   1      49.526  28.039  26.454  1.00  0.00     0.034 A 
ATOM     28  C   UNL A   1      43.445  29.917  28.334  1.00  0.00     0.049 A 
ATOM     29  C   UNL A   1      48.970  29.329  26.963  1.00  0.00     0.074 A 
ATOM     30  C   UNL A   1      43.076  31.181  28.745  1.00  0.00     0.029 A 
ATOM     31  N   UNL A   1      44.813  29.957  28.074  1.00  0.00    -0.354 N 
ATOM     32  N   UNL A   1      47.733  29.586  27.319  1.00  0.00    -0.248 NA
ATOM     33  C   UNL A   1      49.893  30.457  27.100  1.00  0.00     0.031 C 
ATOM     34  C   UNL A   1      44.211  31.997  28.684  1.00  0.00     0.029 A 
ATOM     35  C   UNL A   1      45.302  31.229  28.297  1.00  0.00     0.049 A 
ATOM     36  H   UNL A   1      45.352  29.190  27.774  1.00  0.00     0.167 HD
ATOM     37  C   UNL A   1      47.722  30.904  27.733  1.00  0.00     0.074 A 
ATOM     38  C   UNL A   1      49.088  31.386  27.603  1.00  0.00     0.031 C 
ATOM     39  C   UNL A   1      46.679  31.648  28.170  1.00  0.00     0.034 A 
BRANCH  26  40
ATOM     40  C   UNL A   1      41.131  28.827  28.340  1.00  0.00     0.023 A 
ATOM     41  C   UNL A   1      40.281  29.086  27.244  1.00  0.00     0.012 A 
ATOM     42  C   UNL A   1      40.589  28.749  29.635  1.00  0.00     0.148 A 
ATOM     43  C   UNL A   1      38.923  29.333  27.447  1.00  0.00     0.002 A 
ATOM     44  C   UNL A   1      39.229  28.943  29.822  1.00  0.00     0.091 A 
ATOM     45  F   UNL A   1      41.421  28.546  30.666  1.00  0.00    -0.205 F 
ATOM     46  C   UNL A   1      38.397  29.257  28.735  1.00  0.00     0.022 A 
BRANCH  44  47
ATOM     47  S   UNL A   1      38.451  28.805  31.433  1.00  0.00     0.127 S 
ATOM     48  O   UNL A   1      37.041  28.998  31.098  1.00  0.00    -0.237 OA
ATOM     49  O   UNL A   1      38.804  27.440  31.824  1.00  0.00    -0.237 OA
ATOM     50  O   UNL A   1      39.046  29.847  32.257  1.00  0.00    -0.744 OA
ENDBRANCH  44  47
ENDBRANCH  26  40
BRANCH  27  51
ATOM     51  C   UNL A   1      50.961  27.843  26.086  1.00  0.00     0.023 A 
ATOM     52  C   UNL A   1      51.898  27.488  27.075  1.00  0.00     0.012 A 
ATOM     53  C   UNL A   1      51.384  27.899  24.739  1.00  0.00     0.148 A 
ATOM     54  C   UNL A   1      53.223  27.199  26.733  1.00  0.00     0.002 A 
ATOM     55  C   UNL A   1      52.690  27.558  24.399  1.00  0.00     0.091 A 
ATOM     56  F   UNL A   1      50.486  28.253  23.809  1.00  0.00    -0.205 F 
ATOM     57  C   UNL A   1      53.615  27.218  25.396  1.00  0.00     0.022 A 
BRANCH  55  58
ATOM     58  S   UNL A   1      53.242  27.446  22.690  1.00  0.00     0.127 S 
ATOM     59  O   UNL A   1      52.134  26.728  22.068  1.00  0.00    -0.237 OA
ATOM     60  O   UNL A   1      53.352  28.854  22.304  1.00  0.00    -0.237 OA
ATOM     61  O   UNL A   1      54.512  26.733  22.734  1.00  0.00    -0.744 OA
ENDBRANCH  55  58
ENDBRANCH  27  51
BRANCH  39  62
ATOM     62  C   UNL A   1      46.983  33.056  28.579  1.00  0.00     0.023 A 
ATOM     63  C   UNL A   1      47.343  33.346  29.907  1.00  0.00     0.012 A 
ATOM     64  C   UNL A   1      47.031  34.062  27.598  1.00  0.00     0.148 A 
ATOM     65  C   UNL A   1      47.740  34.633  30.256  1.00  0.00     0.002 A 
ATOM     66  C   UNL A   1      47.485  35.324  27.940  1.00  0.00     0.091 A 
ATOM     67  F   UNL A   1      46.656  33.752  26.348  1.00  0.00    -0.205 F 
ATOM     68  C   UNL A   1      47.830  35.615  29.271  1.00  0.00     0.022 A 
BRANCH  66  69
ATOM     69  S   UNL A   1      47.744  36.608  26.716  1.00  0.00     0.127 S 
ATOM     70  O   UNL A   1      47.939  37.786  27.559  1.00  0.00    -0.237 OA
ATOM     71  O   UNL A   1      48.948  36.137  26.030  1.00  0.00    -0.237 OA
ATOM     72  O   UNL A   1      46.544  36.631  25.890  1.00  0.00    -0.744 OA
ENDBRANCH  66  69
ENDBRANCH  39  62
ENDBRANCH  13  14
ENDBRANCH   6   8
ENDBRANCH   5   6
ENDBRANCH   4   5
ENDBRANCH   3   4
ENDBRANCH   2   3
ENDBRANCH   1   2
BRANCH   1  73
ATOM     73  C   UNL A   1      40.855  21.491  27.429  1.00  0.00     0.188 C 
BRANCH  73  74
ATOM     74  O   UNL A   1      39.549  22.058  27.357  1.00  0.00    -0.376 OA
BRANCH  74  75
ATOM     75  C   UNL A   1      39.208  22.778  26.181  1.00  0.00     0.202 C 
BRANCH  75  76
ATOM     76  C   UNL A   1      37.816  22.585  25.573  1.00  0.00     0.261 C 
BRANCH  76  77
ATOM     77  O   UNL A   1      37.167  23.781  25.137  1.00  0.00    -0.463 OA
BRANCH  77  78
ATOM     78  C   UNL A   1      36.031  23.626  24.405  1.00  0.00     0.312 C 
ATOM     79  O   UNL A   1      36.011  23.389  23.199  1.00  0.00    -0.252 OA
BRANCH  78  80
ATOM     80  C   UNL A   1      34.781  23.817  25.218  1.00  0.00     0.147 C 
ATOM     81  C   UNL A   1      33.609  22.858  24.853  1.00  0.00     0.128 C 
ATOM     82  C   UNL A   1      34.160  25.199  24.962  1.00  0.00     0.157 C 
ATOM     83  C   UNL A   1      32.480  23.876  24.597  1.00  0.00     0.155 C 
ATOM     84  C   UNL A   1      33.144  25.507  26.021  1.00  0.00     0.004 C 
ATOM     85  O   UNL A   1      33.252  24.879  23.870  1.00  0.00    -0.365 OA
ATOM     86  C   UNL A   1      32.109  24.688  25.795  1.00  0.00     0.004 C 
BRANCH  81  87
ATOM     87  C   UNL A   1      33.417  21.881  25.992  1.00  0.00     0.227 C 
ATOM     88  O   UNL A   1      33.998  22.011  27.069  1.00  0.00    -0.275 OA
ATOM     89  N   UNL A   1      32.627  20.784  25.858  1.00  0.00    -0.352 N 
ATOM     90  H   UNL A   1      32.385  20.356  26.712  1.00  0.00     0.163 HD
BRANCH  89  91
ATOM     91  C   UNL A   1      32.072  20.126  24.692  1.00  0.00     0.152 C 
BRANCH  91  92
ATOM     92  C   UNL A   1      32.580  18.702  24.610  1.00  0.00    -0.015 A 
ATOM     93  C   UNL A   1      32.918  18.045  25.810  1.00  0.00     0.007 A 
ATOM     94  C   UNL A   1      32.735  17.986  23.413  1.00  0.00     0.022 A 
ATOM     95  C   UNL A   1      33.380  16.730  25.827  1.00  0.00     0.000 A 
ATOM     96  C   UNL A   1      33.187  16.657  23.430  1.00  0.00     0.016 A 
ATOM     97  Br  UNL A   1      32.347  18.729  21.709  1.00  0.00    -0.050 Br
ATOM     98  C   UNL A   1      33.509  16.033  24.634  1.00  0.00     0.001 A 
ENDBRANCH  91  92
ENDBRANCH  89  91
ENDBRANCH  81  87
ENDBRANCH  78  80
ENDBRANCH  77  78
ENDBRANCH  76  77
ENDBRANCH  75  76
ENDBRANCH  74  75
ENDBRANCH  73  74
ENDBRANCH   1  73
TORSDOF 23
ENDMDL
MODEL 3
REMARK VINA RESULT:     -10.4      1.247      2.451
REMARK SMILES O=C(OCCOCCOCCOC(=O)[C@@H]1[C@@H](C(=O)NCc2ccccc2Br)[C@H]2C=C[C@@H]1O2)c1ccc(-c2c3nc(c(-c4cccc(S(=O)(=O)[O-])c4F)c4ccc([nH]4)c(-c4cccc(S(=O)(=O)[O-])c4F)c4nc(c(-c5cccc(S(=O)(=O)[O-])c5F)c5ccc2[nH]5)C=C4)C=C3)cc1
REMARK SMILES IDX 7 1 6 2 5 3 4 4 3 5 2 6 1 7 33 8 34 9 95 10 35 11 94 12
REMARK SMILES IDX 36 13 37 14 38 15 88 16 39 17 93 18 87 19 89 20 40 21 92 22
REMARK SMILES IDX 86 23 85 24 41 26 73 27 53 28 72 29 54 30 57 31 71 32 90 33
REMARK SMILES IDX 55 34 56 35 70 37 91 38 58 39 42 40 43 41 51 42 44 43 46 44
REMARK SMILES IDX 52 45 45 46 47 47 48 48 49 49 50 50 74 51 75 52 83 53 76 54
REMARK SMILES IDX 78 55 84 56 77 57 79 58 80 59 81 60 82 61 59 62 60 63 68 64
REMARK SMILES IDX 61 65 63 66 69 67 62 68 64 69 65 70 66 71 67 72 8 73 9 74
REMARK SMILES IDX 10 75 11 76 12 77 13 78 14 79 15 80 16 81 31 82 28 83 30 84
REMARK SMILES IDX 32 85 29 86 17 87 18 88 19 89 20 91 21 92 22 93 26 94 23 95
REMARK SMILES IDX 25 96 27 97 24 98
REMARK H PARENT 89 25 57 36 19 90
REMARK Flexibility Score: inf
ROOT
ATOM      1  C   UNL A   1      37.747  22.393  25.782  1.00  0.00     0.188 C 
ENDROOT
BRANCH   1   2
ATOM      2  O   UNL A   1      38.631  21.518  25.066  1.00  0.00    -0.376 OA
BRANCH   2   3
ATOM      3  C   UNL A   1      38.182  20.158  25.034  1.00  0.00     0.202 C 
BRANCH   3   4
ATOM      4  C   UNL A   1      39.029  19.124  25.800  1.00  0.00     0.261 C 
BRANCH   4   5
ATOM      5  O   UNL A   1      40.445  19.334  25.712  1.00  0.00    -0.460 OA
BRANCH   5   6
ATOM      6  C   UNL A   1      41.284  19.945  26.584  1.00  0.00     0.338 C 
ATOM      7  O   UNL A   1      41.971  19.221  27.305  1.00  0.00    -0.246 OA
BRANCH   6   8
ATOM      8  C   UNL A   1      41.408  21.433  26.755  1.00  0.00     0.060 A 
ATOM      9  C   UNL A   1      41.447  22.384  25.730  1.00  0.00     0.016 A 
ATOM     10  C   UNL A   1      41.476  21.908  28.079  1.00  0.00     0.016 A 
ATOM     11  C   UNL A   1      41.621  23.741  25.995  1.00  0.00     0.010 A 
ATOM     12  C   UNL A   1      41.638  23.269  28.359  1.00  0.00     0.010 A 
ATOM     13  C   UNL A   1      41.748  24.183  27.308  1.00  0.00    -0.014 A 
BRANCH  13  14
ATOM     14  C   UNL A   1      42.189  25.569  27.543  1.00  0.00     0.031 A 
ATOM     15  C   UNL A   1      43.510  25.964  26.996  1.00  0.00     0.074 A 
ATOM     16  C   UNL A   1      41.407  26.454  28.180  1.00  0.00     0.049 A 
ATOM     17  N   UNL A   1      44.106  27.116  27.076  1.00  0.00    -0.248 NA
ATOM     18  C   UNL A   1      44.254  24.930  26.258  1.00  0.00     0.031 C 
ATOM     19  C   UNL A   1      40.091  26.124  28.672  1.00  0.00     0.029 A 
ATOM     20  N   UNL A   1      41.563  27.765  28.534  1.00  0.00    -0.354 N 
ATOM     21  C   UNL A   1      45.329  26.931  26.460  1.00  0.00     0.074 A 
ATOM     22  C   UNL A   1      45.372  25.573  25.969  1.00  0.00     0.031 C 
ATOM     23  C   UNL A   1      39.543  27.179  29.283  1.00  0.00     0.029 A 
ATOM     24  C   UNL A   1      40.498  28.264  29.257  1.00  0.00     0.049 A 
ATOM     25  H   UNL A   1      42.355  28.299  28.298  1.00  0.00     0.167 HD
ATOM     26  C   UNL A   1      46.339  27.822  26.364  1.00  0.00     0.034 A 
ATOM     27  C   UNL A   1      40.319  29.453  29.861  1.00  0.00     0.034 A 
ATOM     28  C   UNL A   1      46.269  29.136  26.937  1.00  0.00     0.049 A 
ATOM     29  C   UNL A   1      41.448  30.425  29.740  1.00  0.00     0.074 A 
ATOM     30  C   UNL A   1      47.235  30.120  26.954  1.00  0.00     0.029 A 
ATOM     31  N   UNL A   1      45.171  29.633  27.635  1.00  0.00    -0.354 N 
ATOM     32  N   UNL A   1      42.592  30.254  29.120  1.00  0.00    -0.248 NA
ATOM     33  C   UNL A   1      41.285  31.735  30.372  1.00  0.00     0.031 C 
ATOM     34  C   UNL A   1      46.740  31.191  27.705  1.00  0.00     0.029 A 
ATOM     35  C   UNL A   1      45.441  30.903  28.104  1.00  0.00     0.049 A 
ATOM     36  H   UNL A   1      44.325  29.148  27.775  1.00  0.00     0.167 HD
ATOM     37  C   UNL A   1      43.290  31.436  29.274  1.00  0.00     0.074 A 
ATOM     38  C   UNL A   1      42.425  32.326  30.032  1.00  0.00     0.031 C 
ATOM     39  C   UNL A   1      44.532  31.753  28.839  1.00  0.00     0.034 A 
BRANCH  26  40
ATOM     40  C   UNL A   1      47.601  27.317  25.730  1.00  0.00     0.023 A 
ATOM     41  C   UNL A   1      48.630  26.763  26.521  1.00  0.00     0.012 A 
ATOM     42  C   UNL A   1      47.811  27.503  24.352  1.00  0.00     0.148 A 
ATOM     43  C   UNL A   1      49.871  26.466  25.959  1.00  0.00     0.002 A 
ATOM     44  C   UNL A   1      49.030  27.154  23.790  1.00  0.00     0.091 A 
ATOM     45  F   UNL A   1      46.836  28.072  23.627  1.00  0.00    -0.205 F 
ATOM     46  C   UNL A   1      50.068  26.657  24.593  1.00  0.00     0.022 A 
BRANCH  44  47
ATOM     47  S   UNL A   1      49.357  27.308  22.032  1.00  0.00     0.127 S 
ATOM     48  O   UNL A   1      48.395  26.361  21.469  1.00  0.00    -0.237 OA
ATOM     49  O   UNL A   1      49.043  28.716  21.788  1.00  0.00    -0.237 OA
ATOM     50  O   UNL A   1      50.758  26.958  21.853  1.00  0.00    -0.744 OA
ENDBRANCH  44  47
ENDBRANCH  26  40
BRANCH  27  51
ATOM     51  C   UNL A   1      39.045  29.750  30.582  1.00  0.00     0.023 A 
ATOM     52  C   UNL A   1      38.873  29.319  31.911  1.00  0.00     0.012 A 
ATOM     53  C   UNL A   1      38.042  30.554  29.994  1.00  0.00     0.148 A 
ATOM     54  C   UNL A   1      37.732  29.677  32.637  1.00  0.00     0.002 A 
ATOM     55  C   UNL A   1      36.935  30.951  30.738  1.00  0.00     0.091 A 
ATOM     56  F   UNL A   1      38.210  30.944  28.723  1.00  0.00    -0.205 F 
ATOM     57  C   UNL A   1      36.772  30.504  32.057  1.00  0.00     0.022 A 
BRANCH  55  58
ATOM     58  S   UNL A   1      35.712  32.107  30.104  1.00  0.00     0.127 S 
ATOM     59  O   UNL A   1      35.204  31.389  28.937  1.00  0.00    -0.237 OA
ATOM     60  O   UNL A   1      34.769  32.208  31.218  1.00  0.00    -0.237 OA
ATOM     61  O   UNL A   1      36.443  33.336  29.820  1.00  0.00    -0.744 OA
ENDBRANCH  55  58
ENDBRANCH  27  51
BRANCH  39  62
ATOM     62  C   UNL A   1      45.016  33.137  29.139  1.00  0.00     0.023 A 
ATOM     63  C   UNL A   1      45.635  33.420  30.371  1.00  0.00     0.012 A 
ATOM     64  C   UNL A   1      44.964  34.117  28.133  1.00  0.00     0.148 A 
ATOM     65  C   UNL A   1      46.191  34.675  30.599  1.00  0.00     0.002 A 
ATOM     66  C   UNL A   1      45.572  35.343  28.344  1.00  0.00     0.091 A 
ATOM     67  F   UNL A   1      44.344  33.817  26.982  1.00  0.00    -0.205 F 
ATOM     68  C   UNL A   1      46.177  35.628  29.581  1.00  0.00     0.022 A 
BRANCH  66  69
ATOM     69  S   UNL A   1      45.705  36.577  27.051  1.00  0.00     0.127 S 
ATOM     70  O   UNL A   1      46.105  35.764  25.904  1.00  0.00    -0.237 OA
ATOM     71  O   UNL A   1      44.339  37.099  26.987  1.00  0.00    -0.237 OA
ATOM     72  O   UNL A   1      46.700  37.537  27.506  1.00  0.00    -0.744 OA
ENDBRANCH  66  69
ENDBRANCH  39  62
ENDBRANCH  13  14
ENDBRANCH   6   8
ENDBRANCH   5   6
ENDBRANCH   4   5
ENDBRANCH   3   4
ENDBRANCH   2   3
ENDBRANCH   1   2
BRANCH   1  73
ATOM     73  C   UNL A   1      36.296  21.922  25.862  1.00  0.00     0.188 C 
BRANCH  73  74
ATOM     74  O   UNL A   1      35.306  22.726  25.224  1.00  0.00    -0.376 OA
BRANCH  74  75
ATOM     75  C   UNL A   1      34.599  23.659  26.028  1.00  0.00     0.202 C 
BRANCH  75  76
ATOM     76  C   UNL A   1      34.545  25.124  25.585  1.00  0.00     0.261 C 
BRANCH  76  77
ATOM     77  O   UNL A   1      33.808  25.996  26.445  1.00  0.00    -0.463 OA
BRANCH  77  78
ATOM     78  C   UNL A   1      33.869  27.326  26.161  1.00  0.00     0.312 C 
ATOM     79  O   UNL A   1      34.897  27.998  26.207  1.00  0.00    -0.252 OA
BRANCH  78  80
ATOM     80  C   UNL A   1      32.527  27.911  25.818  1.00  0.00     0.147 C 
ATOM     81  C   UNL A   1      31.778  27.196  24.656  1.00  0.00     0.128 C 
ATOM     82  C   UNL A   1      32.671  29.343  25.278  1.00  0.00     0.157 C 
ATOM     83  C   UNL A   1      31.496  28.390  23.723  1.00  0.00     0.155 C 
ATOM     84  C   UNL A   1      31.336  30.026  25.280  1.00  0.00     0.004 C 
ATOM     85  O   UNL A   1      32.780  29.074  23.851  1.00  0.00    -0.365 OA
ATOM     86  C   UNL A   1      30.612  29.436  24.321  1.00  0.00     0.004 C 
BRANCH  81  87
ATOM     87  C   UNL A   1      30.582  26.469  25.232  1.00  0.00     0.227 C 
ATOM     88  O   UNL A   1      30.314  26.503  26.432  1.00  0.00    -0.275 OA
ATOM     89  N   UNL A   1      29.776  25.703  24.451  1.00  0.00    -0.352 N 
ATOM     90  H   UNL A   1      28.913  25.476  24.867  1.00  0.00     0.163 HD
BRANCH  89  91
ATOM     91  C   UNL A   1      29.950  25.157  23.120  1.00  0.00     0.152 C 
BRANCH  91  92
ATOM     92  C   UNL A   1      31.079  24.148  23.117  1.00  0.00    -0.015 A 
ATOM     93  C   UNL A   1      30.958  23.010  23.940  1.00  0.00     0.007 A 
ATOM     94  C   UNL A   1      32.244  24.267  22.343  1.00  0.00     0.022 A 
ATOM     95  C   UNL A   1      31.943  22.025  23.987  1.00  0.00     0.000 A 
ATOM     96  C   UNL A   1      33.229  23.268  22.380  1.00  0.00     0.016 A 
ATOM     97  Br  UNL A   1      32.574  25.746  21.199  1.00  0.00    -0.050 Br
ATOM     98  C   UNL A   1      33.079  22.152  23.201  1.00  0.00     0.001 A 
ENDBRANCH  91  92
ENDBRANCH  89  91
ENDBRANCH  81  87
ENDBRANCH  78  80
ENDBRANCH  77  78
ENDBRANCH  76  77
ENDBRANCH  75  76
ENDBRANCH  74  75
ENDBRANCH  73  74
ENDBRANCH   1  73
TORSDOF 23
ENDMDL
