MODEL 1
REMARK VINA RESULT:      -9.8      0.000      0.000
REMARK SMILES Cc1nnc(SCC[C@H]2CCC[C@]2([NH2+]C(C)C)C(=O)OCCOCCOCCOC(=O)c2ccc(-c3c4nc(c(-c5cccc(S(=O)(=O)[O-])c5F)c5ccc([nH]5)c(-c5cccc(S(=O)(=O)[O-])c5F)c5nc(c(-c6cccc(S(=O)(=O)[O-])c6F)c6ccc3[nH]6)C=C5)C=C4)cc2)o1
REMARK SMILES IDX 24 1 23 2 22 3 21 4 20 5 18 6 19 7 13 8 9 9 10 10 11 11
REMARK SMILES IDX 12 12 8 13 7 14 6 15 5 16 1 17 2 18 3 19 95 20 4 21 14 22
REMARK SMILES IDX 15 25 16 26 17 27 25 28 26 29 27 30 28 31 29 32 30 33 31 34
REMARK SMILES IDX 32 35 33 36 94 37 34 38 93 39 35 40 36 41 37 42 87 43 38 44
REMARK SMILES IDX 92 45 86 46 88 47 39 48 91 49 85 50 84 51 40 53 72 54 52 55
REMARK SMILES IDX 71 56 53 57 56 58 70 59 89 60 54 61 55 62 69 64 90 65 57 66
REMARK SMILES IDX 41 67 42 68 50 69 43 70 45 71 51 72 44 73 46 74 47 75 48 76
REMARK SMILES IDX 49 77 73 78 74 79 82 80 75 81 77 82 83 83 76 84 78 85 79 86
REMARK SMILES IDX 80 87 81 88 58 89 59 90 67 91 60 92 62 93 68 94 61 95 63 96
REMARK SMILES IDX 64 97 65 98 66 99
REMARK H PARENT 14 23 14 24 88 52 56 63
REMARK Flexibility Score: inf
ROOT
ATOM      1  C   UNL A   1      32.467  29.799  25.561  1.00  0.00     0.188 C 
ENDROOT
BRANCH   1   2
ATOM      2  O   UNL A   1      32.770  29.194  24.311  1.00  0.00    -0.376 OA
BRANCH   2   3
ATOM      3  C   UNL A   1      31.731  28.966  23.373  1.00  0.00     0.202 C 
BRANCH   3   4
ATOM      4  C   UNL A   1      30.433  28.277  23.854  1.00  0.00     0.261 C 
BRANCH   4   5
ATOM      5  O   UNL A   1      30.153  26.909  23.426  1.00  0.00    -0.459 OA
BRANCH   5   6
ATOM      6  C   UNL A   1      30.400  26.016  24.409  1.00  0.00     0.368 C 
ATOM      7  O   UNL A   1      29.736  26.047  25.454  1.00  0.00    -0.245 OA
BRANCH   6   8
ATOM      8  C   UNL A   1      31.547  24.921  24.245  1.00  0.00     0.197 C 
ATOM      9  C   UNL A   1      31.915  23.600  25.024  1.00  0.00     0.063 C 
ATOM     10  C   UNL A   1      32.134  24.006  26.467  1.00  0.00     0.011 C 
ATOM     11  C   UNL A   1      32.881  25.299  26.301  1.00  0.00     0.008 C 
ATOM     12  C   UNL A   1      32.689  25.738  24.833  1.00  0.00     0.081 C 
BRANCH   9  13
ATOM     13  C   UNL A   1      33.285  22.835  24.569  1.00  0.00     0.022 C 
BRANCH  13  14
ATOM     14  C   UNL A   1      33.600  21.277  24.668  1.00  0.00     0.080 C 
BRANCH  14  15
ATOM     15  S   UNL A   1      32.429  19.991  25.347  1.00  0.00    -0.065 SA
BRANCH  15  16
ATOM     16  C   UNL A   1      33.002  18.443  24.698  1.00  0.00     0.276 A 
ATOM     17  C   UNL A   1      33.057  14.951  25.336  1.00  0.00     0.113 C 
ATOM     18  C   UNL A   1      33.300  16.303  24.744  1.00  0.00     0.214 A 
ATOM     19  N   UNL A   1      34.399  16.828  24.246  1.00  0.00    -0.112 NA
ATOM     20  O   UNL A   1      32.330  17.260  24.951  1.00  0.00    -0.416 OA
ATOM     21  N   UNL A   1      34.208  18.210  24.218  1.00  0.00    -0.101 NA
ENDBRANCH  15  16
ENDBRANCH  14  15
ENDBRANCH  13  14
ENDBRANCH   9  13
BRANCH   8  22
ATOM     22  N   UNL A   1      31.544  24.494  22.820  1.00  0.00    -0.330 N 
ATOM     23  H   UNL A   1      30.713  24.901  22.392  1.00  0.00     0.347 HD
ATOM     24  H   UNL A   1      31.594  23.477  22.882  1.00  0.00     0.347 HD
BRANCH  22  25
ATOM     25  C   UNL A   1      32.673  24.829  21.948  1.00  0.00     0.176 C 
ATOM     26  C   UNL A   1      33.271  23.604  21.265  1.00  0.00     0.075 C 
ATOM     27  C   UNL A   1      32.133  25.806  20.898  1.00  0.00     0.075 C 
ENDBRANCH  22  25
ENDBRANCH   8  22
ENDBRANCH   6   8
ENDBRANCH   5   6
ENDBRANCH   4   5
ENDBRANCH   3   4
ENDBRANCH   2   3
ENDBRANCH   1   2
BRANCH   1  28
ATOM     28  C   UNL A   1      33.588  30.006  26.575  1.00  0.00     0.188 C 
BRANCH  28  29
ATOM     29  O   UNL A   1      33.297  31.042  27.492  1.00  0.00    -0.376 OA
BRANCH  29  30
ATOM     30  C   UNL A   1      32.195  31.850  27.129  1.00  0.00     0.202 C 
BRANCH  30  31
ATOM     31  C   UNL A   1      32.568  33.335  27.051  1.00  0.00     0.261 C 
BRANCH  31  32
ATOM     32  O   UNL A   1      32.238  34.153  28.198  1.00  0.00    -0.460 OA
BRANCH  32  33
ATOM     33  C   UNL A   1      33.187  35.000  28.682  1.00  0.00     0.338 C 
ATOM     34  O   UNL A   1      33.084  36.200  28.771  1.00  0.00    -0.246 OA
BRANCH  33  35
ATOM     35  C   UNL A   1      34.340  34.201  29.218  1.00  0.00     0.060 A 
ATOM     36  C   UNL A   1      34.124  33.294  30.264  1.00  0.00     0.016 A 
ATOM     37  C   UNL A   1      35.640  34.366  28.728  1.00  0.00     0.016 A 
ATOM     38  C   UNL A   1      35.198  32.568  30.823  1.00  0.00     0.010 A 
ATOM     39  C   UNL A   1      36.712  33.650  29.296  1.00  0.00     0.010 A 
ATOM     40  C   UNL A   1      36.511  32.754  30.362  1.00  0.00    -0.014 A 
BRANCH  40  41
ATOM     41  C   UNL A   1      37.694  32.188  31.097  1.00  0.00     0.031 A 
ATOM     42  C   UNL A   1      38.386  30.997  30.524  1.00  0.00     0.074 A 
ATOM     43  C   UNL A   1      38.162  32.664  32.269  1.00  0.00     0.049 A 
ATOM     44  N   UNL A   1      39.417  30.352  30.994  1.00  0.00    -0.248 NA
ATOM     45  C   UNL A   1      37.863  30.482  29.251  1.00  0.00     0.031 C 
ATOM     46  C   UNL A   1      37.664  33.863  32.886  1.00  0.00     0.029 A 
ATOM     47  N   UNL A   1      39.125  32.243  33.156  1.00  0.00    -0.354 N 
ATOM     48  C   UNL A   1      39.682  29.357  30.072  1.00  0.00     0.074 A 
ATOM     49  C   UNL A   1      38.681  29.465  29.030  1.00  0.00     0.031 C 
ATOM     50  C   UNL A   1      38.247  34.085  34.069  1.00  0.00     0.029 A 
ATOM     51  C   UNL A   1      39.191  33.007  34.308  1.00  0.00     0.049 A 
ATOM     52  H   UNL A   1      39.711  31.470  32.987  1.00  0.00     0.167 HD
ATOM     53  C   UNL A   1      40.681  28.449  30.086  1.00  0.00     0.034 A 
ATOM     54  C   UNL A   1      39.925  32.873  35.431  1.00  0.00     0.034 A 
ATOM     55  C   UNL A   1      41.645  28.308  31.143  1.00  0.00     0.049 A 
ATOM     56  C   UNL A   1      40.947  31.778  35.477  1.00  0.00     0.074 A 
ATOM     57  C   UNL A   1      42.687  27.404  31.237  1.00  0.00     0.029 A 
ATOM     58  N   UNL A   1      41.668  29.063  32.308  1.00  0.00    -0.354 N 
ATOM     59  N   UNL A   1      41.245  30.906  34.545  1.00  0.00    -0.248 NA
ATOM     60  C   UNL A   1      41.772  31.676  36.688  1.00  0.00     0.031 C 
ATOM     61  C   UNL A   1      43.312  27.581  32.476  1.00  0.00     0.029 A 
ATOM     62  C   UNL A   1      42.689  28.627  33.138  1.00  0.00     0.049 A 
ATOM     63  H   UNL A   1      41.050  29.801  32.515  1.00  0.00     0.167 HD
ATOM     64  C   UNL A   1      42.328  30.190  35.029  1.00  0.00     0.074 A 
ATOM     65  C   UNL A   1      42.635  30.732  36.339  1.00  0.00     0.031 C 
ATOM     66  C   UNL A   1      43.006  29.180  34.432  1.00  0.00     0.034 A 
BRANCH  53  67
ATOM     67  C   UNL A   1      40.748  27.527  28.904  1.00  0.00     0.023 A 
ATOM     68  C   UNL A   1      39.900  26.402  28.847  1.00  0.00     0.012 A 
ATOM     69  C   UNL A   1      41.672  27.756  27.872  1.00  0.00     0.148 A 
ATOM     70  C   UNL A   1      40.005  25.490  27.798  1.00  0.00     0.002 A 
ATOM     71  C   UNL A   1      41.739  26.870  26.806  1.00  0.00     0.091 A 
ATOM     72  F   UNL A   1      42.492  28.813  27.969  1.00  0.00    -0.205 F 
ATOM     73  C   UNL A   1      40.918  25.730  26.775  1.00  0.00     0.022 A 
BRANCH  71  74
ATOM     74  S   UNL A   1      42.835  27.128  25.410  1.00  0.00     0.127 S 
ATOM     75  O   UNL A   1      44.118  27.342  26.080  1.00  0.00    -0.237 OA
ATOM     76  O   UNL A   1      42.724  25.856  24.696  1.00  0.00    -0.237 OA
ATOM     77  O   UNL A   1      42.306  28.277  24.691  1.00  0.00    -0.744 OA
ENDBRANCH  71  74
ENDBRANCH  53  67
BRANCH  54  78
ATOM     78  C   UNL A   1      39.778  33.840  36.562  1.00  0.00     0.023 A 
ATOM     79  C   UNL A   1      40.185  35.177  36.388  1.00  0.00     0.012 A 
ATOM     80  C   UNL A   1      39.226  33.451  37.799  1.00  0.00     0.148 A 
ATOM     81  C   UNL A   1      40.072  36.100  37.431  1.00  0.00     0.002 A 
ATOM     82  C   UNL A   1      39.078  34.384  38.822  1.00  0.00     0.091 A 
ATOM     83  F   UNL A   1      38.855  32.171  37.954  1.00  0.00    -0.205 F 
ATOM     84  C   UNL A   1      39.512  35.706  38.643  1.00  0.00     0.022 A 
BRANCH  82  85
ATOM     85  S   UNL A   1      38.290  33.995  40.391  1.00  0.00     0.127 S 
ATOM     86  O   UNL A   1      37.026  33.407  39.954  1.00  0.00    -0.237 OA
ATOM     87  O   UNL A   1      39.236  33.047  40.979  1.00  0.00    -0.237 OA
ATOM     88  O   UNL A   1      38.181  35.262  41.102  1.00  0.00    -0.744 OA
ENDBRANCH  82  85
ENDBRANCH  54  78
BRANCH  66  89
ATOM     89  C   UNL A   1      44.174  28.598  35.182  1.00  0.00     0.023 A 
ATOM     90  C   UNL A   1      45.468  29.122  34.990  1.00  0.00     0.012 A 
ATOM     91  C   UNL A   1      43.976  27.565  36.119  1.00  0.00     0.148 A 
ATOM     92  C   UNL A   1      46.552  28.603  35.696  1.00  0.00     0.002 A 
ATOM     93  C   UNL A   1      45.051  27.092  36.859  1.00  0.00     0.091 A 
ATOM     94  F   UNL A   1      42.740  27.065  36.268  1.00  0.00    -0.205 F 
ATOM     95  C   UNL A   1      46.343  27.599  36.639  1.00  0.00     0.022 A 
BRANCH  93  96
ATOM     96  S   UNL A   1      44.862  25.874  38.164  1.00  0.00     0.127 S 
ATOM     97  O   UNL A   1      43.881  26.521  39.036  1.00  0.00    -0.237 OA
ATOM     98  O   UNL A   1      44.355  24.714  37.432  1.00  0.00    -0.237 OA
ATOM     99  O   UNL A   1      46.186  25.694  38.743  1.00  0.00    -0.744 OA
ENDBRANCH  93  96
ENDBRANCH  66  89
ENDBRANCH  40  41
ENDBRANCH  33  35
ENDBRANCH  32  33
ENDBRANCH  31  32
ENDBRANCH  30  31
ENDBRANCH  29  30
ENDBRANCH  28  29
ENDBRANCH   1  28
TORSDOF 26
ENDMDL
MODEL 2
REMARK VINA RESULT:      -9.7      1.473      2.090
REMARK SMILES Cc1nnc(SCC[C@H]2CCC[C@]2([NH2+]C(C)C)C(=O)OCCOCCOCCOC(=O)c2ccc(-c3c4nc(c(-c5cccc(S(=O)(=O)[O-])c5F)c5ccc([nH]5)c(-c5cccc(S(=O)(=O)[O-])c5F)c5nc(c(-c6cccc(S(=O)(=O)[O-])c6F)c6ccc3[nH]6)C=C5)C=C4)cc2)o1
REMARK SMILES IDX 24 1 23 2 22 3 21 4 20 5 18 6 19 7 13 8 9 9 10 10 11 11
REMARK SMILES IDX 12 12 8 13 7 14 6 15 5 16 1 17 2 18 3 19 95 20 4 21 14 22
REMARK SMILES IDX 15 25 16 26 17 27 25 28 26 29 27 30 28 31 29 32 30 33 31 34
REMARK SMILES IDX 32 35 33 36 94 37 34 38 93 39 35 40 36 41 37 42 87 43 38 44
REMARK SMILES IDX 92 45 86 46 88 47 39 48 91 49 85 50 84 51 40 53 72 54 52 55
REMARK SMILES IDX 71 56 53 57 56 58 70 59 89 60 54 61 55 62 69 64 90 65 57 66
REMARK SMILES IDX 41 67 42 68 50 69 43 70 45 71 51 72 44 73 46 74 47 75 48 76
REMARK SMILES IDX 49 77 73 78 74 79 82 80 75 81 77 82 83 83 76 84 78 85 79 86
REMARK SMILES IDX 80 87 81 88 58 89 59 90 67 91 60 92 62 93 68 94 61 95 63 96
REMARK SMILES IDX 64 97 65 98 66 99
REMARK H PARENT 14 23 14 24 88 52 56 63
REMARK Flexibility Score: inf
ROOT
ATOM      1  C   UNL A   1      33.157  29.905  26.578  1.00  0.00     0.188 C 
ENDROOT
BRANCH   1   2
ATOM      2  O   UNL A   1      33.439  29.143  25.412  1.00  0.00    -0.376 OA
BRANCH   2   3
ATOM      3  C   UNL A   1      32.471  29.062  24.378  1.00  0.00     0.202 C 
BRANCH   3   4
ATOM      4  C   UNL A   1      31.083  28.465  24.703  1.00  0.00     0.261 C 
BRANCH   4   5
ATOM      5  O   UNL A   1      31.003  27.236  25.487  1.00  0.00    -0.459 OA
BRANCH   5   6
ATOM      6  C   UNL A   1      30.442  26.228  24.783  1.00  0.00     0.368 C 
ATOM      7  O   UNL A   1      29.242  26.277  24.482  1.00  0.00    -0.245 OA
BRANCH   6   8
ATOM      8  C   UNL A   1      31.307  24.965  24.339  1.00  0.00     0.197 C 
ATOM      9  C   UNL A   1      32.856  24.682  24.243  1.00  0.00     0.063 C 
ATOM     10  C   UNL A   1      33.423  25.737  23.317  1.00  0.00     0.011 C 
ATOM     11  C   UNL A   1      32.362  25.804  22.257  1.00  0.00     0.008 C 
ATOM     12  C   UNL A   1      31.110  25.107  22.835  1.00  0.00     0.081 C 
BRANCH   9  13
ATOM     13  C   UNL A   1      33.303  23.247  23.602  1.00  0.00     0.022 C 
BRANCH  13  14
ATOM     14  C   UNL A   1      34.689  22.489  23.804  1.00  0.00     0.080 C 
BRANCH  14  15
ATOM     15  S   UNL A   1      35.106  21.393  25.257  1.00  0.00    -0.065 SA
BRANCH  15  16
ATOM     16  C   UNL A   1      34.706  19.745  24.733  1.00  0.00     0.276 A 
ATOM     17  C   UNL A   1      32.378  17.108  25.212  1.00  0.00     0.113 C 
ATOM     18  C   UNL A   1      33.559  17.915  24.771  1.00  0.00     0.214 A 
ATOM     19  N   UNL A   1      34.821  17.568  24.632  1.00  0.00    -0.112 NA
ATOM     20  O   UNL A   1      33.402  19.283  24.733  1.00  0.00    -0.416 OA
ATOM     21  N   UNL A   1      35.562  18.750  24.609  1.00  0.00    -0.101 NA
ENDBRANCH  15  16
ENDBRANCH  14  15
ENDBRANCH  13  14
ENDBRANCH   9  13
BRANCH   8  22
ATOM     22  N   UNL A   1      30.785  23.790  25.088  1.00  0.00    -0.330 N 
ATOM     23  H   UNL A   1      31.389  23.002  24.858  1.00  0.00     0.347 HD
ATOM     24  H   UNL A   1      29.810  23.741  24.790  1.00  0.00     0.347 HD
BRANCH  22  25
ATOM     25  C   UNL A   1      30.685  23.832  26.548  1.00  0.00     0.176 C 
ATOM     26  C   UNL A   1      29.629  22.876  27.092  1.00  0.00     0.075 C 
ATOM     27  C   UNL A   1      32.067  23.452  27.088  1.00  0.00     0.075 C 
ENDBRANCH  22  25
ENDBRANCH   8  22
ENDBRANCH   6   8
ENDBRANCH   5   6
ENDBRANCH   4   5
ENDBRANCH   3   4
ENDBRANCH   2   3
ENDBRANCH   1   2
BRANCH   1  28
ATOM     28  C   UNL A   1      34.317  30.412  27.430  1.00  0.00     0.188 C 
BRANCH  28  29
ATOM     29  O   UNL A   1      34.127  31.747  27.855  1.00  0.00    -0.376 OA
BRANCH  29  30
ATOM     30  C   UNL A   1      32.837  32.264  27.596  1.00  0.00     0.202 C 
BRANCH  30  31
ATOM     31  C   UNL A   1      32.843  33.789  27.447  1.00  0.00     0.261 C 
BRANCH  31  32
ATOM     32  O   UNL A   1      32.407  34.560  28.591  1.00  0.00    -0.460 OA
BRANCH  32  33
ATOM     33  C   UNL A   1      33.316  35.356  29.219  1.00  0.00     0.338 C 
ATOM     34  O   UNL A   1      33.189  36.537  29.435  1.00  0.00    -0.246 OA
BRANCH  33  35
ATOM     35  C   UNL A   1      34.450  34.512  29.725  1.00  0.00     0.060 A 
ATOM     36  C   UNL A   1      34.236  33.642  30.803  1.00  0.00     0.016 A 
ATOM     37  C   UNL A   1      35.734  34.599  29.176  1.00  0.00     0.016 A 
ATOM     38  C   UNL A   1      35.296  32.876  31.334  1.00  0.00     0.010 A 
ATOM     39  C   UNL A   1      36.793  33.843  29.716  1.00  0.00     0.010 A 
ATOM     40  C   UNL A   1      36.595  32.984  30.812  1.00  0.00    -0.014 A 
BRANCH  40  41
ATOM     41  C   UNL A   1      37.779  32.377  31.510  1.00  0.00     0.031 A 
ATOM     42  C   UNL A   1      38.439  31.190  30.892  1.00  0.00     0.074 A 
ATOM     43  C   UNL A   1      38.276  32.810  32.687  1.00  0.00     0.049 A 
ATOM     44  N   UNL A   1      39.466  30.513  31.326  1.00  0.00    -0.248 NA
ATOM     45  C   UNL A   1      37.885  30.721  29.615  1.00  0.00     0.031 C 
ATOM     46  C   UNL A   1      37.810  34.000  33.346  1.00  0.00     0.029 A 
ATOM     47  N   UNL A   1      39.246  32.347  33.544  1.00  0.00    -0.354 N 
ATOM     48  C   UNL A   1      39.697  29.540  30.372  1.00  0.00     0.074 A 
ATOM     49  C   UNL A   1      38.680  29.695  29.351  1.00  0.00     0.031 C 
ATOM     50  C   UNL A   1      38.418  34.179  34.524  1.00  0.00     0.029 A 
ATOM     51  C   UNL A   1      39.346  33.077  34.716  1.00  0.00     0.049 A 
ATOM     52  H   UNL A   1      39.814  31.569  33.344  1.00  0.00     0.167 HD
ATOM     53  C   UNL A   1      40.679  28.614  30.343  1.00  0.00     0.034 A 
ATOM     54  C   UNL A   1      40.096  32.899  35.822  1.00  0.00     0.034 A 
ATOM     55  C   UNL A   1      41.658  28.427  31.379  1.00  0.00     0.049 A 
ATOM     56  C   UNL A   1      41.098  31.784  35.819  1.00  0.00     0.074 A 
ATOM     57  C   UNL A   1      42.684  27.501  31.429  1.00  0.00     0.029 A 
ATOM     58  N   UNL A   1      41.715  29.148  32.564  1.00  0.00    -0.354 N 
ATOM     59  N   UNL A   1      41.365  30.934  34.858  1.00  0.00    -0.248 NA
ATOM     60  C   UNL A   1      41.942  31.634  37.012  1.00  0.00     0.031 C 
ATOM     61  C   UNL A   1      43.334  27.632  32.661  1.00  0.00     0.029 A 
ATOM     62  C   UNL A   1      42.742  28.670  33.363  1.00  0.00     0.049 A 
ATOM     63  H   UNL A   1      41.114  29.890  32.802  1.00  0.00     0.167 HD
ATOM     64  C   UNL A   1      42.442  30.185  35.303  1.00  0.00     0.074 A 
ATOM     65  C   UNL A   1      42.782  30.684  36.622  1.00  0.00     0.031 C 
ATOM     66  C   UNL A   1      43.091  29.180  34.666  1.00  0.00     0.034 A 
BRANCH  53  67
ATOM     67  C   UNL A   1      40.708  27.725  29.135  1.00  0.00     0.023 A 
ATOM     68  C   UNL A   1      39.909  26.564  29.102  1.00  0.00     0.012 A 
ATOM     69  C   UNL A   1      41.552  28.021  28.051  1.00  0.00     0.148 A 
ATOM     70  C   UNL A   1      39.985  25.683  28.025  1.00  0.00     0.002 A 
ATOM     71  C   UNL A   1      41.587  27.165  26.960  1.00  0.00     0.091 A 
ATOM     72  F   UNL A   1      42.329  29.111  28.124  1.00  0.00    -0.205 F 
ATOM     73  C   UNL A   1      40.818  25.989  26.951  1.00  0.00     0.022 A 
BRANCH  71  74
ATOM     74  S   UNL A   1      42.577  27.506  25.504  1.00  0.00     0.127 S 
ATOM     75  O   UNL A   1      43.924  27.560  26.071  1.00  0.00    -0.237 OA
ATOM     76  O   UNL A   1      42.311  26.332  24.672  1.00  0.00    -0.237 OA
ATOM     77  O   UNL A   1      42.076  28.760  24.962  1.00  0.00    -0.744 OA
ENDBRANCH  71  74
ENDBRANCH  53  67
BRANCH  54  78
ATOM     78  C   UNL A   1      39.987  33.836  36.981  1.00  0.00     0.023 A 
ATOM     79  C   UNL A   1      38.852  33.780  37.814  1.00  0.00     0.012 A 
ATOM     80  C   UNL A   1      41.002  34.770  37.273  1.00  0.00     0.148 A 
ATOM     81  C   UNL A   1      38.717  34.652  38.898  1.00  0.00     0.002 A 
ATOM     82  C   UNL A   1      40.881  35.610  38.378  1.00  0.00     0.091 A 
ATOM     83  F   UNL A   1      42.069  34.821  36.464  1.00  0.00    -0.205 F 
ATOM     84  C   UNL A   1      39.733  35.560  39.184  1.00  0.00     0.022 A 
BRANCH  82  85
ATOM     85  S   UNL A   1      42.173  36.755  38.879  1.00  0.00     0.127 S 
ATOM     86  O   UNL A   1      43.171  35.851  39.447  1.00  0.00    -0.237 OA
ATOM     87  O   UNL A   1      42.551  37.362  37.603  1.00  0.00    -0.237 OA
ATOM     88  O   UNL A   1      41.545  37.670  39.822  1.00  0.00    -0.744 OA
ENDBRANCH  82  85
ENDBRANCH  54  78
BRANCH  66  89
ATOM     89  C   UNL A   1      44.261  28.556  35.379  1.00  0.00     0.023 A 
ATOM     90  C   UNL A   1      45.571  28.996  35.105  1.00  0.00     0.012 A 
ATOM     91  C   UNL A   1      44.052  27.570  36.363  1.00  0.00     0.148 A 
ATOM     92  C   UNL A   1      46.658  28.439  35.775  1.00  0.00     0.002 A 
ATOM     93  C   UNL A   1      45.135  27.060  37.066  1.00  0.00     0.091 A 
ATOM     94  F   UNL A   1      42.799  27.149  36.591  1.00  0.00    -0.205 F 
ATOM     95  C   UNL A   1      46.441  27.482  36.764  1.00  0.00     0.022 A 
BRANCH  93  96
ATOM     96  S   UNL A   1      44.943  25.901  38.424  1.00  0.00     0.127 S 
ATOM     97  O   UNL A   1      44.593  24.669  37.717  1.00  0.00    -0.237 OA
ATOM     98  O   UNL A   1      46.278  25.903  39.021  1.00  0.00    -0.237 OA
ATOM     99  O   UNL A   1      43.897  26.448  39.277  1.00  0.00    -0.744 OA
ENDBRANCH  93  96
ENDBRANCH  66  89
ENDBRANCH  40  41
ENDBRANCH  33  35
ENDBRANCH  32  33
ENDBRANCH  31  32
ENDBRANCH  30  31
ENDBRANCH  29  30
ENDBRANCH  28  29
ENDBRANCH   1  28
TORSDOF 26
ENDMDL
MODEL 3
REMARK VINA RESULT:      -9.7      1.596      7.622
REMARK SMILES Cc1nnc(SCC[C@H]2CCC[C@]2([NH2+]C(C)C)C(=O)OCCOCCOCCOC(=O)c2ccc(-c3c4nc(c(-c5cccc(S(=O)(=O)[O-])c5F)c5ccc([nH]5)c(-c5cccc(S(=O)(=O)[O-])c5F)c5nc(c(-c6cccc(S(=O)(=O)[O-])c6F)c6ccc3[nH]6)C=C5)C=C4)cc2)o1
REMARK SMILES IDX 24 1 23 2 22 3 21 4 20 5 18 6 19 7 13 8 9 9 10 10 11 11
REMARK SMILES IDX 12 12 8 13 7 14 6 15 5 16 1 17 2 18 3 19 95 20 4 21 14 22
REMARK SMILES IDX 15 25 16 26 17 27 25 28 26 29 27 30 28 31 29 32 30 33 31 34
REMARK SMILES IDX 32 35 33 36 94 37 34 38 93 39 35 40 36 41 37 42 87 43 38 44
REMARK SMILES IDX 92 45 86 46 88 47 39 48 91 49 85 50 84 51 40 53 72 54 52 55
REMARK SMILES IDX 71 56 53 57 56 58 70 59 89 60 54 61 55 62 69 64 90 65 57 66
REMARK SMILES IDX 41 67 42 68 50 69 43 70 45 71 51 72 44 73 46 74 47 75 48 76
REMARK SMILES IDX 49 77 73 78 74 79 82 80 75 81 77 82 83 83 76 84 78 85 79 86
REMARK SMILES IDX 80 87 81 88 58 89 59 90 67 91 60 92 62 93 68 94 61 95 63 96
REMARK SMILES IDX 64 97 65 98 66 99
REMARK H PARENT 14 23 14 24 88 52 56 63
REMARK Flexibility Score: inf
ROOT
ATOM      1  C   UNL A   1      33.043  29.785  26.264  1.00  0.00     0.188 C 
ENDROOT
BRANCH   1   2
ATOM      2  O   UNL A   1      33.432  29.201  25.028  1.00  0.00    -0.376 OA
BRANCH   2   3
ATOM      3  C   UNL A   1      32.541  29.236  23.925  1.00  0.00     0.202 C 
BRANCH   3   4
ATOM      4  C   UNL A   1      31.142  28.595  24.078  1.00  0.00     0.261 C 
BRANCH   4   5
ATOM      5  O   UNL A   1      31.005  27.364  24.852  1.00  0.00    -0.459 OA
BRANCH   5   6
ATOM      6  C   UNL A   1      30.522  26.350  24.100  1.00  0.00     0.368 C 
ATOM      7  O   UNL A   1      29.376  26.418  23.633  1.00  0.00    -0.245 OA
BRANCH   6   8
ATOM      8  C   UNL A   1      31.408  25.057  23.811  1.00  0.00     0.197 C 
ATOM      9  C   UNL A   1      32.936  24.717  24.000  1.00  0.00     0.063 C 
ATOM     10  C   UNL A   1      33.704  25.753  23.207  1.00  0.00     0.011 C 
ATOM     11  C   UNL A   1      32.860  25.864  21.969  1.00  0.00     0.008 C 
ATOM     12  C   UNL A   1      31.499  25.212  22.298  1.00  0.00     0.081 C 
BRANCH   9  13
ATOM     13  C   UNL A   1      33.442  23.268  23.438  1.00  0.00     0.022 C 
BRANCH  13  14
ATOM     14  C   UNL A   1      34.214  22.134  24.247  1.00  0.00     0.080 C 
BRANCH  14  15
ATOM     15  S   UNL A   1      33.574  21.299  25.790  1.00  0.00    -0.065 SA
BRANCH  15  16
ATOM     16  C   UNL A   1      32.816  19.795  25.231  1.00  0.00     0.276 A 
ATOM     17  C   UNL A   1      32.966  16.263  25.546  1.00  0.00     0.113 C 
ATOM     18  C   UNL A   1      32.612  17.648  25.106  1.00  0.00     0.214 A 
ATOM     19  N   UNL A   1      32.374  18.122  23.902  1.00  0.00    -0.112 NA
ATOM     20  O   UNL A   1      32.793  18.660  26.023  1.00  0.00    -0.416 OA
ATOM     21  N   UNL A   1      32.507  19.509  23.982  1.00  0.00    -0.101 NA
ENDBRANCH  15  16
ENDBRANCH  14  15
ENDBRANCH  13  14
ENDBRANCH   9  13
BRANCH   8  22
ATOM     22  N   UNL A   1      30.714  23.901  24.437  1.00  0.00    -0.330 N 
ATOM     23  H   UNL A   1      31.128  23.058  24.039  1.00  0.00     0.347 HD
ATOM     24  H   UNL A   1      29.730  24.084  24.236  1.00  0.00     0.347 HD
BRANCH  22  25
ATOM     25  C   UNL A   1      30.729  23.731  25.892  1.00  0.00     0.176 C 
ATOM     26  C   UNL A   1      29.804  24.711  26.606  1.00  0.00     0.075 C 
ATOM     27  C   UNL A   1      30.281  22.291  26.164  1.00  0.00     0.075 C 
ENDBRANCH  22  25
ENDBRANCH   8  22
ENDBRANCH   6   8
ENDBRANCH   5   6
ENDBRANCH   4   5
ENDBRANCH   3   4
ENDBRANCH   2   3
ENDBRANCH   1   2
BRANCH   1  28
ATOM     28  C   UNL A   1      34.123  30.253  27.235  1.00  0.00     0.188 C 
BRANCH  28  29
ATOM     29  O   UNL A   1      33.960  31.608  27.604  1.00  0.00    -0.376 OA
BRANCH  29  30
ATOM     30  C   UNL A   1      32.666  32.126  27.372  1.00  0.00     0.202 C 
BRANCH  30  31
ATOM     31  C   UNL A   1      32.653  33.657  27.333  1.00  0.00     0.261 C 
BRANCH  31  32
ATOM     32  O   UNL A   1      32.484  34.342  28.597  1.00  0.00    -0.460 OA
BRANCH  32  33
ATOM     33  C   UNL A   1      33.547  35.018  29.114  1.00  0.00     0.338 C 
ATOM     34  O   UNL A   1      33.584  36.202  29.348  1.00  0.00    -0.246 OA
BRANCH  33  35
ATOM     35  C   UNL A   1      34.628  34.041  29.477  1.00  0.00     0.060 A 
ATOM     36  C   UNL A   1      34.361  33.033  30.413  1.00  0.00     0.016 A 
ATOM     37  C   UNL A   1      35.914  34.133  28.935  1.00  0.00     0.016 A 
ATOM     38  C   UNL A   1      35.373  32.134  30.813  1.00  0.00     0.010 A 
ATOM     39  C   UNL A   1      36.926  33.242  29.345  1.00  0.00     0.010 A 
ATOM     40  C   UNL A   1      36.676  32.241  30.301  1.00  0.00    -0.014 A 
BRANCH  40  41
ATOM     41  C   UNL A   1      37.822  31.465  30.889  1.00  0.00     0.031 A 
ATOM     42  C   UNL A   1      38.273  31.800  32.271  1.00  0.00     0.074 A 
ATOM     43  C   UNL A   1      38.503  30.500  30.238  1.00  0.00     0.049 A 
ATOM     44  N   UNL A   1      39.239  31.261  32.964  1.00  0.00    -0.248 NA
ATOM     45  C   UNL A   1      37.530  32.859  32.967  1.00  0.00     0.031 C 
ATOM     46  C   UNL A   1      38.118  30.002  28.946  1.00  0.00     0.029 A 
ATOM     47  N   UNL A   1      39.628  29.764  30.526  1.00  0.00    -0.354 N 
ATOM     48  C   UNL A   1      39.219  31.903  34.187  1.00  0.00     0.074 A 
ATOM     49  C   UNL A   1      38.164  32.896  34.130  1.00  0.00     0.031 C 
ATOM     50  C   UNL A   1      38.988  29.093  28.491  1.00  0.00     0.029 A 
ATOM     51  C   UNL A   1      40.033  28.940  29.490  1.00  0.00     0.049 A 
ATOM     52  H   UNL A   1      40.102  29.819  31.387  1.00  0.00     0.167 HD
ATOM     53  C   UNL A   1      39.998  31.673  35.265  1.00  0.00     0.034 A 
ATOM     54  C   UNL A   1      41.111  28.143  29.346  1.00  0.00     0.034 A 
ATOM     55  C   UNL A   1      41.077  30.724  35.307  1.00  0.00     0.049 A 
ATOM     56  C   UNL A   1      42.036  27.996  30.517  1.00  0.00     0.074 A 
ATOM     57  C   UNL A   1      41.923  30.436  36.362  1.00  0.00     0.029 A 
ATOM     58  N   UNL A   1      41.489  29.934  34.241  1.00  0.00    -0.354 N 
ATOM     59  N   UNL A   1      41.938  28.543  31.703  1.00  0.00    -0.248 NA
ATOM     60  C   UNL A   1      43.178  27.086  30.362  1.00  0.00     0.031 C 
ATOM     61  C   UNL A   1      42.873  29.507  35.924  1.00  0.00     0.029 A 
ATOM     62  C   UNL A   1      42.593  29.180  34.606  1.00  0.00     0.049 A 
ATOM     63  H   UNL A   1      41.059  29.913  33.356  1.00  0.00     0.167 HD
ATOM     64  C   UNL A   1      42.969  28.004  32.456  1.00  0.00     0.074 A 
ATOM     65  C   UNL A   1      43.680  27.082  31.590  1.00  0.00     0.031 C 
ATOM     66  C   UNL A   1      43.287  28.249  33.750  1.00  0.00     0.034 A 
BRANCH  53  67
ATOM     67  C   UNL A   1      39.697  32.497  36.482  1.00  0.00     0.023 A 
ATOM     68  C   UNL A   1      40.448  33.662  36.741  1.00  0.00     0.012 A 
ATOM     69  C   UNL A   1      38.697  32.097  37.384  1.00  0.00     0.148 A 
ATOM     70  C   UNL A   1      40.238  34.393  37.908  1.00  0.00     0.002 A 
ATOM     71  C   UNL A   1      38.460  32.857  38.521  1.00  0.00     0.091 A 
ATOM     72  F   UNL A   1      38.023  30.965  37.134  1.00  0.00    -0.205 F 
ATOM     73  C   UNL A   1      39.239  33.995  38.792  1.00  0.00     0.022 A 
BRANCH  71  74
ATOM     74  S   UNL A   1      37.154  32.462  39.685  1.00  0.00     0.127 S 
ATOM     75  O   UNL A   1      37.292  33.544  40.659  1.00  0.00    -0.237 OA
ATOM     76  O   UNL A   1      35.960  32.546  38.843  1.00  0.00    -0.237 OA
ATOM     77  O   UNL A   1      37.452  31.128  40.185  1.00  0.00    -0.744 OA
ENDBRANCH  71  74
ENDBRANCH  53  67
BRANCH  54  78
ATOM     78  C   UNL A   1      41.329  27.369  28.087  1.00  0.00     0.023 A 
ATOM     79  C   UNL A   1      41.846  28.022  26.951  1.00  0.00     0.012 A 
ATOM     80  C   UNL A   1      41.042  25.990  28.010  1.00  0.00     0.148 A 
ATOM     81  C   UNL A   1      42.049  27.326  25.757  1.00  0.00     0.002 A 
ATOM     82  C   UNL A   1      41.284  25.293  26.829  1.00  0.00     0.091 A 
ATOM     83  F   UNL A   1      40.537  25.385  29.095  1.00  0.00    -0.205 F 
ATOM     84  C   UNL A   1      41.776  25.962  25.698  1.00  0.00     0.022 A 
BRANCH  82  85
ATOM     85  S   UNL A   1      41.044  23.517  26.679  1.00  0.00     0.127 S 
ATOM     86  O   UNL A   1      39.621  23.433  26.356  1.00  0.00    -0.237 OA
ATOM     87  O   UNL A   1      41.944  23.181  25.576  1.00  0.00    -0.237 OA
ATOM     88  O   UNL A   1      41.430  22.956  27.967  1.00  0.00    -0.744 OA
ENDBRANCH  82  85
ENDBRANCH  54  78
BRANCH  66  89
ATOM     89  C   UNL A   1      44.451  27.490  34.328  1.00  0.00     0.023 A 
ATOM     90  C   UNL A   1      45.734  28.071  34.348  1.00  0.00     0.012 A 
ATOM     91  C   UNL A   1      44.256  26.219  34.904  1.00  0.00     0.148 A 
ATOM     92  C   UNL A   1      46.812  27.384  34.901  1.00  0.00     0.002 A 
ATOM     93  C   UNL A   1      45.324  25.565  35.503  1.00  0.00     0.091 A 
ATOM     94  F   UNL A   1      43.031  25.674  34.853  1.00  0.00    -0.205 F 
ATOM     95  C   UNL A   1      46.606  26.138  35.489  1.00  0.00     0.022 A 
BRANCH  93  96
ATOM     96  S   UNL A   1      45.133  24.006  36.373  1.00  0.00     0.127 S 
ATOM     97  O   UNL A   1      46.485  23.453  36.294  1.00  0.00    -0.237 OA
ATOM     98  O   UNL A   1      44.731  24.446  37.708  1.00  0.00    -0.237 OA
ATOM     99  O   UNL A   1      44.113  23.261  35.648  1.00  0.00    -0.744 OA
ENDBRANCH  93  96
ENDBRANCH  66  89
ENDBRANCH  40  41
ENDBRANCH  33  35
ENDBRANCH  32  33
ENDBRANCH  31  32
ENDBRANCH  30  31
ENDBRANCH  29  30
ENDBRANCH  28  29
ENDBRANCH   1  28
TORSDOF 26
ENDMDL
