MODEL 1
REMARK VINA RESULT:      -9.2      0.000      0.000
REMARK SMILES COc1cccc([C@@H]2[NH2+][C@@](CCSC)(C(=O)OCCOCCOCCOC(=O)c3ccc(-c4c5nc(c(-c6cccc(S(=O)(=O)[O-])c6F)c6ccc([nH]6)c(-c6cccc(S(=O)(=O)[O-])c6F)c6nc(c(-c7cccc(S(=O)(=O)[O-])c7F)c7ccc4[nH]7)C=C6)C=C5)cc3)[C@@H]3C(=O)N(C(C)C)C(=O)[C@@H]32)c1O
REMARK SMILES IDX 21 1 20 2 19 3 18 4 17 5 15 6 16 7 10 8 8 9 9 10 101 11
REMARK SMILES IDX 92 14 99 15 93 16 95 17 100 18 94 19 7 20 3 21 4 22 102 23
REMARK SMILES IDX 5 24 6 25 2 26 1 27 103 28 11 30 12 31 13 32 14 33 96 34
REMARK SMILES IDX 97 35 98 36 22 37 23 38 24 39 25 40 26 41 27 42 28 43 29 44
REMARK SMILES IDX 30 45 91 46 31 47 90 48 32 49 33 50 34 51 84 52 35 53 89 54
REMARK SMILES IDX 83 55 85 56 36 57 88 58 82 59 81 60 37 62 69 63 49 64 68 65
REMARK SMILES IDX 50 66 53 67 67 68 86 69 51 70 52 71 66 73 87 74 54 75 38 76
REMARK SMILES IDX 39 77 47 78 40 79 42 80 48 81 41 82 43 83 44 84 45 85 46 86
REMARK SMILES IDX 70 87 71 88 79 89 72 90 74 91 80 92 73 93 75 94 76 95 77 96
REMARK SMILES IDX 78 97 55 98 56 99 64 100 57 101 59 102 65 103 58 104 60 105
REMARK SMILES IDX 61 106 62 107 63 108
REMARK H PARENT 9 12 9 13 103 29 85 61 53 72
REMARK Flexibility Score: inf
ROOT
ATOM      1  C   UNL A   1      34.893  31.965  28.227  1.00  0.00     0.188 C 
ENDROOT
BRANCH   1   2
ATOM      2  O   UNL A   1      35.727  30.913  27.769  1.00  0.00    -0.376 OA
BRANCH   2   3
ATOM      3  C   UNL A   1      35.229  29.578  27.859  1.00  0.00     0.202 C 
BRANCH   3   4
ATOM      4  C   UNL A   1      34.001  29.189  27.016  1.00  0.00     0.261 C 
BRANCH   4   5
ATOM      5  O   UNL A   1      33.469  27.882  27.342  1.00  0.00    -0.459 OA
BRANCH   5   6
ATOM      6  C   UNL A   1      32.236  27.637  26.853  1.00  0.00     0.369 C 
ATOM      7  O   UNL A   1      31.203  27.916  27.461  1.00  0.00    -0.245 OA
BRANCH   6   8
ATOM      8  C   UNL A   1      32.182  26.939  25.437  1.00  0.00     0.208 C 
ATOM      9  C   UNL A   1      33.374  25.020  26.093  1.00  0.00     0.232 C 
ATOM     10  N   UNL A   1      32.023  25.502  25.752  1.00  0.00    -0.324 N 
ATOM     11  C   UNL A   1      34.262  25.647  25.023  1.00  0.00     0.161 C 
ATOM     12  H   UNL A   1      31.391  25.379  26.543  1.00  0.00     0.347 HD
ATOM     13  H   UNL A   1      31.623  24.985  24.969  1.00  0.00     0.347 HD
ATOM     14  C   UNL A   1      33.477  26.891  24.581  1.00  0.00     0.171 C 
ATOM     15  C   UNL A   1      34.436  24.851  23.761  1.00  0.00     0.240 C 
ATOM     16  C   UNL A   1      33.227  26.628  23.106  1.00  0.00     0.240 C 
ATOM     17  N   UNL A   1      33.644  25.369  22.779  1.00  0.00    -0.279 N 
ATOM     18  O   UNL A   1      35.202  23.903  23.647  1.00  0.00    -0.274 OA
ATOM     19  O   UNL A   1      32.745  27.454  22.342  1.00  0.00    -0.274 OA
BRANCH   9  20
ATOM     20  C   UNL A   1      33.351  23.532  26.318  1.00  0.00     0.056 A 
ATOM     21  C   UNL A   1      32.582  21.311  25.647  1.00  0.00     0.161 A 
ATOM     22  C   UNL A   1      33.477  20.740  26.557  1.00  0.00     0.050 A 
ATOM     23  C   UNL A   1      32.496  22.706  25.568  1.00  0.00     0.166 A 
ATOM     24  C   UNL A   1      34.294  21.540  27.350  1.00  0.00     0.005 A 
ATOM     25  C   UNL A   1      34.244  22.922  27.215  1.00  0.00     0.014 A 
BRANCH  21  26
ATOM     26  O   UNL A   1      31.845  20.397  24.944  1.00  0.00    -0.493 OA
ATOM     27  C   UNL A   1      32.445  19.136  24.665  1.00  0.00     0.278 C 
ENDBRANCH  21  26
BRANCH  23  28
ATOM     28  O   UNL A   1      31.549  23.323  24.795  1.00  0.00    -0.504 OA
ATOM     29  H   UNL A   1      31.008  22.815  24.223  1.00  0.00     0.293 HD
ENDBRANCH  23  28
ENDBRANCH   9  20
BRANCH   8  30
ATOM     30  C   UNL A   1      30.926  27.566  24.757  1.00  0.00     0.093 C 
BRANCH  30  31
ATOM     31  C   UNL A   1      29.742  26.663  24.386  1.00  0.00     0.076 C 
BRANCH  31  32
ATOM     32  S   UNL A   1      28.396  27.492  23.464  1.00  0.00    -0.165 SA
ATOM     33  C   UNL A   1      29.213  29.030  22.977  1.00  0.00     0.085 C 
ENDBRANCH  31  32
ENDBRANCH  30  31
ENDBRANCH   8  30
BRANCH  17  34
ATOM     34  C   UNL A   1      33.413  24.671  21.504  1.00  0.00     0.087 C 
ATOM     35  C   UNL A   1      32.826  23.273  21.719  1.00  0.00     0.031 C 
ATOM     36  C   UNL A   1      32.558  25.457  20.515  1.00  0.00     0.031 C 
ENDBRANCH  17  34
ENDBRANCH   6   8
ENDBRANCH   5   6
ENDBRANCH   4   5
ENDBRANCH   3   4
ENDBRANCH   2   3
ENDBRANCH   1   2
BRANCH   1  37
ATOM     37  C   UNL A   1      35.384  33.393  27.986  1.00  0.00     0.188 C 
BRANCH  37  38
ATOM     38  O   UNL A   1      35.812  34.107  29.125  1.00  0.00    -0.376 OA
BRANCH  38  39
ATOM     39  C   UNL A   1      35.173  33.919  30.380  1.00  0.00     0.202 C 
BRANCH  39  40
ATOM     40  C   UNL A   1      35.871  33.284  31.598  1.00  0.00     0.261 C 
BRANCH  40  41
ATOM     41  O   UNL A   1      37.018  32.461  31.352  1.00  0.00    -0.460 OA
BRANCH  41  42
ATOM     42  C   UNL A   1      37.996  32.434  32.291  1.00  0.00     0.338 C 
ATOM     43  O   UNL A   1      37.849  32.524  33.498  1.00  0.00    -0.246 OA
BRANCH  42  44
ATOM     44  C   UNL A   1      39.229  31.967  31.600  1.00  0.00     0.060 A 
ATOM     45  C   UNL A   1      40.345  31.608  32.377  1.00  0.00     0.016 A 
ATOM     46  C   UNL A   1      39.237  31.746  30.221  1.00  0.00     0.016 A 
ATOM     47  C   UNL A   1      41.470  31.041  31.772  1.00  0.00     0.010 A 
ATOM     48  C   UNL A   1      40.374  31.207  29.615  1.00  0.00     0.010 A 
ATOM     49  C   UNL A   1      41.504  30.871  30.383  1.00  0.00    -0.014 A 
BRANCH  49  50
ATOM     50  C   UNL A   1      42.770  30.525  29.693  1.00  0.00     0.031 A 
ATOM     51  C   UNL A   1      43.027  29.078  29.377  1.00  0.00     0.074 A 
ATOM     52  C   UNL A   1      43.698  31.453  29.399  1.00  0.00     0.049 A 
ATOM     53  N   UNL A   1      44.093  28.512  28.878  1.00  0.00    -0.248 NA
ATOM     54  C   UNL A   1      41.927  28.144  29.671  1.00  0.00     0.031 C 
ATOM     55  C   UNL A   1      43.568  32.888  29.637  1.00  0.00     0.029 A 
ATOM     56  N   UNL A   1      44.956  31.312  28.865  1.00  0.00    -0.354 N 
ATOM     57  C   UNL A   1      43.809  27.154  28.828  1.00  0.00     0.074 A 
ATOM     58  C   UNL A   1      42.472  26.980  29.353  1.00  0.00     0.031 C 
ATOM     59  C   UNL A   1      44.716  33.493  29.284  1.00  0.00     0.029 A 
ATOM     60  C   UNL A   1      45.672  32.484  28.827  1.00  0.00     0.049 A 
ATOM     61  H   UNL A   1      45.310  30.452  28.539  1.00  0.00     0.167 HD
ATOM     62  C   UNL A   1      44.584  26.140  28.377  1.00  0.00     0.034 A 
ATOM     63  C   UNL A   1      46.960  32.710  28.496  1.00  0.00     0.034 A 
ATOM     64  C   UNL A   1      45.911  26.310  27.853  1.00  0.00     0.049 A 
ATOM     65  C   UNL A   1      47.828  31.556  28.055  1.00  0.00     0.074 A 
ATOM     66  C   UNL A   1      46.756  25.351  27.324  1.00  0.00     0.029 A 
ATOM     67  N   UNL A   1      46.597  27.515  27.812  1.00  0.00    -0.354 N 
ATOM     68  N   UNL A   1      47.510  30.293  27.896  1.00  0.00    -0.248 NA
ATOM     69  C   UNL A   1      49.229  31.864  27.729  1.00  0.00     0.031 C 
ATOM     70  C   UNL A   1      47.968  25.970  27.000  1.00  0.00     0.029 A 
ATOM     71  C   UNL A   1      47.867  27.320  27.295  1.00  0.00     0.049 A 
ATOM     72  H   UNL A   1      46.235  28.381  28.108  1.00  0.00     0.167 HD
ATOM     73  C   UNL A   1      48.660  29.664  27.430  1.00  0.00     0.074 A 
ATOM     74  C   UNL A   1      49.676  30.687  27.308  1.00  0.00     0.031 C 
ATOM     75  C   UNL A   1      48.861  28.352  27.142  1.00  0.00     0.034 A 
BRANCH  62  76
ATOM     76  C   UNL A   1      44.003  24.753  28.429  1.00  0.00     0.023 A 
ATOM     77  C   UNL A   1      43.855  24.101  29.671  1.00  0.00     0.012 A 
ATOM     78  C   UNL A   1      43.581  24.104  27.252  1.00  0.00     0.148 A 
ATOM     79  C   UNL A   1      43.333  22.810  29.737  1.00  0.00     0.002 A 
ATOM     80  C   UNL A   1      43.020  22.835  27.331  1.00  0.00     0.091 A 
ATOM     81  F   UNL A   1      43.756  24.728  26.079  1.00  0.00    -0.205 F 
ATOM     82  C   UNL A   1      42.907  22.183  28.569  1.00  0.00     0.022 A 
BRANCH  80  83
ATOM     83  S   UNL A   1      42.374  21.976  25.893  1.00  0.00     0.127 S 
ATOM     84  O   UNL A   1      42.943  20.640  26.067  1.00  0.00    -0.237 OA
ATOM     85  O   UNL A   1      40.929  22.056  26.109  1.00  0.00    -0.237 OA
ATOM     86  O   UNL A   1      42.854  22.716  24.734  1.00  0.00    -0.744 OA
ENDBRANCH  80  83
ENDBRANCH  62  76
BRANCH  63  87
ATOM     87  C   UNL A   1      47.513  34.093  28.552  1.00  0.00     0.023 A 
ATOM     88  C   UNL A   1      47.973  34.608  29.779  1.00  0.00     0.012 A 
ATOM     89  C   UNL A   1      47.599  34.896  27.397  1.00  0.00     0.148 A 
ATOM     90  C   UNL A   1      48.487  35.903  29.861  1.00  0.00     0.002 A 
ATOM     91  C   UNL A   1      48.159  36.165  27.474  1.00  0.00     0.091 A 
ATOM     92  F   UNL A   1      47.137  34.396  26.242  1.00  0.00    -0.205 F 
ATOM     93  C   UNL A   1      48.590  36.677  28.709  1.00  0.00     0.022 A 
BRANCH  91  94
ATOM     94  S   UNL A   1      48.439  37.191  26.027  1.00  0.00     0.127 S 
ATOM     95  O   UNL A   1      49.394  38.173  26.536  1.00  0.00    -0.237 OA
ATOM     96  O   UNL A   1      48.994  36.227  25.077  1.00  0.00    -0.237 OA
ATOM     97  O   UNL A   1      47.133  37.719  25.657  1.00  0.00    -0.744 OA
ENDBRANCH  91  94
ENDBRANCH  63  87
BRANCH  75  98
ATOM     98  C   UNL A   1      50.227  27.938  26.654  1.00  0.00     0.023 A 
ATOM     99  C   UNL A   1      51.184  27.468  27.574  1.00  0.00     0.012 A 
ATOM    100  C   UNL A   1      50.534  27.936  25.278  1.00  0.00     0.148 A 
ATOM    101  C   UNL A   1      52.434  27.030  27.137  1.00  0.00     0.002 A 
ATOM    102  C   UNL A   1      51.765  27.453  24.846  1.00  0.00     0.091 A 
ATOM    103  F   UNL A   1      49.617  28.399  24.417  1.00  0.00    -0.205 F 
ATOM    104  C   UNL A   1      52.721  27.011  25.775  1.00  0.00     0.022 A 
BRANCH 102 105
ATOM    105  S   UNL A   1      52.189  27.301  23.106  1.00  0.00     0.127 S 
ATOM    106  O   UNL A   1      53.209  26.252  23.138  1.00  0.00    -0.237 OA
ATOM    107  O   UNL A   1      50.915  26.894  22.511  1.00  0.00    -0.237 OA
ATOM    108  O   UNL A   1      52.661  28.614  22.689  1.00  0.00    -0.744 OA
ENDBRANCH 102 105
ENDBRANCH  75  98
ENDBRANCH  49  50
ENDBRANCH  42  44
ENDBRANCH  41  42
ENDBRANCH  40  41
ENDBRANCH  39  40
ENDBRANCH  38  39
ENDBRANCH  37  38
ENDBRANCH   1  37
TORSDOF 27
ENDMDL
MODEL 2
REMARK VINA RESULT:      -9.1      5.623     10.037
REMARK SMILES COc1cccc([C@@H]2[NH2+][C@@](CCSC)(C(=O)OCCOCCOCCOC(=O)c3ccc(-c4c5nc(c(-c6cccc(S(=O)(=O)[O-])c6F)c6ccc([nH]6)c(-c6cccc(S(=O)(=O)[O-])c6F)c6nc(c(-c7cccc(S(=O)(=O)[O-])c7F)c7ccc4[nH]7)C=C6)C=C5)cc3)[C@@H]3C(=O)N(C(C)C)C(=O)[C@@H]32)c1O
REMARK SMILES IDX 21 1 20 2 19 3 18 4 17 5 15 6 16 7 10 8 8 9 9 10 101 11
REMARK SMILES IDX 92 14 99 15 93 16 95 17 100 18 94 19 7 20 3 21 4 22 102 23
REMARK SMILES IDX 5 24 6 25 2 26 1 27 103 28 11 30 12 31 13 32 14 33 96 34
REMARK SMILES IDX 97 35 98 36 22 37 23 38 24 39 25 40 26 41 27 42 28 43 29 44
REMARK SMILES IDX 30 45 91 46 31 47 90 48 32 49 33 50 34 51 84 52 35 53 89 54
REMARK SMILES IDX 83 55 85 56 36 57 88 58 82 59 81 60 37 62 69 63 49 64 68 65
REMARK SMILES IDX 50 66 53 67 67 68 86 69 51 70 52 71 66 73 87 74 54 75 38 76
REMARK SMILES IDX 39 77 47 78 40 79 42 80 48 81 41 82 43 83 44 84 45 85 46 86
REMARK SMILES IDX 70 87 71 88 79 89 72 90 74 91 80 92 73 93 75 94 76 95 77 96
REMARK SMILES IDX 78 97 55 98 56 99 64 100 57 101 59 102 65 103 58 104 60 105
REMARK SMILES IDX 61 106 62 107 63 108
REMARK H PARENT 9 12 9 13 103 29 85 61 53 72
REMARK Flexibility Score: inf
ROOT
ATOM      1  C   UNL A   1      34.760  32.290  29.241  1.00  0.00     0.188 C 
ENDROOT
BRANCH   1   2
ATOM      2  O   UNL A   1      35.512  31.140  28.889  1.00  0.00    -0.376 OA
BRANCH   2   3
ATOM      3  C   UNL A   1      35.408  30.658  27.549  1.00  0.00     0.202 C 
BRANCH   3   4
ATOM      4  C   UNL A   1      34.218  29.755  27.178  1.00  0.00     0.261 C 
BRANCH   4   5
ATOM      5  O   UNL A   1      34.604  28.400  26.845  1.00  0.00    -0.459 OA
BRANCH   5   6
ATOM      6  C   UNL A   1      34.359  28.041  25.567  1.00  0.00     0.369 C 
ATOM      7  O   UNL A   1      34.724  28.706  24.599  1.00  0.00    -0.245 OA
BRANCH   6   8
ATOM      8  C   UNL A   1      33.544  26.703  25.373  1.00  0.00     0.208 C 
ATOM      9  C   UNL A   1      31.440  27.745  25.239  1.00  0.00     0.232 C 
ATOM     10  N   UNL A   1      32.468  27.072  24.426  1.00  0.00    -0.324 N 
ATOM     11  C   UNL A   1      31.327  26.864  26.479  1.00  0.00     0.161 C 
ATOM     12  H   UNL A   1      32.827  27.705  23.711  1.00  0.00     0.347 HD
ATOM     13  H   UNL A   1      32.095  26.257  23.941  1.00  0.00     0.347 HD
ATOM     14  C   UNL A   1      32.694  26.169  26.558  1.00  0.00     0.171 C 
ATOM     15  C   UNL A   1      30.340  25.734  26.398  1.00  0.00     0.240 C 
ATOM     16  C   UNL A   1      32.334  24.698  26.442  1.00  0.00     0.240 C 
ATOM     17  N   UNL A   1      31.002  24.563  26.170  1.00  0.00    -0.279 N 
ATOM     18  O   UNL A   1      29.132  25.864  26.548  1.00  0.00    -0.274 OA
ATOM     19  O   UNL A   1      33.138  23.789  26.601  1.00  0.00    -0.274 OA
BRANCH   9  20
ATOM     20  C   UNL A   1      30.236  28.062  24.392  1.00  0.00     0.056 A 
ATOM     21  C   UNL A   1      29.021  29.626  22.960  1.00  0.00     0.161 A 
ATOM     22  C   UNL A   1      28.134  28.602  22.616  1.00  0.00     0.050 A 
ATOM     23  C   UNL A   1      30.040  29.357  23.881  1.00  0.00     0.166 A 
ATOM     24  C   UNL A   1      28.275  27.326  23.153  1.00  0.00     0.005 A 
ATOM     25  C   UNL A   1      29.330  27.056  24.017  1.00  0.00     0.014 A 
BRANCH  21  26
ATOM     26  O   UNL A   1      28.749  30.824  22.356  1.00  0.00    -0.493 OA
ATOM     27  C   UNL A   1      27.974  30.802  21.161  1.00  0.00     0.278 C 
ENDBRANCH  21  26
BRANCH  23  28
ATOM     28  O   UNL A   1      30.856  30.348  24.357  1.00  0.00    -0.504 OA
ATOM     29  H   UNL A   1      31.170  30.312  25.240  1.00  0.00     0.293 HD
ENDBRANCH  23  28
ENDBRANCH   9  20
BRANCH   8  30
ATOM     30  C   UNL A   1      34.586  25.712  24.769  1.00  0.00     0.093 C 
BRANCH  30  31
ATOM     31  C   UNL A   1      34.291  25.037  23.423  1.00  0.00     0.076 C 
BRANCH  31  32
ATOM     32  S   UNL A   1      34.668  23.248  23.356  1.00  0.00    -0.165 SA
ATOM     33  C   UNL A   1      36.373  23.235  23.955  1.00  0.00     0.085 C 
ENDBRANCH  31  32
ENDBRANCH  30  31
ENDBRANCH   8  30
BRANCH  17  34
ATOM     34  C   UNL A   1      30.302  23.321  25.805  1.00  0.00     0.087 C 
ATOM     35  C   UNL A   1      31.145  22.445  24.875  1.00  0.00     0.031 C 
ATOM     36  C   UNL A   1      29.820  22.509  27.003  1.00  0.00     0.031 C 
ENDBRANCH  17  34
ENDBRANCH   6   8
ENDBRANCH   5   6
ENDBRANCH   4   5
ENDBRANCH   3   4
ENDBRANCH   2   3
ENDBRANCH   1   2
BRANCH   1  37
ATOM     37  C   UNL A   1      35.009  33.558  28.423  1.00  0.00     0.188 C 
BRANCH  37  38
ATOM     38  O   UNL A   1      34.841  34.782  29.103  1.00  0.00    -0.376 OA
BRANCH  38  39
ATOM     39  C   UNL A   1      33.724  35.616  28.827  1.00  0.00     0.202 C 
BRANCH  39  40
ATOM     40  C   UNL A   1      32.708  36.052  29.901  1.00  0.00     0.261 C 
BRANCH  40  41
ATOM     41  O   UNL A   1      33.214  36.377  31.203  1.00  0.00    -0.460 OA
BRANCH  41  42
ATOM     42  C   UNL A   1      32.943  35.525  32.223  1.00  0.00     0.338 C 
ATOM     43  O   UNL A   1      31.840  35.225  32.647  1.00  0.00    -0.246 OA
BRANCH  42  44
ATOM     44  C   UNL A   1      34.211  34.801  32.512  1.00  0.00     0.060 A 
ATOM     45  C   UNL A   1      34.154  33.425  32.796  1.00  0.00     0.016 A 
ATOM     46  C   UNL A   1      35.447  35.433  32.362  1.00  0.00     0.016 A 
ATOM     47  C   UNL A   1      35.332  32.687  32.941  1.00  0.00     0.010 A 
ATOM     48  C   UNL A   1      36.623  34.699  32.537  1.00  0.00     0.010 A 
ATOM     49  C   UNL A   1      36.573  33.329  32.848  1.00  0.00    -0.014 A 
BRANCH  49  50
ATOM     50  C   UNL A   1      37.817  32.633  33.257  1.00  0.00     0.031 A 
ATOM     51  C   UNL A   1      38.347  32.891  34.639  1.00  0.00     0.074 A 
ATOM     52  C   UNL A   1      38.495  31.833  32.415  1.00  0.00     0.049 A 
ATOM     53  N   UNL A   1      39.460  32.491  35.192  1.00  0.00    -0.248 NA
ATOM     54  C   UNL A   1      37.502  33.724  35.513  1.00  0.00     0.031 C 
ATOM     55  C   UNL A   1      38.083  31.486  31.057  1.00  0.00     0.029 A 
ATOM     56  N   UNL A   1      39.701  31.194  32.575  1.00  0.00    -0.354 N 
ATOM     57  C   UNL A   1      39.468  33.046  36.464  1.00  0.00     0.074 A 
ATOM     58  C   UNL A   1      38.252  33.817  36.600  1.00  0.00     0.031 C 
ATOM     59  C   UNL A   1      39.040  30.727  30.493  1.00  0.00     0.029 A 
ATOM     60  C   UNL A   1      40.145  30.562  31.438  1.00  0.00     0.049 A 
ATOM     61  H   UNL A   1      40.199  31.190  33.425  1.00  0.00     0.167 HD
ATOM     62  C   UNL A   1      40.399  32.919  37.440  1.00  0.00     0.034 A 
ATOM     63  C   UNL A   1      41.319  29.952  31.181  1.00  0.00     0.034 A 
ATOM     64  C   UNL A   1      41.606  32.152  37.309  1.00  0.00     0.049 A 
ATOM     65  C   UNL A   1      42.370  29.875  32.262  1.00  0.00     0.074 A 
ATOM     66  C   UNL A   1      42.586  31.921  38.258  1.00  0.00     0.029 A 
ATOM     67  N   UNL A   1      42.013  31.508  36.149  1.00  0.00    -0.354 N 
ATOM     68  N   UNL A   1      42.316  30.300  33.502  1.00  0.00    -0.248 NA
ATOM     69  C   UNL A   1      43.639  29.217  31.912  1.00  0.00     0.031 C 
ATOM     70  C   UNL A   1      43.604  31.171  37.660  1.00  0.00     0.029 A 
ATOM     71  C   UNL A   1      43.243  30.905  36.349  1.00  0.00     0.049 A 
ATOM     72  H   UNL A   1      41.502  31.485  35.308  1.00  0.00     0.167 HD
ATOM     73  C   UNL A   1      43.527  29.939  34.085  1.00  0.00     0.074 A 
ATOM     74  C   UNL A   1      44.286  29.240  33.070  1.00  0.00     0.031 C 
ATOM     75  C   UNL A   1      43.977  30.178  35.343  1.00  0.00     0.034 A 
BRANCH  62  76
ATOM     76  C   UNL A   1      40.133  33.629  38.741  1.00  0.00     0.023 A 
ATOM     77  C   UNL A   1      39.410  32.975  39.759  1.00  0.00     0.012 A 
ATOM     78  C   UNL A   1      40.620  34.931  38.962  1.00  0.00     0.148 A 
ATOM     79  C   UNL A   1      39.141  33.622  40.965  1.00  0.00     0.002 A 
ATOM     80  C   UNL A   1      40.386  35.552  40.184  1.00  0.00     0.091 A 
ATOM     81  F   UNL A   1      41.280  35.546  37.972  1.00  0.00    -0.205 F 
ATOM     82  C   UNL A   1      39.638  34.905  41.180  1.00  0.00     0.022 A 
BRANCH  80  83
ATOM     83  S   UNL A   1      41.048  37.173  40.583  1.00  0.00     0.127 S 
ATOM     84  O   UNL A   1      40.593  37.346  41.962  1.00  0.00    -0.237 OA
ATOM     85  O   UNL A   1      42.489  36.962  40.439  1.00  0.00    -0.237 OA
ATOM     86  O   UNL A   1      40.471  38.092  39.612  1.00  0.00    -0.744 OA
ENDBRANCH  80  83
ENDBRANCH  62  76
BRANCH  63  87
ATOM     87  C   UNL A   1      41.567  29.346  29.842  1.00  0.00     0.023 A 
ATOM     88  C   UNL A   1      42.349  30.041  28.899  1.00  0.00     0.012 A 
ATOM     89  C   UNL A   1      41.046  28.082  29.501  1.00  0.00     0.148 A 
ATOM     90  C   UNL A   1      42.589  29.500  27.635  1.00  0.00     0.002 A 
ATOM     91  C   UNL A   1      41.331  27.525  28.260  1.00  0.00     0.091 A 
ATOM     92  F   UNL A   1      40.287  27.444  30.405  1.00  0.00    -0.205 F 
ATOM     93  C   UNL A   1      42.090  28.240  27.319  1.00  0.00     0.022 A 
BRANCH  91  94
ATOM     94  S   UNL A   1      40.830  25.861  27.805  1.00  0.00     0.127 S 
ATOM     95  O   UNL A   1      41.701  25.045  28.647  1.00  0.00    -0.237 OA
ATOM     96  O   UNL A   1      39.419  25.857  28.192  1.00  0.00    -0.237 OA
ATOM     97  O   UNL A   1      41.063  25.756  26.372  1.00  0.00    -0.744 OA
ENDBRANCH  91  94
ENDBRANCH  63  87
BRANCH  75  98
ATOM     98  C   UNL A   1      45.350  29.673  35.710  1.00  0.00     0.023 A 
ATOM     99  C   UNL A   1      45.501  28.371  36.224  1.00  0.00     0.012 A 
ATOM    100  C   UNL A   1      46.498  30.456  35.467  1.00  0.00     0.148 A 
ATOM    101  C   UNL A   1      46.768  27.866  36.519  1.00  0.00     0.002 A 
ATOM    102  C   UNL A   1      47.760  29.928  35.718  1.00  0.00     0.091 A 
ATOM    103  F   UNL A   1      46.335  31.698  34.988  1.00  0.00    -0.205 F 
ATOM    104  C   UNL A   1      47.896  28.638  36.256  1.00  0.00     0.022 A 
BRANCH 102 105
ATOM    105  S   UNL A   1      49.275  30.810  35.322  1.00  0.00     0.127 S 
ATOM    106  O   UNL A   1      49.196  30.900  33.864  1.00  0.00    -0.237 OA
ATOM    107  O   UNL A   1      49.084  32.082  36.022  1.00  0.00    -0.237 OA
ATOM    108  O   UNL A   1      50.364  29.993  35.837  1.00  0.00    -0.744 OA
ENDBRANCH 102 105
ENDBRANCH  75  98
ENDBRANCH  49  50
ENDBRANCH  42  44
ENDBRANCH  41  42
ENDBRANCH  40  41
ENDBRANCH  39  40
ENDBRANCH  38  39
ENDBRANCH  37  38
ENDBRANCH   1  37
TORSDOF 27
ENDMDL
MODEL 3
REMARK VINA RESULT:      -8.9      6.144     10.508
REMARK SMILES COc1cccc([C@@H]2[NH2+][C@@](CCSC)(C(=O)OCCOCCOCCOC(=O)c3ccc(-c4c5nc(c(-c6cccc(S(=O)(=O)[O-])c6F)c6ccc([nH]6)c(-c6cccc(S(=O)(=O)[O-])c6F)c6nc(c(-c7cccc(S(=O)(=O)[O-])c7F)c7ccc4[nH]7)C=C6)C=C5)cc3)[C@@H]3C(=O)N(C(C)C)C(=O)[C@@H]32)c1O
REMARK SMILES IDX 21 1 20 2 19 3 18 4 17 5 15 6 16 7 10 8 8 9 9 10 101 11
REMARK SMILES IDX 92 14 99 15 93 16 95 17 100 18 94 19 7 20 3 21 4 22 102 23
REMARK SMILES IDX 5 24 6 25 2 26 1 27 103 28 11 30 12 31 13 32 14 33 96 34
REMARK SMILES IDX 97 35 98 36 22 37 23 38 24 39 25 40 26 41 27 42 28 43 29 44
REMARK SMILES IDX 30 45 91 46 31 47 90 48 32 49 33 50 34 51 84 52 35 53 89 54
REMARK SMILES IDX 83 55 85 56 36 57 88 58 82 59 81 60 37 62 69 63 49 64 68 65
REMARK SMILES IDX 50 66 53 67 67 68 86 69 51 70 52 71 66 73 87 74 54 75 38 76
REMARK SMILES IDX 39 77 47 78 40 79 42 80 48 81 41 82 43 83 44 84 45 85 46 86
REMARK SMILES IDX 70 87 71 88 79 89 72 90 74 91 80 92 73 93 75 94 76 95 77 96
REMARK SMILES IDX 78 97 55 98 56 99 64 100 57 101 59 102 65 103 58 104 60 105
REMARK SMILES IDX 61 106 62 107 63 108
REMARK H PARENT 9 12 9 13 103 29 85 61 53 72
REMARK Flexibility Score: inf
ROOT
ATOM      1  C   UNL A   1      35.639  31.818  29.411  1.00  0.00     0.188 C 
ENDROOT
BRANCH   1   2
ATOM      2  O   UNL A   1      36.287  30.605  29.062  1.00  0.00    -0.376 OA
BRANCH   2   3
ATOM      3  C   UNL A   1      36.124  30.121  27.728  1.00  0.00     0.202 C 
BRANCH   3   4
ATOM      4  C   UNL A   1      34.763  29.533  27.315  1.00  0.00     0.261 C 
BRANCH   4   5
ATOM      5  O   UNL A   1      34.845  28.164  26.851  1.00  0.00    -0.459 OA
BRANCH   5   6
ATOM      6  C   UNL A   1      34.363  27.960  25.607  1.00  0.00     0.369 C 
ATOM      7  O   UNL A   1      34.527  28.755  24.683  1.00  0.00    -0.245 OA
BRANCH   6   8
ATOM      8  C   UNL A   1      33.542  26.627  25.397  1.00  0.00     0.208 C 
ATOM      9  C   UNL A   1      31.442  27.679  25.276  1.00  0.00     0.232 C 
ATOM     10  N   UNL A   1      32.468  27.012  24.454  1.00  0.00    -0.324 N 
ATOM     11  C   UNL A   1      31.326  26.784  26.505  1.00  0.00     0.161 C 
ATOM     12  H   UNL A   1      32.829  27.652  23.747  1.00  0.00     0.347 HD
ATOM     13  H   UNL A   1      32.092  26.204  23.960  1.00  0.00     0.347 HD
ATOM     14  C   UNL A   1      32.690  26.082  26.576  1.00  0.00     0.171 C 
ATOM     15  C   UNL A   1      30.335  25.658  26.410  1.00  0.00     0.240 C 
ATOM     16  C   UNL A   1      32.325  24.614  26.441  1.00  0.00     0.240 C 
ATOM     17  N   UNL A   1      30.992  24.488  26.167  1.00  0.00    -0.279 N 
ATOM     18  O   UNL A   1      29.128  25.791  26.562  1.00  0.00    -0.274 OA
ATOM     19  O   UNL A   1      33.125  23.700  26.590  1.00  0.00    -0.274 OA
BRANCH   9  20
ATOM     20  C   UNL A   1      30.240  28.011  24.433  1.00  0.00     0.056 A 
ATOM     21  C   UNL A   1      28.991  29.625  23.088  1.00  0.00     0.161 A 
ATOM     22  C   UNL A   1      28.145  28.596  22.663  1.00  0.00     0.050 A 
ATOM     23  C   UNL A   1      30.007  29.330  24.005  1.00  0.00     0.166 A 
ATOM     24  C   UNL A   1      28.323  27.293  23.116  1.00  0.00     0.005 A 
ATOM     25  C   UNL A   1      29.375  27.003  23.977  1.00  0.00     0.014 A 
BRANCH  21  26
ATOM     26  O   UNL A   1      28.686  30.851  22.560  1.00  0.00    -0.493 OA
ATOM     27  C   UNL A   1      27.725  31.646  23.246  1.00  0.00     0.278 C 
ENDBRANCH  21  26
BRANCH  23  28
ATOM     28  O   UNL A   1      30.781  30.314  24.559  1.00  0.00    -0.504 OA
ATOM     29  H   UNL A   1      30.493  31.205  24.535  1.00  0.00     0.293 HD
ENDBRANCH  23  28
ENDBRANCH   9  20
BRANCH   8  30
ATOM     30  C   UNL A   1      34.581  25.639  24.781  1.00  0.00     0.093 C 
BRANCH  30  31
ATOM     31  C   UNL A   1      34.279  24.975  23.431  1.00  0.00     0.076 C 
BRANCH  31  32
ATOM     32  S   UNL A   1      34.515  23.161  23.392  1.00  0.00    -0.165 SA
ATOM     33  C   UNL A   1      36.319  23.053  23.320  1.00  0.00     0.085 C 
ENDBRANCH  31  32
ENDBRANCH  30  31
ENDBRANCH   8  30
BRANCH  17  34
ATOM     34  C   UNL A   1      30.287  23.253  25.788  1.00  0.00     0.087 C 
ATOM     35  C   UNL A   1      31.165  22.338  24.931  1.00  0.00     0.031 C 
ATOM     36  C   UNL A   1      29.714  22.480  26.971  1.00  0.00     0.031 C 
ENDBRANCH  17  34
ENDBRANCH   6   8
ENDBRANCH   5   6
ENDBRANCH   4   5
ENDBRANCH   3   4
ENDBRANCH   2   3
ENDBRANCH   1   2
BRANCH   1  37
ATOM     37  C   UNL A   1      36.023  33.064  28.612  1.00  0.00     0.188 C 
BRANCH  37  38
ATOM     38  O   UNL A   1      35.599  34.300  29.143  1.00  0.00    -0.376 OA
BRANCH  38  39
ATOM     39  C   UNL A   1      34.376  34.888  28.724  1.00  0.00     0.202 C 
BRANCH  39  40
ATOM     40  C   UNL A   1      33.120  34.955  29.615  1.00  0.00     0.261 C 
BRANCH  40  41
ATOM     41  O   UNL A   1      33.173  35.792  30.777  1.00  0.00    -0.460 OA
BRANCH  41  42
ATOM     42  C   UNL A   1      32.902  35.230  31.981  1.00  0.00     0.338 C 
ATOM     43  O   UNL A   1      31.798  34.996  32.443  1.00  0.00    -0.246 OA
BRANCH  42  44
ATOM     44  C   UNL A   1      34.189  34.676  32.485  1.00  0.00     0.060 A 
ATOM     45  C   UNL A   1      34.264  33.305  32.782  1.00  0.00     0.016 A 
ATOM     46  C   UNL A   1      35.341  35.465  32.525  1.00  0.00     0.016 A 
ATOM     47  C   UNL A   1      35.488  32.726  33.129  1.00  0.00     0.010 A 
ATOM     48  C   UNL A   1      36.558  34.891  32.901  1.00  0.00     0.010 A 
ATOM     49  C   UNL A   1      36.635  33.524  33.226  1.00  0.00    -0.014 A 
BRANCH  49  50
ATOM     50  C   UNL A   1      37.875  32.996  33.843  1.00  0.00     0.031 A 
ATOM     51  C   UNL A   1      38.044  33.152  35.328  1.00  0.00     0.074 A 
ATOM     52  C   UNL A   1      38.854  32.438  33.109  1.00  0.00     0.049 A 
ATOM     53  N   UNL A   1      39.073  32.872  36.083  1.00  0.00    -0.248 NA
ATOM     54  C   UNL A   1      36.893  33.710  36.058  1.00  0.00     0.031 C 
ATOM     55  C   UNL A   1      38.810  32.212  31.667  1.00  0.00     0.029 A 
ATOM     56  N   UNL A   1      40.099  31.992  33.483  1.00  0.00    -0.354 N 
ATOM     57  C   UNL A   1      38.708  33.246  37.369  1.00  0.00     0.074 A 
ATOM     58  C   UNL A   1      37.366  33.780  37.293  1.00  0.00     0.031 C 
ATOM     59  C   UNL A   1      39.990  31.703  31.271  1.00  0.00     0.029 A 
ATOM     60  C   UNL A   1      40.883  31.599  32.425  1.00  0.00     0.049 A 
ATOM     61  H   UNL A   1      40.400  31.958  34.420  1.00  0.00     0.167 HD
ATOM     62  C   UNL A   1      39.421  33.147  38.516  1.00  0.00     0.034 A 
ATOM     63  C   UNL A   1      42.180  31.232  32.389  1.00  0.00     0.034 A 
ATOM     64  C   UNL A   1      40.753  32.614  38.595  1.00  0.00     0.049 A 
ATOM     65  C   UNL A   1      42.977  31.187  33.671  1.00  0.00     0.074 A 
ATOM     66  C   UNL A   1      41.537  32.424  39.719  1.00  0.00     0.029 A 
ATOM     67  N   UNL A   1      41.508  32.206  37.506  1.00  0.00    -0.354 N 
ATOM     68  N   UNL A   1      42.584  31.428  34.899  1.00  0.00    -0.248 NA
ATOM     69  C   UNL A   1      44.392  30.801  33.562  1.00  0.00     0.031 C 
ATOM     70  C   UNL A   1      42.782  31.939  39.304  1.00  0.00     0.029 A 
ATOM     71  C   UNL A   1      42.762  31.794  37.926  1.00  0.00     0.049 A 
ATOM     72  H   UNL A   1      41.199  32.211  36.572  1.00  0.00     0.167 HD
ATOM     73  C   UNL A   1      43.692  31.198  35.708  1.00  0.00     0.074 A 
ATOM     74  C   UNL A   1      44.766  30.776  34.835  1.00  0.00     0.031 C 
ATOM     75  C   UNL A   1      43.814  31.339  37.053  1.00  0.00     0.034 A 
BRANCH  62  76
ATOM     76  C   UNL A   1      38.759  33.623  39.781  1.00  0.00     0.023 A 
ATOM     77  C   UNL A   1      38.991  34.935  40.243  1.00  0.00     0.012 A 
ATOM     78  C   UNL A   1      37.889  32.780  40.499  1.00  0.00     0.148 A 
ATOM     79  C   UNL A   1      38.399  35.388  41.420  1.00  0.00     0.002 A 
ATOM     80  C   UNL A   1      37.267  33.255  41.648  1.00  0.00     0.091 A 
ATOM     81  F   UNL A   1      37.702  31.527  40.061  1.00  0.00    -0.205 F 
ATOM     82  C   UNL A   1      37.530  34.552  42.116  1.00  0.00     0.022 A 
BRANCH  80  83
ATOM     83  S   UNL A   1      36.075  32.280  42.572  1.00  0.00     0.127 S 
ATOM     84  O   UNL A   1      35.787  33.160  43.704  1.00  0.00    -0.237 OA
ATOM     85  O   UNL A   1      34.978  32.144  41.612  1.00  0.00    -0.237 OA
ATOM     86  O   UNL A   1      36.747  31.032  42.902  1.00  0.00    -0.744 OA
ENDBRANCH  80  83
ENDBRANCH  62  76
BRANCH  63  87
ATOM     87  C   UNL A   1      42.814  30.859  31.092  1.00  0.00     0.023 A 
ATOM     88  C   UNL A   1      43.358  31.865  30.271  1.00  0.00     0.012 A 
ATOM     89  C   UNL A   1      42.894  29.515  30.675  1.00  0.00     0.148 A 
ATOM     90  C   UNL A   1      43.948  31.544  29.048  1.00  0.00     0.002 A 
ATOM     91  C   UNL A   1      43.530  29.196  29.481  1.00  0.00     0.091 A 
ATOM     92  F   UNL A   1      42.353  28.574  31.462  1.00  0.00    -0.205 F 
ATOM     93  C   UNL A   1      44.044  30.211  28.658  1.00  0.00     0.022 A 
BRANCH  91  94
ATOM     94  S   UNL A   1      43.803  27.502  28.951  1.00  0.00     0.127 S 
ATOM     95  O   UNL A   1      43.751  27.631  27.496  1.00  0.00    -0.237 OA
ATOM     96  O   UNL A   1      45.132  27.227  29.497  1.00  0.00    -0.237 OA
ATOM     97  O   UNL A   1      42.730  26.721  29.551  1.00  0.00    -0.744 OA
ENDBRANCH  91  94
ENDBRANCH  63  87
BRANCH  75  98
ATOM     98  C   UNL A   1      45.151  31.024  37.677  1.00  0.00     0.023 A 
ATOM     99  C   UNL A   1      46.094  32.054  37.864  1.00  0.00     0.012 A 
ATOM    100  C   UNL A   1      45.441  29.729  38.154  1.00  0.00     0.148 A 
ATOM    101  C   UNL A   1      47.315  31.795  38.487  1.00  0.00     0.002 A 
ATOM    102  C   UNL A   1      46.640  29.490  38.818  1.00  0.00     0.091 A 
ATOM    103  F   UNL A   1      44.538  28.758  37.957  1.00  0.00    -0.205 F 
ATOM    104  C   UNL A   1      47.583  30.519  38.974  1.00  0.00     0.022 A 
BRANCH 102 105
ATOM    105  S   UNL A   1      47.034  27.903  39.563  1.00  0.00     0.127 S 
ATOM    106  O   UNL A   1      48.353  28.163  40.140  1.00  0.00    -0.237 OA
ATOM    107  O   UNL A   1      45.960  27.747  40.545  1.00  0.00    -0.237 OA
ATOM    108  O   UNL A   1      47.010  26.931  38.479  1.00  0.00    -0.744 OA
ENDBRANCH 102 105
ENDBRANCH  75  98
ENDBRANCH  49  50
ENDBRANCH  42  44
ENDBRANCH  41  42
ENDBRANCH  40  41
ENDBRANCH  39  40
ENDBRANCH  38  39
ENDBRANCH  37  38
ENDBRANCH   1  37
TORSDOF 27
ENDMDL
