MODEL 1
REMARK VINA RESULT:     -10.5      0.000      0.000
REMARK SMILES C[C@H](C(=O)N[C@H](C)C(=O)OCCOCCOCCOC(=O)c1ccc(-c2c3nc(c(-c4cccc(S(=O)(=O)[O-])c4F)c4ccc([nH]4)c(-c4cccc(S(=O)(=O)[O-])c4F)c4nc(c(-c5cccc(S(=O)(=O)[O-])c5F)c5ccc2[nH]5)C=C4)C=C3)cc1)n1cnc2ccccc21
REMARK SMILES IDX 14 1 13 2 12 3 11 4 10 5 8 6 9 7 6 8 7 9 5 10 3 11 4 12 2 14
REMARK SMILES IDX 1 15 85 16 86 17 93 18 87 19 88 20 92 21 89 22 91 23 90 24
REMARK SMILES IDX 15 25 16 26 17 27 18 28 19 29 20 30 21 31 22 32 23 33 84 34
REMARK SMILES IDX 24 35 83 36 25 37 26 38 27 39 77 40 28 41 82 42 76 43 78 44
REMARK SMILES IDX 29 45 81 46 75 47 74 48 30 50 62 51 42 52 61 53 43 54 46 55
REMARK SMILES IDX 60 56 79 57 44 58 45 59 59 61 80 62 47 63 31 64 32 65 40 66
REMARK SMILES IDX 33 67 35 68 41 69 34 70 36 71 37 72 38 73 39 74 63 75 64 76
REMARK SMILES IDX 72 77 65 78 67 79 73 80 66 81 68 82 69 83 70 84 71 85 48 86
REMARK SMILES IDX 49 87 57 88 50 89 52 90 58 91 51 92 53 93 54 94 55 95 56 96
REMARK H PARENT 5 13 78 49 46 60
REMARK Flexibility Score: inf
ROOT
ATOM      1  C   UNL A   1      40.370  21.083  26.870  1.00  0.00     0.188 C 
ENDROOT
BRANCH   1   2
ATOM      2  O   UNL A   1      39.297  21.977  26.621  1.00  0.00    -0.376 OA
BRANCH   2   3
ATOM      3  C   UNL A   1      38.464  21.694  25.502  1.00  0.00     0.202 C 
BRANCH   3   4
ATOM      4  C   UNL A   1      37.107  22.410  25.441  1.00  0.00     0.261 C 
BRANCH   4   5
ATOM      5  O   UNL A   1      36.031  21.700  26.079  1.00  0.00    -0.462 OA
BRANCH   5   6
ATOM      6  C   UNL A   1      34.851  21.681  25.395  1.00  0.00     0.328 C 
ATOM      7  O   UNL A   1      34.735  21.496  24.188  1.00  0.00    -0.250 OA
BRANCH   6   8
ATOM      8  C   UNL A   1      33.656  22.106  26.268  1.00  0.00     0.189 C 
ATOM      9  C   UNL A   1      33.576  21.537  27.678  1.00  0.00     0.043 C 
BRANCH   8  10
ATOM     10  N   UNL A   1      33.615  23.566  26.174  1.00  0.00    -0.341 N 
ATOM     11  C   UNL A   1      32.413  24.188  25.927  1.00  0.00     0.243 C 
ATOM     12  O   UNL A   1      31.757  24.618  26.872  1.00  0.00    -0.273 OA
ATOM     13  H   UNL A   1      34.437  24.096  26.285  1.00  0.00     0.164 HD
BRANCH  11  14
ATOM     14  C   UNL A   1      32.021  24.361  24.463  1.00  0.00     0.174 C 
ATOM     15  C   UNL A   1      31.081  23.257  23.964  1.00  0.00     0.042 C 
BRANCH  14  16
ATOM     16  N   UNL A   1      31.440  25.686  24.274  1.00  0.00    -0.318 N 
ATOM     17  C   UNL A   1      30.115  25.947  24.061  1.00  0.00     0.201 A 
ATOM     18  C   UNL A   1      32.098  26.887  24.382  1.00  0.00     0.069 A 
ATOM     19  N   UNL A   1      29.858  27.233  24.138  1.00  0.00    -0.237 NA
ATOM     20  C   UNL A   1      31.075  27.830  24.361  1.00  0.00     0.088 A 
ATOM     21  C   UNL A   1      33.446  27.232  24.539  1.00  0.00     0.028 A 
ATOM     22  C   UNL A   1      31.390  29.180  24.573  1.00  0.00     0.030 A 
ATOM     23  C   UNL A   1      33.742  28.582  24.734  1.00  0.00     0.002 A 
ATOM     24  C   UNL A   1      32.730  29.540  24.771  1.00  0.00     0.002 A 
ENDBRANCH  14  16
ENDBRANCH  11  14
ENDBRANCH   8  10
ENDBRANCH   6   8
ENDBRANCH   5   6
ENDBRANCH   4   5
ENDBRANCH   3   4
ENDBRANCH   2   3
ENDBRANCH   1   2
BRANCH   1  25
ATOM     25  C   UNL A   1      40.485  19.860  25.961  1.00  0.00     0.188 C 
BRANCH  25  26
ATOM     26  O   UNL A   1      41.767  19.511  25.462  1.00  0.00    -0.376 OA
BRANCH  26  27
ATOM     27  C   UNL A   1      42.883  20.033  26.198  1.00  0.00     0.202 C 
BRANCH  27  28
ATOM     28  C   UNL A   1      43.800  21.061  25.491  1.00  0.00     0.261 C 
BRANCH  28  29
ATOM     29  O   UNL A   1      44.121  22.269  26.224  1.00  0.00    -0.460 OA
BRANCH  29  30
ATOM     30  C   UNL A   1      44.086  23.457  25.576  1.00  0.00     0.338 C 
ATOM     31  O   UNL A   1      44.388  23.641  24.406  1.00  0.00    -0.246 OA
BRANCH  30  32
ATOM     32  C   UNL A   1      43.339  24.451  26.412  1.00  0.00     0.060 A 
ATOM     33  C   UNL A   1      43.623  25.816  26.229  1.00  0.00     0.016 A 
ATOM     34  C   UNL A   1      42.313  24.084  27.290  1.00  0.00     0.016 A 
ATOM     35  C   UNL A   1      42.935  26.799  26.953  1.00  0.00     0.010 A 
ATOM     36  C   UNL A   1      41.636  25.068  28.028  1.00  0.00     0.010 A 
ATOM     37  C   UNL A   1      41.971  26.430  27.898  1.00  0.00    -0.014 A 
BRANCH  37  38
ATOM     38  C   UNL A   1      41.514  27.404  28.930  1.00  0.00     0.031 A 
ATOM     39  C   UNL A   1      42.355  27.540  30.176  1.00  0.00     0.074 A 
ATOM     40  C   UNL A   1      40.398  28.147  28.807  1.00  0.00     0.049 A 
ATOM     41  N   UNL A   1      42.130  28.226  31.267  1.00  0.00    -0.248 NA
ATOM     42  C   UNL A   1      43.623  26.790  30.189  1.00  0.00     0.031 C 
ATOM     43  C   UNL A   1      39.505  28.159  27.652  1.00  0.00     0.029 A 
ATOM     44  N   UNL A   1      39.810  29.021  29.695  1.00  0.00    -0.354 N 
ATOM     45  C   UNL A   1      43.202  27.956  32.109  1.00  0.00     0.074 A 
ATOM     46  C   UNL A   1      44.075  27.041  31.407  1.00  0.00     0.031 C 
ATOM     47  C   UNL A   1      38.463  28.972  27.915  1.00  0.00     0.029 A 
ATOM     48  C   UNL A   1      38.596  29.510  29.270  1.00  0.00     0.049 A 
ATOM     49  H   UNL A   1      40.221  29.273  30.553  1.00  0.00     0.167 HD
ATOM     50  C   UNL A   1      43.451  28.426  33.355  1.00  0.00     0.034 A 
ATOM     51  C   UNL A   1      37.683  30.273  29.910  1.00  0.00     0.034 A 
ATOM     52  C   UNL A   1      42.601  29.344  34.058  1.00  0.00     0.049 A 
ATOM     53  C   UNL A   1      37.954  30.746  31.320  1.00  0.00     0.074 A 
ATOM     54  C   UNL A   1      42.787  29.897  35.314  1.00  0.00     0.029 A 
ATOM     55  N   UNL A   1      41.397  29.836  33.580  1.00  0.00    -0.354 N 
ATOM     56  N   UNL A   1      39.010  30.548  32.072  1.00  0.00    -0.248 NA
ATOM     57  C   UNL A   1      36.915  31.571  31.962  1.00  0.00     0.031 C 
ATOM     58  C   UNL A   1      41.678  30.695  35.609  1.00  0.00     0.029 A 
ATOM     59  C   UNL A   1      40.824  30.677  34.517  1.00  0.00     0.049 A 
ATOM     60  H   UNL A   1      41.008  29.618  32.702  1.00  0.00     0.167 HD
ATOM     61  C   UNL A   1      38.783  31.260  33.248  1.00  0.00     0.074 A 
ATOM     62  C   UNL A   1      37.494  31.901  33.108  1.00  0.00     0.031 C 
ATOM     63  C   UNL A   1      39.571  31.366  34.348  1.00  0.00     0.034 A 
BRANCH  50  64
ATOM     64  C   UNL A   1      44.704  27.948  34.039  1.00  0.00     0.023 A 
ATOM     65  C   UNL A   1      45.874  28.733  33.992  1.00  0.00     0.012 A 
ATOM     66  C   UNL A   1      44.713  26.735  34.756  1.00  0.00     0.148 A 
ATOM     67  C   UNL A   1      47.044  28.300  34.615  1.00  0.00     0.002 A 
ATOM     68  C   UNL A   1      45.867  26.335  35.415  1.00  0.00     0.091 A 
ATOM     69  F   UNL A   1      43.597  25.991  34.767  1.00  0.00    -0.205 F 
ATOM     70  C   UNL A   1      47.037  27.108  35.334  1.00  0.00     0.022 A 
BRANCH  68  71
ATOM     71  S   UNL A   1      45.936  24.857  36.434  1.00  0.00     0.127 S 
ATOM     72  O   UNL A   1      45.259  23.882  35.581  1.00  0.00    -0.237 OA
ATOM     73  O   UNL A   1      47.377  24.649  36.574  1.00  0.00    -0.237 OA
ATOM     74  O   UNL A   1      45.245  25.191  37.672  1.00  0.00    -0.744 OA
ENDBRANCH  68  71
ENDBRANCH  50  64
BRANCH  51  75
ATOM     75  C   UNL A   1      36.412  30.661  29.227  1.00  0.00     0.023 A 
ATOM     76  C   UNL A   1      35.575  29.662  28.692  1.00  0.00     0.012 A 
ATOM     77  C   UNL A   1      36.040  32.012  29.088  1.00  0.00     0.148 A 
ATOM     78  C   UNL A   1      34.408  30.002  28.005  1.00  0.00     0.002 A 
ATOM     79  C   UNL A   1      34.849  32.342  28.451  1.00  0.00     0.091 A 
ATOM     80  F   UNL A   1      36.860  32.950  29.582  1.00  0.00    -0.205 F 
ATOM     81  C   UNL A   1      34.040  31.340  27.893  1.00  0.00     0.022 A 
BRANCH  79  82
ATOM     82  S   UNL A   1      34.235  34.028  28.357  1.00  0.00     0.127 S 
ATOM     83  O   UNL A   1      34.487  34.515  29.711  1.00  0.00    -0.237 OA
ATOM     84  O   UNL A   1      35.096  34.602  27.324  1.00  0.00    -0.237 OA
ATOM     85  O   UNL A   1      32.832  33.916  27.980  1.00  0.00    -0.744 OA
ENDBRANCH  79  82
ENDBRANCH  51  75
BRANCH  63  86
ATOM     86  C   UNL A   1      39.116  32.263  35.472  1.00  0.00     0.023 A 
ATOM     87  C   UNL A   1      38.233  31.779  36.457  1.00  0.00     0.012 A 
ATOM     88  C   UNL A   1      39.651  33.562  35.604  1.00  0.00     0.148 A 
ATOM     89  C   UNL A   1      37.867  32.584  37.538  1.00  0.00     0.002 A 
ATOM     90  C   UNL A   1      39.324  34.337  36.710  1.00  0.00     0.091 A 
ATOM     91  F   UNL A   1      40.480  34.011  34.650  1.00  0.00    -0.205 F 
ATOM     92  C   UNL A   1      38.422  33.854  37.671  1.00  0.00     0.022 A 
BRANCH  90  93
ATOM     93  S   UNL A   1      40.067  35.944  37.018  1.00  0.00     0.127 S 
ATOM     94  O   UNL A   1      39.461  36.312  38.298  1.00  0.00    -0.237 OA
ATOM     95  O   UNL A   1      41.491  35.618  37.090  1.00  0.00    -0.237 OA
ATOM     96  O   UNL A   1      39.694  36.784  35.888  1.00  0.00    -0.744 OA
ENDBRANCH  90  93
ENDBRANCH  63  86
ENDBRANCH  37  38
ENDBRANCH  30  32
ENDBRANCH  29  30
ENDBRANCH  28  29
ENDBRANCH  27  28
ENDBRANCH  26  27
ENDBRANCH  25  26
ENDBRANCH   1  25
TORSDOF 23
ENDMDL
MODEL 2
REMARK VINA RESULT:     -10.3      4.344      8.519
REMARK SMILES C[C@H](C(=O)N[C@H](C)C(=O)OCCOCCOCCOC(=O)c1ccc(-c2c3nc(c(-c4cccc(S(=O)(=O)[O-])c4F)c4ccc([nH]4)c(-c4cccc(S(=O)(=O)[O-])c4F)c4nc(c(-c5cccc(S(=O)(=O)[O-])c5F)c5ccc2[nH]5)C=C4)C=C3)cc1)n1cnc2ccccc21
REMARK SMILES IDX 14 1 13 2 12 3 11 4 10 5 8 6 9 7 6 8 7 9 5 10 3 11 4 12 2 14
REMARK SMILES IDX 1 15 85 16 86 17 93 18 87 19 88 20 92 21 89 22 91 23 90 24
REMARK SMILES IDX 15 25 16 26 17 27 18 28 19 29 20 30 21 31 22 32 23 33 84 34
REMARK SMILES IDX 24 35 83 36 25 37 26 38 27 39 77 40 28 41 82 42 76 43 78 44
REMARK SMILES IDX 29 45 81 46 75 47 74 48 30 50 62 51 42 52 61 53 43 54 46 55
REMARK SMILES IDX 60 56 79 57 44 58 45 59 59 61 80 62 47 63 31 64 32 65 40 66
REMARK SMILES IDX 33 67 35 68 41 69 34 70 36 71 37 72 38 73 39 74 63 75 64 76
REMARK SMILES IDX 72 77 65 78 67 79 73 80 66 81 68 82 69 83 70 84 71 85 48 86
REMARK SMILES IDX 49 87 57 88 50 89 52 90 58 91 51 92 53 93 54 94 55 95 56 96
REMARK H PARENT 5 13 78 49 46 60
REMARK Flexibility Score: inf
ROOT
ATOM      1  C   UNL A   1      35.582  24.011  24.556  1.00  0.00     0.188 C 
ENDROOT
BRANCH   1   2
ATOM      2  O   UNL A   1      34.846  24.275  25.740  1.00  0.00    -0.376 OA
BRANCH   2   3
ATOM      3  C   UNL A   1      34.622  23.180  26.621  1.00  0.00     0.202 C 
BRANCH   3   4
ATOM      4  C   UNL A   1      33.260  22.478  26.530  1.00  0.00     0.261 C 
BRANCH   4   5
ATOM      5  O   UNL A   1      32.293  23.159  25.709  1.00  0.00    -0.462 OA
BRANCH   5   6
ATOM      6  C   UNL A   1      31.421  23.968  26.376  1.00  0.00     0.328 C 
ATOM      7  O   UNL A   1      30.750  23.638  27.349  1.00  0.00    -0.250 OA
BRANCH   6   8
ATOM      8  C   UNL A   1      31.209  25.319  25.667  1.00  0.00     0.189 C 
ATOM      9  C   UNL A   1      29.785  25.846  25.570  1.00  0.00     0.043 C 
BRANCH   8  10
ATOM     10  N   UNL A   1      32.178  26.228  26.281  1.00  0.00    -0.341 N 
ATOM     11  C   UNL A   1      32.040  27.583  26.089  1.00  0.00     0.243 C 
ATOM     12  O   UNL A   1      31.457  28.250  26.939  1.00  0.00    -0.273 OA
ATOM     13  H   UNL A   1      32.919  25.874  26.823  1.00  0.00     0.164 HD
BRANCH  11  14
ATOM     14  C   UNL A   1      32.699  28.168  24.844  1.00  0.00     0.174 C 
ATOM     15  C   UNL A   1      33.951  27.392  24.413  1.00  0.00     0.042 C 
BRANCH  14  16
ATOM     16  N   UNL A   1      31.717  28.241  23.769  1.00  0.00    -0.318 N 
ATOM     17  C   UNL A   1      31.563  27.317  22.772  1.00  0.00     0.201 A 
ATOM     18  C   UNL A   1      30.723  29.180  23.635  1.00  0.00     0.069 A 
ATOM     19  N   UNL A   1      30.471  27.537  22.075  1.00  0.00    -0.237 NA
ATOM     20  C   UNL A   1      29.924  28.676  22.614  1.00  0.00     0.088 A 
ATOM     21  C   UNL A   1      30.425  30.365  24.319  1.00  0.00     0.028 A 
ATOM     22  C   UNL A   1      28.731  29.340  22.294  1.00  0.00     0.030 A 
ATOM     23  C   UNL A   1      29.240  31.020  23.977  1.00  0.00     0.002 A 
ATOM     24  C   UNL A   1      28.395  30.507  22.995  1.00  0.00     0.002 A 
ENDBRANCH  14  16
ENDBRANCH  11  14
ENDBRANCH   8  10
ENDBRANCH   6   8
ENDBRANCH   5   6
ENDBRANCH   4   5
ENDBRANCH   3   4
ENDBRANCH   2   3
ENDBRANCH   1   2
BRANCH   1  25
ATOM     25  C   UNL A   1      36.375  22.707  24.503  1.00  0.00     0.188 C 
BRANCH  25  26
ATOM     26  O   UNL A   1      35.672  21.500  24.251  1.00  0.00    -0.376 OA
BRANCH  26  27
ATOM     27  C   UNL A   1      36.254  20.314  24.810  1.00  0.00     0.202 C 
BRANCH  27  28
ATOM     28  C   UNL A   1      37.794  20.266  24.966  1.00  0.00     0.261 C 
BRANCH  28  29
ATOM     29  O   UNL A   1      38.363  20.959  26.104  1.00  0.00    -0.460 OA
BRANCH  29  30
ATOM     30  C   UNL A   1      39.691  20.846  26.343  1.00  0.00     0.338 C 
ATOM     31  O   UNL A   1      40.413  19.944  25.948  1.00  0.00    -0.246 OA
BRANCH  30  32
ATOM     32  C   UNL A   1      40.200  22.139  26.904  1.00  0.00     0.060 A 
ATOM     33  C   UNL A   1      39.598  23.332  26.470  1.00  0.00     0.016 A 
ATOM     34  C   UNL A   1      41.177  22.197  27.905  1.00  0.00     0.016 A 
ATOM     35  C   UNL A   1      40.003  24.573  26.981  1.00  0.00     0.010 A 
ATOM     36  C   UNL A   1      41.594  23.441  28.406  1.00  0.00     0.010 A 
ATOM     37  C   UNL A   1      41.042  24.641  27.916  1.00  0.00    -0.014 A 
BRANCH  37  38
ATOM     38  C   UNL A   1      41.736  25.934  28.179  1.00  0.00     0.031 A 
ATOM     39  C   UNL A   1      40.938  27.026  28.850  1.00  0.00     0.074 A 
ATOM     40  C   UNL A   1      43.018  26.171  27.842  1.00  0.00     0.049 A 
ATOM     41  N   UNL A   1      41.261  28.270  29.093  1.00  0.00    -0.248 NA
ATOM     42  C   UNL A   1      39.585  26.658  29.301  1.00  0.00     0.031 C 
ATOM     43  C   UNL A   1      43.929  25.210  27.227  1.00  0.00     0.029 A 
ATOM     44  N   UNL A   1      43.766  27.322  27.946  1.00  0.00    -0.354 N 
ATOM     45  C   UNL A   1      40.140  28.842  29.683  1.00  0.00     0.074 A 
ATOM     46  C   UNL A   1      39.127  27.813  29.757  1.00  0.00     0.031 C 
ATOM     47  C   UNL A   1      45.102  25.820  26.976  1.00  0.00     0.029 A 
ATOM     48  C   UNL A   1      45.015  27.225  27.378  1.00  0.00     0.049 A 
ATOM     49  H   UNL A   1      43.438  28.139  28.386  1.00  0.00     0.167 HD
ATOM     50  C   UNL A   1      39.961  30.108  30.131  1.00  0.00     0.034 A 
ATOM     51  C   UNL A   1      45.965  28.165  27.176  1.00  0.00     0.034 A 
ATOM     52  C   UNL A   1      40.963  31.135  30.076  1.00  0.00     0.049 A 
ATOM     53  C   UNL A   1      45.727  29.585  27.636  1.00  0.00     0.074 A 
ATOM     54  C   UNL A   1      40.880  32.440  30.531  1.00  0.00     0.029 A 
ATOM     55  N   UNL A   1      42.222  30.986  29.519  1.00  0.00    -0.354 N 
ATOM     56  N   UNL A   1      44.693  30.090  28.265  1.00  0.00    -0.248 NA
ATOM     57  C   UNL A   1      46.800  30.562  27.380  1.00  0.00     0.031 C 
ATOM     58  C   UNL A   1      42.078  33.088  30.220  1.00  0.00     0.029 A 
ATOM     59  C   UNL A   1      42.924  32.175  29.612  1.00  0.00     0.049 A 
ATOM     60  H   UNL A   1      42.567  30.155  29.119  1.00  0.00     0.167 HD
ATOM     61  C   UNL A   1      45.012  31.422  28.521  1.00  0.00     0.074 A 
ATOM     62  C   UNL A   1      46.338  31.646  27.986  1.00  0.00     0.031 C 
ATOM     63  C   UNL A   1      44.269  32.376  29.137  1.00  0.00     0.034 A 
BRANCH  50  64
ATOM     64  C   UNL A   1      38.621  30.449  30.725  1.00  0.00     0.023 A 
ATOM     65  C   UNL A   1      38.342  30.120  32.067  1.00  0.00     0.012 A 
ATOM     66  C   UNL A   1      37.650  31.127  29.962  1.00  0.00     0.148 A 
ATOM     67  C   UNL A   1      37.103  30.425  32.629  1.00  0.00     0.002 A 
ATOM     68  C   UNL A   1      36.436  31.471  30.543  1.00  0.00     0.091 A 
ATOM     69  F   UNL A   1      37.926  31.409  28.681  1.00  0.00    -0.205 F 
ATOM     70  C   UNL A   1      36.155  31.108  31.871  1.00  0.00     0.022 A 
BRANCH  68  71
ATOM     71  S   UNL A   1      35.184  32.423  29.676  1.00  0.00     0.127 S 
ATOM     72  O   UNL A   1      35.982  33.507  29.106  1.00  0.00    -0.237 OA
ATOM     73  O   UNL A   1      34.685  31.454  28.700  1.00  0.00    -0.237 OA
ATOM     74  O   UNL A   1      34.215  32.825  30.686  1.00  0.00    -0.744 OA
ENDBRANCH  68  71
ENDBRANCH  50  64
BRANCH  51  75
ATOM     75  C   UNL A   1      47.253  27.805  26.508  1.00  0.00     0.023 A 
ATOM     76  C   UNL A   1      48.379  27.485  27.292  1.00  0.00     0.012 A 
ATOM     77  C   UNL A   1      47.372  27.800  25.105  1.00  0.00     0.148 A 
ATOM     78  C   UNL A   1      49.606  27.196  26.693  1.00  0.00     0.002 A 
ATOM     79  C   UNL A   1      48.582  27.457  24.513  1.00  0.00     0.091 A 
ATOM     80  F   UNL A   1      46.297  28.130  24.375  1.00  0.00    -0.205 F 
ATOM     81  C   UNL A   1      49.706  27.172  25.305  1.00  0.00     0.022 A 
BRANCH  79  82
ATOM     82  S   UNL A   1      48.778  27.289  22.735  1.00  0.00     0.127 S 
ATOM     83  O   UNL A   1      47.900  28.343  22.235  1.00  0.00    -0.237 OA
ATOM     84  O   UNL A   1      50.208  27.545  22.567  1.00  0.00    -0.237 OA
ATOM     85  O   UNL A   1      48.368  25.927  22.421  1.00  0.00    -0.744 OA
ENDBRANCH  79  82
ENDBRANCH  51  75
BRANCH  63  86
ATOM     86  C   UNL A   1      44.881  33.738  29.347  1.00  0.00     0.023 A 
ATOM     87  C   UNL A   1      44.690  34.759  28.395  1.00  0.00     0.012 A 
ATOM     88  C   UNL A   1      45.563  34.033  30.547  1.00  0.00     0.148 A 
ATOM     89  C   UNL A   1      45.195  36.041  28.621  1.00  0.00     0.002 A 
ATOM     90  C   UNL A   1      46.015  35.324  30.787  1.00  0.00     0.091 A 
ATOM     91  F   UNL A   1      45.746  33.046  31.435  1.00  0.00    -0.205 F 
ATOM     92  C   UNL A   1      45.844  36.327  29.819  1.00  0.00     0.022 A 
BRANCH  90  93
ATOM     93  S   UNL A   1      46.771  35.810  32.344  1.00  0.00     0.127 S 
ATOM     94  O   UNL A   1      47.033  37.231  32.118  1.00  0.00    -0.237 OA
ATOM     95  O   UNL A   1      45.704  35.532  33.306  1.00  0.00    -0.237 OA
ATOM     96  O   UNL A   1      47.954  34.974  32.495  1.00  0.00    -0.744 OA
ENDBRANCH  90  93
ENDBRANCH  63  86
ENDBRANCH  37  38
ENDBRANCH  30  32
ENDBRANCH  29  30
ENDBRANCH  28  29
ENDBRANCH  27  28
ENDBRANCH  26  27
ENDBRANCH  25  26
ENDBRANCH   1  25
TORSDOF 23
ENDMDL
MODEL 3
REMARK VINA RESULT:     -10.3      4.432      6.700
REMARK SMILES C[C@H](C(=O)N[C@H](C)C(=O)OCCOCCOCCOC(=O)c1ccc(-c2c3nc(c(-c4cccc(S(=O)(=O)[O-])c4F)c4ccc([nH]4)c(-c4cccc(S(=O)(=O)[O-])c4F)c4nc(c(-c5cccc(S(=O)(=O)[O-])c5F)c5ccc2[nH]5)C=C4)C=C3)cc1)n1cnc2ccccc21
REMARK SMILES IDX 14 1 13 2 12 3 11 4 10 5 8 6 9 7 6 8 7 9 5 10 3 11 4 12 2 14
REMARK SMILES IDX 1 15 85 16 86 17 93 18 87 19 88 20 92 21 89 22 91 23 90 24
REMARK SMILES IDX 15 25 16 26 17 27 18 28 19 29 20 30 21 31 22 32 23 33 84 34
REMARK SMILES IDX 24 35 83 36 25 37 26 38 27 39 77 40 28 41 82 42 76 43 78 44
REMARK SMILES IDX 29 45 81 46 75 47 74 48 30 50 62 51 42 52 61 53 43 54 46 55
REMARK SMILES IDX 60 56 79 57 44 58 45 59 59 61 80 62 47 63 31 64 32 65 40 66
REMARK SMILES IDX 33 67 35 68 41 69 34 70 36 71 37 72 38 73 39 74 63 75 64 76
REMARK SMILES IDX 72 77 65 78 67 79 73 80 66 81 68 82 69 83 70 84 71 85 48 86
REMARK SMILES IDX 49 87 57 88 50 89 52 90 58 91 51 92 53 93 54 94 55 95 56 96
REMARK H PARENT 5 13 78 49 46 60
REMARK Flexibility Score: inf
ROOT
ATOM      1  C   UNL A   1      36.128  22.710  23.918  1.00  0.00     0.188 C 
ENDROOT
BRANCH   1   2
ATOM      2  O   UNL A   1      35.012  23.320  24.546  1.00  0.00    -0.376 OA
BRANCH   2   3
ATOM      3  C   UNL A   1      35.113  24.709  24.841  1.00  0.00     0.202 C 
BRANCH   3   4
ATOM      4  C   UNL A   1      33.932  25.599  24.429  1.00  0.00     0.261 C 
BRANCH   4   5
ATOM      5  O   UNL A   1      32.832  24.889  23.830  1.00  0.00    -0.462 OA
BRANCH   5   6
ATOM      6  C   UNL A   1      31.633  25.537  23.850  1.00  0.00     0.328 C 
ATOM      7  O   UNL A   1      31.317  26.466  23.113  1.00  0.00    -0.250 OA
BRANCH   6   8
ATOM      8  C   UNL A   1      30.750  25.110  25.038  1.00  0.00     0.189 C 
ATOM      9  C   UNL A   1      29.446  25.864  25.253  1.00  0.00     0.043 C 
BRANCH   8  10
ATOM     10  N   UNL A   1      30.626  23.656  24.917  1.00  0.00    -0.341 N 
ATOM     11  C   UNL A   1      30.945  22.865  25.996  1.00  0.00     0.243 C 
ATOM     12  O   UNL A   1      30.049  22.490  26.748  1.00  0.00    -0.273 OA
ATOM     13  H   UNL A   1      30.319  23.251  24.075  1.00  0.00     0.164 HD
BRANCH  11  14
ATOM     14  C   UNL A   1      32.406  22.449  26.130  1.00  0.00     0.174 C 
ATOM     15  C   UNL A   1      32.907  22.494  27.579  1.00  0.00     0.042 C 
BRANCH  14  16
ATOM     16  N   UNL A   1      32.586  21.127  25.541  1.00  0.00    -0.318 N 
ATOM     17  C   UNL A   1      32.819  19.973  26.239  1.00  0.00     0.201 A 
ATOM     18  C   UNL A   1      32.449  20.800  24.214  1.00  0.00     0.069 A 
ATOM     19  N   UNL A   1      32.728  18.916  25.465  1.00  0.00    -0.237 NA
ATOM     20  C   UNL A   1      32.474  19.410  24.209  1.00  0.00     0.088 A 
ATOM     21  C   UNL A   1      32.263  21.561  23.053  1.00  0.00     0.028 A 
ATOM     22  C   UNL A   1      32.237  18.730  23.005  1.00  0.00     0.030 A 
ATOM     23  C   UNL A   1      32.042  20.868  21.862  1.00  0.00     0.002 A 
ATOM     24  C   UNL A   1      32.009  19.474  21.839  1.00  0.00     0.002 A 
ENDBRANCH  14  16
ENDBRANCH  11  14
ENDBRANCH   8  10
ENDBRANCH   6   8
ENDBRANCH   5   6
ENDBRANCH   4   5
ENDBRANCH   3   4
ENDBRANCH   2   3
ENDBRANCH   1   2
BRANCH   1  25
ATOM     25  C   UNL A   1      36.833  21.590  24.681  1.00  0.00     0.188 C 
BRANCH  25  26
ATOM     26  O   UNL A   1      36.216  20.313  24.725  1.00  0.00    -0.376 OA
BRANCH  26  27
ATOM     27  C   UNL A   1      37.085  19.214  25.034  1.00  0.00     0.202 C 
BRANCH  27  28
ATOM     28  C   UNL A   1      38.601  19.501  25.156  1.00  0.00     0.261 C 
BRANCH  28  29
ATOM     29  O   UNL A   1      39.038  20.256  26.312  1.00  0.00    -0.460 OA
BRANCH  29  30
ATOM     30  C   UNL A   1      40.364  20.412  26.531  1.00  0.00     0.338 C 
ATOM     31  O   UNL A   1      41.242  19.642  26.173  1.00  0.00    -0.246 OA
BRANCH  30  32
ATOM     32  C   UNL A   1      40.623  21.809  27.008  1.00  0.00     0.060 A 
ATOM     33  C   UNL A   1      39.818  22.842  26.497  1.00  0.00     0.016 A 
ATOM     34  C   UNL A   1      41.560  22.108  28.003  1.00  0.00     0.016 A 
ATOM     35  C   UNL A   1      39.984  24.166  26.928  1.00  0.00     0.010 A 
ATOM     36  C   UNL A   1      41.738  23.437  28.422  1.00  0.00     0.010 A 
ATOM     37  C   UNL A   1      40.981  24.482  27.857  1.00  0.00    -0.014 A 
BRANCH  37  38
ATOM     38  C   UNL A   1      41.424  25.895  28.036  1.00  0.00     0.031 A 
ATOM     39  C   UNL A   1      42.805  26.256  27.545  1.00  0.00     0.074 A 
ATOM     40  C   UNL A   1      40.665  26.843  28.617  1.00  0.00     0.049 A 
ATOM     41  N   UNL A   1      43.473  27.373  27.674  1.00  0.00    -0.248 NA
ATOM     42  C   UNL A   1      43.530  25.203  26.813  1.00  0.00     0.031 C 
ATOM     43  C   UNL A   1      39.301  26.662  29.105  1.00  0.00     0.029 A 
ATOM     44  N   UNL A   1      40.959  28.154  28.921  1.00  0.00    -0.354 N 
ATOM     45  C   UNL A   1      44.709  27.144  27.079  1.00  0.00     0.074 A 
ATOM     46  C   UNL A   1      44.700  25.781  26.594  1.00  0.00     0.031 C 
ATOM     47  C   UNL A   1      38.887  27.808  29.680  1.00  0.00     0.029 A 
ATOM     48  C   UNL A   1      39.970  28.793  29.633  1.00  0.00     0.049 A 
ATOM     49  H   UNL A   1      41.798  28.593  28.653  1.00  0.00     0.167 HD
ATOM     50  C   UNL A   1      45.760  27.985  26.940  1.00  0.00     0.034 A 
ATOM     51  C   UNL A   1      39.951  30.015  30.208  1.00  0.00     0.034 A 
ATOM     52  C   UNL A   1      45.777  29.344  27.405  1.00  0.00     0.049 A 
ATOM     53  C   UNL A   1      41.154  30.922  30.087  1.00  0.00     0.074 A 
ATOM     54  C   UNL A   1      46.789  30.280  27.282  1.00  0.00     0.029 A 
ATOM     55  N   UNL A   1      44.745  29.959  28.094  1.00  0.00    -0.354 N 
ATOM     56  N   UNL A   1      42.283  30.720  29.451  1.00  0.00    -0.248 NA
ATOM     57  C   UNL A   1      41.070  32.239  30.742  1.00  0.00     0.031 C 
ATOM     58  C   UNL A   1      46.382  31.451  27.928  1.00  0.00     0.029 A 
ATOM     59  C   UNL A   1      45.097  31.259  28.411  1.00  0.00     0.049 A 
ATOM     60  H   UNL A   1      43.886  29.533  28.322  1.00  0.00     0.167 HD
ATOM     61  C   UNL A   1      43.018  31.896  29.590  1.00  0.00     0.074 A 
ATOM     62  C   UNL A   1      42.204  32.810  30.362  1.00  0.00     0.031 C 
ATOM     63  C   UNL A   1      44.258  32.188  29.123  1.00  0.00     0.034 A 
BRANCH  50  64
ATOM     64  C   UNL A   1      46.988  27.452  26.250  1.00  0.00     0.023 A 
ATOM     65  C   UNL A   1      47.175  27.683  24.871  1.00  0.00     0.012 A 
ATOM     66  C   UNL A   1      47.971  26.752  26.975  1.00  0.00     0.148 A 
ATOM     67  C   UNL A   1      48.304  27.189  24.218  1.00  0.00     0.002 A 
ATOM     68  C   UNL A   1      49.116  26.308  26.327  1.00  0.00     0.091 A 
ATOM     69  F   UNL A   1      47.762  26.523  28.280  1.00  0.00    -0.205 F 
ATOM     70  C   UNL A   1      49.278  26.512  24.947  1.00  0.00     0.022 A 
BRANCH  68  71
ATOM     71  S   UNL A   1      50.464  25.497  27.194  1.00  0.00     0.127 S 
ATOM     72  O   UNL A   1      49.814  24.280  27.675  1.00  0.00    -0.237 OA
ATOM     73  O   UNL A   1      51.435  25.286  26.120  1.00  0.00    -0.237 OA
ATOM     74  O   UNL A   1      50.893  26.428  28.229  1.00  0.00    -0.744 OA
ENDBRANCH  68  71
ENDBRANCH  50  64
BRANCH  51  75
ATOM     75  C   UNL A   1      38.743  30.479  30.956  1.00  0.00     0.023 A 
ATOM     76  C   UNL A   1      38.625  30.202  32.332  1.00  0.00     0.012 A 
ATOM     77  C   UNL A   1      37.704  31.173  30.306  1.00  0.00     0.148 A 
ATOM     78  C   UNL A   1      37.483  30.580  33.041  1.00  0.00     0.002 A 
ATOM     79  C   UNL A   1      36.593  31.595  31.029  1.00  0.00     0.091 A 
ATOM     80  F   UNL A   1      37.821  31.406  28.991  1.00  0.00    -0.205 F 
ATOM     81  C   UNL A   1      36.473  31.285  32.393  1.00  0.00     0.022 A 
BRANCH  79  82
ATOM     82  S   UNL A   1      35.295  32.606  30.308  1.00  0.00     0.127 S 
ATOM     83  O   UNL A   1      34.869  31.786  29.177  1.00  0.00    -0.237 OA
ATOM     84  O   UNL A   1      34.335  32.686  31.409  1.00  0.00    -0.237 OA
ATOM     85  O   UNL A   1      35.926  33.873  29.964  1.00  0.00    -0.744 OA
ENDBRANCH  79  82
ENDBRANCH  51  75
BRANCH  63  86
ATOM     86  C   UNL A   1      44.805  33.574  29.358  1.00  0.00     0.023 A 
ATOM     87  C   UNL A   1      45.539  33.863  30.526  1.00  0.00     0.012 A 
ATOM     88  C   UNL A   1      44.674  34.566  28.364  1.00  0.00     0.148 A 
ATOM     89  C   UNL A   1      46.107  35.124  30.713  1.00  0.00     0.002 A 
ATOM     90  C   UNL A   1      45.287  35.802  28.533  1.00  0.00     0.091 A 
ATOM     91  F   UNL A   1      43.962  34.279  27.265  1.00  0.00    -0.205 F 
ATOM     92  C   UNL A   1      45.993  36.087  29.713  1.00  0.00     0.022 A 
BRANCH  90  93
ATOM     93  S   UNL A   1      45.281  37.067  27.257  1.00  0.00     0.127 S 
ATOM     94  O   UNL A   1      45.996  36.399  26.171  1.00  0.00    -0.237 OA
ATOM     95  O   UNL A   1      43.850  37.257  27.017  1.00  0.00    -0.237 OA
ATOM     96  O   UNL A   1      45.957  38.222  27.831  1.00  0.00    -0.744 OA
ENDBRANCH  90  93
ENDBRANCH  63  86
ENDBRANCH  37  38
ENDBRANCH  30  32
ENDBRANCH  29  30
ENDBRANCH  28  29
ENDBRANCH  27  28
ENDBRANCH  26  27
ENDBRANCH  25  26
ENDBRANCH   1  25
TORSDOF 23
ENDMDL
