MODEL 1
REMARK VINA RESULT:     -11.0      0.000      0.000
REMARK SMILES CC(C)OC(=O)c1c(NC(=O)[C@H]2[C@@H](C(=O)OCCOCCOCCOC(=O)c3ccc(-c4c5nc(c(-c6cccc(S(=O)(=O)[O-])c6F)c6ccc([nH]6)c(-c6cccc(S(=O)(=O)[O-])c6F)c6nc(c(-c7cccc(S(=O)(=O)[O-])c7F)c7ccc4[nH]7)C=C6)C=C5)cc3)[C@@H]3C=C[C@H]2CC3)sc2c1CCC2
REMARK SMILES IDX 20 1 19 2 18 3 17 4 16 5 14 6 15 7 13 8 12 9 94 10 91 11
REMARK SMILES IDX 93 12 95 13 92 14 96 15 10 16 9 17 11 19 8 20 7 21 99 22
REMARK SMILES IDX 97 23 98 24 100 25 102 26 101 27 5 28 6 29 4 30 2 31 1 32
REMARK SMILES IDX 3 33 21 34 22 35 23 36 24 37 25 38 26 39 27 40 28 41 29 42
REMARK SMILES IDX 90 43 30 44 89 45 31 46 32 47 33 48 83 49 34 50 88 51 82 52
REMARK SMILES IDX 84 53 35 54 87 55 81 56 80 57 36 59 68 60 48 61 67 62 49 63
REMARK SMILES IDX 52 64 66 65 85 66 50 67 51 68 65 70 86 71 53 72 37 73 38 74
REMARK SMILES IDX 46 75 39 76 41 77 47 78 40 79 42 80 43 81 44 82 45 83 69 84
REMARK SMILES IDX 70 85 78 86 71 87 73 88 79 89 72 90 74 91 75 92 76 93 77 94
REMARK SMILES IDX 54 95 55 96 63 97 56 98 58 99 64 100 57 101 59 102 60 103
REMARK SMILES IDX 61 104 62 105
REMARK H PARENT 9 18 84 58 52 69
REMARK Flexibility Score: inf
ROOT
ATOM      1  C   UNL A   1      33.650  31.706  27.879  1.00  0.00     0.188 C 
ENDROOT
BRANCH   1   2
ATOM      2  O   UNL A   1      34.387  30.839  27.029  1.00  0.00    -0.376 OA
BRANCH   2   3
ATOM      3  C   UNL A   1      34.633  29.536  27.562  1.00  0.00     0.202 C 
BRANCH   3   4
ATOM      4  C   UNL A   1      33.773  28.431  26.927  1.00  0.00     0.261 C 
BRANCH   4   5
ATOM      5  O   UNL A   1      34.230  28.048  25.620  1.00  0.00    -0.463 OA
BRANCH   5   6
ATOM      6  C   UNL A   1      33.379  28.323  24.589  1.00  0.00     0.310 C 
ATOM      7  O   UNL A   1      33.625  29.146  23.728  1.00  0.00    -0.252 OA
BRANCH   6   8
ATOM      8  C   UNL A   1      32.209  27.349  24.648  1.00  0.00     0.119 C 
ATOM      9  C   UNL A   1      32.220  26.047  23.795  1.00  0.00     0.100 C 
ATOM     10  C   UNL A   1      31.000  26.071  22.834  1.00  0.00     0.025 C 
ATOM     11  C   UNL A   1      30.845  28.076  24.482  1.00  0.00     0.026 C 
ATOM     12  C   UNL A   1      29.784  26.035  23.744  1.00  0.00    -0.027 C 
ATOM     13  C   UNL A   1      30.956  27.414  22.061  1.00  0.00     0.009 C 
ATOM     14  C   UNL A   1      29.727  27.049  24.625  1.00  0.00    -0.027 C 
ATOM     15  C   UNL A   1      30.756  28.595  23.036  1.00  0.00     0.009 C 
BRANCH   9  16
ATOM     16  C   UNL A   1      33.476  25.626  23.056  1.00  0.00     0.229 C 
ATOM     17  N   UNL A   1      34.099  24.432  23.293  1.00  0.00    -0.317 N 
ATOM     18  H   UNL A   1      35.077  24.472  23.192  1.00  0.00     0.170 HD
ATOM     19  O   UNL A   1      33.961  26.329  22.166  1.00  0.00    -0.274 OA
BRANCH  17  20
ATOM     20  C   UNL A   1      33.628  23.172  23.649  1.00  0.00     0.110 A 
ATOM     21  C   UNL A   1      33.904  22.528  24.863  1.00  0.00     0.098 A 
ATOM     22  C   UNL A   1      33.439  21.183  24.818  1.00  0.00    -0.017 A 
ATOM     23  S   UNL A   1      32.776  22.152  22.569  1.00  0.00    -0.122 S 
ATOM     24  C   UNL A   1      32.776  20.903  23.659  1.00  0.00     0.011 A 
ATOM     25  C   UNL A   1      33.473  19.984  25.699  1.00  0.00     0.038 C 
ATOM     26  C   UNL A   1      32.239  19.527  23.573  1.00  0.00     0.047 C 
ATOM     27  C   UNL A   1      33.044  18.844  24.717  1.00  0.00     0.010 C 
BRANCH  21  28
ATOM     28  C   UNL A   1      34.637  23.178  25.942  1.00  0.00     0.341 C 
ATOM     29  O   UNL A   1      34.168  23.302  27.068  1.00  0.00    -0.246 OA
BRANCH  28  30
ATOM     30  O   UNL A   1      35.819  23.707  25.526  1.00  0.00    -0.459 OA
BRANCH  30  31
ATOM     31  C   UNL A   1      37.056  23.022  25.817  1.00  0.00     0.170 C 
ATOM     32  C   UNL A   1      37.483  22.010  24.753  1.00  0.00     0.052 C 
ATOM     33  C   UNL A   1      38.152  24.022  26.160  1.00  0.00     0.052 C 
ENDBRANCH  30  31
ENDBRANCH  28  30
ENDBRANCH  21  28
ENDBRANCH  17  20
ENDBRANCH   9  16
ENDBRANCH   6   8
ENDBRANCH   5   6
ENDBRANCH   4   5
ENDBRANCH   3   4
ENDBRANCH   2   3
ENDBRANCH   1   2
BRANCH   1  34
ATOM     34  C   UNL A   1      34.220  33.134  28.025  1.00  0.00     0.188 C 
BRANCH  34  35
ATOM     35  O   UNL A   1      33.697  34.053  28.975  1.00  0.00    -0.376 OA
BRANCH  35  36
ATOM     36  C   UNL A   1      34.126  34.009  30.331  1.00  0.00     0.202 C 
BRANCH  36  37
ATOM     37  C   UNL A   1      35.461  33.368  30.694  1.00  0.00     0.261 C 
BRANCH  37  38
ATOM     38  O   UNL A   1      35.399  31.954  30.799  1.00  0.00    -0.460 OA
BRANCH  38  39
ATOM     39  C   UNL A   1      36.282  31.434  31.675  1.00  0.00     0.338 C 
ATOM     40  O   UNL A   1      36.250  31.519  32.892  1.00  0.00    -0.246 OA
BRANCH  39  41
ATOM     41  C   UNL A   1      37.335  30.720  30.947  1.00  0.00     0.060 A 
ATOM     42  C   UNL A   1      37.213  29.328  30.882  1.00  0.00     0.016 A 
ATOM     43  C   UNL A   1      38.509  31.384  30.569  1.00  0.00     0.016 A 
ATOM     44  C   UNL A   1      38.348  28.582  30.668  1.00  0.00     0.010 A 
ATOM     45  C   UNL A   1      39.646  30.635  30.358  1.00  0.00     0.010 A 
ATOM     46  C   UNL A   1      39.565  29.253  30.518  1.00  0.00    -0.014 A 
BRANCH  46  47
ATOM     47  C   UNL A   1      40.770  28.465  30.664  1.00  0.00     0.031 A 
ATOM     48  C   UNL A   1      41.311  28.364  32.031  1.00  0.00     0.074 A 
ATOM     49  C   UNL A   1      41.301  27.812  29.611  1.00  0.00     0.049 A 
ATOM     50  N   UNL A   1      42.460  28.769  32.461  1.00  0.00    -0.248 NA
ATOM     51  C   UNL A   1      40.419  27.823  33.065  1.00  0.00     0.031 C 
ATOM     52  C   UNL A   1      40.685  27.604  28.296  1.00  0.00     0.029 A 
ATOM     53  N   UNL A   1      42.437  27.063  29.550  1.00  0.00    -0.354 N 
ATOM     54  C   UNL A   1      42.526  28.321  33.775  1.00  0.00     0.074 A 
ATOM     55  C   UNL A   1      41.197  27.901  34.143  1.00  0.00     0.031 C 
ATOM     56  C   UNL A   1      41.319  26.588  27.672  1.00  0.00     0.029 A 
ATOM     57  C   UNL A   1      42.449  26.174  28.484  1.00  0.00     0.049 A 
ATOM     58  H   UNL A   1      43.176  27.145  30.195  1.00  0.00     0.167 HD
ATOM     59  C   UNL A   1      43.711  28.082  34.393  1.00  0.00     0.034 A 
ATOM     60  C   UNL A   1      43.270  25.109  28.335  1.00  0.00     0.034 A 
ATOM     61  C   UNL A   1      44.823  28.709  33.737  1.00  0.00     0.049 A 
ATOM     62  C   UNL A   1      44.440  25.312  29.220  1.00  0.00     0.074 A 
ATOM     63  C   UNL A   1      45.162  30.004  33.406  1.00  0.00     0.029 A 
ATOM     64  N   UNL A   1      45.660  27.898  33.014  1.00  0.00    -0.354 N 
ATOM     65  N   UNL A   1      45.353  26.220  29.030  1.00  0.00    -0.248 NA
ATOM     66  C   UNL A   1      44.423  24.709  30.542  1.00  0.00     0.031 C 
ATOM     67  C   UNL A   1      45.891  29.902  32.187  1.00  0.00     0.029 A 
ATOM     68  C   UNL A   1      45.966  28.550  31.847  1.00  0.00     0.049 A 
ATOM     69  H   UNL A   1      45.984  27.008  33.283  1.00  0.00     0.167 HD
ATOM     70  C   UNL A   1      45.731  26.609  30.309  1.00  0.00     0.074 A 
ATOM     71  C   UNL A   1      45.243  25.547  31.181  1.00  0.00     0.031 C 
ATOM     72  C   UNL A   1      46.137  27.889  30.568  1.00  0.00     0.034 A 
BRANCH  59  73
ATOM     73  C   UNL A   1      43.885  26.997  35.416  1.00  0.00     0.023 A 
ATOM     74  C   UNL A   1      43.293  25.743  35.175  1.00  0.00     0.012 A 
ATOM     75  C   UNL A   1      44.419  27.226  36.704  1.00  0.00     0.148 A 
ATOM     76  C   UNL A   1      43.252  24.759  36.169  1.00  0.00     0.002 A 
ATOM     77  C   UNL A   1      44.469  26.213  37.650  1.00  0.00     0.091 A 
ATOM     78  F   UNL A   1      44.769  28.466  37.072  1.00  0.00    -0.205 F 
ATOM     79  C   UNL A   1      43.863  24.983  37.398  1.00  0.00     0.022 A 
BRANCH  77  80
ATOM     80  S   UNL A   1      45.359  26.450  39.191  1.00  0.00     0.127 S 
ATOM     81  O   UNL A   1      45.197  25.150  39.832  1.00  0.00    -0.237 OA
ATOM     82  O   UNL A   1      46.713  26.748  38.721  1.00  0.00    -0.237 OA
ATOM     83  O   UNL A   1      44.693  27.582  39.827  1.00  0.00    -0.744 OA
ENDBRANCH  77  80
ENDBRANCH  59  73
BRANCH  60  84
ATOM     84  C   UNL A   1      43.015  23.824  27.647  1.00  0.00     0.023 A 
ATOM     85  C   UNL A   1      41.738  23.237  27.728  1.00  0.00     0.012 A 
ATOM     86  C   UNL A   1      43.933  23.297  26.711  1.00  0.00     0.148 A 
ATOM     87  C   UNL A   1      41.378  22.176  26.890  1.00  0.00     0.002 A 
ATOM     88  C   UNL A   1      43.578  22.230  25.891  1.00  0.00     0.091 A 
ATOM     89  F   UNL A   1      45.121  23.899  26.556  1.00  0.00    -0.205 F 
ATOM     90  C   UNL A   1      42.295  21.675  25.969  1.00  0.00     0.022 A 
BRANCH  88  91
ATOM     91  S   UNL A   1      44.716  21.536  24.684  1.00  0.00     0.127 S 
ATOM     92  O   UNL A   1      44.196  20.178  24.519  1.00  0.00    -0.237 OA
ATOM     93  O   UNL A   1      44.509  22.413  23.535  1.00  0.00    -0.237 OA
ATOM     94  O   UNL A   1      46.033  21.597  25.305  1.00  0.00    -0.744 OA
ENDBRANCH  88  91
ENDBRANCH  60  84
BRANCH  72  95
ATOM     95  C   UNL A   1      46.474  28.780  29.395  1.00  0.00     0.023 A 
ATOM     96  C   UNL A   1      47.733  28.729  28.761  1.00  0.00     0.012 A 
ATOM     97  C   UNL A   1      45.456  29.557  28.811  1.00  0.00     0.148 A 
ATOM     98  C   UNL A   1      47.984  29.459  27.597  1.00  0.00     0.002 A 
ATOM     99  C   UNL A   1      45.695  30.243  27.624  1.00  0.00     0.091 A 
ATOM    100  F   UNL A   1      44.257  29.593  29.412  1.00  0.00    -0.205 F 
ATOM    101  C   UNL A   1      46.961  30.207  27.021  1.00  0.00     0.022 A 
BRANCH  99 102
ATOM    102  S   UNL A   1      44.379  31.107  26.758  1.00  0.00     0.127 S 
ATOM    103  O   UNL A   1      43.944  32.083  27.753  1.00  0.00    -0.237 OA
ATOM    104  O   UNL A   1      45.078  31.680  25.605  1.00  0.00    -0.237 OA
ATOM    105  O   UNL A   1      43.401  30.084  26.406  1.00  0.00    -0.744 OA
ENDBRANCH  99 102
ENDBRANCH  72  95
ENDBRANCH  46  47
ENDBRANCH  39  41
ENDBRANCH  38  39
ENDBRANCH  37  38
ENDBRANCH  36  37
ENDBRANCH  35  36
ENDBRANCH  34  35
ENDBRANCH   1  34
TORSDOF 25
ENDMDL
MODEL 2
REMARK VINA RESULT:     -10.2      3.361      7.540
REMARK SMILES CC(C)OC(=O)c1c(NC(=O)[C@H]2[C@@H](C(=O)OCCOCCOCCOC(=O)c3ccc(-c4c5nc(c(-c6cccc(S(=O)(=O)[O-])c6F)c6ccc([nH]6)c(-c6cccc(S(=O)(=O)[O-])c6F)c6nc(c(-c7cccc(S(=O)(=O)[O-])c7F)c7ccc4[nH]7)C=C6)C=C5)cc3)[C@@H]3C=C[C@H]2CC3)sc2c1CCC2
REMARK SMILES IDX 20 1 19 2 18 3 17 4 16 5 14 6 15 7 13 8 12 9 94 10 91 11
REMARK SMILES IDX 93 12 95 13 92 14 96 15 10 16 9 17 11 19 8 20 7 21 99 22
REMARK SMILES IDX 97 23 98 24 100 25 102 26 101 27 5 28 6 29 4 30 2 31 1 32
REMARK SMILES IDX 3 33 21 34 22 35 23 36 24 37 25 38 26 39 27 40 28 41 29 42
REMARK SMILES IDX 90 43 30 44 89 45 31 46 32 47 33 48 83 49 34 50 88 51 82 52
REMARK SMILES IDX 84 53 35 54 87 55 81 56 80 57 36 59 68 60 48 61 67 62 49 63
REMARK SMILES IDX 52 64 66 65 85 66 50 67 51 68 65 70 86 71 53 72 37 73 38 74
REMARK SMILES IDX 46 75 39 76 41 77 47 78 40 79 42 80 43 81 44 82 45 83 69 84
REMARK SMILES IDX 70 85 78 86 71 87 73 88 79 89 72 90 74 91 75 92 76 93 77 94
REMARK SMILES IDX 54 95 55 96 63 97 56 98 58 99 64 100 57 101 59 102 60 103
REMARK SMILES IDX 61 104 62 105
REMARK H PARENT 9 18 84 58 52 69
REMARK Flexibility Score: inf
ROOT
ATOM      1  C   UNL A   1      33.588  32.882  27.991  1.00  0.00     0.188 C 
ENDROOT
BRANCH   1   2
ATOM      2  O   UNL A   1      34.495  31.937  27.441  1.00  0.00    -0.376 OA
BRANCH   2   3
ATOM      3  C   UNL A   1      34.085  30.572  27.547  1.00  0.00     0.202 C 
BRANCH   3   4
ATOM      4  C   UNL A   1      33.052  30.150  26.489  1.00  0.00     0.261 C 
BRANCH   4   5
ATOM      5  O   UNL A   1      33.163  28.767  26.119  1.00  0.00    -0.463 OA
BRANCH   5   6
ATOM      6  C   UNL A   1      32.854  28.472  24.822  1.00  0.00     0.310 C 
ATOM      7  O   UNL A   1      33.389  29.013  23.873  1.00  0.00    -0.252 OA
BRANCH   6   8
ATOM      8  C   UNL A   1      31.881  27.301  24.807  1.00  0.00     0.119 C 
ATOM      9  C   UNL A   1      32.231  25.991  24.044  1.00  0.00     0.100 C 
ATOM     10  C   UNL A   1      31.156  25.748  22.950  1.00  0.00     0.025 C 
ATOM     11  C   UNL A   1      30.440  27.754  24.440  1.00  0.00     0.026 C 
ATOM     12  C   UNL A   1      29.862  25.524  23.714  1.00  0.00    -0.027 C 
ATOM     13  C   UNL A   1      30.968  27.027  22.094  1.00  0.00     0.009 C 
ATOM     14  C   UNL A   1      29.515  26.544  24.517  1.00  0.00    -0.027 C 
ATOM     15  C   UNL A   1      30.439  28.189  22.964  1.00  0.00     0.009 C 
BRANCH   9  16
ATOM     16  C   UNL A   1      33.624  25.780  23.482  1.00  0.00     0.229 C 
ATOM     17  N   UNL A   1      34.441  24.769  23.908  1.00  0.00    -0.317 N 
ATOM     18  H   UNL A   1      35.396  25.005  23.899  1.00  0.00     0.170 HD
ATOM     19  O   UNL A   1      34.061  26.490  22.572  1.00  0.00    -0.274 OA
BRANCH  17  20
ATOM     20  C   UNL A   1      34.191  23.474  24.352  1.00  0.00     0.110 A 
ATOM     21  C   UNL A   1      35.098  22.409  24.261  1.00  0.00     0.098 A 
ATOM     22  C   UNL A   1      34.454  21.189  24.619  1.00  0.00    -0.017 A 
ATOM     23  S   UNL A   1      32.661  22.959  24.920  1.00  0.00    -0.122 S 
ATOM     24  C   UNL A   1      33.171  21.386  25.037  1.00  0.00     0.011 A 
ATOM     25  C   UNL A   1      34.802  19.743  24.668  1.00  0.00     0.038 C 
ATOM     26  C   UNL A   1      32.465  20.155  25.456  1.00  0.00     0.047 C 
ATOM     27  C   UNL A   1      33.397  19.075  24.833  1.00  0.00     0.010 C 
BRANCH  21  28
ATOM     28  C   UNL A   1      36.464  22.584  23.783  1.00  0.00     0.341 C 
ATOM     29  O   UNL A   1      36.718  23.159  22.731  1.00  0.00    -0.246 OA
BRANCH  28  30
ATOM     30  O   UNL A   1      37.377  21.956  24.571  1.00  0.00    -0.459 OA
BRANCH  30  31
ATOM     31  C   UNL A   1      38.264  22.733  25.405  1.00  0.00     0.170 C 
ATOM     32  C   UNL A   1      37.574  23.852  26.186  1.00  0.00     0.052 C 
ATOM     33  C   UNL A   1      39.103  21.821  26.288  1.00  0.00     0.052 C 
ENDBRANCH  30  31
ENDBRANCH  28  30
ENDBRANCH  21  28
ENDBRANCH  17  20
ENDBRANCH   9  16
ENDBRANCH   6   8
ENDBRANCH   5   6
ENDBRANCH   4   5
ENDBRANCH   3   4
ENDBRANCH   2   3
ENDBRANCH   1   2
BRANCH   1  34
ATOM     34  C   UNL A   1      34.203  34.243  28.382  1.00  0.00     0.188 C 
BRANCH  34  35
ATOM     35  O   UNL A   1      33.428  35.262  29.001  1.00  0.00    -0.376 OA
BRANCH  35  36
ATOM     36  C   UNL A   1      33.146  35.207  30.394  1.00  0.00     0.202 C 
BRANCH  36  37
ATOM     37  C   UNL A   1      34.177  34.643  31.365  1.00  0.00     0.261 C 
BRANCH  37  38
ATOM     38  O   UNL A   1      34.013  33.257  31.620  1.00  0.00    -0.460 OA
BRANCH  38  39
ATOM     39  C   UNL A   1      34.811  32.786  32.600  1.00  0.00     0.338 C 
ATOM     40  O   UNL A   1      34.718  33.007  33.797  1.00  0.00    -0.246 OA
BRANCH  39  41
ATOM     41  C   UNL A   1      35.853  31.934  32.019  1.00  0.00     0.060 A 
ATOM     42  C   UNL A   1      36.838  31.468  32.896  1.00  0.00     0.016 A 
ATOM     43  C   UNL A   1      35.979  31.818  30.629  1.00  0.00     0.016 A 
ATOM     44  C   UNL A   1      38.057  31.103  32.376  1.00  0.00     0.010 A 
ATOM     45  C   UNL A   1      37.202  31.456  30.109  1.00  0.00     0.010 A 
ATOM     46  C   UNL A   1      38.248  31.209  30.996  1.00  0.00    -0.014 A 
BRANCH  46  47
ATOM     47  C   UNL A   1      39.615  31.180  30.520  1.00  0.00     0.031 A 
ATOM     48  C   UNL A   1      40.061  29.911  29.919  1.00  0.00     0.074 A 
ATOM     49  C   UNL A   1      40.386  32.284  30.566  1.00  0.00     0.049 A 
ATOM     50  N   UNL A   1      41.010  29.132  30.322  1.00  0.00    -0.248 NA
ATOM     51  C   UNL A   1      39.289  29.403  28.777  1.00  0.00     0.031 C 
ATOM     52  C   UNL A   1      39.954  33.655  30.862  1.00  0.00     0.029 A 
ATOM     53  N   UNL A   1      41.691  32.435  30.206  1.00  0.00    -0.354 N 
ATOM     54  C   UNL A   1      41.106  28.151  29.343  1.00  0.00     0.074 A 
ATOM     55  C   UNL A   1      39.930  28.266  28.516  1.00  0.00     0.031 C 
ATOM     56  C   UNL A   1      40.897  34.515  30.422  1.00  0.00     0.029 A 
ATOM     57  C   UNL A   1      42.036  33.753  29.941  1.00  0.00     0.049 A 
ATOM     58  H   UNL A   1      42.326  31.685  30.141  1.00  0.00     0.167 HD
ATOM     59  C   UNL A   1      42.260  27.475  29.115  1.00  0.00     0.034 A 
ATOM     60  C   UNL A   1      43.137  34.179  29.280  1.00  0.00     0.034 A 
ATOM     61  C   UNL A   1      43.191  27.568  30.203  1.00  0.00     0.049 A 
ATOM     62  C   UNL A   1      44.131  33.082  29.303  1.00  0.00     0.074 A 
ATOM     63  C   UNL A   1      43.167  27.241  31.543  1.00  0.00     0.029 A 
ATOM     64  N   UNL A   1      44.276  28.389  30.030  1.00  0.00    -0.354 N 
ATOM     65  N   UNL A   1      44.756  32.682  30.373  1.00  0.00    -0.248 NA
ATOM     66  C   UNL A   1      44.192  32.175  28.169  1.00  0.00     0.031 C 
ATOM     67  C   UNL A   1      43.982  28.217  32.184  1.00  0.00     0.029 A 
ATOM     68  C   UNL A   1      44.466  29.081  31.199  1.00  0.00     0.049 A 
ATOM     69  H   UNL A   1      44.822  28.468  29.214  1.00  0.00     0.167 HD
ATOM     70  C   UNL A   1      44.912  31.313  30.197  1.00  0.00     0.074 A 
ATOM     71  C   UNL A   1      44.688  31.093  28.773  1.00  0.00     0.031 C 
ATOM     72  C   UNL A   1      44.913  30.459  31.264  1.00  0.00     0.034 A 
BRANCH  59  73
ATOM     73  C   UNL A   1      42.664  27.001  27.748  1.00  0.00     0.023 A 
ATOM     74  C   UNL A   1      42.663  27.926  26.687  1.00  0.00     0.012 A 
ATOM     75  C   UNL A   1      42.831  25.637  27.420  1.00  0.00     0.148 A 
ATOM     76  C   UNL A   1      42.837  27.510  25.363  1.00  0.00     0.002 A 
ATOM     77  C   UNL A   1      43.107  25.242  26.119  1.00  0.00     0.091 A 
ATOM     78  F   UNL A   1      42.597  24.693  28.342  1.00  0.00    -0.205 F 
ATOM     79  C   UNL A   1      43.085  26.170  25.080  1.00  0.00     0.022 A 
BRANCH  77  80
ATOM     80  S   UNL A   1      43.548  23.538  25.761  1.00  0.00     0.127 S 
ATOM     81  O   UNL A   1      44.602  23.292  26.738  1.00  0.00    -0.237 OA
ATOM     82  O   UNL A   1      42.289  22.835  26.015  1.00  0.00    -0.237 OA
ATOM     83  O   UNL A   1      43.944  23.550  24.357  1.00  0.00    -0.744 OA
ENDBRANCH  77  80
ENDBRANCH  59  73
BRANCH  60  84
ATOM     84  C   UNL A   1      43.313  35.385  28.440  1.00  0.00     0.023 A 
ATOM     85  C   UNL A   1      42.640  35.474  27.207  1.00  0.00     0.012 A 
ATOM     86  C   UNL A   1      43.932  36.549  28.949  1.00  0.00     0.148 A 
ATOM     87  C   UNL A   1      42.565  36.687  26.513  1.00  0.00     0.002 A 
ATOM     88  C   UNL A   1      43.870  37.749  28.247  1.00  0.00     0.091 A 
ATOM     89  F   UNL A   1      44.499  36.506  30.162  1.00  0.00    -0.205 F 
ATOM     90  C   UNL A   1      43.176  37.825  27.034  1.00  0.00     0.022 A 
BRANCH  88  91
ATOM     91  S   UNL A   1      44.640  39.253  28.863  1.00  0.00     0.127 S 
ATOM     92  O   UNL A   1      43.824  39.557  30.038  1.00  0.00    -0.237 OA
ATOM     93  O   UNL A   1      45.995  38.798  29.161  1.00  0.00    -0.237 OA
ATOM     94  O   UNL A   1      44.518  40.228  27.786  1.00  0.00    -0.744 OA
ENDBRANCH  88  91
ENDBRANCH  60  84
BRANCH  72  95
ATOM     95  C   UNL A   1      45.065  31.047  32.647  1.00  0.00     0.023 A 
ATOM     96  C   UNL A   1      46.333  31.296  33.214  1.00  0.00     0.012 A 
ATOM     97  C   UNL A   1      43.922  31.518  33.320  1.00  0.00     0.148 A 
ATOM     98  C   UNL A   1      46.458  31.963  34.435  1.00  0.00     0.002 A 
ATOM     99  C   UNL A   1      44.054  32.226  34.511  1.00  0.00     0.091 A 
ATOM    100  F   UNL A   1      42.719  31.288  32.771  1.00  0.00    -0.205 F 
ATOM    101  C   UNL A   1      45.319  32.440  35.077  1.00  0.00     0.022 A 
BRANCH  99 102
ATOM    102  S   UNL A   1      42.638  32.988  35.312  1.00  0.00     0.127 S 
ATOM    103  O   UNL A   1      43.226  33.521  36.538  1.00  0.00    -0.237 OA
ATOM    104  O   UNL A   1      42.228  34.003  34.339  1.00  0.00    -0.237 OA
ATOM    105  O   UNL A   1      41.664  31.917  35.492  1.00  0.00    -0.744 OA
ENDBRANCH  99 102
ENDBRANCH  72  95
ENDBRANCH  46  47
ENDBRANCH  39  41
ENDBRANCH  38  39
ENDBRANCH  37  38
ENDBRANCH  36  37
ENDBRANCH  35  36
ENDBRANCH  34  35
ENDBRANCH   1  34
TORSDOF 25
ENDMDL
MODEL 3
REMARK VINA RESULT:     -10.2      2.572      8.399
REMARK SMILES CC(C)OC(=O)c1c(NC(=O)[C@H]2[C@@H](C(=O)OCCOCCOCCOC(=O)c3ccc(-c4c5nc(c(-c6cccc(S(=O)(=O)[O-])c6F)c6ccc([nH]6)c(-c6cccc(S(=O)(=O)[O-])c6F)c6nc(c(-c7cccc(S(=O)(=O)[O-])c7F)c7ccc4[nH]7)C=C6)C=C5)cc3)[C@@H]3C=C[C@H]2CC3)sc2c1CCC2
REMARK SMILES IDX 20 1 19 2 18 3 17 4 16 5 14 6 15 7 13 8 12 9 94 10 91 11
REMARK SMILES IDX 93 12 95 13 92 14 96 15 10 16 9 17 11 19 8 20 7 21 99 22
REMARK SMILES IDX 97 23 98 24 100 25 102 26 101 27 5 28 6 29 4 30 2 31 1 32
REMARK SMILES IDX 3 33 21 34 22 35 23 36 24 37 25 38 26 39 27 40 28 41 29 42
REMARK SMILES IDX 90 43 30 44 89 45 31 46 32 47 33 48 83 49 34 50 88 51 82 52
REMARK SMILES IDX 84 53 35 54 87 55 81 56 80 57 36 59 68 60 48 61 67 62 49 63
REMARK SMILES IDX 52 64 66 65 85 66 50 67 51 68 65 70 86 71 53 72 37 73 38 74
REMARK SMILES IDX 46 75 39 76 41 77 47 78 40 79 42 80 43 81 44 82 45 83 69 84
REMARK SMILES IDX 70 85 78 86 71 87 73 88 79 89 72 90 74 91 75 92 76 93 77 94
REMARK SMILES IDX 54 95 55 96 63 97 56 98 58 99 64 100 57 101 59 102 60 103
REMARK SMILES IDX 61 104 62 105
REMARK H PARENT 9 18 84 58 52 69
REMARK Flexibility Score: inf
ROOT
ATOM      1  C   UNL A   1      40.452  21.015  26.166  1.00  0.00     0.188 C 
ENDROOT
BRANCH   1   2
ATOM      2  O   UNL A   1      39.103  20.838  25.758  1.00  0.00    -0.376 OA
BRANCH   2   3
ATOM      3  C   UNL A   1      38.297  22.017  25.811  1.00  0.00     0.202 C 
BRANCH   3   4
ATOM      4  C   UNL A   1      36.841  21.795  25.370  1.00  0.00     0.261 C 
BRANCH   4   5
ATOM      5  O   UNL A   1      35.933  22.753  25.937  1.00  0.00    -0.463 OA
BRANCH   5   6
ATOM      6  C   UNL A   1      34.653  22.317  26.128  1.00  0.00     0.310 C 
ATOM      7  O   UNL A   1      34.247  21.898  27.195  1.00  0.00    -0.252 OA
BRANCH   6   8
ATOM      8  C   UNL A   1      33.852  22.586  24.861  1.00  0.00     0.119 C 
ATOM      9  C   UNL A   1      32.686  23.618  24.866  1.00  0.00     0.100 C 
ATOM     10  C   UNL A   1      31.372  22.887  24.478  1.00  0.00     0.025 C 
ATOM     11  C   UNL A   1      33.384  21.268  24.183  1.00  0.00     0.026 C 
ATOM     12  C   UNL A   1      31.590  22.420  23.049  1.00  0.00    -0.027 C 
ATOM     13  C   UNL A   1      31.189  21.619  25.352  1.00  0.00     0.009 C 
ATOM     14  C   UNL A   1      32.656  21.617  22.890  1.00  0.00    -0.027 C 
ATOM     15  C   UNL A   1      32.332  20.612  25.094  1.00  0.00     0.009 C 
BRANCH   9  16
ATOM     16  C   UNL A   1      32.464  24.517  26.067  1.00  0.00     0.229 C 
ATOM     17  N   UNL A   1      32.185  25.850  25.942  1.00  0.00    -0.317 N 
ATOM     18  H   UNL A   1      32.555  26.399  26.670  1.00  0.00     0.170 HD
ATOM     19  O   UNL A   1      32.477  24.066  27.215  1.00  0.00    -0.274 OA
BRANCH  17  20
ATOM     20  C   UNL A   1      31.483  26.586  24.991  1.00  0.00     0.110 A 
ATOM     21  C   UNL A   1      31.991  27.698  24.306  1.00  0.00     0.098 A 
ATOM     22  C   UNL A   1      30.951  28.329  23.564  1.00  0.00    -0.017 A 
ATOM     23  S   UNL A   1      29.824  26.332  24.651  1.00  0.00    -0.122 S 
ATOM     24  C   UNL A   1      29.773  27.646  23.640  1.00  0.00     0.011 A 
ATOM     25  C   UNL A   1      30.795  29.541  22.715  1.00  0.00     0.038 C 
ATOM     26  C   UNL A   1      28.666  28.238  22.858  1.00  0.00     0.047 C 
ATOM     27  C   UNL A   1      29.239  29.662  22.601  1.00  0.00     0.010 C 
BRANCH  21  28
ATOM     28  C   UNL A   1      33.374  28.135  24.443  1.00  0.00     0.341 C 
ATOM     29  O   UNL A   1      34.140  28.190  23.486  1.00  0.00    -0.246 OA
BRANCH  28  30
ATOM     30  O   UNL A   1      33.725  28.360  25.738  1.00  0.00    -0.459 OA
BRANCH  30  31
ATOM     31  C   UNL A   1      33.264  29.551  26.411  1.00  0.00     0.170 C 
ATOM     32  C   UNL A   1      32.059  29.331  27.327  1.00  0.00     0.052 C 
ATOM     33  C   UNL A   1      34.421  30.252  27.108  1.00  0.00     0.052 C 
ENDBRANCH  30  31
ENDBRANCH  28  30
ENDBRANCH  21  28
ENDBRANCH  17  20
ENDBRANCH   9  16
ENDBRANCH   6   8
ENDBRANCH   5   6
ENDBRANCH   4   5
ENDBRANCH   3   4
ENDBRANCH   2   3
ENDBRANCH   1   2
BRANCH   1  34
ATOM     34  C   UNL A   1      41.301  19.726  26.229  1.00  0.00     0.188 C 
BRANCH  34  35
ATOM     35  O   UNL A   1      42.702  19.766  26.462  1.00  0.00    -0.376 OA
BRANCH  35  36
ATOM     36  C   UNL A   1      43.616  19.719  25.373  1.00  0.00     0.202 C 
BRANCH  36  37
ATOM     37  C   UNL A   1      44.363  20.977  24.942  1.00  0.00     0.261 C 
BRANCH  37  38
ATOM     38  O   UNL A   1      43.505  22.036  24.549  1.00  0.00    -0.460 OA
BRANCH  38  39
ATOM     39  C   UNL A   1      44.120  23.233  24.470  1.00  0.00     0.338 C 
ATOM     40  O   UNL A   1      45.120  23.508  23.825  1.00  0.00    -0.246 OA
BRANCH  39  41
ATOM     41  C   UNL A   1      43.404  24.210  25.296  1.00  0.00     0.060 A 
ATOM     42  C   UNL A   1      43.955  25.493  25.363  1.00  0.00     0.016 A 
ATOM     43  C   UNL A   1      42.379  23.794  26.155  1.00  0.00     0.016 A 
ATOM     44  C   UNL A   1      43.649  26.281  26.448  1.00  0.00     0.010 A 
ATOM     45  C   UNL A   1      42.076  24.582  27.244  1.00  0.00     0.010 A 
ATOM     46  C   UNL A   1      42.796  25.761  27.425  1.00  0.00    -0.014 A 
BRANCH  46  47
ATOM     47  C   UNL A   1      42.781  26.434  28.707  1.00  0.00     0.031 A 
ATOM     48  C   UNL A   1      41.716  27.433  28.897  1.00  0.00     0.074 A 
ATOM     49  C   UNL A   1      43.654  26.093  29.676  1.00  0.00     0.049 A 
ATOM     50  N   UNL A   1      41.846  28.701  29.114  1.00  0.00    -0.248 NA
ATOM     51  C   UNL A   1      40.330  26.974  28.735  1.00  0.00     0.031 C 
ATOM     52  C   UNL A   1      44.543  24.927  29.697  1.00  0.00     0.029 A 
ATOM     53  N   UNL A   1      43.815  26.635  30.915  1.00  0.00    -0.354 N 
ATOM     54  C   UNL A   1      40.555  29.157  29.347  1.00  0.00     0.074 A 
ATOM     55  C   UNL A   1      39.657  28.105  28.941  1.00  0.00     0.031 C 
ATOM     56  C   UNL A   1      44.946  24.706  30.967  1.00  0.00     0.029 A 
ATOM     57  C   UNL A   1      44.449  25.782  31.807  1.00  0.00     0.049 A 
ATOM     58  H   UNL A   1      43.511  27.541  31.154  1.00  0.00     0.167 HD
ATOM     59  C   UNL A   1      40.308  30.262  30.095  1.00  0.00     0.034 A 
ATOM     60  C   UNL A   1      44.476  25.902  33.154  1.00  0.00     0.034 A 
ATOM     61  C   UNL A   1      41.461  31.103  30.253  1.00  0.00     0.049 A 
ATOM     62  C   UNL A   1      44.143  27.305  33.490  1.00  0.00     0.074 A 
ATOM     63  C   UNL A   1      42.310  31.771  29.396  1.00  0.00     0.029 A 
ATOM     64  N   UNL A   1      42.087  31.084  31.473  1.00  0.00    -0.354 N 
ATOM     65  N   UNL A   1      44.919  28.322  33.243  1.00  0.00    -0.248 NA
ATOM     66  C   UNL A   1      42.764  27.635  33.808  1.00  0.00     0.031 C 
ATOM     67  C   UNL A   1      43.583  31.746  30.032  1.00  0.00     0.029 A 
ATOM     68  C   UNL A   1      43.439  31.073  31.247  1.00  0.00     0.049 A 
ATOM     69  H   UNL A   1      41.646  31.079  32.354  1.00  0.00     0.167 HD
ATOM     70  C   UNL A   1      44.047  29.364  32.949  1.00  0.00     0.074 A 
ATOM     71  C   UNL A   1      42.754  28.923  33.460  1.00  0.00     0.031 C 
ATOM     72  C   UNL A   1      44.393  30.345  32.062  1.00  0.00     0.034 A 
BRANCH  59  73
ATOM     73  C   UNL A   1      39.087  30.399  30.958  1.00  0.00     0.023 A 
ATOM     74  C   UNL A   1      38.875  29.454  31.980  1.00  0.00     0.012 A 
ATOM     75  C   UNL A   1      38.028  31.287  30.665  1.00  0.00     0.148 A 
ATOM     76  C   UNL A   1      37.668  29.409  32.686  1.00  0.00     0.002 A 
ATOM     77  C   UNL A   1      36.875  31.307  31.437  1.00  0.00     0.091 A 
ATOM     78  F   UNL A   1      38.070  32.036  29.555  1.00  0.00    -0.205 F 
ATOM     79  C   UNL A   1      36.677  30.352  32.433  1.00  0.00     0.022 A 
BRANCH  77  80
ATOM     80  S   UNL A   1      35.645  32.593  31.200  1.00  0.00     0.127 S 
ATOM     81  O   UNL A   1      36.479  33.778  31.044  1.00  0.00    -0.237 OA
ATOM     82  O   UNL A   1      34.965  32.147  29.983  1.00  0.00    -0.237 OA
ATOM     83  O   UNL A   1      34.813  32.528  32.397  1.00  0.00    -0.744 OA
ENDBRANCH  77  80
ENDBRANCH  59  73
BRANCH  60  84
ATOM     84  C   UNL A   1      44.556  24.843  34.183  1.00  0.00     0.023 A 
ATOM     85  C   UNL A   1      43.602  23.807  34.186  1.00  0.00     0.012 A 
ATOM     86  C   UNL A   1      45.698  24.700  35.004  1.00  0.00     0.148 A 
ATOM     87  C   UNL A   1      43.789  22.658  34.962  1.00  0.00     0.002 A 
ATOM     88  C   UNL A   1      45.871  23.563  35.788  1.00  0.00     0.091 A 
ATOM     89  F   UNL A   1      46.658  25.632  34.948  1.00  0.00    -0.205 F 
ATOM     90  C   UNL A   1      44.923  22.533  35.759  1.00  0.00     0.022 A 
BRANCH  88  91
ATOM     91  S   UNL A   1      47.311  23.343  36.842  1.00  0.00     0.127 S 
ATOM     92  O   UNL A   1      47.190  24.471  37.766  1.00  0.00    -0.237 OA
ATOM     93  O   UNL A   1      47.052  22.035  37.437  1.00  0.00    -0.237 OA
ATOM     94  O   UNL A   1      48.464  23.423  35.953  1.00  0.00    -0.744 OA
ENDBRANCH  88  91
ENDBRANCH  60  84
BRANCH  72  95
ATOM     95  C   UNL A   1      45.843  30.457  31.654  1.00  0.00     0.023 A 
ATOM     96  C   UNL A   1      46.768  31.218  32.400  1.00  0.00     0.012 A 
ATOM     97  C   UNL A   1      46.324  29.651  30.606  1.00  0.00     0.148 A 
ATOM     98  C   UNL A   1      48.130  31.204  32.089  1.00  0.00     0.002 A 
ATOM     99  C   UNL A   1      47.688  29.601  30.331  1.00  0.00     0.091 A 
ATOM    100  F   UNL A   1      45.441  28.921  29.906  1.00  0.00    -0.205 F 
ATOM    101  C   UNL A   1      48.592  30.385  31.062  1.00  0.00     0.022 A 
BRANCH  99 102
ATOM    102  S   UNL A   1      48.360  28.460  29.117  1.00  0.00     0.127 S 
ATOM    103  O   UNL A   1      47.814  27.180  29.560  1.00  0.00    -0.237 OA
ATOM    104  O   UNL A   1      47.798  28.963  27.861  1.00  0.00    -0.237 OA
ATOM    105  O   UNL A   1      49.810  28.595  29.209  1.00  0.00    -0.744 OA
ENDBRANCH  99 102
ENDBRANCH  72  95
ENDBRANCH  46  47
ENDBRANCH  39  41
ENDBRANCH  38  39
ENDBRANCH  37  38
ENDBRANCH  36  37
ENDBRANCH  35  36
ENDBRANCH  34  35
ENDBRANCH   1  34
TORSDOF 25
ENDMDL
