MODEL 1
REMARK VINA RESULT:     -10.4      0.000      0.000
REMARK SMILES N#C/C(=C/c1cc2c(cc1Br)OCO2)C(=O)OCCOCCOCCOC(=O)c1ccc(-c2c3nc(c(-c4cccc(S(=O)(=O)[O-])c4F)c4ccc([nH]4)c(-c4cccc(S(=O)(=O)[O-])c4F)c4nc(c(-c5cccc(S(=O)(=O)[O-])c5F)c5ccc2[nH]5)C=C4)C=C3)cc1
REMARK SMILES IDX 22 1 21 2 20 3 19 4 18 5 17 6 15 7 16 8 3 9 4 10 2 11 1 12
REMARK SMILES IDX 5 13 6 14 10 15 7 16 9 17 11 18 8 19 14 20 12 21 13 22 23 23
REMARK SMILES IDX 24 24 25 25 26 26 27 27 28 28 29 29 30 30 91 31 31 32 90 33
REMARK SMILES IDX 32 34 33 35 34 36 84 37 35 38 89 39 83 40 85 41 36 42 88 43
REMARK SMILES IDX 82 44 81 45 37 47 69 48 49 49 68 50 50 51 53 52 67 53 86 54
REMARK SMILES IDX 51 55 52 56 66 58 87 59 54 60 38 61 39 62 47 63 40 64 42 65
REMARK SMILES IDX 48 66 41 67 43 68 44 69 45 70 46 71 70 72 71 73 79 74 72 75
REMARK SMILES IDX 74 76 80 77 73 78 75 79 76 80 77 81 78 82 55 83 56 84 64 85
REMARK SMILES IDX 57 86 59 87 65 88 58 89 60 90 61 91 62 92 63 93
REMARK H PARENT 85 46 53 57
REMARK Flexibility Score: inf
ROOT
ATOM      1  C   UNL A   1      30.739  26.107  26.037  1.00  0.00     0.188 C 
ENDROOT
BRANCH   1   2
ATOM      2  C   UNL A   1      31.851  25.118  26.458  1.00  0.00     0.188 C 
BRANCH   2   3
ATOM      3  O   UNL A   1      31.492  24.000  27.243  1.00  0.00    -0.376 OA
BRANCH   3   4
ATOM      4  C   UNL A   1      32.080  22.727  27.020  1.00  0.00     0.202 C 
BRANCH   4   5
ATOM      5  C   UNL A   1      33.406  22.289  27.649  1.00  0.00     0.261 C 
BRANCH   5   6
ATOM      6  O   UNL A   1      34.276  21.602  26.746  1.00  0.00    -0.459 OA
BRANCH   6   7
ATOM      7  C   UNL A   1      35.240  22.371  26.182  1.00  0.00     0.348 C 
ATOM      8  O   UNL A   1      35.750  23.355  26.697  1.00  0.00    -0.245 OA
BRANCH   7   9
ATOM      9  C   UNL A   1      35.704  21.824  24.875  1.00  0.00     0.138 C 
ATOM     10  C   UNL A   1      35.289  22.312  23.685  1.00  0.00     0.036 C 
BRANCH   9  11
ATOM     11  C   UNL A   1      37.038  21.107  25.010  1.00  0.00     0.107 C 
ATOM     12  N   UNL A   1      38.144  20.512  25.121  1.00  0.00    -0.192 NA
ENDBRANCH   9  11
BRANCH  10  13
ATOM     13  C   UNL A   1      34.133  23.210  23.448  1.00  0.00    -0.006 A 
ATOM     14  C   UNL A   1      34.434  24.582  23.389  1.00  0.00     0.060 A 
ATOM     15  C   UNL A   1      32.782  22.808  23.243  1.00  0.00     0.029 A 
ATOM     16  C   UNL A   1      33.437  25.465  23.029  1.00  0.00     0.166 A 
ATOM     17  C   UNL A   1      31.808  23.720  22.810  1.00  0.00     0.067 A 
ATOM     18  Br  UNL A   1      32.156  21.049  23.622  1.00  0.00    -0.050 Br
ATOM     19  C   UNL A   1      32.172  25.042  22.708  1.00  0.00     0.166 A 
ATOM     20  O   UNL A   1      33.570  26.815  22.933  1.00  0.00    -0.454 OA
ATOM     21  O   UNL A   1      31.360  26.063  22.329  1.00  0.00    -0.454 OA
ATOM     22  C   UNL A   1      32.248  27.188  22.491  1.00  0.00     0.468 C 
ENDBRANCH  10  13
ENDBRANCH   7   9
ENDBRANCH   6   7
ENDBRANCH   5   6
ENDBRANCH   4   5
ENDBRANCH   3   4
ENDBRANCH   2   3
ENDBRANCH   1   2
BRANCH   1  23
ATOM     23  O   UNL A   1      31.060  27.387  25.548  1.00  0.00    -0.376 OA
BRANCH  23  24
ATOM     24  C   UNL A   1      31.831  28.227  26.388  1.00  0.00     0.202 C 
BRANCH  24  25
ATOM     25  C   UNL A   1      31.759  29.769  26.310  1.00  0.00     0.261 C 
BRANCH  25  26
ATOM     26  O   UNL A   1      32.985  30.484  26.074  1.00  0.00    -0.460 OA
BRANCH  26  27
ATOM     27  C   UNL A   1      33.325  31.419  27.010  1.00  0.00     0.338 C 
ATOM     28  O   UNL A   1      32.584  32.243  27.510  1.00  0.00    -0.246 OA
BRANCH  27  29
ATOM     29  C   UNL A   1      34.678  31.116  27.547  1.00  0.00     0.060 A 
ATOM     30  C   UNL A   1      35.054  29.773  27.734  1.00  0.00     0.016 A 
ATOM     31  C   UNL A   1      35.564  32.139  27.874  1.00  0.00     0.016 A 
ATOM     32  C   UNL A   1      36.306  29.452  28.266  1.00  0.00     0.010 A 
ATOM     33  C   UNL A   1      36.802  31.817  28.445  1.00  0.00     0.010 A 
ATOM     34  C   UNL A   1      37.167  30.476  28.675  1.00  0.00    -0.014 A 
BRANCH  34  35
ATOM     35  C   UNL A   1      38.341  30.168  29.533  1.00  0.00     0.031 A 
ATOM     36  C   UNL A   1      39.374  29.208  29.002  1.00  0.00     0.074 A 
ATOM     37  C   UNL A   1      38.485  30.695  30.762  1.00  0.00     0.049 A 
ATOM     38  N   UNL A   1      40.429  28.712  29.591  1.00  0.00    -0.248 NA
ATOM     39  C   UNL A   1      39.179  28.737  27.619  1.00  0.00     0.031 C 
ATOM     40  C   UNL A   1      37.581  31.659  31.386  1.00  0.00     0.029 A 
ATOM     41  N   UNL A   1      39.442  30.462  31.721  1.00  0.00    -0.354 N 
ATOM     42  C   UNL A   1      41.000  27.838  28.672  1.00  0.00     0.074 A 
ATOM     43  C   UNL A   1      40.174  27.873  27.484  1.00  0.00     0.031 C 
ATOM     44  C   UNL A   1      38.006  31.907  32.638  1.00  0.00     0.029 A 
ATOM     45  C   UNL A   1      39.192  31.100  32.915  1.00  0.00     0.049 A 
ATOM     46  H   UNL A   1      40.231  29.893  31.569  1.00  0.00     0.167 HD
ATOM     47  C   UNL A   1      42.113  27.078  28.800  1.00  0.00     0.034 A 
ATOM     48  C   UNL A   1      39.832  31.017  34.100  1.00  0.00     0.034 A 
ATOM     49  C   UNL A   1      42.946  27.059  29.971  1.00  0.00     0.049 A 
ATOM     50  C   UNL A   1      41.050  30.133  34.227  1.00  0.00     0.074 A 
ATOM     51  C   UNL A   1      44.128  26.366  30.170  1.00  0.00     0.029 A 
ATOM     52  N   UNL A   1      42.680  27.743  31.146  1.00  0.00    -0.354 N 
ATOM     53  N   UNL A   1      41.643  29.403  33.313  1.00  0.00    -0.248 NA
ATOM     54  C   UNL A   1      41.705  30.086  35.545  1.00  0.00     0.031 C 
ATOM     55  C   UNL A   1      44.550  26.595  31.483  1.00  0.00     0.029 A 
ATOM     56  C   UNL A   1      43.660  27.471  32.084  1.00  0.00     0.049 A 
ATOM     57  H   UNL A   1      41.907  28.336  31.291  1.00  0.00     0.167 HD
ATOM     58  C   UNL A   1      42.763  28.851  33.931  1.00  0.00     0.074 A 
ATOM     59  C   UNL A   1      42.773  29.342  35.292  1.00  0.00     0.031 C 
ATOM     60  C   UNL A   1      43.694  28.008  33.419  1.00  0.00     0.034 A 
BRANCH  47  61
ATOM     61  C   UNL A   1      42.499  26.197  27.642  1.00  0.00     0.023 A 
ATOM     62  C   UNL A   1      43.363  26.684  26.641  1.00  0.00     0.012 A 
ATOM     63  C   UNL A   1      42.054  24.862  27.583  1.00  0.00     0.148 A 
ATOM     64  C   UNL A   1      43.753  25.863  25.583  1.00  0.00     0.002 A 
ATOM     65  C   UNL A   1      42.486  24.037  26.552  1.00  0.00     0.091 A 
ATOM     66  F   UNL A   1      41.214  24.425  28.533  1.00  0.00    -0.205 F 
ATOM     67  C   UNL A   1      43.325  24.539  25.545  1.00  0.00     0.022 A 
BRANCH  65  68
ATOM     68  S   UNL A   1      42.058  22.295  26.461  1.00  0.00     0.127 S 
ATOM     69  O   UNL A   1      42.616  21.789  27.714  1.00  0.00    -0.237 OA
ATOM     70  O   UNL A   1      40.596  22.341  26.420  1.00  0.00    -0.237 OA
ATOM     71  O   UNL A   1      42.685  21.786  25.250  1.00  0.00    -0.744 OA
ENDBRANCH  65  68
ENDBRANCH  47  61
BRANCH  48  72
ATOM     72  C   UNL A   1      39.355  31.808  35.273  1.00  0.00     0.023 A 
ATOM     73  C   UNL A   1      38.443  31.227  36.176  1.00  0.00     0.012 A 
ATOM     74  C   UNL A   1      39.778  33.134  35.485  1.00  0.00     0.148 A 
ATOM     75  C   UNL A   1      37.931  31.964  37.245  1.00  0.00     0.002 A 
ATOM     76  C   UNL A   1      39.306  33.846  36.583  1.00  0.00     0.091 A 
ATOM     77  F   UNL A   1      40.630  33.678  34.605  1.00  0.00    -0.205 F 
ATOM     78  C   UNL A   1      38.368  33.269  37.453  1.00  0.00     0.022 A 
BRANCH  76  79
ATOM     79  S   UNL A   1      39.894  35.493  36.994  1.00  0.00     0.127 S 
ATOM     80  O   UNL A   1      41.329  35.270  37.145  1.00  0.00    -0.237 OA
ATOM     81  O   UNL A   1      39.511  36.255  35.804  1.00  0.00    -0.237 OA
ATOM     82  O   UNL A   1      39.184  35.874  38.208  1.00  0.00    -0.744 OA
ENDBRANCH  76  79
ENDBRANCH  48  72
BRANCH  60  83
ATOM     83  C   UNL A   1      44.844  27.598  34.306  1.00  0.00     0.023 A 
ATOM     84  C   UNL A   1      46.018  28.376  34.350  1.00  0.00     0.012 A 
ATOM     85  C   UNL A   1      44.725  26.481  35.159  1.00  0.00     0.148 A 
ATOM     86  C   UNL A   1      47.069  28.028  35.200  1.00  0.00     0.002 A 
ATOM     87  C   UNL A   1      45.753  26.173  36.042  1.00  0.00     0.091 A 
ATOM     88  F   UNL A   1      43.606  25.745  35.095  1.00  0.00    -0.205 F 
ATOM     89  C   UNL A   1      46.931  26.935  36.053  1.00  0.00     0.022 A 
BRANCH  87  90
ATOM     90  S   UNL A   1      45.624  24.847  37.249  1.00  0.00     0.127 S 
ATOM     91  O   UNL A   1      44.514  25.309  38.081  1.00  0.00    -0.237 OA
ATOM     92  O   UNL A   1      45.316  23.692  36.406  1.00  0.00    -0.237 OA
ATOM     93  O   UNL A   1      46.917  24.782  37.916  1.00  0.00    -0.744 OA
ENDBRANCH  87  90
ENDBRANCH  60  83
ENDBRANCH  34  35
ENDBRANCH  27  29
ENDBRANCH  26  27
ENDBRANCH  25  26
ENDBRANCH  24  25
ENDBRANCH  23  24
ENDBRANCH   1  23
TORSDOF 22
ENDMDL
MODEL 2
REMARK VINA RESULT:      -9.2      2.058      3.195
REMARK SMILES N#C/C(=C/c1cc2c(cc1Br)OCO2)C(=O)OCCOCCOCCOC(=O)c1ccc(-c2c3nc(c(-c4cccc(S(=O)(=O)[O-])c4F)c4ccc([nH]4)c(-c4cccc(S(=O)(=O)[O-])c4F)c4nc(c(-c5cccc(S(=O)(=O)[O-])c5F)c5ccc2[nH]5)C=C4)C=C3)cc1
REMARK SMILES IDX 22 1 21 2 20 3 19 4 18 5 17 6 15 7 16 8 3 9 4 10 2 11 1 12
REMARK SMILES IDX 5 13 6 14 10 15 7 16 9 17 11 18 8 19 14 20 12 21 13 22 23 23
REMARK SMILES IDX 24 24 25 25 26 26 27 27 28 28 29 29 30 30 91 31 31 32 90 33
REMARK SMILES IDX 32 34 33 35 34 36 84 37 35 38 89 39 83 40 85 41 36 42 88 43
REMARK SMILES IDX 82 44 81 45 37 47 69 48 49 49 68 50 50 51 53 52 67 53 86 54
REMARK SMILES IDX 51 55 52 56 66 58 87 59 54 60 38 61 39 62 47 63 40 64 42 65
REMARK SMILES IDX 48 66 41 67 43 68 44 69 45 70 46 71 70 72 71 73 79 74 72 75
REMARK SMILES IDX 74 76 80 77 73 78 75 79 76 80 77 81 78 82 55 83 56 84 64 85
REMARK SMILES IDX 57 86 59 87 65 88 58 89 60 90 61 91 62 92 63 93
REMARK H PARENT 85 46 53 57
REMARK Flexibility Score: inf
ROOT
ATOM      1  C   UNL A   1      30.080  26.281  25.368  1.00  0.00     0.188 C 
ENDROOT
BRANCH   1   2
ATOM      2  C   UNL A   1      30.592  25.336  26.481  1.00  0.00     0.188 C 
BRANCH   2   3
ATOM      3  O   UNL A   1      30.006  24.056  26.596  1.00  0.00    -0.376 OA
BRANCH   3   4
ATOM      4  C   UNL A   1      30.807  22.887  26.678  1.00  0.00     0.202 C 
BRANCH   4   5
ATOM      5  C   UNL A   1      32.232  22.878  27.238  1.00  0.00     0.261 C 
BRANCH   5   6
ATOM      6  O   UNL A   1      32.934  21.653  27.015  1.00  0.00    -0.459 OA
BRANCH   6   7
ATOM      7  C   UNL A   1      34.102  21.777  26.336  1.00  0.00     0.348 C 
ATOM      8  O   UNL A   1      35.215  21.790  26.842  1.00  0.00    -0.245 OA
BRANCH   7   9
ATOM      9  C   UNL A   1      33.898  21.793  24.860  1.00  0.00     0.138 C 
ATOM     10  C   UNL A   1      33.713  20.670  24.131  1.00  0.00     0.036 C 
BRANCH   9  11
ATOM     11  C   UNL A   1      33.373  23.137  24.381  1.00  0.00     0.107 C 
ATOM     12  N   UNL A   1      32.938  24.252  23.984  1.00  0.00    -0.192 NA
ENDBRANCH   9  11
BRANCH  10  13
ATOM     13  C   UNL A   1      33.972  19.276  24.566  1.00  0.00    -0.006 A 
ATOM     14  C   UNL A   1      32.829  18.500  24.826  1.00  0.00     0.060 A 
ATOM     15  C   UNL A   1      35.249  18.661  24.702  1.00  0.00     0.029 A 
ATOM     16  C   UNL A   1      32.987  17.155  25.094  1.00  0.00     0.166 A 
ATOM     17  C   UNL A   1      35.374  17.278  24.907  1.00  0.00     0.067 A 
ATOM     18  Br  UNL A   1      36.879  19.648  24.719  1.00  0.00    -0.050 Br
ATOM     19  C   UNL A   1      34.220  16.554  25.093  1.00  0.00     0.166 A 
ATOM     20  O   UNL A   1      31.985  16.279  25.370  1.00  0.00    -0.454 OA
ATOM     21  O   UNL A   1      34.149  15.217  25.325  1.00  0.00    -0.454 OA
ATOM     22  C   UNL A   1      32.729  15.052  25.518  1.00  0.00     0.468 C 
ENDBRANCH  10  13
ENDBRANCH   7   9
ENDBRANCH   6   7
ENDBRANCH   5   6
ENDBRANCH   4   5
ENDBRANCH   3   4
ENDBRANCH   2   3
ENDBRANCH   1   2
BRANCH   1  23
ATOM     23  O   UNL A   1      30.961  27.151  24.699  1.00  0.00    -0.376 OA
BRANCH  23  24
ATOM     24  C   UNL A   1      31.569  28.175  25.467  1.00  0.00     0.202 C 
BRANCH  24  25
ATOM     25  C   UNL A   1      32.310  29.367  24.820  1.00  0.00     0.261 C 
BRANCH  25  26
ATOM     26  O   UNL A   1      33.463  29.889  25.507  1.00  0.00    -0.460 OA
BRANCH  26  27
ATOM     27  C   UNL A   1      33.208  30.736  26.547  1.00  0.00     0.338 C 
ATOM     28  O   UNL A   1      32.151  31.285  26.789  1.00  0.00    -0.246 OA
BRANCH  27  29
ATOM     29  C   UNL A   1      34.334  30.685  27.517  1.00  0.00     0.060 A 
ATOM     30  C   UNL A   1      35.249  31.755  27.559  1.00  0.00     0.016 A 
ATOM     31  C   UNL A   1      34.498  29.596  28.369  1.00  0.00     0.016 A 
ATOM     32  C   UNL A   1      36.337  31.726  28.436  1.00  0.00     0.010 A 
ATOM     33  C   UNL A   1      35.610  29.551  29.218  1.00  0.00     0.010 A 
ATOM     34  C   UNL A   1      36.554  30.598  29.233  1.00  0.00    -0.014 A 
BRANCH  34  35
ATOM     35  C   UNL A   1      37.860  30.404  29.916  1.00  0.00     0.031 A 
ATOM     36  C   UNL A   1      38.874  29.501  29.260  1.00  0.00     0.074 A 
ATOM     37  C   UNL A   1      38.141  30.982  31.097  1.00  0.00     0.049 A 
ATOM     38  N   UNL A   1      40.038  29.102  29.699  1.00  0.00    -0.248 NA
ATOM     39  C   UNL A   1      38.516  28.971  27.933  1.00  0.00     0.031 C 
ATOM     40  C   UNL A   1      37.268  31.900  31.824  1.00  0.00     0.029 A 
ATOM     41  N   UNL A   1      39.242  30.850  31.909  1.00  0.00    -0.354 N 
ATOM     42  C   UNL A   1      40.533  28.240  28.726  1.00  0.00     0.074 A 
ATOM     43  C   UNL A   1      39.543  28.175  27.673  1.00  0.00     0.031 C 
ATOM     44  C   UNL A   1      37.850  32.220  32.994  1.00  0.00     0.029 A 
ATOM     45  C   UNL A   1      39.121  31.509  33.112  1.00  0.00     0.049 A 
ATOM     46  H   UNL A   1      40.041  30.333  31.656  1.00  0.00     0.167 HD
ATOM     47  C   UNL A   1      41.706  27.565  28.707  1.00  0.00     0.034 A 
ATOM     48  C   UNL A   1      39.931  31.512  34.191  1.00  0.00     0.034 A 
ATOM     49  C   UNL A   1      42.700  27.645  29.742  1.00  0.00     0.049 A 
ATOM     50  C   UNL A   1      41.218  30.722  34.157  1.00  0.00     0.074 A 
ATOM     51  C   UNL A   1      43.946  27.045  29.782  1.00  0.00     0.029 A 
ATOM     52  N   UNL A   1      42.557  28.348  30.927  1.00  0.00    -0.354 N 
ATOM     53  N   UNL A   1      41.725  30.004  33.184  1.00  0.00    -0.248 NA
ATOM     54  C   UNL A   1      42.058  30.767  35.365  1.00  0.00     0.031 C 
ATOM     55  C   UNL A   1      44.537  27.348  31.012  1.00  0.00     0.029 A 
ATOM     56  C   UNL A   1      43.680  28.179  31.716  1.00  0.00     0.049 A 
ATOM     57  H   UNL A   1      41.771  28.890  31.171  1.00  0.00     0.167 HD
ATOM     58  C   UNL A   1      42.961  29.555  33.643  1.00  0.00     0.074 A 
ATOM     59  C   UNL A   1      43.132  30.092  34.976  1.00  0.00     0.031 C 
ATOM     60  C   UNL A   1      43.868  28.762  33.020  1.00  0.00     0.034 A 
BRANCH  47  61
ATOM     61  C   UNL A   1      41.985  26.674  27.526  1.00  0.00     0.023 A 
ATOM     62  C   UNL A   1      42.696  27.173  26.416  1.00  0.00     0.012 A 
ATOM     63  C   UNL A   1      41.596  25.320  27.547  1.00  0.00     0.148 A 
ATOM     64  C   UNL A   1      42.988  26.346  25.333  1.00  0.00     0.002 A 
ATOM     65  C   UNL A   1      41.934  24.490  26.485  1.00  0.00     0.091 A 
ATOM     66  F   UNL A   1      40.902  24.871  28.602  1.00  0.00    -0.205 F 
ATOM     67  C   UNL A   1      42.619  25.004  25.372  1.00  0.00     0.022 A 
BRANCH  65  68
ATOM     68  S   UNL A   1      41.577  22.730  26.480  1.00  0.00     0.127 S 
ATOM     69  O   UNL A   1      42.317  22.283  25.301  1.00  0.00    -0.237 OA
ATOM     70  O   UNL A   1      42.146  22.299  27.758  1.00  0.00    -0.237 OA
ATOM     71  O   UNL A   1      40.128  22.611  26.388  1.00  0.00    -0.744 OA
ENDBRANCH  65  68
ENDBRANCH  47  61
BRANCH  48  72
ATOM     72  C   UNL A   1      39.572  32.308  35.402  1.00  0.00     0.023 A 
ATOM     73  C   UNL A   1      38.783  31.718  36.410  1.00  0.00     0.012 A 
ATOM     74  C   UNL A   1      39.984  33.646  35.551  1.00  0.00     0.148 A 
ATOM     75  C   UNL A   1      38.377  32.457  37.522  1.00  0.00     0.002 A 
ATOM     76  C   UNL A   1      39.623  34.361  36.688  1.00  0.00     0.091 A 
ATOM     77  F   UNL A   1      40.717  34.197  34.574  1.00  0.00    -0.205 F 
ATOM     78  C   UNL A   1      38.804  33.775  37.665  1.00  0.00     0.022 A 
BRANCH  76  79
ATOM     79  S   UNL A   1      40.214  36.026  37.012  1.00  0.00     0.127 S 
ATOM     80  O   UNL A   1      41.651  35.812  37.156  1.00  0.00    -0.237 OA
ATOM     81  O   UNL A   1      39.815  36.730  35.792  1.00  0.00    -0.237 OA
ATOM     82  O   UNL A   1      39.519  36.465  38.215  1.00  0.00    -0.744 OA
ENDBRANCH  76  79
ENDBRANCH  48  72
BRANCH  60  83
ATOM     83  C   UNL A   1      45.162  28.466  33.737  1.00  0.00     0.023 A 
ATOM     84  C   UNL A   1      46.263  29.335  33.601  1.00  0.00     0.012 A 
ATOM     85  C   UNL A   1      45.257  27.364  34.611  1.00  0.00     0.148 A 
ATOM     86  C   UNL A   1      47.449  29.090  34.295  1.00  0.00     0.002 A 
ATOM     87  C   UNL A   1      46.422  27.159  35.341  1.00  0.00     0.091 A 
ATOM     88  F   UNL A   1      44.204  26.540  34.719  1.00  0.00    -0.205 F 
ATOM     89  C   UNL A   1      47.524  28.011  35.173  1.00  0.00     0.022 A 
BRANCH  87  90
ATOM     90  S   UNL A   1      46.575  25.856  36.570  1.00  0.00     0.127 S 
ATOM     91  O   UNL A   1      47.921  26.093  37.090  1.00  0.00    -0.237 OA
ATOM     92  O   UNL A   1      45.495  26.183  37.501  1.00  0.00    -0.237 OA
ATOM     93  O   UNL A   1      46.396  24.601  35.853  1.00  0.00    -0.744 OA
ENDBRANCH  87  90
ENDBRANCH  60  83
ENDBRANCH  34  35
ENDBRANCH  27  29
ENDBRANCH  26  27
ENDBRANCH  25  26
ENDBRANCH  24  25
ENDBRANCH  23  24
ENDBRANCH   1  23
TORSDOF 22
ENDMDL
MODEL 3
REMARK VINA RESULT:      -8.9      2.969      8.532
REMARK SMILES N#C/C(=C/c1cc2c(cc1Br)OCO2)C(=O)OCCOCCOCCOC(=O)c1ccc(-c2c3nc(c(-c4cccc(S(=O)(=O)[O-])c4F)c4ccc([nH]4)c(-c4cccc(S(=O)(=O)[O-])c4F)c4nc(c(-c5cccc(S(=O)(=O)[O-])c5F)c5ccc2[nH]5)C=C4)C=C3)cc1
REMARK SMILES IDX 22 1 21 2 20 3 19 4 18 5 17 6 15 7 16 8 3 9 4 10 2 11 1 12
REMARK SMILES IDX 5 13 6 14 10 15 7 16 9 17 11 18 8 19 14 20 12 21 13 22 23 23
REMARK SMILES IDX 24 24 25 25 26 26 27 27 28 28 29 29 30 30 91 31 31 32 90 33
REMARK SMILES IDX 32 34 33 35 34 36 84 37 35 38 89 39 83 40 85 41 36 42 88 43
REMARK SMILES IDX 82 44 81 45 37 47 69 48 49 49 68 50 50 51 53 52 67 53 86 54
REMARK SMILES IDX 51 55 52 56 66 58 87 59 54 60 38 61 39 62 47 63 40 64 42 65
REMARK SMILES IDX 48 66 41 67 43 68 44 69 45 70 46 71 70 72 71 73 79 74 72 75
REMARK SMILES IDX 74 76 80 77 73 78 75 79 76 80 77 81 78 82 55 83 56 84 64 85
REMARK SMILES IDX 57 86 59 87 65 88 58 89 60 90 61 91 62 92 63 93
REMARK H PARENT 85 46 53 57
REMARK Flexibility Score: inf
ROOT
ATOM      1  C   UNL A   1      31.741  30.781  25.961  1.00  0.00     0.188 C 
ENDROOT
BRANCH   1   2
ATOM      2  C   UNL A   1      31.446  29.558  25.061  1.00  0.00     0.188 C 
BRANCH   2   3
ATOM      3  O   UNL A   1      31.331  28.289  25.670  1.00  0.00    -0.376 OA
BRANCH   3   4
ATOM      4  C   UNL A   1      32.213  27.229  25.330  1.00  0.00     0.202 C 
BRANCH   4   5
ATOM      5  C   UNL A   1      32.452  26.011  26.227  1.00  0.00     0.261 C 
BRANCH   5   6
ATOM      6  O   UNL A   1      31.263  25.285  26.546  1.00  0.00    -0.459 OA
BRANCH   6   7
ATOM      7  C   UNL A   1      30.873  24.383  25.611  1.00  0.00     0.348 C 
ATOM      8  O   UNL A   1      30.590  24.646  24.451  1.00  0.00    -0.245 OA
BRANCH   7   9
ATOM      9  C   UNL A   1      30.922  22.984  26.122  1.00  0.00     0.138 C 
ATOM     10  C   UNL A   1      32.063  22.261  26.177  1.00  0.00     0.036 C 
BRANCH   9  11
ATOM     11  C   UNL A   1      29.755  22.685  27.049  1.00  0.00     0.107 C 
ATOM     12  N   UNL A   1      28.787  22.436  27.818  1.00  0.00    -0.192 NA
ENDBRANCH   9  11
BRANCH  10  13
ATOM     13  C   UNL A   1      33.345  22.571  25.498  1.00  0.00    -0.006 A 
ATOM     14  C   UNL A   1      34.348  23.116  26.318  1.00  0.00     0.060 A 
ATOM     15  C   UNL A   1      33.649  22.334  24.127  1.00  0.00     0.029 A 
ATOM     16  C   UNL A   1      35.611  23.296  25.790  1.00  0.00     0.166 A 
ATOM     17  C   UNL A   1      34.959  22.460  23.640  1.00  0.00     0.067 A 
ATOM     18  Br  UNL A   1      32.319  21.926  22.826  1.00  0.00    -0.050 Br
ATOM     19  C   UNL A   1      35.917  22.938  24.502  1.00  0.00     0.166 A 
ATOM     20  O   UNL A   1      36.679  23.815  26.451  1.00  0.00    -0.454 OA
ATOM     21  O   UNL A   1      37.226  23.146  24.200  1.00  0.00    -0.454 OA
ATOM     22  C   UNL A   1      37.700  23.719  25.436  1.00  0.00     0.468 C 
ENDBRANCH  10  13
ENDBRANCH   7   9
ENDBRANCH   6   7
ENDBRANCH   5   6
ENDBRANCH   4   5
ENDBRANCH   3   4
ENDBRANCH   2   3
ENDBRANCH   1   2
BRANCH   1  23
ATOM     23  O   UNL A   1      32.306  30.616  27.239  1.00  0.00    -0.376 OA
BRANCH  23  24
ATOM     24  C   UNL A   1      33.574  31.204  27.468  1.00  0.00     0.202 C 
BRANCH  24  25
ATOM     25  C   UNL A   1      33.735  32.645  28.003  1.00  0.00     0.261 C 
BRANCH  25  26
ATOM     26  O   UNL A   1      34.973  32.981  28.657  1.00  0.00    -0.460 OA
BRANCH  26  27
ATOM     27  C   UNL A   1      35.127  32.507  29.929  1.00  0.00     0.338 C 
ATOM     28  O   UNL A   1      34.318  32.589  30.833  1.00  0.00    -0.246 OA
BRANCH  27  29
ATOM     29  C   UNL A   1      36.321  31.624  29.989  1.00  0.00     0.060 A 
ATOM     30  C   UNL A   1      36.252  30.429  30.730  1.00  0.00     0.016 A 
ATOM     31  C   UNL A   1      37.501  31.968  29.335  1.00  0.00     0.016 A 
ATOM     32  C   UNL A   1      37.365  29.590  30.834  1.00  0.00     0.010 A 
ATOM     33  C   UNL A   1      38.627  31.148  29.473  1.00  0.00     0.010 A 
ATOM     34  C   UNL A   1      38.576  29.973  30.250  1.00  0.00    -0.014 A 
BRANCH  34  35
ATOM     35  C   UNL A   1      39.838  29.278  30.619  1.00  0.00     0.031 A 
ATOM     36  C   UNL A   1      40.575  29.754  31.844  1.00  0.00     0.074 A 
ATOM     37  C   UNL A   1      40.341  28.272  29.882  1.00  0.00     0.049 A 
ATOM     38  N   UNL A   1      41.733  29.376  32.317  1.00  0.00    -0.248 NA
ATOM     39  C   UNL A   1      39.917  30.807  32.637  1.00  0.00     0.031 C 
ATOM     40  C   UNL A   1      39.716  27.692  28.695  1.00  0.00     0.029 A 
ATOM     41  N   UNL A   1      41.521  27.579  30.014  1.00  0.00    -0.354 N 
ATOM     42  C   UNL A   1      41.965  30.173  33.432  1.00  0.00     0.074 A 
ATOM     43  C   UNL A   1      40.826  31.055  33.568  1.00  0.00     0.031 C 
ATOM     44  C   UNL A   1      40.537  26.757  28.184  1.00  0.00     0.029 A 
ATOM     45  C   UNL A   1      41.756  26.691  28.989  1.00  0.00     0.049 A 
ATOM     46  H   UNL A   1      42.140  27.707  30.769  1.00  0.00     0.167 HD
ATOM     47  C   UNL A   1      43.027  30.171  34.272  1.00  0.00     0.034 A 
ATOM     48  C   UNL A   1      42.840  25.936  28.719  1.00  0.00     0.034 A 
ATOM     49  C   UNL A   1      44.149  29.281  34.152  1.00  0.00     0.049 A 
ATOM     50  C   UNL A   1      44.027  25.978  29.653  1.00  0.00     0.074 A 
ATOM     51  C   UNL A   1      45.244  29.164  34.990  1.00  0.00     0.029 A 
ATOM     52  N   UNL A   1      44.335  28.374  33.122  1.00  0.00    -0.354 N 
ATOM     53  N   UNL A   1      44.181  26.653  30.767  1.00  0.00    -0.248 NA
ATOM     54  C   UNL A   1      45.179  25.131  29.305  1.00  0.00     0.031 C 
ATOM     55  C   UNL A   1      46.114  28.218  34.441  1.00  0.00     0.029 A 
ATOM     56  C   UNL A   1      45.537  27.709  33.289  1.00  0.00     0.049 A 
ATOM     57  H   UNL A   1      43.704  28.223  32.381  1.00  0.00     0.167 HD
ATOM     58  C   UNL A   1      45.422  26.275  31.275  1.00  0.00     0.074 A 
ATOM     59  C   UNL A   1      45.971  25.303  30.355  1.00  0.00     0.031 C 
ATOM     60  C   UNL A   1      46.052  26.701  32.398  1.00  0.00     0.034 A 
BRANCH  47  61
ATOM     61  C   UNL A   1      43.031  31.165  35.402  1.00  0.00     0.023 A 
ATOM     62  C   UNL A   1      42.536  30.797  36.670  1.00  0.00     0.012 A 
ATOM     63  C   UNL A   1      43.586  32.448  35.222  1.00  0.00     0.148 A 
ATOM     64  C   UNL A   1      42.567  31.700  37.731  1.00  0.00     0.002 A 
ATOM     65  C   UNL A   1      43.657  33.324  36.297  1.00  0.00     0.091 A 
ATOM     66  F   UNL A   1      44.030  32.786  34.003  1.00  0.00    -0.205 F 
ATOM     67  C   UNL A   1      43.138  32.958  37.549  1.00  0.00     0.022 A 
BRANCH  65  68
ATOM     68  S   UNL A   1      44.449  34.933  36.184  1.00  0.00     0.127 S 
ATOM     69  O   UNL A   1      43.476  35.685  35.393  1.00  0.00    -0.237 OA
ATOM     70  O   UNL A   1      44.531  35.332  37.590  1.00  0.00    -0.237 OA
ATOM     71  O   UNL A   1      45.735  34.707  35.540  1.00  0.00    -0.744 OA
ENDBRANCH  65  68
ENDBRANCH  47  61
BRANCH  48  72
ATOM     72  C   UNL A   1      42.863  25.047  27.520  1.00  0.00     0.023 A 
ATOM     73  C   UNL A   1      43.417  25.522  26.315  1.00  0.00     0.012 A 
ATOM     74  C   UNL A   1      42.319  23.748  27.558  1.00  0.00     0.148 A 
ATOM     75  C   UNL A   1      43.393  24.738  25.161  1.00  0.00     0.002 A 
ATOM     76  C   UNL A   1      42.348  22.951  26.419  1.00  0.00     0.091 A 
ATOM     77  F   UNL A   1      41.778  23.320  28.707  1.00  0.00    -0.205 F 
ATOM     78  C   UNL A   1      42.867  23.450  25.215  1.00  0.00     0.022 A 
BRANCH  76  79
ATOM     79  S   UNL A   1      41.792  21.242  26.420  1.00  0.00     0.127 S 
ATOM     80  O   UNL A   1      42.527  20.687  25.286  1.00  0.00    -0.237 OA
ATOM     81  O   UNL A   1      42.245  20.779  27.733  1.00  0.00    -0.237 OA
ATOM     82  O   UNL A   1      40.345  21.297  26.267  1.00  0.00    -0.744 OA
ENDBRANCH  76  79
ENDBRANCH  48  72
BRANCH  60  83
ATOM     83  C   UNL A   1      47.385  26.083  32.741  1.00  0.00     0.023 A 
ATOM     84  C   UNL A   1      47.456  25.008  33.649  1.00  0.00     0.012 A 
ATOM     85  C   UNL A   1      48.561  26.520  32.097  1.00  0.00     0.148 A 
ATOM     86  C   UNL A   1      48.680  24.403  33.938  1.00  0.00     0.002 A 
ATOM     87  C   UNL A   1      49.767  25.877  32.349  1.00  0.00     0.091 A 
ATOM     88  F   UNL A   1      48.478  27.553  31.246  1.00  0.00    -0.205 F 
ATOM     89  C   UNL A   1      49.832  24.829  33.279  1.00  0.00     0.022 A 
BRANCH  87  90
ATOM     90  S   UNL A   1      51.282  26.288  31.473  1.00  0.00     0.127 S 
ATOM     91  O   UNL A   1      51.632  27.576  32.072  1.00  0.00    -0.237 OA
ATOM     92  O   UNL A   1      52.164  25.182  31.846  1.00  0.00    -0.237 OA
ATOM     93  O   UNL A   1      50.932  26.333  30.060  1.00  0.00    -0.744 OA
ENDBRANCH  87  90
ENDBRANCH  60  83
ENDBRANCH  34  35
ENDBRANCH  27  29
ENDBRANCH  26  27
ENDBRANCH  25  26
ENDBRANCH  24  25
ENDBRANCH  23  24
ENDBRANCH   1  23
TORSDOF 22
ENDMDL
