MODEL 1
REMARK VINA RESULT:      -9.5      0.000      0.000
REMARK SMILES O=C(OCCOCCOCCOC(=O)[C@H]1Cc2cc(Cl)ccc2O1)c1ccc(-c2c3nc(c(-c4cccc(S(=O)(=O)[O-])c4F)c4ccc([nH]4)c(-c4cccc(S(=O)(=O)[O-])c4F)c4nc(c(-c5cccc(S(=O)(=O)[O-])c5F)c5ccc2[nH]5)C=C4)C=C3)cc1
REMARK SMILES IDX 6 1 5 2 4 3 3 4 2 5 1 6 25 7 26 8 87 9 27 10 86 11 28 12
REMARK SMILES IDX 29 13 30 14 80 15 31 16 85 17 79 18 81 19 32 20 84 21 78 22
REMARK SMILES IDX 77 23 33 25 65 26 45 27 64 28 46 29 49 30 63 31 82 32 47 33
REMARK SMILES IDX 48 34 62 36 83 37 50 38 34 39 35 40 43 41 36 42 38 43 44 44
REMARK SMILES IDX 37 45 39 46 40 47 41 48 42 49 66 50 67 51 75 52 68 53 70 54
REMARK SMILES IDX 76 55 69 56 71 57 72 58 73 59 74 60 51 61 52 62 60 63 53 64
REMARK SMILES IDX 55 65 61 66 54 67 56 68 57 69 58 70 59 71 7 72 8 73 9 74
REMARK SMILES IDX 10 75 11 76 12 77 13 78 14 79 15 80 16 81 24 82 17 83 23 84
REMARK SMILES IDX 18 85 22 86 19 87 21 88 20 89
REMARK H PARENT 81 24 49 35
REMARK Flexibility Score: inf
ROOT
ATOM      1  O   UNL A   1      33.913  27.578  26.107  1.00  0.00    -0.376 OA
ENDROOT
BRANCH   1   2
ATOM      2  C   UNL A   1      32.787  28.307  25.628  1.00  0.00     0.202 C 
BRANCH   2   3
ATOM      3  C   UNL A   1      32.307  29.493  26.473  1.00  0.00     0.261 C 
BRANCH   3   4
ATOM      4  O   UNL A   1      33.071  30.704  26.361  1.00  0.00    -0.460 OA
BRANCH   4   5
ATOM      5  C   UNL A   1      33.642  31.481  27.312  1.00  0.00     0.338 C 
ATOM      6  O   UNL A   1      33.109  32.565  27.556  1.00  0.00    -0.246 OA
BRANCH   5   7
ATOM      7  C   UNL A   1      34.943  31.180  27.996  1.00  0.00     0.060 A 
ATOM      8  C   UNL A   1      35.870  32.241  28.117  1.00  0.00     0.016 A 
ATOM      9  C   UNL A   1      35.297  29.961  28.557  1.00  0.00     0.016 A 
ATOM     10  C   UNL A   1      37.126  32.074  28.731  1.00  0.00     0.010 A 
ATOM     11  C   UNL A   1      36.549  29.793  29.158  1.00  0.00     0.010 A 
ATOM     12  C   UNL A   1      37.496  30.830  29.234  1.00  0.00    -0.014 A 
BRANCH  12  13
ATOM     13  C   UNL A   1      38.754  30.582  29.998  1.00  0.00     0.031 A 
ATOM     14  C   UNL A   1      39.853  29.669  29.508  1.00  0.00     0.074 A 
ATOM     15  C   UNL A   1      38.797  31.061  31.255  1.00  0.00     0.049 A 
ATOM     16  N   UNL A   1      40.784  29.050  30.191  1.00  0.00    -0.248 NA
ATOM     17  C   UNL A   1      39.889  29.381  28.072  1.00  0.00     0.031 C 
ATOM     18  C   UNL A   1      37.808  31.975  31.835  1.00  0.00     0.029 A 
ATOM     19  N   UNL A   1      39.665  30.807  32.281  1.00  0.00    -0.354 N 
ATOM     20  C   UNL A   1      41.410  28.170  29.301  1.00  0.00     0.074 A 
ATOM     21  C   UNL A   1      40.802  28.416  28.009  1.00  0.00     0.031 C 
ATOM     22  C   UNL A   1      38.102  32.172  33.127  1.00  0.00     0.029 A 
ATOM     23  C   UNL A   1      39.295  31.403  33.461  1.00  0.00     0.049 A 
ATOM     24  H   UNL A   1      40.472  30.251  32.183  1.00  0.00     0.167 HD
ATOM     25  C   UNL A   1      42.360  27.230  29.569  1.00  0.00     0.034 A 
ATOM     26  C   UNL A   1      39.857  31.349  34.683  1.00  0.00     0.034 A 
ATOM     27  C   UNL A   1      43.032  27.137  30.848  1.00  0.00     0.049 A 
ATOM     28  C   UNL A   1      41.082  30.516  34.883  1.00  0.00     0.074 A 
ATOM     29  C   UNL A   1      44.091  26.318  31.207  1.00  0.00     0.029 A 
ATOM     30  N   UNL A   1      42.731  27.899  31.967  1.00  0.00    -0.354 N 
ATOM     31  N   UNL A   1      41.650  29.686  34.044  1.00  0.00    -0.248 NA
ATOM     32  C   UNL A   1      41.770  30.641  36.174  1.00  0.00     0.031 C 
ATOM     33  C   UNL A   1      44.418  26.573  32.540  1.00  0.00     0.029 A 
ATOM     34  C   UNL A   1      43.607  27.596  32.996  1.00  0.00     0.049 A 
ATOM     35  H   UNL A   1      42.003  28.560  32.021  1.00  0.00     0.167 HD
ATOM     36  C   UNL A   1      42.764  29.187  34.701  1.00  0.00     0.074 A 
ATOM     37  C   UNL A   1      42.810  29.836  35.996  1.00  0.00     0.031 C 
ATOM     38  C   UNL A   1      43.654  28.260  34.273  1.00  0.00     0.034 A 
BRANCH  25  39
ATOM     39  C   UNL A   1      42.743  26.200  28.510  1.00  0.00     0.023 A 
ATOM     40  C   UNL A   1      41.996  25.025  28.307  1.00  0.00     0.012 A 
ATOM     41  C   UNL A   1      43.828  26.450  27.632  1.00  0.00     0.148 A 
ATOM     42  C   UNL A   1      42.365  24.096  27.326  1.00  0.00     0.002 A 
ATOM     43  C   UNL A   1      44.186  25.531  26.648  1.00  0.00     0.091 A 
ATOM     44  F   UNL A   1      44.503  27.600  27.760  1.00  0.00    -0.205 F 
ATOM     45  C   UNL A   1      43.462  24.345  26.503  1.00  0.00     0.022 A 
BRANCH  43  46
ATOM     46  S   UNL A   1      45.572  25.793  25.529  1.00  0.00     0.127 S 
ATOM     47  O   UNL A   1      45.210  27.065  24.902  1.00  0.00    -0.237 OA
ATOM     48  O   UNL A   1      46.703  25.871  26.456  1.00  0.00    -0.237 OA
ATOM     49  O   UNL A   1      45.590  24.654  24.626  1.00  0.00    -0.744 OA
ENDBRANCH  43  46
ENDBRANCH  25  39
BRANCH  26  50
ATOM     50  C   UNL A   1      39.329  32.261  35.727  1.00  0.00     0.023 A 
ATOM     51  C   UNL A   1      38.350  31.751  36.602  1.00  0.00     0.012 A 
ATOM     52  C   UNL A   1      39.908  33.517  35.980  1.00  0.00     0.148 A 
ATOM     53  C   UNL A   1      37.964  32.474  37.728  1.00  0.00     0.002 A 
ATOM     54  C   UNL A   1      39.539  34.219  37.121  1.00  0.00     0.091 A 
ATOM     55  F   UNL A   1      40.857  33.959  35.143  1.00  0.00    -0.205 F 
ATOM     56  C   UNL A   1      38.566  33.701  37.993  1.00  0.00     0.022 A 
BRANCH  54  57
ATOM     57  S   UNL A   1      40.329  35.752  37.622  1.00  0.00     0.127 S 
ATOM     58  O   UNL A   1      39.837  36.686  36.612  1.00  0.00    -0.237 OA
ATOM     59  O   UNL A   1      39.775  35.946  38.962  1.00  0.00    -0.237 OA
ATOM     60  O   UNL A   1      41.762  35.494  37.584  1.00  0.00    -0.744 OA
ENDBRANCH  54  57
ENDBRANCH  26  50
BRANCH  38  61
ATOM     61  C   UNL A   1      44.768  27.883  35.209  1.00  0.00     0.023 A 
ATOM     62  C   UNL A   1      44.588  26.814  36.108  1.00  0.00     0.012 A 
ATOM     63  C   UNL A   1      46.017  28.532  35.141  1.00  0.00     0.148 A 
ATOM     64  C   UNL A   1      45.627  26.412  36.946  1.00  0.00     0.002 A 
ATOM     65  C   UNL A   1      47.057  28.106  35.959  1.00  0.00     0.091 A 
ATOM     66  F   UNL A   1      46.161  29.551  34.283  1.00  0.00    -0.205 F 
ATOM     67  C   UNL A   1      46.862  27.051  36.866  1.00  0.00     0.022 A 
BRANCH  65  68
ATOM     68  S   UNL A   1      48.699  28.832  35.892  1.00  0.00     0.127 S 
ATOM     69  O   UNL A   1      49.405  28.061  36.915  1.00  0.00    -0.237 OA
ATOM     70  O   UNL A   1      49.111  28.543  34.518  1.00  0.00    -0.237 OA
ATOM     71  O   UNL A   1      48.528  30.247  36.190  1.00  0.00    -0.744 OA
ENDBRANCH  65  68
ENDBRANCH  38  61
ENDBRANCH  12  13
ENDBRANCH   5   7
ENDBRANCH   4   5
ENDBRANCH   3   4
ENDBRANCH   2   3
ENDBRANCH   1   2
BRANCH   1  72
ATOM     72  C   UNL A   1      33.865  26.167  25.866  1.00  0.00     0.188 C 
BRANCH  72  73
ATOM     73  C   UNL A   1      33.891  25.854  24.368  1.00  0.00     0.188 C 
BRANCH  73  74
ATOM     74  O   UNL A   1      33.759  24.475  24.015  1.00  0.00    -0.376 OA
BRANCH  74  75
ATOM     75  C   UNL A   1      32.966  23.647  24.860  1.00  0.00     0.202 C 
BRANCH  75  76
ATOM     76  C   UNL A   1      31.468  23.590  24.559  1.00  0.00     0.261 C 
BRANCH  76  77
ATOM     77  O   UNL A   1      30.681  24.118  25.628  1.00  0.00    -0.460 OA
BRANCH  77  78
ATOM     78  C   UNL A   1      30.234  25.393  25.468  1.00  0.00     0.347 C 
ATOM     79  O   UNL A   1      30.299  26.265  26.330  1.00  0.00    -0.248 OA
BRANCH  78  80
ATOM     80  C   UNL A   1      29.701  25.645  24.064  1.00  0.00     0.287 C 
ATOM     81  C   UNL A   1      28.370  26.407  23.980  1.00  0.00     0.097 C 
ATOM     82  O   UNL A   1      30.719  26.338  23.317  1.00  0.00    -0.478 OA
ATOM     83  C   UNL A   1      28.834  27.664  23.361  1.00  0.00    -0.000 A 
ATOM     84  C   UNL A   1      30.168  27.551  23.021  1.00  0.00     0.124 A 
ATOM     85  C   UNL A   1      28.127  28.810  23.051  1.00  0.00     0.028 A 
ATOM     86  C   UNL A   1      30.842  28.577  22.398  1.00  0.00     0.048 A 
ATOM     87  C   UNL A   1      28.768  29.828  22.349  1.00  0.00     0.041 A 
ATOM     88  C   UNL A   1      30.123  29.721  22.033  1.00  0.00     0.024 A 
ATOM     89  Cl  UNL A   1      27.865  31.207  21.855  1.00  0.00    -0.084 Cl
ENDBRANCH  78  80
ENDBRANCH  77  78
ENDBRANCH  76  77
ENDBRANCH  75  76
ENDBRANCH  74  75
ENDBRANCH  73  74
ENDBRANCH  72  73
ENDBRANCH   1  72
TORSDOF 20
ENDMDL
MODEL 2
REMARK VINA RESULT:      -9.5      2.866      4.321
REMARK SMILES O=C(OCCOCCOCCOC(=O)[C@H]1Cc2cc(Cl)ccc2O1)c1ccc(-c2c3nc(c(-c4cccc(S(=O)(=O)[O-])c4F)c4ccc([nH]4)c(-c4cccc(S(=O)(=O)[O-])c4F)c4nc(c(-c5cccc(S(=O)(=O)[O-])c5F)c5ccc2[nH]5)C=C4)C=C3)cc1
REMARK SMILES IDX 6 1 5 2 4 3 3 4 2 5 1 6 25 7 26 8 87 9 27 10 86 11 28 12
REMARK SMILES IDX 29 13 30 14 80 15 31 16 85 17 79 18 81 19 32 20 84 21 78 22
REMARK SMILES IDX 77 23 33 25 65 26 45 27 64 28 46 29 49 30 63 31 82 32 47 33
REMARK SMILES IDX 48 34 62 36 83 37 50 38 34 39 35 40 43 41 36 42 38 43 44 44
REMARK SMILES IDX 37 45 39 46 40 47 41 48 42 49 66 50 67 51 75 52 68 53 70 54
REMARK SMILES IDX 76 55 69 56 71 57 72 58 73 59 74 60 51 61 52 62 60 63 53 64
REMARK SMILES IDX 55 65 61 66 54 67 56 68 57 69 58 70 59 71 7 72 8 73 9 74
REMARK SMILES IDX 10 75 11 76 12 77 13 78 14 79 15 80 16 81 24 82 17 83 23 84
REMARK SMILES IDX 18 85 22 86 19 87 21 88 20 89
REMARK H PARENT 81 24 49 35
REMARK Flexibility Score: inf
ROOT
ATOM      1  O   UNL A   1      32.807  27.133  26.189  1.00  0.00    -0.376 OA
ENDROOT
BRANCH   1   2
ATOM      2  C   UNL A   1      33.024  27.727  24.912  1.00  0.00     0.202 C 
BRANCH   2   3
ATOM      3  C   UNL A   1      33.645  29.128  24.886  1.00  0.00     0.261 C 
BRANCH   3   4
ATOM      4  O   UNL A   1      32.909  30.163  25.559  1.00  0.00    -0.460 OA
BRANCH   4   5
ATOM      5  C   UNL A   1      33.168  30.827  26.710  1.00  0.00     0.338 C 
ATOM      6  O   UNL A   1      32.319  31.626  27.109  1.00  0.00    -0.246 OA
BRANCH   5   7
ATOM      7  C   UNL A   1      34.464  30.760  27.465  1.00  0.00     0.060 A 
ATOM      8  C   UNL A   1      34.799  29.523  28.063  1.00  0.00     0.016 A 
ATOM      9  C   UNL A   1      35.380  31.794  27.589  1.00  0.00     0.016 A 
ATOM     10  C   UNL A   1      35.984  29.344  28.802  1.00  0.00     0.010 A 
ATOM     11  C   UNL A   1      36.552  31.619  28.332  1.00  0.00     0.010 A 
ATOM     12  C   UNL A   1      36.866  30.407  28.974  1.00  0.00    -0.014 A 
BRANCH  12  13
ATOM     13  C   UNL A   1      38.195  30.287  29.643  1.00  0.00     0.031 A 
ATOM     14  C   UNL A   1      39.310  29.414  29.117  1.00  0.00     0.074 A 
ATOM     15  C   UNL A   1      38.306  30.847  30.861  1.00  0.00     0.049 A 
ATOM     16  N   UNL A   1      40.331  28.898  29.754  1.00  0.00    -0.248 NA
ATOM     17  C   UNL A   1      39.250  29.037  27.702  1.00  0.00     0.031 C 
ATOM     18  C   UNL A   1      37.309  31.735  31.467  1.00  0.00     0.029 A 
ATOM     19  N   UNL A   1      39.269  30.713  31.824  1.00  0.00    -0.354 N 
ATOM     20  C   UNL A   1      40.941  28.003  28.868  1.00  0.00     0.074 A 
ATOM     21  C   UNL A   1      40.216  28.127  27.620  1.00  0.00     0.031 C 
ATOM     22  C   UNL A   1      37.692  32.032  32.716  1.00  0.00     0.029 A 
ATOM     23  C   UNL A   1      38.956  31.361  32.993  1.00  0.00     0.049 A 
ATOM     24  H   UNL A   1      40.101  30.204  31.691  1.00  0.00     0.167 HD
ATOM     25  C   UNL A   1      41.969  27.141  29.110  1.00  0.00     0.034 A 
ATOM     26  C   UNL A   1      39.617  31.420  34.164  1.00  0.00     0.034 A 
ATOM     27  C   UNL A   1      42.747  27.173  30.331  1.00  0.00     0.049 A 
ATOM     28  C   UNL A   1      40.907  30.679  34.310  1.00  0.00     0.074 A 
ATOM     29  C   UNL A   1      43.883  26.445  30.648  1.00  0.00     0.029 A 
ATOM     30  N   UNL A   1      42.486  27.986  31.425  1.00  0.00    -0.354 N 
ATOM     31  N   UNL A   1      41.459  29.833  33.476  1.00  0.00    -0.248 NA
ATOM     32  C   UNL A   1      41.685  30.929  35.528  1.00  0.00     0.031 C 
ATOM     33  C   UNL A   1      44.299  26.806  31.932  1.00  0.00     0.029 A 
ATOM     34  C   UNL A   1      43.460  27.804  32.393  1.00  0.00     0.049 A 
ATOM     35  H   UNL A   1      41.723  28.602  31.501  1.00  0.00     0.167 HD
ATOM     36  C   UNL A   1      42.653  29.446  34.066  1.00  0.00     0.074 A 
ATOM     37  C   UNL A   1      42.759  30.179  35.312  1.00  0.00     0.031 C 
ATOM     38  C   UNL A   1      43.565  28.550  33.620  1.00  0.00     0.034 A 
BRANCH  25  39
ATOM     39  C   UNL A   1      42.334  26.071  28.085  1.00  0.00     0.023 A 
ATOM     40  C   UNL A   1      41.489  24.980  27.814  1.00  0.00     0.012 A 
ATOM     41  C   UNL A   1      43.512  26.201  27.307  1.00  0.00     0.148 A 
ATOM     42  C   UNL A   1      41.844  24.012  26.866  1.00  0.00     0.002 A 
ATOM     43  C   UNL A   1      43.857  25.244  26.355  1.00  0.00     0.091 A 
ATOM     44  F   UNL A   1      44.290  27.276  27.498  1.00  0.00    -0.205 F 
ATOM     45  C   UNL A   1      43.028  24.139  26.143  1.00  0.00     0.022 A 
BRANCH  43  46
ATOM     46  S   UNL A   1      45.355  25.354  25.362  1.00  0.00     0.127 S 
ATOM     47  O   UNL A   1      45.208  26.675  24.750  1.00  0.00    -0.237 OA
ATOM     48  O   UNL A   1      46.403  25.268  26.382  1.00  0.00    -0.237 OA
ATOM     49  O   UNL A   1      45.309  24.242  24.428  1.00  0.00    -0.744 OA
ENDBRANCH  43  46
ENDBRANCH  25  39
BRANCH  26  50
ATOM     50  C   UNL A   1      39.114  32.363  35.193  1.00  0.00     0.023 A 
ATOM     51  C   UNL A   1      38.232  31.855  36.167  1.00  0.00     0.012 A 
ATOM     52  C   UNL A   1      39.638  33.661  35.332  1.00  0.00     0.148 A 
ATOM     53  C   UNL A   1      37.888  32.622  37.277  1.00  0.00     0.002 A 
ATOM     54  C   UNL A   1      39.313  34.409  36.457  1.00  0.00     0.091 A 
ATOM     55  F   UNL A   1      40.497  34.102  34.402  1.00  0.00    -0.205 F 
ATOM     56  C   UNL A   1      38.437  33.892  37.428  1.00  0.00     0.022 A 
BRANCH  54  57
ATOM     57  S   UNL A   1      40.049  36.008  36.812  1.00  0.00     0.127 S 
ATOM     58  O   UNL A   1      41.459  35.660  36.969  1.00  0.00    -0.237 OA
ATOM     59  O   UNL A   1      39.730  36.756  35.595  1.00  0.00    -0.237 OA
ATOM     60  O   UNL A   1      39.391  36.493  38.017  1.00  0.00    -0.744 OA
ENDBRANCH  54  57
ENDBRANCH  26  50
BRANCH  38  61
ATOM     61  C   UNL A   1      44.774  28.303  34.480  1.00  0.00     0.023 A 
ATOM     62  C   UNL A   1      45.916  29.110  34.321  1.00  0.00     0.012 A 
ATOM     63  C   UNL A   1      44.746  27.328  35.497  1.00  0.00     0.148 A 
ATOM     64  C   UNL A   1      47.026  28.934  35.145  1.00  0.00     0.002 A 
ATOM     65  C   UNL A   1      45.845  27.178  36.334  1.00  0.00     0.091 A 
ATOM     66  F   UNL A   1      43.649  26.567  35.623  1.00  0.00    -0.205 F 
ATOM     67  C   UNL A   1      46.988  27.975  36.156  1.00  0.00     0.022 A 
BRANCH  65  68
ATOM     68  S   UNL A   1      45.871  26.007  37.696  1.00  0.00     0.127 S 
ATOM     69  O   UNL A   1      44.451  25.911  38.032  1.00  0.00    -0.237 OA
ATOM     70  O   UNL A   1      46.430  24.811  37.066  1.00  0.00    -0.237 OA
ATOM     71  O   UNL A   1      46.713  26.601  38.725  1.00  0.00    -0.744 OA
ENDBRANCH  65  68
ENDBRANCH  38  61
ENDBRANCH  12  13
ENDBRANCH   5   7
ENDBRANCH   4   5
ENDBRANCH   3   4
ENDBRANCH   2   3
ENDBRANCH   1   2
BRANCH   1  72
ATOM     72  C   UNL A   1      31.436  26.883  26.513  1.00  0.00     0.188 C 
BRANCH  72  73
ATOM     73  C   UNL A   1      30.687  26.256  25.334  1.00  0.00     0.188 C 
BRANCH  73  74
ATOM     74  O   UNL A   1      30.440  24.851  25.427  1.00  0.00    -0.376 OA
BRANCH  74  75
ATOM     75  C   UNL A   1      31.391  24.054  26.128  1.00  0.00     0.202 C 
BRANCH  75  76
ATOM     76  C   UNL A   1      32.667  23.681  25.373  1.00  0.00     0.261 C 
BRANCH  76  77
ATOM     77  O   UNL A   1      32.402  23.290  24.025  1.00  0.00    -0.460 OA
BRANCH  77  78
ATOM     78  C   UNL A   1      32.687  21.997  23.711  1.00  0.00     0.347 C 
ATOM     79  O   UNL A   1      32.635  21.530  22.576  1.00  0.00    -0.248 OA
BRANCH  78  80
ATOM     80  C   UNL A   1      33.152  21.198  24.921  1.00  0.00     0.287 C 
ATOM     81  C   UNL A   1      32.140  20.190  25.487  1.00  0.00     0.097 C 
ATOM     82  O   UNL A   1      34.378  20.528  24.572  1.00  0.00    -0.478 OA
ATOM     83  C   UNL A   1      32.830  18.927  25.164  1.00  0.00    -0.000 A 
ATOM     84  C   UNL A   1      34.081  19.198  24.647  1.00  0.00     0.124 A 
ATOM     85  C   UNL A   1      32.425  17.621  25.368  1.00  0.00     0.028 A 
ATOM     86  C   UNL A   1      34.948  18.190  24.290  1.00  0.00     0.048 A 
ATOM     87  C   UNL A   1      33.316  16.587  25.088  1.00  0.00     0.041 A 
ATOM     88  C   UNL A   1      34.568  16.867  24.539  1.00  0.00     0.024 A 
ATOM     89  Cl  UNL A   1      32.864  14.967  25.450  1.00  0.00    -0.084 Cl
ENDBRANCH  78  80
ENDBRANCH  77  78
ENDBRANCH  76  77
ENDBRANCH  75  76
ENDBRANCH  74  75
ENDBRANCH  73  74
ENDBRANCH  72  73
ENDBRANCH   1  72
TORSDOF 20
ENDMDL
MODEL 3
REMARK VINA RESULT:      -9.4      3.286      8.932
REMARK SMILES O=C(OCCOCCOCCOC(=O)[C@H]1Cc2cc(Cl)ccc2O1)c1ccc(-c2c3nc(c(-c4cccc(S(=O)(=O)[O-])c4F)c4ccc([nH]4)c(-c4cccc(S(=O)(=O)[O-])c4F)c4nc(c(-c5cccc(S(=O)(=O)[O-])c5F)c5ccc2[nH]5)C=C4)C=C3)cc1
REMARK SMILES IDX 6 1 5 2 4 3 3 4 2 5 1 6 25 7 26 8 87 9 27 10 86 11 28 12
REMARK SMILES IDX 29 13 30 14 80 15 31 16 85 17 79 18 81 19 32 20 84 21 78 22
REMARK SMILES IDX 77 23 33 25 65 26 45 27 64 28 46 29 49 30 63 31 82 32 47 33
REMARK SMILES IDX 48 34 62 36 83 37 50 38 34 39 35 40 43 41 36 42 38 43 44 44
REMARK SMILES IDX 37 45 39 46 40 47 41 48 42 49 66 50 67 51 75 52 68 53 70 54
REMARK SMILES IDX 76 55 69 56 71 57 72 58 73 59 74 60 51 61 52 62 60 63 53 64
REMARK SMILES IDX 55 65 61 66 54 67 56 68 57 69 58 70 59 71 7 72 8 73 9 74
REMARK SMILES IDX 10 75 11 76 12 77 13 78 14 79 15 80 16 81 24 82 17 83 23 84
REMARK SMILES IDX 18 85 22 86 19 87 21 88 20 89
REMARK H PARENT 81 24 49 35
REMARK Flexibility Score: inf
ROOT
ATOM      1  O   UNL A   1      33.127  34.856  28.696  1.00  0.00    -0.376 OA
ENDROOT
BRANCH   1   2
ATOM      2  C   UNL A   1      33.004  36.274  28.633  1.00  0.00     0.202 C 
BRANCH   2   3
ATOM      3  C   UNL A   1      33.223  37.056  29.934  1.00  0.00     0.261 C 
BRANCH   3   4
ATOM      4  O   UNL A   1      32.321  36.761  31.012  1.00  0.00    -0.460 OA
BRANCH   4   5
ATOM      5  C   UNL A   1      32.556  36.269  32.253  1.00  0.00     0.338 C 
ATOM      6  O   UNL A   1      31.895  36.735  33.183  1.00  0.00    -0.246 OA
BRANCH   5   7
ATOM      7  C   UNL A   1      33.645  35.296  32.596  1.00  0.00     0.060 A 
ATOM      8  C   UNL A   1      34.971  35.788  32.604  1.00  0.00     0.016 A 
ATOM      9  C   UNL A   1      33.459  33.967  32.947  1.00  0.00     0.016 A 
ATOM     10  C   UNL A   1      36.075  34.965  32.902  1.00  0.00     0.010 A 
ATOM     11  C   UNL A   1      34.556  33.148  33.234  1.00  0.00     0.010 A 
ATOM     12  C   UNL A   1      35.881  33.617  33.192  1.00  0.00    -0.014 A 
BRANCH  12  13
ATOM     13  C   UNL A   1      36.971  32.695  33.628  1.00  0.00     0.031 A 
ATOM     14  C   UNL A   1      37.627  32.774  34.986  1.00  0.00     0.074 A 
ATOM     15  C   UNL A   1      37.493  31.893  32.681  1.00  0.00     0.049 A 
ATOM     16  N   UNL A   1      38.804  32.342  35.366  1.00  0.00    -0.248 NA
ATOM     17  C   UNL A   1      36.884  33.461  36.046  1.00  0.00     0.031 C 
ATOM     18  C   UNL A   1      36.932  31.710  31.340  1.00  0.00     0.029 A 
ATOM     19  N   UNL A   1      38.630  31.133  32.679  1.00  0.00    -0.354 N 
ATOM     20  C   UNL A   1      39.017  32.849  36.652  1.00  0.00     0.074 A 
ATOM     21  C   UNL A   1      37.796  33.542  37.010  1.00  0.00     0.031 C 
ATOM     22  C   UNL A   1      37.750  30.922  30.629  1.00  0.00     0.029 A 
ATOM     23  C   UNL A   1      38.885  30.547  31.464  1.00  0.00     0.049 A 
ATOM     24  H   UNL A   1      39.207  31.020  33.469  1.00  0.00     0.167 HD
ATOM     25  C   UNL A   1      40.142  32.770  37.417  1.00  0.00     0.034 A 
ATOM     26  C   UNL A   1      39.915  29.780  31.062  1.00  0.00     0.034 A 
ATOM     27  C   UNL A   1      41.273  31.937  37.064  1.00  0.00     0.049 A 
ATOM     28  C   UNL A   1      41.015  29.475  32.027  1.00  0.00     0.074 A 
ATOM     29  C   UNL A   1      42.413  31.674  37.807  1.00  0.00     0.029 A 
ATOM     30  N   UNL A   1      41.399  31.217  35.885  1.00  0.00    -0.354 N 
ATOM     31  N   UNL A   1      41.208  29.968  33.225  1.00  0.00    -0.248 NA
ATOM     32  C   UNL A   1      42.012  28.482  31.609  1.00  0.00     0.031 C 
ATOM     33  C   UNL A   1      43.231  30.810  37.074  1.00  0.00     0.029 A 
ATOM     34  C   UNL A   1      42.574  30.484  35.901  1.00  0.00     0.049 A 
ATOM     35  H   UNL A   1      40.748  31.225  35.147  1.00  0.00     0.167 HD
ATOM     36  C   UNL A   1      42.349  29.347  33.710  1.00  0.00     0.074 A 
ATOM     37  C   UNL A   1      42.782  28.415  32.688  1.00  0.00     0.031 C 
ATOM     38  C   UNL A   1      42.985  29.548  34.888  1.00  0.00     0.034 A 
BRANCH  25  39
ATOM     39  C   UNL A   1      40.264  33.596  38.695  1.00  0.00     0.023 A 
ATOM     40  C   UNL A   1      40.170  33.012  39.971  1.00  0.00     0.012 A 
ATOM     41  C   UNL A   1      40.567  34.979  38.624  1.00  0.00     0.148 A 
ATOM     42  C   UNL A   1      40.288  33.790  41.130  1.00  0.00     0.002 A 
ATOM     43  C   UNL A   1      40.697  35.748  39.778  1.00  0.00     0.091 A 
ATOM     44  F   UNL A   1      40.737  35.536  37.418  1.00  0.00    -0.205 F 
ATOM     45  C   UNL A   1      40.544  35.156  41.034  1.00  0.00     0.022 A 
BRANCH  43  46
ATOM     46  S   UNL A   1      41.055  37.513  39.737  1.00  0.00     0.127 S 
ATOM     47  O   UNL A   1      41.447  37.767  41.125  1.00  0.00    -0.237 OA
ATOM     48  O   UNL A   1      42.155  37.578  38.773  1.00  0.00    -0.237 OA
ATOM     49  O   UNL A   1      39.828  38.170  39.322  1.00  0.00    -0.744 OA
ENDBRANCH  43  46
ENDBRANCH  25  39
BRANCH  26  50
ATOM     50  C   UNL A   1      39.815  29.134  29.730  1.00  0.00     0.023 A 
ATOM     51  C   UNL A   1      40.132  29.914  28.602  1.00  0.00     0.012 A 
ATOM     52  C   UNL A   1      39.611  27.750  29.589  1.00  0.00     0.148 A 
ATOM     53  C   UNL A   1      40.264  29.322  27.348  1.00  0.00     0.002 A 
ATOM     54  C   UNL A   1      39.773  27.162  28.340  1.00  0.00     0.091 A 
ATOM     55  F   UNL A   1      39.339  27.032  30.688  1.00  0.00    -0.205 F 
ATOM     56  C   UNL A   1      40.096  27.947  27.220  1.00  0.00     0.022 A 
BRANCH  54  57
ATOM     57  S   UNL A   1      39.693  25.387  28.079  1.00  0.00     0.127 S 
ATOM     58  O   UNL A   1      38.553  25.013  28.913  1.00  0.00    -0.237 OA
ATOM     59  O   UNL A   1      39.453  25.310  26.638  1.00  0.00    -0.237 OA
ATOM     60  O   UNL A   1      40.979  24.861  28.514  1.00  0.00    -0.744 OA
ENDBRANCH  54  57
ENDBRANCH  26  50
BRANCH  38  61
ATOM     61  C   UNL A   1      44.229  28.743  35.152  1.00  0.00     0.023 A 
ATOM     62  C   UNL A   1      45.486  29.282  34.820  1.00  0.00     0.012 A 
ATOM     63  C   UNL A   1      44.154  27.495  35.800  1.00  0.00     0.148 A 
ATOM     64  C   UNL A   1      46.655  28.577  35.107  1.00  0.00     0.002 A 
ATOM     65  C   UNL A   1      45.324  26.811  36.109  1.00  0.00     0.091 A 
ATOM     66  F   UNL A   1      42.944  27.001  36.098  1.00  0.00    -0.205 F 
ATOM     67  C   UNL A   1      46.574  27.347  35.758  1.00  0.00     0.022 A 
BRANCH  65  68
ATOM     68  S   UNL A   1      45.326  25.247  36.992  1.00  0.00     0.127 S 
ATOM     69  O   UNL A   1      46.730  24.849  36.888  1.00  0.00    -0.237 OA
ATOM     70  O   UNL A   1      44.904  25.648  38.335  1.00  0.00    -0.237 OA
ATOM     71  O   UNL A   1      44.384  24.386  36.292  1.00  0.00    -0.744 OA
ENDBRANCH  65  68
ENDBRANCH  38  61
ENDBRANCH  12  13
ENDBRANCH   5   7
ENDBRANCH   4   5
ENDBRANCH   3   4
ENDBRANCH   2   3
ENDBRANCH   1   2
BRANCH   1  72
ATOM     72  C   UNL A   1      34.389  34.380  29.175  1.00  0.00     0.188 C 
BRANCH  72  73
ATOM     73  C   UNL A   1      34.942  33.264  28.285  1.00  0.00     0.188 C 
BRANCH  73  74
ATOM     74  O   UNL A   1      34.497  31.941  28.594  1.00  0.00    -0.376 OA
BRANCH  74  75
ATOM     75  C   UNL A   1      34.678  30.932  27.605  1.00  0.00     0.202 C 
BRANCH  75  76
ATOM     76  C   UNL A   1      33.508  29.972  27.380  1.00  0.00     0.261 C 
BRANCH  76  77
ATOM     77  O   UNL A   1      33.560  29.348  26.096  1.00  0.00    -0.460 OA
BRANCH  77  78
ATOM     78  C   UNL A   1      32.565  29.680  25.229  1.00  0.00     0.347 C 
ATOM     79  O   UNL A   1      31.611  30.400  25.511  1.00  0.00    -0.248 OA
BRANCH  78  80
ATOM     80  C   UNL A   1      32.800  29.113  23.836  1.00  0.00     0.287 C 
ATOM     81  C   UNL A   1      33.984  28.145  23.697  1.00  0.00     0.097 C 
ATOM     82  O   UNL A   1      31.584  28.477  23.400  1.00  0.00    -0.478 OA
ATOM     83  C   UNL A   1      33.258  26.893  23.410  1.00  0.00    -0.000 A 
ATOM     84  C   UNL A   1      31.912  27.159  23.262  1.00  0.00     0.124 A 
ATOM     85  C   UNL A   1      33.745  25.613  23.222  1.00  0.00     0.028 A 
ATOM     86  C   UNL A   1      31.010  26.164  22.958  1.00  0.00     0.048 A 
ATOM     87  C   UNL A   1      32.861  24.607  22.834  1.00  0.00     0.041 A 
ATOM     88  C   UNL A   1      31.497  24.876  22.715  1.00  0.00     0.024 A 
ATOM     89  Cl  UNL A   1      33.476  23.039  22.483  1.00  0.00    -0.084 Cl
ENDBRANCH  78  80
ENDBRANCH  77  78
ENDBRANCH  76  77
ENDBRANCH  75  76
ENDBRANCH  74  75
ENDBRANCH  73  74
ENDBRANCH  72  73
ENDBRANCH   1  72
TORSDOF 20
ENDMDL
