MODEL 1
REMARK VINA RESULT:     -11.0      0.000      0.000
REMARK SMILES O=C(OCCOCCOCCOC(=O)c1ccc(-c2c3nc(c(-c4cccc(S(=O)(=O)[O-])c4F)c4ccc([nH]4)c(-c4cccc(S(=O)(=O)[O-])c4F)c4nc(c(-c5cccc(S(=O)(=O)[O-])c5F)c5ccc2[nH]5)C=C4)C=C3)cc1)C1=Cc2cc(Cl)cc(-c3ccc(CO)cc3)c2O[C@@H]1C(F)(F)F
REMARK SMILES IDX 7 1 6 2 5 3 4 4 3 5 2 6 1 7 78 8 79 9 96 10 80 11 95 12
REMARK SMILES IDX 81 13 94 14 82 15 85 16 83 17 84 18 97 19 98 20 99 21 100 22
REMARK SMILES IDX 86 23 87 24 93 25 88 26 92 27 89 28 90 29 91 30 8 32 9 33
REMARK SMILES IDX 10 34 11 35 12 36 13 37 14 38 15 39 16 40 77 41 17 42 76 43
REMARK SMILES IDX 18 44 19 45 20 46 70 47 21 48 75 49 69 50 71 51 22 52 74 53
REMARK SMILES IDX 68 54 67 55 23 57 55 58 35 59 54 60 36 61 39 62 53 63 72 64
REMARK SMILES IDX 37 65 38 66 52 68 73 69 40 70 24 71 25 72 33 73 26 74 28 75
REMARK SMILES IDX 34 76 27 77 29 78 30 79 31 80 32 81 56 82 57 83 65 84 58 85
REMARK SMILES IDX 60 86 66 87 59 88 61 89 62 90 63 91 64 92 41 93 42 94 50 95
REMARK SMILES IDX 43 96 45 97 51 98 44 99 46 100 47 101 48 102 49 103
REMARK H PARENT 91 31 71 56 39 67
REMARK Flexibility Score: inf
ROOT
ATOM      1  C   UNL A   1      30.820  26.265  24.668  1.00  0.00     0.188 C 
ENDROOT
BRANCH   1   2
ATOM      2  O   UNL A   1      30.743  25.014  23.823  1.00  0.00    -0.376 OA
BRANCH   2   3
ATOM      3  C   UNL A   1      31.187  23.372  24.323  1.00  0.00     0.202 C 
BRANCH   3   4
ATOM      4  C   UNL A   1      32.450  22.991  26.055  1.00  0.00     0.261 C 
BRANCH   4   5
ATOM      5  O   UNL A   1      33.794  23.672  26.358  1.00  0.00    -0.460 OA
BRANCH   5   6
ATOM      6  C   UNL A   1      34.807  22.793  26.454  1.00  0.00     0.338 C 
ATOM      7  O   UNL A   1      34.948  21.912  27.264  1.00  0.00    -0.246 OA
BRANCH   6   8
ATOM      8  C   UNL A   1      35.764  23.594  25.714  1.00  0.00     0.087 C 
ATOM      9  C   UNL A   1      36.611  24.460  26.505  1.00  0.00     0.027 C 
ATOM     10  C   UNL A   1      36.369  22.125  24.648  1.00  0.00     0.316 C 
ATOM     11  C   UNL A   1      38.333  24.124  26.844  1.00  0.00     0.019 A 
ATOM     12  O   UNL A   1      38.210  21.628  25.139  1.00  0.00    -0.475 OA
ATOM     13  C   UNL A   1      38.953  24.960  27.735  1.00  0.00     0.032 A 
ATOM     14  C   UNL A   1      39.166  22.720  26.257  1.00  0.00     0.135 A 
ATOM     15  C   UNL A   1      40.269  24.621  28.050  1.00  0.00     0.042 A 
ATOM     16  C   UNL A   1      40.493  22.492  26.597  1.00  0.00     0.026 A 
ATOM     17  Cl  UNL A   1      41.106  25.632  29.180  1.00  0.00    -0.084 Cl
ATOM     18  C   UNL A   1      40.982  23.488  27.508  1.00  0.00     0.033 A 
BRANCH  10  19
ATOM     19  C   UNL A   1      35.708  22.816  23.227  1.00  0.00     0.430 C 
ATOM     20  F   UNL A   1      35.415  24.130  23.196  1.00  0.00    -0.167 F 
ATOM     21  F   UNL A   1      36.508  22.546  22.167  1.00  0.00    -0.167 F 
ATOM     22  F   UNL A   1      34.508  22.234  22.926  1.00  0.00    -0.167 F 
ENDBRANCH  10  19
BRANCH  16  23
ATOM     23  C   UNL A   1      41.479  21.499  26.173  1.00  0.00    -0.015 A 
ATOM     24  C   UNL A   1      41.293  20.133  26.400  1.00  0.00     0.009 A 
ATOM     25  C   UNL A   1      42.764  21.915  25.773  1.00  0.00     0.009 A 
ATOM     26  C   UNL A   1      42.302  19.206  26.097  1.00  0.00     0.007 A 
ATOM     27  C   UNL A   1      43.766  20.993  25.440  1.00  0.00     0.007 A 
ATOM     28  C   UNL A   1      43.519  19.624  25.542  1.00  0.00    -0.023 A 
BRANCH  28  29
ATOM     29  C   UNL A   1      44.528  18.620  25.049  1.00  0.00     0.191 C 
BRANCH  29  30
ATOM     30  O   UNL A   1      44.980  17.776  26.097  1.00  0.00    -0.392 OA
ATOM     31  H   UNL A   1      45.837  17.390  25.854  1.00  0.00     0.211 HD
ENDBRANCH  29  30
ENDBRANCH  28  29
ENDBRANCH  16  23
ENDBRANCH   6   8
ENDBRANCH   5   6
ENDBRANCH   4   5
ENDBRANCH   3   4
ENDBRANCH   2   3
ENDBRANCH   1   2
BRANCH   1  32
ATOM     32  C   UNL A   1      30.714  27.687  24.088  1.00  0.00     0.188 C 
BRANCH  32  33
ATOM     33  O   UNL A   1      31.468  28.715  24.670  1.00  0.00    -0.376 OA
BRANCH  33  34
ATOM     34  C   UNL A   1      31.816  28.474  26.018  1.00  0.00     0.202 C 
BRANCH  34  35
ATOM     35  C   UNL A   1      32.320  29.631  26.890  1.00  0.00     0.261 C 
BRANCH  35  36
ATOM     36  O   UNL A   1      33.697  29.984  26.691  1.00  0.00    -0.460 OA
BRANCH  36  37
ATOM     37  C   UNL A   1      34.131  31.103  27.322  1.00  0.00     0.338 C 
ATOM     38  O   UNL A   1      33.495  32.114  27.561  1.00  0.00    -0.246 OA
BRANCH  37  39
ATOM     39  C   UNL A   1      35.479  30.835  27.858  1.00  0.00     0.060 A 
ATOM     40  C   UNL A   1      35.889  29.516  28.104  1.00  0.00     0.016 A 
ATOM     41  C   UNL A   1      36.323  31.906  28.140  1.00  0.00     0.016 A 
ATOM     42  C   UNL A   1      37.168  29.261  28.595  1.00  0.00     0.010 A 
ATOM     43  C   UNL A   1      37.584  31.652  28.680  1.00  0.00     0.010 A 
ATOM     44  C   UNL A   1      38.007  30.331  28.914  1.00  0.00    -0.014 A 
BRANCH  44  45
ATOM     45  C   UNL A   1      39.262  30.096  29.660  1.00  0.00     0.031 A 
ATOM     46  C   UNL A   1      39.336  30.577  31.079  1.00  0.00     0.074 A 
ATOM     47  C   UNL A   1      40.329  29.535  29.066  1.00  0.00     0.049 A 
ATOM     48  N   UNL A   1      40.362  30.609  31.886  1.00  0.00    -0.248 NA
ATOM     49  C   UNL A   1      38.090  31.104  31.663  1.00  0.00     0.031 C 
ATOM     50  C   UNL A   1      40.360  29.026  27.697  1.00  0.00     0.029 A 
ATOM     51  N   UNL A   1      41.609  29.340  29.528  1.00  0.00    -0.354 N 
ATOM     52  C   UNL A   1      39.901  31.206  33.051  1.00  0.00     0.074 A 
ATOM     53  C   UNL A   1      38.498  31.495  32.861  1.00  0.00     0.031 C 
ATOM     54  C   UNL A   1      41.607  28.615  27.412  1.00  0.00     0.029 A 
ATOM     55  C   UNL A   1      42.473  28.877  28.561  1.00  0.00     0.049 A 
ATOM     56  H   UNL A   1      41.880  29.513  30.458  1.00  0.00     0.167 HD
ATOM     57  C   UNL A   1      40.595  31.500  34.172  1.00  0.00     0.034 A 
ATOM     58  C   UNL A   1      43.813  28.738  28.587  1.00  0.00     0.034 A 
ATOM     59  C   UNL A   1      41.992  31.216  34.350  1.00  0.00     0.049 A 
ATOM     60  C   UNL A   1      44.562  29.105  29.846  1.00  0.00     0.074 A 
ATOM     61  C   UNL A   1      42.769  31.422  35.474  1.00  0.00     0.029 A 
ATOM     62  N   UNL A   1      42.826  30.703  33.370  1.00  0.00    -0.354 N 
ATOM     63  N   UNL A   1      44.093  29.542  30.991  1.00  0.00    -0.248 NA
ATOM     64  C   UNL A   1      46.025  28.949  29.825  1.00  0.00     0.031 C 
ATOM     65  C   UNL A   1      44.088  31.093  35.155  1.00  0.00     0.029 A 
ATOM     66  C   UNL A   1      44.120  30.622  33.853  1.00  0.00     0.049 A 
ATOM     67  H   UNL A   1      42.541  30.439  32.466  1.00  0.00     0.167 HD
ATOM     68  C   UNL A   1      45.196  29.687  31.827  1.00  0.00     0.074 A 
ATOM     69  C   UNL A   1      46.353  29.259  31.072  1.00  0.00     0.031 C 
ATOM     70  C   UNL A   1      45.252  30.153  33.100  1.00  0.00     0.034 A 
BRANCH  57  71
ATOM     71  C   UNL A   1      39.871  32.191  35.293  1.00  0.00     0.023 A 
ATOM     72  C   UNL A   1      38.980  31.471  36.112  1.00  0.00     0.012 A 
ATOM     73  C   UNL A   1      40.156  33.538  35.587  1.00  0.00     0.148 A 
ATOM     74  C   UNL A   1      38.374  32.089  37.206  1.00  0.00     0.002 A 
ATOM     75  C   UNL A   1      39.587  34.132  36.705  1.00  0.00     0.091 A 
ATOM     76  F   UNL A   1      40.987  34.207  34.774  1.00  0.00    -0.205 F 
ATOM     77  C   UNL A   1      38.689  33.412  37.510  1.00  0.00     0.022 A 
BRANCH  75  78
ATOM     78  S   UNL A   1      39.995  35.800  37.229  1.00  0.00     0.127 S 
ATOM     79  O   UNL A   1      39.163  35.945  38.423  1.00  0.00    -0.237 OA
ATOM     80  O   UNL A   1      41.428  35.692  37.494  1.00  0.00    -0.237 OA
ATOM     81  O   UNL A   1      39.639  36.673  36.119  1.00  0.00    -0.744 OA
ENDBRANCH  75  78
ENDBRANCH  57  71
BRANCH  58  82
ATOM     82  C   UNL A   1      44.557  28.272  27.379  1.00  0.00     0.023 A 
ATOM     83  C   UNL A   1      45.243  29.203  26.573  1.00  0.00     0.012 A 
ATOM     84  C   UNL A   1      44.552  26.916  26.998  1.00  0.00     0.148 A 
ATOM     85  C   UNL A   1      45.861  28.802  25.387  1.00  0.00     0.002 A 
ATOM     86  C   UNL A   1      45.228  26.511  25.853  1.00  0.00     0.091 A 
ATOM     87  F   UNL A   1      43.875  26.044  27.759  1.00  0.00    -0.205 F 
ATOM     88  C   UNL A   1      45.861  27.456  25.031  1.00  0.00     0.022 A 
BRANCH  86  89
ATOM     89  S   UNL A   1      45.389  24.782  25.392  1.00  0.00     0.127 S 
ATOM     90  O   UNL A   1      44.120  24.531  24.716  1.00  0.00    -0.237 OA
ATOM     91  O   UNL A   1      46.559  24.811  24.515  1.00  0.00    -0.237 OA
ATOM     92  O   UNL A   1      45.596  24.059  26.639  1.00  0.00    -0.744 OA
ENDBRANCH  86  89
ENDBRANCH  58  82
BRANCH  70  93
ATOM     93  C   UNL A   1      46.598  30.195  33.775  1.00  0.00     0.023 A 
ATOM     94  C   UNL A   1      47.412  31.340  33.661  1.00  0.00     0.012 A 
ATOM     95  C   UNL A   1      47.016  29.130  34.599  1.00  0.00     0.148 A 
ATOM     96  C   UNL A   1      48.634  31.410  34.327  1.00  0.00     0.002 A 
ATOM     97  C   UNL A   1      48.208  29.230  35.303  1.00  0.00     0.091 A 
ATOM     98  F   UNL A   1      46.232  28.046  34.688  1.00  0.00    -0.205 F 
ATOM     99  C   UNL A   1      49.026  30.362  35.158  1.00  0.00     0.022 A 
BRANCH  97 100
ATOM    100  S   UNL A   1      48.751  27.977  36.470  1.00  0.00     0.127 S 
ATOM    101  O   UNL A   1      47.550  27.786  37.282  1.00  0.00    -0.237 OA
ATOM    102  O   UNL A   1      49.077  26.856  35.589  1.00  0.00    -0.237 OA
ATOM    103  O   UNL A   1      49.890  28.547  37.177  1.00  0.00    -0.744 OA
ENDBRANCH  97 100
ENDBRANCH  70  93
ENDBRANCH  44  45
ENDBRANCH  37  39
ENDBRANCH  36  37
ENDBRANCH  35  36
ENDBRANCH  34  35
ENDBRANCH  33  34
ENDBRANCH  32  33
ENDBRANCH   1  32
TORSDOF 24
ENDMDL
MODEL 2
REMARK VINA RESULT:     -10.5      1.606      7.395
REMARK SMILES O=C(OCCOCCOCCOC(=O)c1ccc(-c2c3nc(c(-c4cccc(S(=O)(=O)[O-])c4F)c4ccc([nH]4)c(-c4cccc(S(=O)(=O)[O-])c4F)c4nc(c(-c5cccc(S(=O)(=O)[O-])c5F)c5ccc2[nH]5)C=C4)C=C3)cc1)C1=Cc2cc(Cl)cc(-c3ccc(CO)cc3)c2O[C@@H]1C(F)(F)F
REMARK SMILES IDX 7 1 6 2 5 3 4 4 3 5 2 6 1 7 78 8 79 9 96 10 80 11 95 12
REMARK SMILES IDX 81 13 94 14 82 15 85 16 83 17 84 18 97 19 98 20 99 21 100 22
REMARK SMILES IDX 86 23 87 24 93 25 88 26 92 27 89 28 90 29 91 30 8 32 9 33
REMARK SMILES IDX 10 34 11 35 12 36 13 37 14 38 15 39 16 40 77 41 17 42 76 43
REMARK SMILES IDX 18 44 19 45 20 46 70 47 21 48 75 49 69 50 71 51 22 52 74 53
REMARK SMILES IDX 68 54 67 55 23 57 55 58 35 59 54 60 36 61 39 62 53 63 72 64
REMARK SMILES IDX 37 65 38 66 52 68 73 69 40 70 24 71 25 72 33 73 26 74 28 75
REMARK SMILES IDX 34 76 27 77 29 78 30 79 31 80 32 81 56 82 57 83 65 84 58 85
REMARK SMILES IDX 60 86 66 87 59 88 61 89 62 90 63 91 64 92 41 93 42 94 50 95
REMARK SMILES IDX 43 96 45 97 51 98 44 99 46 100 47 101 48 102 49 103
REMARK H PARENT 91 31 71 56 39 67
REMARK Flexibility Score: inf
ROOT
ATOM      1  C   UNL A   1      31.186  27.281  24.502  1.00  0.00     0.188 C 
ENDROOT
BRANCH   1   2
ATOM      2  O   UNL A   1      31.264  26.194  23.455  1.00  0.00    -0.376 OA
BRANCH   2   3
ATOM      3  C   UNL A   1      31.663  24.489  23.730  1.00  0.00     0.202 C 
BRANCH   3   4
ATOM      4  C   UNL A   1      32.419  23.770  25.642  1.00  0.00     0.261 C 
BRANCH   4   5
ATOM      5  O   UNL A   1      33.692  24.261  26.349  1.00  0.00    -0.460 OA
BRANCH   5   6
ATOM      6  C   UNL A   1      34.616  23.292  26.478  1.00  0.00     0.338 C 
ATOM      7  O   UNL A   1      34.688  22.448  27.335  1.00  0.00    -0.246 OA
BRANCH   6   8
ATOM      8  C   UNL A   1      35.629  23.951  25.675  1.00  0.00     0.087 C 
ATOM      9  C   UNL A   1      36.512  24.851  26.384  1.00  0.00     0.027 C 
ATOM     10  C   UNL A   1      36.164  22.341  24.791  1.00  0.00     0.316 C 
ATOM     11  C   UNL A   1      38.207  24.458  26.796  1.00  0.00     0.019 A 
ATOM     12  O   UNL A   1      37.965  21.799  25.373  1.00  0.00    -0.475 OA
ATOM     13  C   UNL A   1      38.860  25.351  27.604  1.00  0.00     0.032 A 
ATOM     14  C   UNL A   1      38.966  22.953  26.385  1.00  0.00     0.135 A 
ATOM     15  C   UNL A   1      40.149  24.975  27.982  1.00  0.00     0.042 A 
ATOM     16  C   UNL A   1      40.271  22.689  26.776  1.00  0.00     0.026 A 
ATOM     17  Cl  UNL A   1      41.026  26.057  29.012  1.00  0.00    -0.084 Cl
ATOM     18  C   UNL A   1      40.804  23.751  27.583  1.00  0.00     0.033 A 
BRANCH  10  19
ATOM     19  C   UNL A   1      35.566  22.907  23.288  1.00  0.00     0.430 C 
ATOM     20  F   UNL A   1      35.186  24.193  23.160  1.00  0.00    -0.167 F 
ATOM     21  F   UNL A   1      36.460  22.641  22.305  1.00  0.00    -0.167 F 
ATOM     22  F   UNL A   1      34.435  22.224  22.935  1.00  0.00    -0.167 F 
ENDBRANCH  10  19
BRANCH  16  23
ATOM     23  C   UNL A   1      41.204  21.602  26.485  1.00  0.00    -0.015 A 
ATOM     24  C   UNL A   1      42.473  21.843  25.953  1.00  0.00     0.009 A 
ATOM     25  C   UNL A   1      40.744  20.270  26.474  1.00  0.00     0.009 A 
ATOM     26  C   UNL A   1      43.307  20.783  25.566  1.00  0.00     0.007 A 
ATOM     27  C   UNL A   1      41.583  19.205  26.118  1.00  0.00     0.007 A 
ATOM     28  C   UNL A   1      42.897  19.452  25.718  1.00  0.00    -0.023 A 
BRANCH  28  29
ATOM     29  C   UNL A   1      43.855  18.315  25.475  1.00  0.00     0.191 C 
BRANCH  29  30
ATOM     30  O   UNL A   1      44.362  17.791  26.693  1.00  0.00    -0.392 OA
ATOM     31  H   UNL A   1      44.656  16.876  26.553  1.00  0.00     0.211 HD
ENDBRANCH  29  30
ENDBRANCH  28  29
ENDBRANCH  16  23
ENDBRANCH   6   8
ENDBRANCH   5   6
ENDBRANCH   4   5
ENDBRANCH   3   4
ENDBRANCH   2   3
ENDBRANCH   1   2
BRANCH   1  32
ATOM     32  C   UNL A   1      31.209  28.783  24.166  1.00  0.00     0.188 C 
BRANCH  32  33
ATOM     33  O   UNL A   1      31.990  29.642  24.951  1.00  0.00    -0.376 OA
BRANCH  33  34
ATOM     34  C   UNL A   1      32.496  29.040  26.125  1.00  0.00     0.202 C 
BRANCH  34  35
ATOM     35  C   UNL A   1      32.977  29.922  27.283  1.00  0.00     0.261 C 
BRANCH  35  36
ATOM     36  O   UNL A   1      34.296  30.467  27.123  1.00  0.00    -0.460 OA
BRANCH  36  37
ATOM     37  C   UNL A   1      34.554  31.627  27.774  1.00  0.00     0.338 C 
ATOM     38  O   UNL A   1      33.807  32.579  27.919  1.00  0.00    -0.246 OA
BRANCH  37  39
ATOM     39  C   UNL A   1      35.851  31.489  28.463  1.00  0.00     0.060 A 
ATOM     40  C   UNL A   1      36.186  30.282  29.095  1.00  0.00     0.016 A 
ATOM     41  C   UNL A   1      36.719  32.577  28.502  1.00  0.00     0.016 A 
ATOM     42  C   UNL A   1      37.418  30.145  29.733  1.00  0.00     0.010 A 
ATOM     43  C   UNL A   1      37.930  32.455  29.184  1.00  0.00     0.010 A 
ATOM     44  C   UNL A   1      38.280  31.242  29.805  1.00  0.00    -0.014 A 
BRANCH  44  45
ATOM     45  C   UNL A   1      39.471  31.197  30.680  1.00  0.00     0.031 A 
ATOM     46  C   UNL A   1      40.696  30.502  30.165  1.00  0.00     0.074 A 
ATOM     47  C   UNL A   1      39.436  31.699  31.927  1.00  0.00     0.049 A 
ATOM     48  N   UNL A   1      41.806  30.217  30.790  1.00  0.00    -0.248 NA
ATOM     49  C   UNL A   1      40.661  30.060  28.760  1.00  0.00     0.031 C 
ATOM     50  C   UNL A   1      38.301  32.400  32.521  1.00  0.00     0.029 A 
ATOM     51  N   UNL A   1      40.370  31.655  32.934  1.00  0.00    -0.354 N 
ATOM     52  C   UNL A   1      42.580  29.517  29.874  1.00  0.00     0.074 A 
ATOM     53  C   UNL A   1      41.828  29.444  28.642  1.00  0.00     0.031 C 
ATOM     54  C   UNL A   1      38.586  32.684  33.803  1.00  0.00     0.029 A 
ATOM     55  C   UNL A   1      39.903  32.142  34.134  1.00  0.00     0.049 A 
ATOM     56  H   UNL A   1      41.284  31.310  32.810  1.00  0.00     0.167 HD
ATOM     57  C   UNL A   1      43.801  28.969  30.056  1.00  0.00     0.034 A 
ATOM     58  C   UNL A   1      40.454  32.101  35.363  1.00  0.00     0.034 A 
ATOM     59  C   UNL A   1      44.538  29.040  31.287  1.00  0.00     0.049 A 
ATOM     60  C   UNL A   1      41.807  31.454  35.536  1.00  0.00     0.074 A 
ATOM     61  C   UNL A   1      45.811  28.568  31.549  1.00  0.00     0.029 A 
ATOM     62  N   UNL A   1      44.057  29.582  32.468  1.00  0.00    -0.354 N 
ATOM     63  N   UNL A   1      42.590  30.915  34.632  1.00  0.00    -0.248 NA
ATOM     64  C   UNL A   1      42.364  31.421  36.898  1.00  0.00     0.031 C 
ATOM     65  C   UNL A   1      46.076  28.768  32.906  1.00  0.00     0.029 A 
ATOM     66  C   UNL A   1      44.994  29.421  33.473  1.00  0.00     0.049 A 
ATOM     67  H   UNL A   1      43.180  30.014  32.575  1.00  0.00     0.167 HD
ATOM     68  C   UNL A   1      43.733  30.504  35.309  1.00  0.00     0.074 A 
ATOM     69  C   UNL A   1      43.560  30.887  36.693  1.00  0.00     0.031 C 
ATOM     70  C   UNL A   1      44.822  29.848  34.836  1.00  0.00     0.034 A 
BRANCH  57  71
ATOM     71  C   UNL A   1      44.418  28.217  28.911  1.00  0.00     0.023 A 
ATOM     72  C   UNL A   1      44.121  26.855  28.714  1.00  0.00     0.012 A 
ATOM     73  C   UNL A   1      45.217  28.899  27.973  1.00  0.00     0.148 A 
ATOM     74  C   UNL A   1      44.622  26.178  27.603  1.00  0.00     0.002 A 
ATOM     75  C   UNL A   1      45.671  28.233  26.845  1.00  0.00     0.091 A 
ATOM     76  F   UNL A   1      45.506  30.189  28.199  1.00  0.00    -0.205 F 
ATOM     77  C   UNL A   1      45.382  26.870  26.662  1.00  0.00     0.022 A 
BRANCH  75  78
ATOM     78  S   UNL A   1      46.584  29.055  25.536  1.00  0.00     0.127 S 
ATOM     79  O   UNL A   1      47.958  28.960  26.029  1.00  0.00    -0.237 OA
ATOM     80  O   UNL A   1      46.291  28.205  24.383  1.00  0.00    -0.237 OA
ATOM     81  O   UNL A   1      46.050  30.407  25.454  1.00  0.00    -0.744 OA
ENDBRANCH  75  78
ENDBRANCH  57  71
BRANCH  58  82
ATOM     82  C   UNL A   1      39.722  32.643  36.547  1.00  0.00     0.023 A 
ATOM     83  C   UNL A   1      38.655  31.914  37.108  1.00  0.00     0.012 A 
ATOM     84  C   UNL A   1      40.050  33.900  37.093  1.00  0.00     0.148 A 
ATOM     85  C   UNL A   1      37.896  32.448  38.152  1.00  0.00     0.002 A 
ATOM     86  C   UNL A   1      39.336  34.396  38.178  1.00  0.00     0.091 A 
ATOM     87  F   UNL A   1      41.052  34.594  36.535  1.00  0.00    -0.205 F 
ATOM     88  C   UNL A   1      38.241  33.685  38.692  1.00  0.00     0.022 A 
BRANCH  86  89
ATOM     89  S   UNL A   1      39.796  35.916  39.017  1.00  0.00     0.127 S 
ATOM     90  O   UNL A   1      39.565  36.915  37.978  1.00  0.00    -0.237 OA
ATOM     91  O   UNL A   1      38.843  35.949  40.127  1.00  0.00    -0.237 OA
ATOM     92  O   UNL A   1      41.182  35.737  39.426  1.00  0.00    -0.744 OA
ENDBRANCH  86  89
ENDBRANCH  58  82
BRANCH  70  93
ATOM     93  C   UNL A   1      45.930  29.531  35.805  1.00  0.00     0.023 A 
ATOM     94  C   UNL A   1      46.942  30.480  36.058  1.00  0.00     0.012 A 
ATOM     95  C   UNL A   1      45.918  28.323  36.532  1.00  0.00     0.148 A 
ATOM     96  C   UNL A   1      47.941  30.217  36.994  1.00  0.00     0.002 A 
ATOM     97  C   UNL A   1      46.884  28.092  37.501  1.00  0.00     0.091 A 
ATOM     98  F   UNL A   1      44.952  27.431  36.271  1.00  0.00    -0.205 F 
ATOM     99  C   UNL A   1      47.905  29.030  37.724  1.00  0.00     0.022 A 
BRANCH  97 100
ATOM    100  S   UNL A   1      46.866  26.641  38.559  1.00  0.00     0.127 S 
ATOM    101  O   UNL A   1      46.970  25.558  37.580  1.00  0.00    -0.237 OA
ATOM    102  O   UNL A   1      48.062  26.840  39.376  1.00  0.00    -0.237 OA
ATOM    103  O   UNL A   1      45.610  26.689  39.294  1.00  0.00    -0.744 OA
ENDBRANCH  97 100
ENDBRANCH  70  93
ENDBRANCH  44  45
ENDBRANCH  37  39
ENDBRANCH  36  37
ENDBRANCH  35  36
ENDBRANCH  34  35
ENDBRANCH  33  34
ENDBRANCH  32  33
ENDBRANCH   1  32
TORSDOF 24
ENDMDL
MODEL 3
REMARK VINA RESULT:     -10.1      1.624      7.266
REMARK SMILES O=C(OCCOCCOCCOC(=O)c1ccc(-c2c3nc(c(-c4cccc(S(=O)(=O)[O-])c4F)c4ccc([nH]4)c(-c4cccc(S(=O)(=O)[O-])c4F)c4nc(c(-c5cccc(S(=O)(=O)[O-])c5F)c5ccc2[nH]5)C=C4)C=C3)cc1)C1=Cc2cc(Cl)cc(-c3ccc(CO)cc3)c2O[C@@H]1C(F)(F)F
REMARK SMILES IDX 7 1 6 2 5 3 4 4 3 5 2 6 1 7 78 8 79 9 96 10 80 11 95 12
REMARK SMILES IDX 81 13 94 14 82 15 85 16 83 17 84 18 97 19 98 20 99 21 100 22
REMARK SMILES IDX 86 23 87 24 93 25 88 26 92 27 89 28 90 29 91 30 8 32 9 33
REMARK SMILES IDX 10 34 11 35 12 36 13 37 14 38 15 39 16 40 77 41 17 42 76 43
REMARK SMILES IDX 18 44 19 45 20 46 70 47 21 48 75 49 69 50 71 51 22 52 74 53
REMARK SMILES IDX 68 54 67 55 23 57 55 58 35 59 54 60 36 61 39 62 53 63 72 64
REMARK SMILES IDX 37 65 38 66 52 68 73 69 40 70 24 71 25 72 33 73 26 74 28 75
REMARK SMILES IDX 34 76 27 77 29 78 30 79 31 80 32 81 56 82 57 83 65 84 58 85
REMARK SMILES IDX 60 86 66 87 59 88 61 89 62 90 63 91 64 92 41 93 42 94 50 95
REMARK SMILES IDX 43 96 45 97 51 98 44 99 46 100 47 101 48 102 49 103
REMARK H PARENT 91 31 71 56 39 67
REMARK Flexibility Score: inf
ROOT
ATOM      1  C   UNL A   1      30.351  26.039  24.412  1.00  0.00     0.188 C 
ENDROOT
BRANCH   1   2
ATOM      2  O   UNL A   1      30.483  24.834  23.508  1.00  0.00    -0.376 OA
BRANCH   2   3
ATOM      3  C   UNL A   1      31.250  23.288  23.913  1.00  0.00     0.202 C 
BRANCH   3   4
ATOM      4  C   UNL A   1      32.491  23.041  25.686  1.00  0.00     0.261 C 
BRANCH   4   5
ATOM      5  O   UNL A   1      33.785  23.809  25.994  1.00  0.00    -0.460 OA
BRANCH   5   6
ATOM      6  C   UNL A   1      34.801  22.995  26.330  1.00  0.00     0.338 C 
ATOM      7  O   UNL A   1      34.869  22.246  27.272  1.00  0.00    -0.246 OA
BRANCH   6   8
ATOM      8  C   UNL A   1      35.817  23.719  25.589  1.00  0.00     0.087 C 
ATOM      9  C   UNL A   1      36.633  24.631  26.360  1.00  0.00     0.027 C 
ATOM     10  C   UNL A   1      36.454  22.159  24.682  1.00  0.00     0.316 C 
ATOM     11  C   UNL A   1      38.325  24.295  26.829  1.00  0.00     0.019 A 
ATOM     12  O   UNL A   1      38.251  21.673  25.322  1.00  0.00    -0.475 OA
ATOM     13  C   UNL A   1      38.907  25.189  27.689  1.00  0.00     0.032 A 
ATOM     14  C   UNL A   1      39.161  22.836  26.407  1.00  0.00     0.135 A 
ATOM     15  C   UNL A   1      40.194  24.855  28.109  1.00  0.00     0.042 A 
ATOM     16  C   UNL A   1      40.460  22.613  26.845  1.00  0.00     0.026 A 
ATOM     17  Cl  UNL A   1      40.984  25.939  29.205  1.00  0.00    -0.084 Cl
ATOM     18  C   UNL A   1      40.915  23.671  27.702  1.00  0.00     0.033 A 
BRANCH  10  19
ATOM     19  C   UNL A   1      35.893  22.745  23.172  1.00  0.00     0.430 C 
ATOM     20  F   UNL A   1      34.767  22.239  22.635  1.00  0.00    -0.167 F 
ATOM     21  F   UNL A   1      35.758  24.093  23.222  1.00  0.00    -0.167 F 
ATOM     22  F   UNL A   1      36.821  22.517  22.195  1.00  0.00    -0.167 F 
ENDBRANCH  10  19
BRANCH  16  23
ATOM     23  C   UNL A   1      41.448  21.574  26.561  1.00  0.00    -0.015 A 
ATOM     24  C   UNL A   1      42.542  21.806  25.724  1.00  0.00     0.009 A 
ATOM     25  C   UNL A   1      41.173  20.235  26.902  1.00  0.00     0.009 A 
ATOM     26  C   UNL A   1      43.412  20.765  25.366  1.00  0.00     0.007 A 
ATOM     27  C   UNL A   1      42.054  19.195  26.573  1.00  0.00     0.007 A 
ATOM     28  C   UNL A   1      43.217  19.465  25.852  1.00  0.00    -0.023 A 
BRANCH  28  29
ATOM     29  C   UNL A   1      44.246  18.390  25.618  1.00  0.00     0.191 C 
BRANCH  29  30
ATOM     30  O   UNL A   1      44.643  18.336  24.256  1.00  0.00    -0.392 OA
ATOM     31  H   UNL A   1      45.439  18.879  24.130  1.00  0.00     0.211 HD
ENDBRANCH  29  30
ENDBRANCH  28  29
ENDBRANCH  16  23
ENDBRANCH   6   8
ENDBRANCH   5   6
ENDBRANCH   4   5
ENDBRANCH   3   4
ENDBRANCH   2   3
ENDBRANCH   1   2
BRANCH   1  32
ATOM     32  C   UNL A   1      30.386  27.490  23.900  1.00  0.00     0.188 C 
BRANCH  32  33
ATOM     33  O   UNL A   1      31.390  28.349  24.365  1.00  0.00    -0.376 OA
BRANCH  33  34
ATOM     34  C   UNL A   1      32.468  27.683  24.989  1.00  0.00     0.202 C 
BRANCH  34  35
ATOM     35  C   UNL A   1      33.048  28.236  26.296  1.00  0.00     0.261 C 
BRANCH  35  36
ATOM     36  O   UNL A   1      33.837  29.427  26.153  1.00  0.00    -0.460 OA
BRANCH  36  37
ATOM     37  C   UNL A   1      33.779  30.318  27.173  1.00  0.00     0.338 C 
ATOM     38  O   UNL A   1      32.788  30.861  27.628  1.00  0.00    -0.246 OA
BRANCH  37  39
ATOM     39  C   UNL A   1      35.115  30.394  27.793  1.00  0.00     0.060 A 
ATOM     40  C   UNL A   1      35.699  29.246  28.349  1.00  0.00     0.016 A 
ATOM     41  C   UNL A   1      35.773  31.620  27.842  1.00  0.00     0.016 A 
ATOM     42  C   UNL A   1      36.968  29.314  28.922  1.00  0.00     0.010 A 
ATOM     43  C   UNL A   1      37.020  31.698  28.460  1.00  0.00     0.010 A 
ATOM     44  C   UNL A   1      37.619  30.547  29.006  1.00  0.00    -0.014 A 
BRANCH  44  45
ATOM     45  C   UNL A   1      38.844  30.688  29.821  1.00  0.00     0.031 A 
ATOM     46  C   UNL A   1      40.112  30.084  29.294  1.00  0.00     0.074 A 
ATOM     47  C   UNL A   1      38.811  31.276  31.029  1.00  0.00     0.049 A 
ATOM     48  N   UNL A   1      41.272  29.960  29.881  1.00  0.00    -0.248 NA
ATOM     49  C   UNL A   1      40.064  29.535  27.928  1.00  0.00     0.031 C 
ATOM     50  C   UNL A   1      37.635  31.902  31.629  1.00  0.00     0.029 A 
ATOM     51  N   UNL A   1      39.787  31.402  31.989  1.00  0.00    -0.354 N 
ATOM     52  C   UNL A   1      42.074  29.274  28.979  1.00  0.00     0.074 A 
ATOM     53  C   UNL A   1      41.282  29.033  27.795  1.00  0.00     0.031 C 
ATOM     54  C   UNL A   1      37.944  32.309  32.872  1.00  0.00     0.029 A 
ATOM     55  C   UNL A   1      39.323  31.928  33.173  1.00  0.00     0.049 A 
ATOM     56  H   UNL A   1      40.725  31.143  31.843  1.00  0.00     0.167 HD
ATOM     57  C   UNL A   1      43.353  28.868  29.138  1.00  0.00     0.034 A 
ATOM     58  C   UNL A   1      39.927  32.036  34.373  1.00  0.00     0.034 A 
ATOM     59  C   UNL A   1      44.130  29.105  30.322  1.00  0.00     0.049 A 
ATOM     60  C   UNL A   1      41.347  31.544  34.523  1.00  0.00     0.074 A 
ATOM     61  C   UNL A   1      45.455  28.785  30.552  1.00  0.00     0.029 A 
ATOM     62  N   UNL A   1      43.647  29.683  31.484  1.00  0.00    -0.354 N 
ATOM     63  N   UNL A   1      42.142  31.020  33.621  1.00  0.00    -0.248 NA
ATOM     64  C   UNL A   1      41.962  31.670  35.854  1.00  0.00     0.031 C 
ATOM     65  C   UNL A   1      45.756  29.112  31.876  1.00  0.00     0.029 A 
ATOM     66  C   UNL A   1      44.637  29.694  32.450  1.00  0.00     0.049 A 
ATOM     67  H   UNL A   1      42.734  30.031  31.605  1.00  0.00     0.167 HD
ATOM     68  C   UNL A   1      43.350  30.778  34.266  1.00  0.00     0.074 A 
ATOM     69  C   UNL A   1      43.198  31.245  35.627  1.00  0.00     0.031 C 
ATOM     70  C   UNL A   1      44.480  30.202  33.786  1.00  0.00     0.034 A 
BRANCH  57  71
ATOM     71  C   UNL A   1      43.994  28.098  28.019  1.00  0.00     0.023 A 
ATOM     72  C   UNL A   1      44.255  28.724  26.785  1.00  0.00     0.012 A 
ATOM     73  C   UNL A   1      44.427  26.775  28.235  1.00  0.00     0.148 A 
ATOM     74  C   UNL A   1      44.929  28.038  25.775  1.00  0.00     0.002 A 
ATOM     75  C   UNL A   1      45.140  26.116  27.244  1.00  0.00     0.091 A 
ATOM     76  F   UNL A   1      44.143  26.194  29.410  1.00  0.00    -0.205 F 
ATOM     77  C   UNL A   1      45.384  26.742  26.011  1.00  0.00     0.022 A 
BRANCH  75  78
ATOM     78  S   UNL A   1      45.841  24.480  27.481  1.00  0.00     0.127 S 
ATOM     79  O   UNL A   1      46.826  24.422  26.401  1.00  0.00    -0.237 OA
ATOM     80  O   UNL A   1      46.413  24.587  28.822  1.00  0.00    -0.237 OA
ATOM     81  O   UNL A   1      44.735  23.541  27.358  1.00  0.00    -0.744 OA
ENDBRANCH  75  78
ENDBRANCH  57  71
BRANCH  58  82
ATOM     82  C   UNL A   1      39.195  32.589  35.551  1.00  0.00     0.023 A 
ATOM     83  C   UNL A   1      39.125  33.983  35.745  1.00  0.00     0.012 A 
ATOM     84  C   UNL A   1      38.605  31.739  36.507  1.00  0.00     0.148 A 
ATOM     85  C   UNL A   1      38.530  34.516  36.890  1.00  0.00     0.002 A 
ATOM     86  C   UNL A   1      37.953  32.277  37.611  1.00  0.00     0.091 A 
ATOM     87  F   UNL A   1      38.700  30.414  36.324  1.00  0.00    -0.205 F 
ATOM     88  C   UNL A   1      37.938  33.664  37.819  1.00  0.00     0.022 A 
BRANCH  86  89
ATOM     89  S   UNL A   1      37.051  31.260  38.785  1.00  0.00     0.127 S 
ATOM     90  O   UNL A   1      36.977  29.982  38.082  1.00  0.00    -0.237 OA
ATOM     91  O   UNL A   1      37.942  31.274  39.945  1.00  0.00    -0.237 OA
ATOM     92  O   UNL A   1      35.781  31.939  39.000  1.00  0.00    -0.744 OA
ENDBRANCH  86  89
ENDBRANCH  58  82
BRANCH  70  93
ATOM     93  C   UNL A   1      45.656  30.072  34.718  1.00  0.00     0.023 A 
ATOM     94  C   UNL A   1      46.647  31.074  34.751  1.00  0.00     0.012 A 
ATOM     95  C   UNL A   1      45.731  28.997  35.627  1.00  0.00     0.148 A 
ATOM     96  C   UNL A   1      47.709  30.990  35.649  1.00  0.00     0.002 A 
ATOM     97  C   UNL A   1      46.762  28.948  36.554  1.00  0.00     0.091 A 
ATOM     98  F   UNL A   1      44.783  28.050  35.574  1.00  0.00    -0.205 F 
ATOM     99  C   UNL A   1      47.760  29.935  36.559  1.00  0.00     0.022 A 
BRANCH  97 100
ATOM    100  S   UNL A   1      46.860  27.685  37.827  1.00  0.00     0.127 S 
ATOM    101  O   UNL A   1      47.753  26.706  37.206  1.00  0.00    -0.237 OA
ATOM    102  O   UNL A   1      47.446  28.420  38.947  1.00  0.00    -0.237 OA
ATOM    103  O   UNL A   1      45.496  27.223  38.047  1.00  0.00    -0.744 OA
ENDBRANCH  97 100
ENDBRANCH  70  93
ENDBRANCH  44  45
ENDBRANCH  37  39
ENDBRANCH  36  37
ENDBRANCH  35  36
ENDBRANCH  34  35
ENDBRANCH  33  34
ENDBRANCH  32  33
ENDBRANCH   1  32
TORSDOF 24
ENDMDL
