MODEL 1
REMARK VINA RESULT:     -11.0      0.000      0.000
REMARK SMILES COc1ccc2c(c1)c(CC(=O)OCCOCCOCCOC(=O)c1ccc(-c3c4nc(c(-c5cccc(S(=O)(=O)[O-])c5F)c5ccc([nH]5)c(-c5cccc(S(=O)(=O)[O-])c5F)c5nc(c(-c6cccc(S(=O)(=O)[O-])c6F)c6ccc3[nH]6)C=C5)C=C4)cc1)c(C(F)(F)F)n2C(=O)c1ccc(Cl)cc1
REMARK SMILES IDX 17 1 16 2 15 3 14 4 13 5 11 6 12 7 10 8 9 9 3 10 4 11 8 12
REMARK SMILES IDX 5 13 7 14 6 15 93 16 88 17 2 18 1 19 94 20 95 21 96 22 97 23
REMARK SMILES IDX 102 24 98 25 101 26 99 27 100 28 89 29 90 30 91 31 92 32
REMARK SMILES IDX 18 33 19 34 20 35 21 36 22 37 23 38 24 39 25 40 26 41 87 42
REMARK SMILES IDX 27 43 86 44 28 45 29 46 30 47 80 48 31 49 85 50 79 51 81 52
REMARK SMILES IDX 32 53 84 54 78 55 77 56 33 58 65 59 45 60 64 61 46 62 49 63
REMARK SMILES IDX 63 64 82 65 47 66 48 67 62 69 83 70 50 71 34 72 35 73 43 74
REMARK SMILES IDX 36 75 38 76 44 77 37 78 39 79 40 80 41 81 42 82 66 83 67 84
REMARK SMILES IDX 75 85 68 86 70 87 76 88 69 89 71 90 72 91 73 92 74 93 51 94
REMARK SMILES IDX 52 95 60 96 53 97 55 98 61 99 54 100 56 101 57 102 58 103
REMARK SMILES IDX 59 104
REMARK H PARENT 81 57 49 68
REMARK Flexibility Score: inf
ROOT
ATOM      1  C   UNL A   1      32.889  29.361  24.860  1.00  0.00     0.188 C 
ENDROOT
BRANCH   1   2
ATOM      2  O   UNL A   1      31.746  28.659  24.412  1.00  0.00    -0.376 OA
BRANCH   2   3
ATOM      3  C   UNL A   1      31.460  28.676  23.019  1.00  0.00     0.202 C 
BRANCH   3   4
ATOM      4  C   UNL A   1      32.309  27.755  22.132  1.00  0.00     0.261 C 
BRANCH   4   5
ATOM      5  O   UNL A   1      31.655  26.478  21.939  1.00  0.00    -0.463 OA
BRANCH   5   6
ATOM      6  C   UNL A   1      32.491  25.412  21.822  1.00  0.00     0.310 C 
ATOM      7  O   UNL A   1      33.661  25.533  21.468  1.00  0.00    -0.252 OA
BRANCH   6   8
ATOM      8  C   UNL A   1      31.949  24.132  22.441  1.00  0.00     0.161 C 
BRANCH   8   9
ATOM      9  C   UNL A   1      32.655  23.339  23.495  1.00  0.00     0.002 A 
ATOM     10  C   UNL A   1      32.359  19.483  23.305  1.00  0.00     0.119 A 
ATOM     11  C   UNL A   1      32.535  19.262  24.654  1.00  0.00     0.048 A 
ATOM     12  C   UNL A   1      32.419  20.792  22.805  1.00  0.00     0.057 A 
ATOM     13  C   UNL A   1      32.830  20.335  25.497  1.00  0.00     0.031 A 
ATOM     14  C   UNL A   1      32.705  21.905  23.627  1.00  0.00     0.008 A 
ATOM     15  C   UNL A   1      32.993  21.634  24.962  1.00  0.00     0.057 A 
ATOM     16  N   UNL A   1      33.517  22.818  25.493  1.00  0.00    -0.271 N 
ATOM     17  C   UNL A   1      33.010  23.860  24.742  1.00  0.00     0.135 A 
BRANCH  10  18
ATOM     18  O   UNL A   1      32.167  18.482  22.392  1.00  0.00    -0.497 OA
ATOM     19  C   UNL A   1      32.966  17.315  22.598  1.00  0.00     0.278 C 
ENDBRANCH  10  18
BRANCH  16  20
ATOM     20  C   UNL A   1      34.530  22.889  26.487  1.00  0.00     0.262 C 
ATOM     21  O   UNL A   1      34.259  23.241  27.606  1.00  0.00    -0.268 OA
BRANCH  20  22
ATOM     22  C   UNL A   1      35.959  22.792  26.117  1.00  0.00     0.040 A 
ATOM     23  C   UNL A   1      36.434  21.541  25.702  1.00  0.00     0.015 A 
ATOM     24  C   UNL A   1      36.825  23.857  26.369  1.00  0.00     0.015 A 
ATOM     25  C   UNL A   1      37.806  21.335  25.594  1.00  0.00     0.021 A 
ATOM     26  C   UNL A   1      38.201  23.639  26.262  1.00  0.00     0.021 A 
ATOM     27  C   UNL A   1      38.683  22.380  25.890  1.00  0.00     0.041 A 
ATOM     28  Cl  UNL A   1      40.380  22.095  25.838  1.00  0.00    -0.084 Cl
ENDBRANCH  20  22
ENDBRANCH  16  20
BRANCH  17  29
ATOM     29  C   UNL A   1      32.840  25.260  25.237  1.00  0.00     0.432 C 
ATOM     30  F   UNL A   1      31.582  25.694  24.956  1.00  0.00    -0.165 F 
ATOM     31  F   UNL A   1      32.953  25.294  26.587  1.00  0.00    -0.165 F 
ATOM     32  F   UNL A   1      33.702  26.168  24.746  1.00  0.00    -0.165 F 
ENDBRANCH  17  29
ENDBRANCH   8   9
ENDBRANCH   6   8
ENDBRANCH   5   6
ENDBRANCH   4   5
ENDBRANCH   3   4
ENDBRANCH   2   3
ENDBRANCH   1   2
BRANCH   1  33
ATOM     33  C   UNL A   1      33.069  29.580  26.365  1.00  0.00     0.188 C 
BRANCH  33  34
ATOM     34  O   UNL A   1      33.251  30.880  26.886  1.00  0.00    -0.376 OA
BRANCH  34  35
ATOM     35  C   UNL A   1      34.148  30.988  27.980  1.00  0.00     0.202 C 
BRANCH  35  36
ATOM     36  C   UNL A   1      35.644  31.021  27.614  1.00  0.00     0.261 C 
BRANCH  36  37
ATOM     37  O   UNL A   1      36.237  29.705  27.733  1.00  0.00    -0.460 OA
BRANCH  37  38
ATOM     38  C   UNL A   1      36.882  29.466  28.910  1.00  0.00     0.338 C 
ATOM     39  O   UNL A   1      36.344  29.172  29.965  1.00  0.00    -0.246 OA
BRANCH  38  40
ATOM     40  C   UNL A   1      38.325  29.222  28.609  1.00  0.00     0.060 A 
ATOM     41  C   UNL A   1      38.922  29.414  27.362  1.00  0.00     0.016 A 
ATOM     42  C   UNL A   1      39.043  28.555  29.603  1.00  0.00     0.016 A 
ATOM     43  C   UNL A   1      40.195  28.863  27.104  1.00  0.00     0.010 A 
ATOM     44  C   UNL A   1      40.264  27.945  29.329  1.00  0.00     0.010 A 
ATOM     45  C   UNL A   1      40.850  28.080  28.070  1.00  0.00    -0.014 A 
BRANCH  45  46
ATOM     46  C   UNL A   1      42.265  27.696  27.957  1.00  0.00     0.031 A 
ATOM     47  C   UNL A   1      42.451  26.459  27.189  1.00  0.00     0.074 A 
ATOM     48  C   UNL A   1      43.399  28.265  28.418  1.00  0.00     0.049 A 
ATOM     49  N   UNL A   1      42.494  25.299  27.751  1.00  0.00    -0.248 NA
ATOM     50  C   UNL A   1      42.481  26.449  25.730  1.00  0.00     0.031 C 
ATOM     51  C   UNL A   1      43.536  29.398  29.310  1.00  0.00     0.029 A 
ATOM     52  N   UNL A   1      44.709  27.948  28.150  1.00  0.00    -0.354 N 
ATOM     53  C   UNL A   1      42.842  24.428  26.743  1.00  0.00     0.074 A 
ATOM     54  C   UNL A   1      42.626  25.140  25.502  1.00  0.00     0.031 C 
ATOM     55  C   UNL A   1      44.815  29.845  29.325  1.00  0.00     0.029 A 
ATOM     56  C   UNL A   1      45.630  28.898  28.584  1.00  0.00     0.049 A 
ATOM     57  H   UNL A   1      44.974  27.118  27.692  1.00  0.00     0.167 HD
ATOM     58  C   UNL A   1      43.520  23.288  27.027  1.00  0.00     0.034 A 
ATOM     59  C   UNL A   1      46.969  28.771  28.732  1.00  0.00     0.034 A 
ATOM     60  C   UNL A   1      43.620  23.032  28.445  1.00  0.00     0.049 A 
ATOM     61  C   UNL A   1      47.177  27.378  29.182  1.00  0.00     0.074 A 
ATOM     62  C   UNL A   1      42.722  22.873  29.482  1.00  0.00     0.029 A 
ATOM     63  N   UNL A   1      44.832  23.305  29.032  1.00  0.00    -0.354 N 
ATOM     64  N   UNL A   1      46.782  26.921  30.340  1.00  0.00    -0.248 NA
ATOM     65  C   UNL A   1      47.557  26.374  28.206  1.00  0.00     0.031 C 
ATOM     66  C   UNL A   1      43.348  23.454  30.626  1.00  0.00     0.029 A 
ATOM     67  C   UNL A   1      44.604  23.924  30.236  1.00  0.00     0.049 A 
ATOM     68  H   UNL A   1      45.716  23.092  28.653  1.00  0.00     0.167 HD
ATOM     69  C   UNL A   1      46.440  25.601  30.086  1.00  0.00     0.074 A 
ATOM     70  C   UNL A   1      47.081  25.287  28.815  1.00  0.00     0.031 C 
ATOM     71  C   UNL A   1      45.447  24.975  30.786  1.00  0.00     0.034 A 
BRANCH  58  72
ATOM     72  C   UNL A   1      44.375  22.578  26.029  1.00  0.00     0.023 A 
ATOM     73  C   UNL A   1      45.325  23.330  25.315  1.00  0.00     0.012 A 
ATOM     74  C   UNL A   1      44.161  21.241  25.633  1.00  0.00     0.148 A 
ATOM     75  C   UNL A   1      46.058  22.761  24.270  1.00  0.00     0.002 A 
ATOM     76  C   UNL A   1      44.957  20.654  24.662  1.00  0.00     0.091 A 
ATOM     77  F   UNL A   1      43.106  20.566  26.112  1.00  0.00    -0.205 F 
ATOM     78  C   UNL A   1      45.897  21.414  23.963  1.00  0.00     0.022 A 
BRANCH  76  79
ATOM     79  S   UNL A   1      44.837  18.896  24.322  1.00  0.00     0.127 S 
ATOM     80  O   UNL A   1      45.980  18.374  25.061  1.00  0.00    -0.237 OA
ATOM     81  O   UNL A   1      43.528  18.563  24.884  1.00  0.00    -0.237 OA
ATOM     82  O   UNL A   1      44.899  18.797  22.867  1.00  0.00    -0.744 OA
ENDBRANCH  76  79
ENDBRANCH  58  72
BRANCH  59  83
ATOM     83  C   UNL A   1      48.072  29.735  28.492  1.00  0.00     0.023 A 
ATOM     84  C   UNL A   1      48.053  30.559  27.346  1.00  0.00     0.012 A 
ATOM     85  C   UNL A   1      49.007  30.043  29.508  1.00  0.00     0.148 A 
ATOM     86  C   UNL A   1      48.901  31.668  27.229  1.00  0.00     0.002 A 
ATOM     87  C   UNL A   1      49.851  31.152  29.389  1.00  0.00     0.091 A 
ATOM     88  F   UNL A   1      49.004  29.307  30.630  1.00  0.00    -0.205 F 
ATOM     89  C   UNL A   1      49.793  31.971  28.253  1.00  0.00     0.022 A 
BRANCH  87  90
ATOM     90  S   UNL A   1      51.007  31.629  30.685  1.00  0.00     0.127 S 
ATOM     91  O   UNL A   1      51.737  30.383  30.929  1.00  0.00    -0.237 OA
ATOM     92  O   UNL A   1      51.792  32.670  30.025  1.00  0.00    -0.237 OA
ATOM     93  O   UNL A   1      50.185  32.073  31.805  1.00  0.00    -0.744 OA
ENDBRANCH  87  90
ENDBRANCH  59  83
BRANCH  71  94
ATOM     94  C   UNL A   1      44.977  25.601  32.080  1.00  0.00     0.023 A 
ATOM     95  C   UNL A   1      44.147  26.740  32.091  1.00  0.00     0.012 A 
ATOM     96  C   UNL A   1      45.217  24.930  33.292  1.00  0.00     0.148 A 
ATOM     97  C   UNL A   1      43.569  27.203  33.276  1.00  0.00     0.002 A 
ATOM     98  C   UNL A   1      44.609  25.368  34.466  1.00  0.00     0.091 A 
ATOM     99  F   UNL A   1      46.005  23.845  33.268  1.00  0.00    -0.205 F 
ATOM    100  C   UNL A   1      43.788  26.508  34.462  1.00  0.00     0.022 A 
BRANCH  98 101
ATOM    101  S   UNL A   1      44.748  24.466  36.014  1.00  0.00     0.127 S 
ATOM    102  O   UNL A   1      44.405  23.104  35.609  1.00  0.00    -0.237 OA
ATOM    103  O   UNL A   1      46.156  24.665  36.361  1.00  0.00    -0.237 OA
ATOM    104  O   UNL A   1      43.809  25.096  36.934  1.00  0.00    -0.744 OA
ENDBRANCH  98 101
ENDBRANCH  71  94
ENDBRANCH  45  46
ENDBRANCH  38  40
ENDBRANCH  37  38
ENDBRANCH  36  37
ENDBRANCH  35  36
ENDBRANCH  34  35
ENDBRANCH  33  34
ENDBRANCH   1  33
TORSDOF 25
ENDMDL
MODEL 2
REMARK VINA RESULT:     -10.7      2.497      6.865
REMARK SMILES COc1ccc2c(c1)c(CC(=O)OCCOCCOCCOC(=O)c1ccc(-c3c4nc(c(-c5cccc(S(=O)(=O)[O-])c5F)c5ccc([nH]5)c(-c5cccc(S(=O)(=O)[O-])c5F)c5nc(c(-c6cccc(S(=O)(=O)[O-])c6F)c6ccc3[nH]6)C=C5)C=C4)cc1)c(C(F)(F)F)n2C(=O)c1ccc(Cl)cc1
REMARK SMILES IDX 17 1 16 2 15 3 14 4 13 5 11 6 12 7 10 8 9 9 3 10 4 11 8 12
REMARK SMILES IDX 5 13 7 14 6 15 93 16 88 17 2 18 1 19 94 20 95 21 96 22 97 23
REMARK SMILES IDX 102 24 98 25 101 26 99 27 100 28 89 29 90 30 91 31 92 32
REMARK SMILES IDX 18 33 19 34 20 35 21 36 22 37 23 38 24 39 25 40 26 41 87 42
REMARK SMILES IDX 27 43 86 44 28 45 29 46 30 47 80 48 31 49 85 50 79 51 81 52
REMARK SMILES IDX 32 53 84 54 78 55 77 56 33 58 65 59 45 60 64 61 46 62 49 63
REMARK SMILES IDX 63 64 82 65 47 66 48 67 62 69 83 70 50 71 34 72 35 73 43 74
REMARK SMILES IDX 36 75 38 76 44 77 37 78 39 79 40 80 41 81 42 82 66 83 67 84
REMARK SMILES IDX 75 85 68 86 70 87 76 88 69 89 71 90 72 91 73 92 74 93 51 94
REMARK SMILES IDX 52 95 60 96 53 97 55 98 61 99 54 100 56 101 57 102 58 103
REMARK SMILES IDX 59 104
REMARK H PARENT 81 57 49 68
REMARK Flexibility Score: inf
ROOT
ATOM      1  C   UNL A   1      32.368  28.500  23.005  1.00  0.00     0.188 C 
ENDROOT
BRANCH   1   2
ATOM      2  O   UNL A   1      31.260  27.716  22.610  1.00  0.00    -0.376 OA
BRANCH   2   3
ATOM      3  C   UNL A   1      31.491  26.655  21.692  1.00  0.00     0.202 C 
BRANCH   3   4
ATOM      4  C   UNL A   1      32.134  25.382  22.260  1.00  0.00     0.261 C 
BRANCH   4   5
ATOM      5  O   UNL A   1      31.125  24.402  22.601  1.00  0.00    -0.463 OA
BRANCH   5   6
ATOM      6  C   UNL A   1      30.809  24.334  23.922  1.00  0.00     0.310 C 
ATOM      7  O   UNL A   1      29.962  25.062  24.432  1.00  0.00    -0.252 OA
BRANCH   6   8
ATOM      8  C   UNL A   1      31.368  23.106  24.627  1.00  0.00     0.161 C 
BRANCH   8   9
ATOM      9  C   UNL A   1      32.770  22.607  24.471  1.00  0.00     0.002 A 
ATOM     10  C   UNL A   1      33.255  18.788  24.063  1.00  0.00     0.119 A 
ATOM     11  C   UNL A   1      34.529  18.752  24.589  1.00  0.00     0.048 A 
ATOM     12  C   UNL A   1      32.593  20.019  23.940  1.00  0.00     0.057 A 
ATOM     13  C   UNL A   1      35.167  19.943  24.937  1.00  0.00     0.031 A 
ATOM     14  C   UNL A   1      33.201  21.244  24.290  1.00  0.00     0.008 A 
ATOM     15  C   UNL A   1      34.527  21.184  24.708  1.00  0.00     0.057 A 
ATOM     16  N   UNL A   1      34.991  22.504  24.717  1.00  0.00    -0.271 N 
ATOM     17  C   UNL A   1      33.892  23.320  24.900  1.00  0.00     0.135 A 
BRANCH  10  18
ATOM     18  O   UNL A   1      32.594  17.682  23.602  1.00  0.00    -0.497 OA
ATOM     19  C   UNL A   1      33.114  16.432  24.059  1.00  0.00     0.278 C 
ENDBRANCH  10  18
BRANCH  16  20
ATOM     20  C   UNL A   1      36.315  22.907  24.395  1.00  0.00     0.262 C 
ATOM     21  O   UNL A   1      36.629  23.101  23.248  1.00  0.00    -0.268 OA
BRANCH  20  22
ATOM     22  C   UNL A   1      37.391  22.842  25.408  1.00  0.00     0.040 A 
ATOM     23  C   UNL A   1      37.651  24.002  26.148  1.00  0.00     0.015 A 
ATOM     24  C   UNL A   1      38.233  21.731  25.470  1.00  0.00     0.015 A 
ATOM     25  C   UNL A   1      38.808  24.075  26.919  1.00  0.00     0.021 A 
ATOM     26  C   UNL A   1      39.394  21.814  26.243  1.00  0.00     0.021 A 
ATOM     27  C   UNL A   1      39.681  22.986  26.950  1.00  0.00     0.041 A 
ATOM     28  Cl  UNL A   1      41.152  23.112  27.836  1.00  0.00    -0.084 Cl
ENDBRANCH  20  22
ENDBRANCH  16  20
BRANCH  17  29
ATOM     29  C   UNL A   1      33.940  24.686  25.504  1.00  0.00     0.432 C 
ATOM     30  F   UNL A   1      34.517  24.622  26.734  1.00  0.00    -0.165 F 
ATOM     31  F   UNL A   1      34.734  25.496  24.762  1.00  0.00    -0.165 F 
ATOM     32  F   UNL A   1      32.757  25.312  25.641  1.00  0.00    -0.165 F 
ENDBRANCH  17  29
ENDBRANCH   8   9
ENDBRANCH   6   8
ENDBRANCH   5   6
ENDBRANCH   4   5
ENDBRANCH   3   4
ENDBRANCH   2   3
ENDBRANCH   1   2
BRANCH   1  33
ATOM     33  C   UNL A   1      32.730  28.558  24.492  1.00  0.00     0.188 C 
BRANCH  33  34
ATOM     34  O   UNL A   1      31.970  29.343  25.387  1.00  0.00    -0.376 OA
BRANCH  34  35
ATOM     35  C   UNL A   1      32.488  29.457  26.703  1.00  0.00     0.202 C 
BRANCH  35  36
ATOM     36  C   UNL A   1      32.999  30.855  27.098  1.00  0.00     0.261 C 
BRANCH  36  37
ATOM     37  O   UNL A   1      34.124  30.761  28.005  1.00  0.00    -0.460 OA
BRANCH  37  38
ATOM     38  C   UNL A   1      35.125  31.660  27.779  1.00  0.00     0.338 C 
ATOM     39  O   UNL A   1      34.971  32.849  27.555  1.00  0.00    -0.246 OA
BRANCH  38  40
ATOM     40  C   UNL A   1      36.408  31.055  28.248  1.00  0.00     0.060 A 
ATOM     41  C   UNL A   1      37.330  31.691  29.081  1.00  0.00     0.016 A 
ATOM     42  C   UNL A   1      36.776  29.864  27.622  1.00  0.00     0.016 A 
ATOM     43  C   UNL A   1      38.634  31.167  29.207  1.00  0.00     0.010 A 
ATOM     44  C   UNL A   1      38.083  29.387  27.684  1.00  0.00     0.010 A 
ATOM     45  C   UNL A   1      39.033  30.041  28.468  1.00  0.00    -0.014 A 
BRANCH  45  46
ATOM     46  C   UNL A   1      40.279  29.309  28.743  1.00  0.00     0.031 A 
ATOM     47  C   UNL A   1      40.370  28.862  30.138  1.00  0.00     0.074 A 
ATOM     48  C   UNL A   1      41.328  28.976  27.960  1.00  0.00     0.049 A 
ATOM     49  N   UNL A   1      40.941  29.570  31.052  1.00  0.00    -0.248 NA
ATOM     50  C   UNL A   1      39.719  27.642  30.606  1.00  0.00     0.031 C 
ATOM     51  C   UNL A   1      41.593  29.383  26.596  1.00  0.00     0.029 A 
ATOM     52  N   UNL A   1      42.395  28.154  28.230  1.00  0.00    -0.354 N 
ATOM     53  C   UNL A   1      40.973  28.758  32.162  1.00  0.00     0.074 A 
ATOM     54  C   UNL A   1      40.045  27.680  31.902  1.00  0.00     0.031 C 
ATOM     55  C   UNL A   1      42.587  28.636  26.057  1.00  0.00     0.029 A 
ATOM     56  C   UNL A   1      43.160  27.821  27.114  1.00  0.00     0.049 A 
ATOM     57  H   UNL A   1      42.603  27.829  29.136  1.00  0.00     0.167 HD
ATOM     58  C   UNL A   1      41.951  28.906  33.090  1.00  0.00     0.034 A 
ATOM     59  C   UNL A   1      44.402  27.285  27.071  1.00  0.00     0.034 A 
ATOM     60  C   UNL A   1      42.757  30.086  32.875  1.00  0.00     0.049 A 
ATOM     61  C   UNL A   1      45.116  27.870  28.226  1.00  0.00     0.074 A 
ATOM     62  C   UNL A   1      42.511  31.440  32.776  1.00  0.00     0.029 A 
ATOM     63  N   UNL A   1      44.001  29.885  32.326  1.00  0.00    -0.354 N 
ATOM     64  N   UNL A   1      45.424  29.135  28.326  1.00  0.00    -0.248 NA
ATOM     65  C   UNL A   1      45.221  27.097  29.450  1.00  0.00     0.031 C 
ATOM     66  C   UNL A   1      43.441  31.931  31.810  1.00  0.00     0.029 A 
ATOM     67  C   UNL A   1      44.221  30.855  31.379  1.00  0.00     0.049 A 
ATOM     68  H   UNL A   1      44.629  29.166  32.570  1.00  0.00     0.167 HD
ATOM     69  C   UNL A   1      45.324  29.404  29.683  1.00  0.00     0.074 A 
ATOM     70  C   UNL A   1      45.354  28.095  30.326  1.00  0.00     0.031 C 
ATOM     71  C   UNL A   1      44.949  30.636  30.140  1.00  0.00     0.034 A 
BRANCH  58  72
ATOM     72  C   UNL A   1      42.383  27.805  34.002  1.00  0.00     0.023 A 
ATOM     73  C   UNL A   1      42.099  27.929  35.374  1.00  0.00     0.012 A 
ATOM     74  C   UNL A   1      43.215  26.740  33.597  1.00  0.00     0.148 A 
ATOM     75  C   UNL A   1      42.596  27.009  36.301  1.00  0.00     0.002 A 
ATOM     76  C   UNL A   1      43.626  25.776  34.505  1.00  0.00     0.091 A 
ATOM     77  F   UNL A   1      43.712  26.721  32.352  1.00  0.00    -0.205 F 
ATOM     78  C   UNL A   1      43.334  25.914  35.863  1.00  0.00     0.022 A 
BRANCH  76  79
ATOM     79  S   UNL A   1      44.490  24.306  33.948  1.00  0.00     0.127 S 
ATOM     80  O   UNL A   1      45.616  24.882  33.221  1.00  0.00    -0.237 OA
ATOM     81  O   UNL A   1      44.833  23.653  35.211  1.00  0.00    -0.237 OA
ATOM     82  O   UNL A   1      43.505  23.578  33.154  1.00  0.00    -0.744 OA
ENDBRANCH  76  79
ENDBRANCH  58  72
BRANCH  59  83
ATOM     83  C   UNL A   1      45.004  26.299  26.140  1.00  0.00     0.023 A 
ATOM     84  C   UNL A   1      46.327  26.479  25.679  1.00  0.00     0.012 A 
ATOM     85  C   UNL A   1      44.391  25.046  25.905  1.00  0.00     0.148 A 
ATOM     86  C   UNL A   1      47.027  25.445  25.045  1.00  0.00     0.002 A 
ATOM     87  C   UNL A   1      45.094  24.015  25.273  1.00  0.00     0.091 A 
ATOM     88  F   UNL A   1      43.156  24.835  26.384  1.00  0.00    -0.205 F 
ATOM     89  C   UNL A   1      46.415  24.210  24.850  1.00  0.00     0.022 A 
BRANCH  87  90
ATOM     90  S   UNL A   1      44.384  22.380  25.016  1.00  0.00     0.127 S 
ATOM     91  O   UNL A   1      43.289  22.655  24.084  1.00  0.00    -0.237 OA
ATOM     92  O   UNL A   1      45.507  21.648  24.431  1.00  0.00    -0.237 OA
ATOM     93  O   UNL A   1      43.952  21.925  26.332  1.00  0.00    -0.744 OA
ENDBRANCH  87  90
ENDBRANCH  59  83
BRANCH  71  94
ATOM     94  C   UNL A   1      45.004  31.803  29.180  1.00  0.00     0.023 A 
ATOM     95  C   UNL A   1      43.931  32.100  28.316  1.00  0.00     0.012 A 
ATOM     96  C   UNL A   1      46.065  32.722  29.278  1.00  0.00     0.148 A 
ATOM     97  C   UNL A   1      43.909  33.280  27.567  1.00  0.00     0.002 A 
ATOM     98  C   UNL A   1      46.024  33.915  28.561  1.00  0.00     0.091 A 
ATOM     99  F   UNL A   1      47.079  32.430  30.106  1.00  0.00    -0.205 F 
ATOM    100  C   UNL A   1      44.950  34.195  27.701  1.00  0.00     0.022 A 
BRANCH  98 101
ATOM    101  S   UNL A   1      47.267  35.197  28.761  1.00  0.00     0.127 S 
ATOM    102  O   UNL A   1      48.253  34.834  27.745  1.00  0.00    -0.237 OA
ATOM    103  O   UNL A   1      46.505  36.413  28.468  1.00  0.00    -0.237 OA
ATOM    104  O   UNL A   1      47.731  35.099  30.140  1.00  0.00    -0.744 OA
ENDBRANCH  98 101
ENDBRANCH  71  94
ENDBRANCH  45  46
ENDBRANCH  38  40
ENDBRANCH  37  38
ENDBRANCH  36  37
ENDBRANCH  35  36
ENDBRANCH  34  35
ENDBRANCH  33  34
ENDBRANCH   1  33
TORSDOF 25
ENDMDL
MODEL 3
REMARK VINA RESULT:     -10.0      3.110      7.805
REMARK SMILES COc1ccc2c(c1)c(CC(=O)OCCOCCOCCOC(=O)c1ccc(-c3c4nc(c(-c5cccc(S(=O)(=O)[O-])c5F)c5ccc([nH]5)c(-c5cccc(S(=O)(=O)[O-])c5F)c5nc(c(-c6cccc(S(=O)(=O)[O-])c6F)c6ccc3[nH]6)C=C5)C=C4)cc1)c(C(F)(F)F)n2C(=O)c1ccc(Cl)cc1
REMARK SMILES IDX 17 1 16 2 15 3 14 4 13 5 11 6 12 7 10 8 9 9 3 10 4 11 8 12
REMARK SMILES IDX 5 13 7 14 6 15 93 16 88 17 2 18 1 19 94 20 95 21 96 22 97 23
REMARK SMILES IDX 102 24 98 25 101 26 99 27 100 28 89 29 90 30 91 31 92 32
REMARK SMILES IDX 18 33 19 34 20 35 21 36 22 37 23 38 24 39 25 40 26 41 87 42
REMARK SMILES IDX 27 43 86 44 28 45 29 46 30 47 80 48 31 49 85 50 79 51 81 52
REMARK SMILES IDX 32 53 84 54 78 55 77 56 33 58 65 59 45 60 64 61 46 62 49 63
REMARK SMILES IDX 63 64 82 65 47 66 48 67 62 69 83 70 50 71 34 72 35 73 43 74
REMARK SMILES IDX 36 75 38 76 44 77 37 78 39 79 40 80 41 81 42 82 66 83 67 84
REMARK SMILES IDX 75 85 68 86 70 87 76 88 69 89 71 90 72 91 73 92 74 93 51 94
REMARK SMILES IDX 52 95 60 96 53 97 55 98 61 99 54 100 56 101 57 102 58 103
REMARK SMILES IDX 59 104
REMARK H PARENT 81 57 49 68
REMARK Flexibility Score: inf
ROOT
ATOM      1  C   UNL A   1      31.910  28.923  22.970  1.00  0.00     0.188 C 
ENDROOT
BRANCH   1   2
ATOM      2  O   UNL A   1      31.047  27.840  22.683  1.00  0.00    -0.376 OA
BRANCH   2   3
ATOM      3  C   UNL A   1      31.475  26.888  21.717  1.00  0.00     0.202 C 
BRANCH   3   4
ATOM      4  C   UNL A   1      32.089  25.589  22.257  1.00  0.00     0.261 C 
BRANCH   4   5
ATOM      5  O   UNL A   1      31.058  24.682  22.713  1.00  0.00    -0.463 OA
BRANCH   5   6
ATOM      6  C   UNL A   1      30.804  24.720  24.049  1.00  0.00     0.310 C 
ATOM      7  O   UNL A   1      29.993  25.501  24.540  1.00  0.00    -0.252 OA
BRANCH   6   8
ATOM      8  C   UNL A   1      31.375  23.538  24.819  1.00  0.00     0.161 C 
BRANCH   8   9
ATOM      9  C   UNL A   1      32.739  22.965  24.597  1.00  0.00     0.002 A 
ATOM     10  C   UNL A   1      32.996  19.130  24.135  1.00  0.00     0.119 A 
ATOM     11  C   UNL A   1      34.287  19.018  24.604  1.00  0.00     0.048 A 
ATOM     12  C   UNL A   1      32.398  20.396  24.052  1.00  0.00     0.057 A 
ATOM     13  C   UNL A   1      35.004  20.169  24.934  1.00  0.00     0.031 A 
ATOM     14  C   UNL A   1      33.087  21.583  24.386  1.00  0.00     0.008 A 
ATOM     15  C   UNL A   1      34.424  21.446  24.744  1.00  0.00     0.057 A 
ATOM     16  N   UNL A   1      34.961  22.738  24.744  1.00  0.00    -0.271 N 
ATOM     17  C   UNL A   1      33.917  23.611  24.983  1.00  0.00     0.135 A 
BRANCH  10  18
ATOM     18  O   UNL A   1      32.255  18.067  23.694  1.00  0.00    -0.497 OA
ATOM     19  C   UNL A   1      32.459  17.716  22.323  1.00  0.00     0.278 C 
ENDBRANCH  10  18
BRANCH  16  20
ATOM     20  C   UNL A   1      36.290  23.071  24.369  1.00  0.00     0.262 C 
ATOM     21  O   UNL A   1      36.557  23.293  23.215  1.00  0.00    -0.268 OA
BRANCH  20  22
ATOM     22  C   UNL A   1      37.409  22.898  25.319  1.00  0.00     0.040 A 
ATOM     23  C   UNL A   1      37.858  24.037  26.002  1.00  0.00     0.015 A 
ATOM     24  C   UNL A   1      38.107  21.692  25.372  1.00  0.00     0.015 A 
ATOM     25  C   UNL A   1      39.059  23.983  26.702  1.00  0.00     0.021 A 
ATOM     26  C   UNL A   1      39.315  21.647  26.074  1.00  0.00     0.021 A 
ATOM     27  C   UNL A   1      39.790  22.793  26.721  1.00  0.00     0.041 A 
ATOM     28  Cl  UNL A   1      41.316  22.756  27.516  1.00  0.00    -0.084 Cl
ENDBRANCH  20  22
ENDBRANCH  16  20
BRANCH  17  29
ATOM     29  C   UNL A   1      34.066  24.966  25.596  1.00  0.00     0.432 C 
ATOM     30  F   UNL A   1      33.129  25.133  26.568  1.00  0.00    -0.165 F 
ATOM     31  F   UNL A   1      35.268  25.067  26.216  1.00  0.00    -0.165 F 
ATOM     32  F   UNL A   1      33.968  26.009  24.754  1.00  0.00    -0.165 F 
ENDBRANCH  17  29
ENDBRANCH   8   9
ENDBRANCH   6   8
ENDBRANCH   5   6
ENDBRANCH   4   5
ENDBRANCH   3   4
ENDBRANCH   2   3
ENDBRANCH   1   2
BRANCH   1  33
ATOM     33  C   UNL A   1      32.648  28.934  24.312  1.00  0.00     0.188 C 
BRANCH  33  34
ATOM     34  O   UNL A   1      31.944  28.746  25.521  1.00  0.00    -0.376 OA
BRANCH  34  35
ATOM     35  C   UNL A   1      32.628  29.134  26.702  1.00  0.00     0.202 C 
BRANCH  35  36
ATOM     36  C   UNL A   1      33.524  30.380  26.574  1.00  0.00     0.261 C 
BRANCH  36  37
ATOM     37  O   UNL A   1      34.218  30.653  27.816  1.00  0.00    -0.460 OA
BRANCH  37  38
ATOM     38  C   UNL A   1      35.117  31.677  27.761  1.00  0.00     0.338 C 
ATOM     39  O   UNL A   1      34.857  32.834  27.478  1.00  0.00    -0.246 OA
BRANCH  38  40
ATOM     40  C   UNL A   1      36.352  31.249  28.487  1.00  0.00     0.060 A 
ATOM     41  C   UNL A   1      37.080  32.056  29.363  1.00  0.00     0.016 A 
ATOM     42  C   UNL A   1      36.904  30.037  28.073  1.00  0.00     0.016 A 
ATOM     43  C   UNL A   1      38.383  31.674  29.745  1.00  0.00     0.010 A 
ATOM     44  C   UNL A   1      38.217  29.694  28.386  1.00  0.00     0.010 A 
ATOM     45  C   UNL A   1      38.978  30.516  29.216  1.00  0.00    -0.014 A 
BRANCH  45  46
ATOM     46  C   UNL A   1      40.216  29.938  29.760  1.00  0.00     0.031 A 
ATOM     47  C   UNL A   1      40.425  30.286  31.171  1.00  0.00     0.074 A 
ATOM     48  C   UNL A   1      41.172  29.158  29.210  1.00  0.00     0.049 A 
ATOM     49  N   UNL A   1      41.107  31.319  31.532  1.00  0.00    -0.248 NA
ATOM     50  C   UNL A   1      39.777  29.554  32.255  1.00  0.00     0.031 C 
ATOM     51  C   UNL A   1      41.320  28.764  27.825  1.00  0.00     0.029 A 
ATOM     52  N   UNL A   1      42.229  28.516  29.809  1.00  0.00    -0.354 N 
ATOM     53  C   UNL A   1      41.216  31.213  32.900  1.00  0.00     0.074 A 
ATOM     54  C   UNL A   1      40.227  30.240  33.310  1.00  0.00     0.031 C 
ATOM     55  C   UNL A   1      42.229  27.765  27.706  1.00  0.00     0.029 A 
ATOM     56  C   UNL A   1      42.870  27.585  28.996  1.00  0.00     0.049 A 
ATOM     57  H   UNL A   1      42.511  28.701  30.735  1.00  0.00     0.167 HD
ATOM     58  C   UNL A   1      42.283  31.745  33.545  1.00  0.00     0.034 A 
ATOM     59  C   UNL A   1      44.081  27.005  29.168  1.00  0.00     0.034 A 
ATOM     60  C   UNL A   1      43.108  32.564  32.686  1.00  0.00     0.049 A 
ATOM     61  C   UNL A   1      44.924  28.049  29.789  1.00  0.00     0.074 A 
ATOM     62  C   UNL A   1      42.904  33.679  31.899  1.00  0.00     0.029 A 
ATOM     63  N   UNL A   1      44.285  32.003  32.252  1.00  0.00    -0.354 N 
ATOM     64  N   UNL A   1      45.288  29.147  29.183  1.00  0.00    -0.248 NA
ATOM     65  C   UNL A   1      45.118  28.030  31.227  1.00  0.00     0.031 C 
ATOM     66  C   UNL A   1      43.755  33.510  30.765  1.00  0.00     0.029 A 
ATOM     67  C   UNL A   1      44.449  32.309  30.924  1.00  0.00     0.049 A 
ATOM     68  H   UNL A   1      44.906  31.471  32.801  1.00  0.00     0.167 HD
ATOM     69  C   UNL A   1      45.329  30.097  30.193  1.00  0.00     0.074 A 
ATOM     70  C   UNL A   1      45.371  29.324  31.429  1.00  0.00     0.031 C 
ATOM     71  C   UNL A   1      45.046  31.411  29.948  1.00  0.00     0.034 A 
BRANCH  58  72
ATOM     72  C   UNL A   1      42.760  31.257  34.874  1.00  0.00     0.023 A 
ATOM     73  C   UNL A   1      42.971  32.204  35.892  1.00  0.00     0.012 A 
ATOM     74  C   UNL A   1      43.182  29.932  35.110  1.00  0.00     0.148 A 
ATOM     75  C   UNL A   1      43.548  31.837  37.111  1.00  0.00     0.002 A 
ATOM     76  C   UNL A   1      43.666  29.553  36.353  1.00  0.00     0.091 A 
ATOM     77  F   UNL A   1      43.230  29.058  34.094  1.00  0.00    -0.205 F 
ATOM     78  C   UNL A   1      43.867  30.506  37.354  1.00  0.00     0.022 A 
BRANCH  76  79
ATOM     79  S   UNL A   1      43.987  27.827  36.721  1.00  0.00     0.127 S 
ATOM     80  O   UNL A   1      44.895  27.931  37.857  1.00  0.00    -0.237 OA
ATOM     81  O   UNL A   1      42.649  27.325  37.037  1.00  0.00    -0.237 OA
ATOM     82  O   UNL A   1      44.545  27.285  35.486  1.00  0.00    -0.744 OA
ENDBRANCH  76  79
ENDBRANCH  58  72
BRANCH  59  83
ATOM     83  C   UNL A   1      44.554  25.631  28.867  1.00  0.00     0.023 A 
ATOM     84  C   UNL A   1      44.296  24.581  29.773  1.00  0.00     0.012 A 
ATOM     85  C   UNL A   1      45.026  25.286  27.578  1.00  0.00     0.148 A 
ATOM     86  C   UNL A   1      44.462  23.239  29.405  1.00  0.00     0.002 A 
ATOM     87  C   UNL A   1      45.188  23.946  27.213  1.00  0.00     0.091 A 
ATOM     88  F   UNL A   1      45.224  26.266  26.682  1.00  0.00    -0.205 F 
ATOM     89  C   UNL A   1      44.898  22.921  28.122  1.00  0.00     0.022 A 
BRANCH  87  90
ATOM     90  S   UNL A   1      45.715  23.453  25.562  1.00  0.00     0.127 S 
ATOM     91  O   UNL A   1      46.811  24.385  25.291  1.00  0.00    -0.237 OA
ATOM     92  O   UNL A   1      46.136  22.070  25.777  1.00  0.00    -0.237 OA
ATOM     93  O   UNL A   1      44.549  23.631  24.705  1.00  0.00    -0.744 OA
ENDBRANCH  87  90
ENDBRANCH  59  83
BRANCH  71  94
ATOM     94  C   UNL A   1      45.051  31.889  28.513  1.00  0.00     0.023 A 
ATOM     95  C   UNL A   1      43.969  31.638  27.646  1.00  0.00     0.012 A 
ATOM     96  C   UNL A   1      46.069  32.761  28.085  1.00  0.00     0.148 A 
ATOM     97  C   UNL A   1      43.897  32.237  26.385  1.00  0.00     0.002 A 
ATOM     98  C   UNL A   1      45.977  33.387  26.845  1.00  0.00     0.091 A 
ATOM     99  F   UNL A   1      47.092  32.996  28.921  1.00  0.00    -0.205 F 
ATOM    100  C   UNL A   1      44.895  33.124  25.990  1.00  0.00     0.022 A 
BRANCH  98 101
ATOM    101  S   UNL A   1      47.159  34.629  26.307  1.00  0.00     0.127 S 
ATOM    102  O   UNL A   1      48.282  33.811  25.853  1.00  0.00    -0.237 OA
ATOM    103  O   UNL A   1      46.427  35.309  25.238  1.00  0.00    -0.237 OA
ATOM    104  O   UNL A   1      47.429  35.463  27.472  1.00  0.00    -0.744 OA
ENDBRANCH  98 101
ENDBRANCH  71  94
ENDBRANCH  45  46
ENDBRANCH  38  40
ENDBRANCH  37  38
ENDBRANCH  36  37
ENDBRANCH  35  36
ENDBRANCH  34  35
ENDBRANCH  33  34
ENDBRANCH   1  33
TORSDOF 25
ENDMDL
