MODEL 1
REMARK VINA RESULT:     -11.1      0.000      0.000
REMARK SMILES Cc1cc(F)cc(N[C@](C)(C(=O)OCCOCCOCCOC(=O)c2ccc(-c3c4nc(c(-c5cccc(S(=O)(=O)[O-])c5F)c5ccc([nH]5)c(-c5cccc(S(=O)(=O)[O-])c5F)c5nc(c(-c6cccc(S(=O)(=O)[O-])c6F)c6ccc3[nH]6)C=C5)C=C4)cc2)c2cccc(F)c2)c1
REMARK SMILES IDX 18 1 17 2 16 3 15 4 14 5 13 6 11 7 12 8 9 9 10 10 8 11 7 13
REMARK SMILES IDX 1 14 2 15 3 16 95 17 4 18 5 19 6 20 88 21 89 22 94 23 90 24
REMARK SMILES IDX 92 25 91 26 93 27 19 28 20 29 21 30 22 31 23 32 24 33 25 34
REMARK SMILES IDX 26 35 87 36 27 37 86 38 28 39 29 40 30 41 80 42 31 43 85 44
REMARK SMILES IDX 79 45 81 46 32 47 84 48 78 49 77 50 33 52 65 53 45 54 64 55
REMARK SMILES IDX 46 56 49 57 63 58 82 59 47 60 48 61 62 63 83 64 50 65 34 66
REMARK SMILES IDX 35 67 43 68 36 69 38 70 44 71 37 72 39 73 40 74 41 75 42 76
REMARK SMILES IDX 66 77 67 78 75 79 68 80 70 81 76 82 69 83 71 84 72 85 73 86
REMARK SMILES IDX 74 87 51 88 52 89 60 90 53 91 55 92 61 93 54 94 56 95 57 96
REMARK SMILES IDX 58 97 59 98
REMARK H PARENT 8 12 81 51 49 62
REMARK Flexibility Score: inf
ROOT
ATOM      1  C   UNL A   1      35.312  23.512  23.482  1.00  0.00     0.188 C 
ENDROOT
BRANCH   1   2
ATOM      2  C   UNL A   1      33.948  22.803  23.491  1.00  0.00     0.188 C 
BRANCH   2   3
ATOM      3  O   UNL A   1      33.227  22.737  24.713  1.00  0.00    -0.376 OA
BRANCH   3   4
ATOM      4  C   UNL A   1      31.905  23.263  24.766  1.00  0.00     0.202 C 
BRANCH   4   5
ATOM      5  C   UNL A   1      31.025  23.332  23.500  1.00  0.00     0.261 C 
BRANCH   5   6
ATOM      6  O   UNL A   1      30.439  24.620  23.243  1.00  0.00    -0.461 OA
BRANCH   6   7
ATOM      7  C   UNL A   1      31.288  25.659  23.031  1.00  0.00     0.336 C 
ATOM      8  O   UNL A   1      32.215  25.586  22.228  1.00  0.00    -0.249 OA
BRANCH   7   9
ATOM      9  C   UNL A   1      30.964  26.949  23.897  1.00  0.00     0.159 C 
ATOM     10  C   UNL A   1      30.411  26.460  25.247  1.00  0.00     0.053 C 
BRANCH   9  11
ATOM     11  N   UNL A   1      32.192  27.785  24.096  1.00  0.00    -0.366 N 
ATOM     12  H   UNL A   1      32.839  27.743  23.356  1.00  0.00     0.162 HD
BRANCH  11  13
ATOM     13  C   UNL A   1      32.572  28.605  25.146  1.00  0.00     0.038 A 
ATOM     14  C   UNL A   1      31.337  31.898  26.738  1.00  0.00     0.044 C 
ATOM     15  C   UNL A   1      32.163  30.684  26.430  1.00  0.00    -0.046 A 
ATOM     16  C   UNL A   1      33.286  30.423  27.214  1.00  0.00     0.042 A 
ATOM     17  C   UNL A   1      31.825  29.780  25.400  1.00  0.00     0.029 A 
ATOM     18  C   UNL A   1      33.984  29.245  27.018  1.00  0.00     0.125 A 
ATOM     19  F   UNL A   1      35.035  28.965  27.801  1.00  0.00    -0.207 F 
ATOM     20  C   UNL A   1      33.612  28.333  26.031  1.00  0.00     0.065 A 
ENDBRANCH  11  13
ENDBRANCH   9  11
BRANCH   9  21
ATOM     21  C   UNL A   1      29.819  27.854  23.317  1.00  0.00    -0.009 A 
ATOM     22  C   UNL A   1      28.447  27.617  23.587  1.00  0.00     0.007 A 
ATOM     23  C   UNL A   1      30.116  28.942  22.470  1.00  0.00     0.046 A 
ATOM     24  C   UNL A   1      27.443  28.482  23.127  1.00  0.00     0.003 A 
ATOM     25  C   UNL A   1      29.106  29.784  22.001  1.00  0.00     0.123 A 
ATOM     26  C   UNL A   1      27.776  29.576  22.338  1.00  0.00     0.039 A 
ATOM     27  F   UNL A   1      29.427  30.818  21.211  1.00  0.00    -0.207 F 
ENDBRANCH   9  21
ENDBRANCH   7   9
ENDBRANCH   6   7
ENDBRANCH   5   6
ENDBRANCH   4   5
ENDBRANCH   3   4
ENDBRANCH   2   3
ENDBRANCH   1   2
BRANCH   1  28
ATOM     28  O   UNL A   1      36.441  22.673  23.469  1.00  0.00    -0.376 OA
BRANCH  28  29
ATOM     29  C   UNL A   1      36.504  21.576  24.358  1.00  0.00     0.202 C 
BRANCH  29  30
ATOM     30  C   UNL A   1      37.812  20.896  24.819  1.00  0.00     0.261 C 
BRANCH  30  31
ATOM     31  O   UNL A   1      38.245  21.077  26.173  1.00  0.00    -0.460 OA
BRANCH  31  32
ATOM     32  C   UNL A   1      39.579  21.125  26.392  1.00  0.00     0.338 C 
ATOM     33  O   UNL A   1      40.406  20.278  26.076  1.00  0.00    -0.246 OA
BRANCH  32  34
ATOM     34  C   UNL A   1      39.914  22.485  26.864  1.00  0.00     0.060 A 
ATOM     35  C   UNL A   1      39.135  23.573  26.437  1.00  0.00     0.016 A 
ATOM     36  C   UNL A   1      40.988  22.685  27.731  1.00  0.00     0.016 A 
ATOM     37  C   UNL A   1      39.447  24.867  26.855  1.00  0.00     0.010 A 
ATOM     38  C   UNL A   1      41.316  23.985  28.126  1.00  0.00     0.010 A 
ATOM     39  C   UNL A   1      40.568  25.084  27.664  1.00  0.00    -0.014 A 
BRANCH  39  40
ATOM     40  C   UNL A   1      41.080  26.458  27.880  1.00  0.00     0.031 A 
ATOM     41  C   UNL A   1      42.419  26.821  27.298  1.00  0.00     0.074 A 
ATOM     42  C   UNL A   1      40.401  27.354  28.617  1.00  0.00     0.049 A 
ATOM     43  N   UNL A   1      43.108  27.923  27.430  1.00  0.00    -0.248 NA
ATOM     44  C   UNL A   1      43.071  25.794  26.470  1.00  0.00     0.031 C 
ATOM     45  C   UNL A   1      39.109  27.115  29.251  1.00  0.00     0.029 A 
ATOM     46  N   UNL A   1      40.730  28.635  28.988  1.00  0.00    -0.354 N 
ATOM     47  C   UNL A   1      44.296  27.708  26.742  1.00  0.00     0.074 A 
ATOM     48  C   UNL A   1      44.232  26.368  26.196  1.00  0.00     0.031 C 
ATOM     49  C   UNL A   1      38.772  28.201  29.967  1.00  0.00     0.029 A 
ATOM     50  C   UNL A   1      39.820  29.211  29.843  1.00  0.00     0.049 A 
ATOM     51  H   UNL A   1      41.541  29.097  28.672  1.00  0.00     0.167 HD
ATOM     52  C   UNL A   1      45.345  28.547  26.575  1.00  0.00     0.034 A 
ATOM     53  C   UNL A   1      39.844  30.404  30.471  1.00  0.00     0.034 A 
ATOM     54  C   UNL A   1      45.406  29.877  27.116  1.00  0.00     0.049 A 
ATOM     55  C   UNL A   1      41.027  31.319  30.275  1.00  0.00     0.074 A 
ATOM     56  C   UNL A   1      46.410  30.819  26.966  1.00  0.00     0.029 A 
ATOM     57  N   UNL A   1      44.437  30.450  27.924  1.00  0.00    -0.354 N 
ATOM     58  N   UNL A   1      42.092  31.148  29.530  1.00  0.00    -0.248 NA
ATOM     59  C   UNL A   1      41.002  32.602  30.995  1.00  0.00     0.031 C 
ATOM     60  C   UNL A   1      46.064  31.948  27.716  1.00  0.00     0.029 A 
ATOM     61  C   UNL A   1      44.823  31.728  28.293  1.00  0.00     0.049 A 
ATOM     62  H   UNL A   1      43.599  30.013  28.196  1.00  0.00     0.167 HD
ATOM     63  C   UNL A   1      42.846  32.309  29.667  1.00  0.00     0.074 A 
ATOM     64  C   UNL A   1      42.104  33.187  30.546  1.00  0.00     0.031 C 
ATOM     65  C   UNL A   1      44.053  32.615  29.126  1.00  0.00     0.034 A 
BRANCH  52  66
ATOM     66  C   UNL A   1      46.513  28.046  25.767  1.00  0.00     0.023 A 
ATOM     67  C   UNL A   1      46.497  28.164  24.363  1.00  0.00     0.012 A 
ATOM     68  C   UNL A   1      47.643  27.495  26.403  1.00  0.00     0.148 A 
ATOM     69  C   UNL A   1      47.570  27.706  23.600  1.00  0.00     0.002 A 
ATOM     70  C   UNL A   1      48.729  27.088  25.639  1.00  0.00     0.091 A 
ATOM     71  F   UNL A   1      47.629  27.370  27.737  1.00  0.00    -0.205 F 
ATOM     72  C   UNL A   1      48.690  27.180  24.238  1.00  0.00     0.022 A 
BRANCH  70  73
ATOM     73  S   UNL A   1      50.250  26.471  26.369  1.00  0.00     0.127 S 
ATOM     74  O   UNL A   1      49.741  25.492  27.327  1.00  0.00    -0.237 OA
ATOM     75  O   UNL A   1      50.933  25.894  25.211  1.00  0.00    -0.237 OA
ATOM     76  O   UNL A   1      50.915  27.628  26.952  1.00  0.00    -0.744 OA
ENDBRANCH  70  73
ENDBRANCH  52  66
BRANCH  53  77
ATOM     77  C   UNL A   1      38.696  30.830  31.324  1.00  0.00     0.023 A 
ATOM     78  C   UNL A   1      38.744  30.601  32.713  1.00  0.00     0.012 A 
ATOM     79  C   UNL A   1      37.562  31.456  30.772  1.00  0.00     0.148 A 
ATOM     80  C   UNL A   1      37.671  30.955  33.532  1.00  0.00     0.002 A 
ATOM     81  C   UNL A   1      36.523  31.863  31.601  1.00  0.00     0.091 A 
ATOM     82  F   UNL A   1      37.528  31.650  29.446  1.00  0.00    -0.205 F 
ATOM     83  C   UNL A   1      36.566  31.596  32.978  1.00  0.00     0.022 A 
BRANCH  81  84
ATOM     84  S   UNL A   1      35.124  32.811  30.998  1.00  0.00     0.127 S 
ATOM     85  O   UNL A   1      34.138  32.591  32.053  1.00  0.00    -0.237 OA
ATOM     86  O   UNL A   1      35.682  34.162  30.945  1.00  0.00    -0.237 OA
ATOM     87  O   UNL A   1      34.795  32.242  29.698  1.00  0.00    -0.744 OA
ENDBRANCH  81  84
ENDBRANCH  53  77
BRANCH  65  88
ATOM     88  C   UNL A   1      44.634  33.974  29.422  1.00  0.00     0.023 A 
ATOM     89  C   UNL A   1      45.611  34.126  30.427  1.00  0.00     0.012 A 
ATOM     90  C   UNL A   1      44.262  35.092  28.648  1.00  0.00     0.148 A 
ATOM     91  C   UNL A   1      46.180  35.374  30.680  1.00  0.00     0.002 A 
ATOM     92  C   UNL A   1      44.872  36.321  28.870  1.00  0.00     0.091 A 
ATOM     93  F   UNL A   1      43.319  34.933  27.707  1.00  0.00    -0.205 F 
ATOM     94  C   UNL A   1      45.820  36.468  29.895  1.00  0.00     0.022 A 
BRANCH  92  95
ATOM     95  S   UNL A   1      44.546  37.759  27.844  1.00  0.00     0.127 S 
ATOM     96  O   UNL A   1      44.895  38.855  28.749  1.00  0.00    -0.237 OA
ATOM     97  O   UNL A   1      45.478  37.565  26.734  1.00  0.00    -0.237 OA
ATOM     98  O   UNL A   1      43.139  37.681  27.475  1.00  0.00    -0.744 OA
ENDBRANCH  92  95
ENDBRANCH  65  88
ENDBRANCH  39  40
ENDBRANCH  32  34
ENDBRANCH  31  32
ENDBRANCH  30  31
ENDBRANCH  29  30
ENDBRANCH  28  29
ENDBRANCH   1  28
TORSDOF 23
ENDMDL
MODEL 2
REMARK VINA RESULT:     -10.9      1.932      2.353
REMARK SMILES Cc1cc(F)cc(N[C@](C)(C(=O)OCCOCCOCCOC(=O)c2ccc(-c3c4nc(c(-c5cccc(S(=O)(=O)[O-])c5F)c5ccc([nH]5)c(-c5cccc(S(=O)(=O)[O-])c5F)c5nc(c(-c6cccc(S(=O)(=O)[O-])c6F)c6ccc3[nH]6)C=C5)C=C4)cc2)c2cccc(F)c2)c1
REMARK SMILES IDX 18 1 17 2 16 3 15 4 14 5 13 6 11 7 12 8 9 9 10 10 8 11 7 13
REMARK SMILES IDX 1 14 2 15 3 16 95 17 4 18 5 19 6 20 88 21 89 22 94 23 90 24
REMARK SMILES IDX 92 25 91 26 93 27 19 28 20 29 21 30 22 31 23 32 24 33 25 34
REMARK SMILES IDX 26 35 87 36 27 37 86 38 28 39 29 40 30 41 80 42 31 43 85 44
REMARK SMILES IDX 79 45 81 46 32 47 84 48 78 49 77 50 33 52 65 53 45 54 64 55
REMARK SMILES IDX 46 56 49 57 63 58 82 59 47 60 48 61 62 63 83 64 50 65 34 66
REMARK SMILES IDX 35 67 43 68 36 69 38 70 44 71 37 72 39 73 40 74 41 75 42 76
REMARK SMILES IDX 66 77 67 78 75 79 68 80 70 81 76 82 69 83 71 84 72 85 73 86
REMARK SMILES IDX 74 87 51 88 52 89 60 90 53 91 55 92 61 93 54 94 56 95 57 96
REMARK SMILES IDX 58 97 59 98
REMARK H PARENT 8 12 81 51 49 62
REMARK Flexibility Score: inf
ROOT
ATOM      1  C   UNL A   1      35.089  23.608  23.409  1.00  0.00     0.188 C 
ENDROOT
BRANCH   1   2
ATOM      2  C   UNL A   1      33.760  22.869  23.181  1.00  0.00     0.188 C 
BRANCH   2   3
ATOM      3  O   UNL A   1      32.964  22.541  24.310  1.00  0.00    -0.376 OA
BRANCH   3   4
ATOM      4  C   UNL A   1      31.635  23.045  24.391  1.00  0.00     0.202 C 
BRANCH   4   5
ATOM      5  C   UNL A   1      30.888  23.521  23.128  1.00  0.00     0.261 C 
BRANCH   5   6
ATOM      6  O   UNL A   1      30.381  24.866  23.198  1.00  0.00    -0.461 OA
BRANCH   6   7
ATOM      7  C   UNL A   1      31.266  25.876  22.991  1.00  0.00     0.336 C 
ATOM      8  O   UNL A   1      32.199  25.770  22.199  1.00  0.00    -0.249 OA
BRANCH   7   9
ATOM      9  C   UNL A   1      30.975  27.179  23.850  1.00  0.00     0.159 C 
ATOM     10  C   UNL A   1      30.329  26.717  25.168  1.00  0.00     0.053 C 
BRANCH   9  11
ATOM     11  N   UNL A   1      32.239  27.941  24.115  1.00  0.00    -0.366 N 
ATOM     12  H   UNL A   1      32.957  27.779  23.462  1.00  0.00     0.162 HD
BRANCH  11  13
ATOM     13  C   UNL A   1      32.567  28.833  25.123  1.00  0.00     0.038 A 
ATOM     14  C   UNL A   1      35.478  29.329  27.609  1.00  0.00     0.044 C 
ATOM     15  C   UNL A   1      34.168  29.490  26.894  1.00  0.00    -0.046 A 
ATOM     16  C   UNL A   1      33.328  30.537  27.269  1.00  0.00     0.042 A 
ATOM     17  C   UNL A   1      33.775  28.645  25.834  1.00  0.00     0.029 A 
ATOM     18  C   UNL A   1      32.176  30.769  26.539  1.00  0.00     0.125 A 
ATOM     19  F   UNL A   1      31.388  31.803  26.864  1.00  0.00    -0.207 F 
ATOM     20  C   UNL A   1      31.821  29.959  25.461  1.00  0.00     0.065 A 
ENDBRANCH  11  13
ENDBRANCH   9  11
BRANCH   9  21
ATOM     21  C   UNL A   1      29.914  28.152  23.222  1.00  0.00    -0.009 A 
ATOM     22  C   UNL A   1      30.276  29.248  22.398  1.00  0.00     0.007 A 
ATOM     23  C   UNL A   1      28.538  27.983  23.477  1.00  0.00     0.046 A 
ATOM     24  C   UNL A   1      29.312  30.059  21.780  1.00  0.00     0.003 A 
ATOM     25  C   UNL A   1      27.588  28.809  22.873  1.00  0.00     0.123 A 
ATOM     26  C   UNL A   1      27.961  29.831  22.012  1.00  0.00     0.039 A 
ATOM     27  F   UNL A   1      26.288  28.610  23.127  1.00  0.00    -0.207 F 
ENDBRANCH   9  21
ENDBRANCH   7   9
ENDBRANCH   6   7
ENDBRANCH   5   6
ENDBRANCH   4   5
ENDBRANCH   3   4
ENDBRANCH   2   3
ENDBRANCH   1   2
BRANCH   1  28
ATOM     28  O   UNL A   1      36.237  22.799  23.478  1.00  0.00    -0.376 OA
BRANCH  28  29
ATOM     29  C   UNL A   1      36.272  21.713  24.382  1.00  0.00     0.202 C 
BRANCH  29  30
ATOM     30  C   UNL A   1      37.549  20.937  24.771  1.00  0.00     0.261 C 
BRANCH  30  31
ATOM     31  O   UNL A   1      38.110  21.140  26.074  1.00  0.00    -0.460 OA
BRANCH  31  32
ATOM     32  C   UNL A   1      39.460  21.160  26.168  1.00  0.00     0.338 C 
ATOM     33  O   UNL A   1      40.238  20.310  25.751  1.00  0.00    -0.246 OA
BRANCH  32  34
ATOM     34  C   UNL A   1      39.863  22.501  26.645  1.00  0.00     0.060 A 
ATOM     35  C   UNL A   1      39.220  23.637  26.127  1.00  0.00     0.016 A 
ATOM     36  C   UNL A   1      40.865  22.634  27.606  1.00  0.00     0.016 A 
ATOM     37  C   UNL A   1      39.599  24.911  26.549  1.00  0.00     0.010 A 
ATOM     38  C   UNL A   1      41.262  23.912  28.007  1.00  0.00     0.010 A 
ATOM     39  C   UNL A   1      40.655  25.056  27.457  1.00  0.00    -0.014 A 
BRANCH  39  40
ATOM     40  C   UNL A   1      41.258  26.390  27.695  1.00  0.00     0.031 A 
ATOM     41  C   UNL A   1      42.655  26.641  27.198  1.00  0.00     0.074 A 
ATOM     42  C   UNL A   1      40.606  27.344  28.380  1.00  0.00     0.049 A 
ATOM     43  N   UNL A   1      43.419  27.688  27.365  1.00  0.00    -0.248 NA
ATOM     44  C   UNL A   1      43.276  25.556  26.420  1.00  0.00     0.031 C 
ATOM     45  C   UNL A   1      39.261  27.214  28.932  1.00  0.00     0.029 A 
ATOM     46  N   UNL A   1      41.009  28.601  28.762  1.00  0.00    -0.354 N 
ATOM     47  C   UNL A   1      44.627  27.372  26.756  1.00  0.00     0.074 A 
ATOM     48  C   UNL A   1      44.494  26.035  26.217  1.00  0.00     0.031 C 
ATOM     49  C   UNL A   1      38.966  28.331  29.617  1.00  0.00     0.029 A 
ATOM     50  C   UNL A   1      40.095  29.255  29.553  1.00  0.00     0.049 A 
ATOM     51  H   UNL A   1      41.872  28.994  28.495  1.00  0.00     0.167 HD
ATOM     52  C   UNL A   1      45.747  28.125  26.651  1.00  0.00     0.034 A 
ATOM     53  C   UNL A   1      40.172  30.451  30.173  1.00  0.00     0.034 A 
ATOM     54  C   UNL A   1      45.878  29.454  27.185  1.00  0.00     0.049 A 
ATOM     55  C   UNL A   1      41.433  31.269  30.046  1.00  0.00     0.074 A 
ATOM     56  C   UNL A   1      46.959  30.312  27.093  1.00  0.00     0.029 A 
ATOM     57  N   UNL A   1      44.907  30.109  27.926  1.00  0.00    -0.354 N 
ATOM     58  N   UNL A   1      42.526  31.006  29.372  1.00  0.00    -0.248 NA
ATOM     59  C   UNL A   1      41.464  32.559  30.754  1.00  0.00     0.031 C 
ATOM     60  C   UNL A   1      46.656  31.474  27.811  1.00  0.00     0.029 A 
ATOM     61  C   UNL A   1      45.368  31.358  28.308  1.00  0.00     0.049 A 
ATOM     62  H   UNL A   1      44.022  29.742  28.146  1.00  0.00     0.167 HD
ATOM     63  C   UNL A   1      43.359  32.107  29.549  1.00  0.00     0.074 A 
ATOM     64  C   UNL A   1      42.633  33.051  30.372  1.00  0.00     0.031 C 
ATOM     65  C   UNL A   1      44.618  32.312  29.085  1.00  0.00     0.034 A 
BRANCH  52  66
ATOM     66  C   UNL A   1      46.921  27.526  25.923  1.00  0.00     0.023 A 
ATOM     67  C   UNL A   1      47.777  26.627  26.592  1.00  0.00     0.012 A 
ATOM     68  C   UNL A   1      47.154  27.823  24.567  1.00  0.00     0.148 A 
ATOM     69  C   UNL A   1      48.868  26.063  25.933  1.00  0.00     0.002 A 
ATOM     70  C   UNL A   1      48.214  27.218  23.903  1.00  0.00     0.091 A 
ATOM     71  F   UNL A   1      46.344  28.698  23.955  1.00  0.00    -0.205 F 
ATOM     72  C   UNL A   1      49.080  26.349  24.588  1.00  0.00     0.022 A 
BRANCH  70  73
ATOM     73  S   UNL A   1      48.524  27.458  22.151  1.00  0.00     0.127 S 
ATOM     74  O   UNL A   1      49.774  28.215  22.173  1.00  0.00    -0.237 OA
ATOM     75  O   UNL A   1      48.652  26.081  21.672  1.00  0.00    -0.237 OA
ATOM     76  O   UNL A   1      47.368  28.176  21.632  1.00  0.00    -0.744 OA
ENDBRANCH  70  73
ENDBRANCH  52  66
BRANCH  53  77
ATOM     77  C   UNL A   1      39.009  30.975  30.947  1.00  0.00     0.023 A 
ATOM     78  C   UNL A   1      38.931  30.725  32.331  1.00  0.00     0.012 A 
ATOM     79  C   UNL A   1      37.985  31.714  30.326  1.00  0.00     0.148 A 
ATOM     80  C   UNL A   1      37.838  31.171  33.076  1.00  0.00     0.002 A 
ATOM     81  C   UNL A   1      36.930  32.209  31.084  1.00  0.00     0.091 A 
ATOM     82  F   UNL A   1      38.069  31.926  29.005  1.00  0.00    -0.205 F 
ATOM     83  C   UNL A   1      36.844  31.922  32.455  1.00  0.00     0.022 A 
BRANCH  81  84
ATOM     84  S   UNL A   1      35.676  33.295  30.398  1.00  0.00     0.127 S 
ATOM     85  O   UNL A   1      34.779  32.342  29.750  1.00  0.00    -0.237 OA
ATOM     86  O   UNL A   1      35.141  33.927  31.603  1.00  0.00    -0.237 OA
ATOM     87  O   UNL A   1      36.386  34.200  29.505  1.00  0.00    -0.744 OA
ENDBRANCH  81  84
ENDBRANCH  53  77
BRANCH  65  88
ATOM     88  C   UNL A   1      45.283  33.626  29.408  1.00  0.00     0.023 A 
ATOM     89  C   UNL A   1      45.050  34.757  28.600  1.00  0.00     0.012 A 
ATOM     90  C   UNL A   1      46.084  33.755  30.561  1.00  0.00     0.148 A 
ATOM     91  C   UNL A   1      45.633  35.985  28.915  1.00  0.00     0.002 A 
ATOM     92  C   UNL A   1      46.616  34.994  30.898  1.00  0.00     0.091 A 
ATOM     93  F   UNL A   1      46.308  32.664  31.308  1.00  0.00    -0.205 F 
ATOM     94  C   UNL A   1      46.405  36.107  30.068  1.00  0.00     0.022 A 
BRANCH  92  95
ATOM     95  S   UNL A   1      47.539  35.267  32.415  1.00  0.00     0.127 S 
ATOM     96  O   UNL A   1      46.610  34.758  33.423  1.00  0.00    -0.237 OA
ATOM     97  O   UNL A   1      48.728  34.440  32.207  1.00  0.00    -0.237 OA
ATOM     98  O   UNL A   1      47.800  36.699  32.476  1.00  0.00    -0.744 OA
ENDBRANCH  92  95
ENDBRANCH  65  88
ENDBRANCH  39  40
ENDBRANCH  32  34
ENDBRANCH  31  32
ENDBRANCH  30  31
ENDBRANCH  29  30
ENDBRANCH  28  29
ENDBRANCH   1  28
TORSDOF 23
ENDMDL
MODEL 3
REMARK VINA RESULT:     -10.5      2.721      8.213
REMARK SMILES Cc1cc(F)cc(N[C@](C)(C(=O)OCCOCCOCCOC(=O)c2ccc(-c3c4nc(c(-c5cccc(S(=O)(=O)[O-])c5F)c5ccc([nH]5)c(-c5cccc(S(=O)(=O)[O-])c5F)c5nc(c(-c6cccc(S(=O)(=O)[O-])c6F)c6ccc3[nH]6)C=C5)C=C4)cc2)c2cccc(F)c2)c1
REMARK SMILES IDX 18 1 17 2 16 3 15 4 14 5 13 6 11 7 12 8 9 9 10 10 8 11 7 13
REMARK SMILES IDX 1 14 2 15 3 16 95 17 4 18 5 19 6 20 88 21 89 22 94 23 90 24
REMARK SMILES IDX 92 25 91 26 93 27 19 28 20 29 21 30 22 31 23 32 24 33 25 34
REMARK SMILES IDX 26 35 87 36 27 37 86 38 28 39 29 40 30 41 80 42 31 43 85 44
REMARK SMILES IDX 79 45 81 46 32 47 84 48 78 49 77 50 33 52 65 53 45 54 64 55
REMARK SMILES IDX 46 56 49 57 63 58 82 59 47 60 48 61 62 63 83 64 50 65 34 66
REMARK SMILES IDX 35 67 43 68 36 69 38 70 44 71 37 72 39 73 40 74 41 75 42 76
REMARK SMILES IDX 66 77 67 78 75 79 68 80 70 81 76 82 69 83 71 84 72 85 73 86
REMARK SMILES IDX 74 87 51 88 52 89 60 90 53 91 55 92 61 93 54 94 56 95 57 96
REMARK SMILES IDX 58 97 59 98
REMARK H PARENT 8 12 81 51 49 62
REMARK Flexibility Score: inf
ROOT
ATOM      1  C   UNL A   1      36.206  22.285  24.225  1.00  0.00     0.188 C 
ENDROOT
BRANCH   1   2
ATOM      2  C   UNL A   1      34.765  21.837  24.519  1.00  0.00     0.188 C 
BRANCH   2   3
ATOM      3  O   UNL A   1      33.698  22.690  24.130  1.00  0.00    -0.376 OA
BRANCH   3   4
ATOM      4  C   UNL A   1      33.513  22.982  22.748  1.00  0.00     0.202 C 
BRANCH   4   5
ATOM      5  C   UNL A   1      32.461  24.013  22.288  1.00  0.00     0.261 C 
BRANCH   5   6
ATOM      6  O   UNL A   1      32.169  25.045  23.247  1.00  0.00    -0.461 OA
BRANCH   6   7
ATOM      7  C   UNL A   1      32.959  26.149  23.233  1.00  0.00     0.336 C 
ATOM      8  O   UNL A   1      34.183  26.071  23.162  1.00  0.00    -0.249 OA
BRANCH   7   9
ATOM      9  C   UNL A   1      32.161  27.520  23.307  1.00  0.00     0.159 C 
ATOM     10  C   UNL A   1      33.024  28.584  22.609  1.00  0.00     0.053 C 
BRANCH   9  11
ATOM     11  N   UNL A   1      30.823  27.398  22.642  1.00  0.00    -0.366 N 
ATOM     12  H   UNL A   1      30.735  26.625  22.040  1.00  0.00     0.162 HD
BRANCH  11  13
ATOM     13  C   UNL A   1      29.690  28.192  22.729  1.00  0.00     0.038 A 
ATOM     14  C   UNL A   1      28.694  31.796  21.771  1.00  0.00     0.044 C 
ATOM     15  C   UNL A   1      28.651  30.404  22.331  1.00  0.00    -0.046 A 
ATOM     16  C   UNL A   1      27.469  29.957  22.919  1.00  0.00     0.042 A 
ATOM     17  C   UNL A   1      29.750  29.523  22.252  1.00  0.00     0.029 A 
ATOM     18  C   UNL A   1      27.378  28.640  23.329  1.00  0.00     0.125 A 
ATOM     19  F   UNL A   1      26.228  28.190  23.850  1.00  0.00    -0.207 F 
ATOM     20  C   UNL A   1      28.453  27.761  23.200  1.00  0.00     0.065 A 
ENDBRANCH  11  13
ENDBRANCH   9  11
BRANCH   9  21
ATOM     21  C   UNL A   1      31.959  28.080  24.760  1.00  0.00    -0.009 A 
ATOM     22  C   UNL A   1      31.624  27.249  25.860  1.00  0.00     0.007 A 
ATOM     23  C   UNL A   1      32.081  29.460  25.027  1.00  0.00     0.046 A 
ATOM     24  C   UNL A   1      31.527  27.754  27.166  1.00  0.00     0.003 A 
ATOM     25  C   UNL A   1      31.962  29.954  26.328  1.00  0.00     0.123 A 
ATOM     26  C   UNL A   1      31.706  29.112  27.401  1.00  0.00     0.039 A 
ATOM     27  F   UNL A   1      32.099  31.269  26.546  1.00  0.00    -0.207 F 
ENDBRANCH   9  21
ENDBRANCH   7   9
ENDBRANCH   6   7
ENDBRANCH   5   6
ENDBRANCH   4   5
ENDBRANCH   3   4
ENDBRANCH   2   3
ENDBRANCH   1   2
BRANCH   1  28
ATOM     28  O   UNL A   1      37.094  22.252  25.315  1.00  0.00    -0.376 OA
BRANCH  28  29
ATOM     29  C   UNL A   1      38.070  21.232  25.389  1.00  0.00     0.202 C 
BRANCH  29  30
ATOM     30  C   UNL A   1      39.396  21.343  26.172  1.00  0.00     0.261 C 
BRANCH  30  31
ATOM     31  O   UNL A   1      40.022  20.143  26.644  1.00  0.00    -0.460 OA
BRANCH  31  32
ATOM     32  C   UNL A   1      41.283  19.898  26.219  1.00  0.00     0.338 C 
ATOM     33  O   UNL A   1      41.659  18.947  25.543  1.00  0.00    -0.246 OA
BRANCH  32  34
ATOM     34  C   UNL A   1      42.100  21.098  26.501  1.00  0.00     0.060 A 
ATOM     35  C   UNL A   1      42.429  21.408  27.831  1.00  0.00     0.016 A 
ATOM     36  C   UNL A   1      42.545  21.907  25.457  1.00  0.00     0.016 A 
ATOM     37  C   UNL A   1      43.182  22.547  28.119  1.00  0.00     0.010 A 
ATOM     38  C   UNL A   1      43.275  23.062  25.750  1.00  0.00     0.010 A 
ATOM     39  C   UNL A   1      43.569  23.405  27.083  1.00  0.00    -0.014 A 
BRANCH  39  40
ATOM     40  C   UNL A   1      44.111  24.750  27.389  1.00  0.00     0.031 A 
ATOM     41  C   UNL A   1      43.172  25.792  27.931  1.00  0.00     0.074 A 
ATOM     42  C   UNL A   1      45.396  25.062  27.146  1.00  0.00     0.049 A 
ATOM     43  N   UNL A   1      43.393  27.055  28.187  1.00  0.00    -0.248 NA
ATOM     44  C   UNL A   1      41.795  25.350  28.207  1.00  0.00     0.031 C 
ATOM     45  C   UNL A   1      46.395  24.149  26.601  1.00  0.00     0.029 A 
ATOM     46  N   UNL A   1      46.066  26.252  27.292  1.00  0.00    -0.354 N 
ATOM     47  C   UNL A   1      42.174  27.571  28.608  1.00  0.00     0.074 A 
ATOM     48  C   UNL A   1      41.218  26.485  28.573  1.00  0.00     0.031 C 
ATOM     49  C   UNL A   1      47.543  24.824  26.420  1.00  0.00     0.029 A 
ATOM     50  C   UNL A   1      47.362  26.213  26.835  1.00  0.00     0.049 A 
ATOM     51  H   UNL A   1      45.657  27.058  27.685  1.00  0.00     0.167 HD
ATOM     52  C   UNL A   1      41.875  28.834  28.994  1.00  0.00     0.034 A 
ATOM     53  C   UNL A   1      48.287  27.191  26.742  1.00  0.00     0.034 A 
ATOM     54  C   UNL A   1      42.825  29.912  29.031  1.00  0.00     0.049 A 
ATOM     55  C   UNL A   1      47.928  28.591  27.171  1.00  0.00     0.074 A 
ATOM     56  C   UNL A   1      42.627  31.217  29.447  1.00  0.00     0.029 A 
ATOM     57  N   UNL A   1      44.146  29.818  28.622  1.00  0.00    -0.354 N 
ATOM     58  N   UNL A   1      46.804  29.040  27.675  1.00  0.00    -0.248 NA
ATOM     59  C   UNL A   1      48.973  29.618  27.035  1.00  0.00     0.031 C 
ATOM     60  C   UNL A   1      43.819  31.922  29.253  1.00  0.00     0.029 A 
ATOM     61  C   UNL A   1      44.773  31.045  28.763  1.00  0.00     0.049 A 
ATOM     62  H   UNL A   1      44.575  29.001  28.282  1.00  0.00     0.167 HD
ATOM     63  C   UNL A   1      47.016  30.389  27.942  1.00  0.00     0.074 A 
ATOM     64  C   UNL A   1      48.385  30.678  27.570  1.00  0.00     0.031 C 
ATOM     65  C   UNL A   1      46.151  31.310  28.437  1.00  0.00     0.034 A 
BRANCH  52  66
ATOM     66  C   UNL A   1      40.456  29.115  29.411  1.00  0.00     0.023 A 
ATOM     67  C   UNL A   1      39.509  29.522  28.450  1.00  0.00     0.012 A 
ATOM     68  C   UNL A   1      40.051  28.937  30.749  1.00  0.00     0.148 A 
ATOM     69  C   UNL A   1      38.191  29.786  28.820  1.00  0.00     0.002 A 
ATOM     70  C   UNL A   1      38.725  29.153  31.100  1.00  0.00     0.091 A 
ATOM     71  F   UNL A   1      40.972  28.572  31.652  1.00  0.00    -0.205 F 
ATOM     72  C   UNL A   1      37.797  29.591  30.140  1.00  0.00     0.022 A 
BRANCH  70  73
ATOM     73  S   UNL A   1      38.099  28.852  32.756  1.00  0.00     0.127 S 
ATOM     74  O   UNL A   1      36.722  29.328  32.642  1.00  0.00    -0.237 OA
ATOM     75  O   UNL A   1      38.236  27.400  32.875  1.00  0.00    -0.237 OA
ATOM     76  O   UNL A   1      38.952  29.619  33.654  1.00  0.00    -0.744 OA
ENDBRANCH  70  73
ENDBRANCH  52  66
BRANCH  53  77
ATOM     77  C   UNL A   1      49.663  26.882  26.251  1.00  0.00     0.023 A 
ATOM     78  C   UNL A   1      50.587  26.272  27.122  1.00  0.00     0.012 A 
ATOM     79  C   UNL A   1      50.060  27.189  24.936  1.00  0.00     0.148 A 
ATOM     80  C   UNL A   1      51.891  26.003  26.703  1.00  0.00     0.002 A 
ATOM     81  C   UNL A   1      51.340  26.863  24.506  1.00  0.00     0.091 A 
ATOM     82  F   UNL A   1      49.172  27.785  24.129  1.00  0.00    -0.205 F 
ATOM     83  C   UNL A   1      52.264  26.288  25.393  1.00  0.00     0.022 A 
BRANCH  81  84
ATOM     84  S   UNL A   1      51.867  27.070  22.802  1.00  0.00     0.127 S 
ATOM     85  O   UNL A   1      50.645  26.746  22.071  1.00  0.00    -0.237 OA
ATOM     86  O   UNL A   1      52.245  28.482  22.779  1.00  0.00    -0.237 OA
ATOM     87  O   UNL A   1      52.976  26.144  22.619  1.00  0.00    -0.744 OA
ENDBRANCH  81  84
ENDBRANCH  53  77
BRANCH  65  88
ATOM     88  C   UNL A   1      46.663  32.711  28.658  1.00  0.00     0.023 A 
ATOM     89  C   UNL A   1      46.528  33.684  27.646  1.00  0.00     0.012 A 
ATOM     90  C   UNL A   1      47.211  33.082  29.902  1.00  0.00     0.148 A 
ATOM     91  C   UNL A   1      46.965  34.992  27.858  1.00  0.00     0.002 A 
ATOM     92  C   UNL A   1      47.595  34.399  30.124  1.00  0.00     0.091 A 
ATOM     93  F   UNL A   1      47.347  32.140  30.847  1.00  0.00    -0.205 F 
ATOM     94  C   UNL A   1      47.487  35.352  29.098  1.00  0.00     0.022 A 
BRANCH  92  95
ATOM     95  S   UNL A   1      48.184  34.977  31.719  1.00  0.00     0.127 S 
ATOM     96  O   UNL A   1      48.327  36.413  31.481  1.00  0.00    -0.237 OA
ATOM     97  O   UNL A   1      47.079  34.613  32.607  1.00  0.00    -0.237 OA
ATOM     98  O   UNL A   1      49.427  34.262  31.975  1.00  0.00    -0.744 OA
ENDBRANCH  92  95
ENDBRANCH  65  88
ENDBRANCH  39  40
ENDBRANCH  32  34
ENDBRANCH  31  32
ENDBRANCH  30  31
ENDBRANCH  29  30
ENDBRANCH  28  29
ENDBRANCH   1  28
TORSDOF 23
ENDMDL
