MODEL 1
REMARK VINA RESULT:      -7.7      0.000      0.000
REMARK SMILES CCN(C(=O)N(CCOC)CC(=O)OCCOCCOCCOC(=O)c1ccc(-c2c3nc(c(-c4cccc(S(=O)(=O)[O-])c4F)c4ccc([nH]4)c(-c4cccc(S(=O)(=O)[O-])c4F)c4nc(c(-c5cccc(S(=O)(=O)[O-])c5F)c5ccc2[nH]5)C=C4)C=C3)cc1)C1CCCC1
REMARK SMILES IDX 18 1 17 2 16 3 15 4 14 5 12 6 13 7 11 8 6 9 4 10 5 11 3 12
REMARK SMILES IDX 2 13 1 14 89 15 90 16 93 17 91 18 92 19 7 20 8 21 9 22 10 23
REMARK SMILES IDX 19 24 20 25 21 26 22 27 23 28 24 29 25 30 26 31 27 32 88 33
REMARK SMILES IDX 28 34 87 35 29 36 30 37 31 38 81 39 32 40 86 41 80 42 82 43
REMARK SMILES IDX 33 44 85 45 79 46 78 47 34 49 66 50 46 51 65 52 47 53 50 54
REMARK SMILES IDX 64 55 83 56 48 57 49 58 63 60 84 61 51 62 35 63 36 64 44 65
REMARK SMILES IDX 37 66 39 67 45 68 38 69 40 70 41 71 42 72 43 73 67 74 68 75
REMARK SMILES IDX 76 76 69 77 71 78 77 79 70 80 72 81 73 82 74 83 75 84 52 85
REMARK SMILES IDX 53 86 61 87 54 88 56 89 62 90 55 91 57 92 58 93 59 94 60 95
REMARK H PARENT 82 48 50 59
REMARK Flexibility Score: inf
ROOT
ATOM      1  C   UNL A   1      42.165  19.340  26.494  1.00  0.00     0.188 C 
ENDROOT
BRANCH   1   2
ATOM      2  O   UNL A   1      41.488  20.581  26.346  1.00  0.00    -0.376 OA
BRANCH   2   3
ATOM      3  C   UNL A   1      40.141  20.561  25.902  1.00  0.00     0.202 C 
BRANCH   3   4
ATOM      4  C   UNL A   1      39.200  21.589  26.541  1.00  0.00     0.261 C 
BRANCH   4   5
ATOM      5  O   UNL A   1      38.170  22.095  25.648  1.00  0.00    -0.462 OA
BRANCH   5   6
ATOM      6  C   UNL A   1      37.779  23.385  25.851  1.00  0.00     0.325 C 
ATOM      7  O   UNL A   1      38.541  24.342  25.739  1.00  0.00    -0.250 OA
BRANCH   6   8
ATOM      8  C   UNL A   1      36.260  23.597  26.037  1.00  0.00     0.244 C 
BRANCH   8   9
ATOM      9  N   UNL A   1      35.143  23.000  25.229  1.00  0.00    -0.311 N 
BRANCH   9  10
ATOM     10  C   UNL A   1      34.513  21.884  25.784  1.00  0.00     0.320 C 
ATOM     11  O   UNL A   1      35.085  21.313  26.718  1.00  0.00    -0.248 OA
BRANCH  10  12
ATOM     12  N   UNL A   1      33.286  21.387  25.357  1.00  0.00    -0.322 N 
BRANCH  12  13
ATOM     13  C   UNL A   1      31.943  21.891  25.642  1.00  0.00     0.118 C 
ATOM     14  C   UNL A   1      31.640  23.159  24.849  1.00  0.00     0.027 C 
ENDBRANCH  12  13
BRANCH  12  15
ATOM     15  C   UNL A   1      33.239  20.090  24.624  1.00  0.00     0.087 C 
ATOM     16  C   UNL A   1      32.790  18.825  25.360  1.00  0.00     0.025 C 
ATOM     17  C   UNL A   1      32.383  20.105  23.363  1.00  0.00     0.025 C 
ATOM     18  C   UNL A   1      32.536  17.819  24.232  1.00  0.00     0.002 C 
ATOM     19  C   UNL A   1      32.291  18.634  22.964  1.00  0.00     0.002 C 
ENDBRANCH  12  15
ENDBRANCH  10  12
ENDBRANCH   9  10
BRANCH   9  20
ATOM     20  C   UNL A   1      35.217  23.332  23.799  1.00  0.00     0.150 C 
BRANCH  20  21
ATOM     21  C   UNL A   1      34.274  24.448  23.326  1.00  0.00     0.181 C 
BRANCH  21  22
ATOM     22  O   UNL A   1      33.755  24.122  22.033  1.00  0.00    -0.383 OA
ATOM     23  C   UNL A   1      32.971  25.154  21.462  1.00  0.00     0.194 C 
ENDBRANCH  21  22
ENDBRANCH  20  21
ENDBRANCH   9  20
ENDBRANCH   8   9
ENDBRANCH   6   8
ENDBRANCH   5   6
ENDBRANCH   4   5
ENDBRANCH   3   4
ENDBRANCH   2   3
ENDBRANCH   1   2
BRANCH   1  24
ATOM     24  C   UNL A   1      43.122  18.895  25.379  1.00  0.00     0.188 C 
BRANCH  24  25
ATOM     25  O   UNL A   1      44.313  18.278  25.847  1.00  0.00    -0.376 OA
BRANCH  25  26
ATOM     26  C   UNL A   1      45.487  18.997  25.485  1.00  0.00     0.202 C 
BRANCH  26  27
ATOM     27  C   UNL A   1      45.102  20.218  24.639  1.00  0.00     0.261 C 
BRANCH  27  28
ATOM     28  O   UNL A   1      45.274  21.461  25.358  1.00  0.00    -0.460 OA
BRANCH  28  29
ATOM     29  C   UNL A   1      44.427  22.457  25.000  1.00  0.00     0.338 C 
ATOM     30  O   UNL A   1      43.275  22.308  24.641  1.00  0.00    -0.246 OA
BRANCH  29  31
ATOM     31  C   UNL A   1      45.072  23.776  25.245  1.00  0.00     0.060 A 
ATOM     32  C   UNL A   1      44.390  24.962  24.946  1.00  0.00     0.016 A 
ATOM     33  C   UNL A   1      46.377  23.849  25.712  1.00  0.00     0.016 A 
ATOM     34  C   UNL A   1      44.979  26.216  25.109  1.00  0.00     0.010 A 
ATOM     35  C   UNL A   1      46.977  25.107  25.877  1.00  0.00     0.010 A 
ATOM     36  C   UNL A   1      46.290  26.300  25.573  1.00  0.00    -0.014 A 
BRANCH  36  37
ATOM     37  C   UNL A   1      46.983  27.609  25.689  1.00  0.00     0.031 A 
ATOM     38  C   UNL A   1      48.430  27.709  25.300  1.00  0.00     0.074 A 
ATOM     39  C   UNL A   1      46.357  28.687  26.195  1.00  0.00     0.049 A 
ATOM     40  N   UNL A   1      49.295  28.654  25.561  1.00  0.00    -0.248 NA
ATOM     41  C   UNL A   1      48.974  26.590  24.514  1.00  0.00     0.031 C 
ATOM     42  C   UNL A   1      44.939  28.763  26.543  1.00  0.00     0.029 A 
ATOM     43  N   UNL A   1      46.856  29.919  26.552  1.00  0.00    -0.354 N 
ATOM     44  C   UNL A   1      50.502  28.219  25.029  1.00  0.00     0.074 A 
ATOM     45  C   UNL A   1      50.251  26.934  24.410  1.00  0.00     0.031 C 
ATOM     46  C   UNL A   1      44.692  29.954  27.113  1.00  0.00     0.029 A 
ATOM     47  C   UNL A   1      45.944  30.700  27.223  1.00  0.00     0.049 A 
ATOM     48  H   UNL A   1      47.773  30.211  26.347  1.00  0.00     0.167 HD
ATOM     49  C   UNL A   1      51.709  28.834  25.057  1.00  0.00     0.034 A 
ATOM     50  C   UNL A   1      46.108  31.854  27.903  1.00  0.00     0.034 A 
ATOM     51  C   UNL A   1      51.950  30.126  25.643  1.00  0.00     0.049 A 
ATOM     52  C   UNL A   1      47.476  32.483  27.985  1.00  0.00     0.074 A 
ATOM     53  C   UNL A   1      53.137  30.839  25.690  1.00  0.00     0.029 A 
ATOM     54  N   UNL A   1      50.997  30.898  26.287  1.00  0.00    -0.354 N 
ATOM     55  N   UNL A   1      48.601  32.095  27.437  1.00  0.00    -0.248 NA
ATOM     56  C   UNL A   1      47.593  33.720  28.773  1.00  0.00     0.031 C 
ATOM     57  C   UNL A   1      52.906  32.028  26.391  1.00  0.00     0.029 A 
ATOM     58  C   UNL A   1      51.571  32.070  26.753  1.00  0.00     0.049 A 
ATOM     59  H   UNL A   1      50.051  30.649  26.398  1.00  0.00     0.167 HD
ATOM     60  C   UNL A   1      49.549  33.053  27.786  1.00  0.00     0.074 A 
ATOM     61  C   UNL A   1      48.861  34.053  28.575  1.00  0.00     0.031 C 
ATOM     62  C   UNL A   1      50.872  33.090  27.493  1.00  0.00     0.034 A 
BRANCH  49  63
ATOM     63  C   UNL A   1      52.873  28.112  24.433  1.00  0.00     0.023 A 
ATOM     64  C   UNL A   1      53.285  28.439  23.127  1.00  0.00     0.012 A 
ATOM     65  C   UNL A   1      53.595  27.149  25.168  1.00  0.00     0.148 A 
ATOM     66  C   UNL A   1      54.380  27.799  22.549  1.00  0.00     0.002 A 
ATOM     67  C   UNL A   1      54.711  26.546  24.600  1.00  0.00     0.091 A 
ATOM     68  F   UNL A   1      53.173  26.837  26.401  1.00  0.00    -0.205 F 
ATOM     69  C   UNL A   1      55.098  26.862  23.288  1.00  0.00     0.022 A 
BRANCH  67  70
ATOM     70  S   UNL A   1      55.744  25.383  25.498  1.00  0.00     0.127 S 
ATOM     71  O   UNL A   1      55.745  25.966  26.839  1.00  0.00    -0.237 OA
ATOM     72  O   UNL A   1      54.985  24.138  25.375  1.00  0.00    -0.237 OA
ATOM     73  O   UNL A   1      57.031  25.378  24.817  1.00  0.00    -0.744 OA
ENDBRANCH  67  70
ENDBRANCH  49  63
BRANCH  50  74
ATOM     74  C   UNL A   1      44.944  32.493  28.580  1.00  0.00     0.023 A 
ATOM     75  C   UNL A   1      44.484  31.970  29.804  1.00  0.00     0.012 A 
ATOM     76  C   UNL A   1      44.290  33.610  28.024  1.00  0.00     0.148 A 
ATOM     77  C   UNL A   1      43.380  32.530  30.449  1.00  0.00     0.002 A 
ATOM     78  C   UNL A   1      43.227  34.198  28.698  1.00  0.00     0.091 A 
ATOM     79  F   UNL A   1      44.725  34.079  26.844  1.00  0.00    -0.205 F 
ATOM     80  C   UNL A   1      42.760  33.650  29.902  1.00  0.00     0.022 A 
BRANCH  78  81
ATOM     81  S   UNL A   1      42.441  35.712  28.132  1.00  0.00     0.127 S 
ATOM     82  O   UNL A   1      42.276  35.448  26.705  1.00  0.00    -0.237 OA
ATOM     83  O   UNL A   1      41.200  35.714  28.906  1.00  0.00    -0.237 OA
ATOM     84  O   UNL A   1      43.364  36.786  28.472  1.00  0.00    -0.744 OA
ENDBRANCH  78  81
ENDBRANCH  50  74
BRANCH  62  85
ATOM     85  C   UNL A   1      51.675  34.266  27.993  1.00  0.00     0.023 A 
ATOM     86  C   UNL A   1      52.419  34.149  29.184  1.00  0.00     0.012 A 
ATOM     87  C   UNL A   1      51.754  35.459  27.245  1.00  0.00     0.148 A 
ATOM     88  C   UNL A   1      53.205  35.209  29.638  1.00  0.00     0.002 A 
ATOM     89  C   UNL A   1      52.577  36.493  27.678  1.00  0.00     0.091 A 
ATOM     90  F   UNL A   1      51.028  35.558  26.123  1.00  0.00    -0.205 F 
ATOM     91  C   UNL A   1      53.294  36.374  28.880  1.00  0.00     0.022 A 
BRANCH  89  92
ATOM     92  S   UNL A   1      52.829  37.996  26.725  1.00  0.00     0.127 S 
ATOM     93  O   UNL A   1      51.502  38.607  26.776  1.00  0.00    -0.237 OA
ATOM     94  O   UNL A   1      53.851  38.691  27.506  1.00  0.00    -0.237 OA
ATOM     95  O   UNL A   1      53.266  37.566  25.403  1.00  0.00    -0.744 OA
ENDBRANCH  89  92
ENDBRANCH  62  85
ENDBRANCH  36  37
ENDBRANCH  29  31
ENDBRANCH  28  29
ENDBRANCH  27  28
ENDBRANCH  26  27
ENDBRANCH  25  26
ENDBRANCH  24  25
ENDBRANCH   1  24
TORSDOF 28
ENDMDL
MODEL 2
REMARK VINA RESULT:      -7.5      6.202      9.693
REMARK SMILES CCN(C(=O)N(CCOC)CC(=O)OCCOCCOCCOC(=O)c1ccc(-c2c3nc(c(-c4cccc(S(=O)(=O)[O-])c4F)c4ccc([nH]4)c(-c4cccc(S(=O)(=O)[O-])c4F)c4nc(c(-c5cccc(S(=O)(=O)[O-])c5F)c5ccc2[nH]5)C=C4)C=C3)cc1)C1CCCC1
REMARK SMILES IDX 18 1 17 2 16 3 15 4 14 5 12 6 13 7 11 8 6 9 4 10 5 11 3 12
REMARK SMILES IDX 2 13 1 14 89 15 90 16 93 17 91 18 92 19 7 20 8 21 9 22 10 23
REMARK SMILES IDX 19 24 20 25 21 26 22 27 23 28 24 29 25 30 26 31 27 32 88 33
REMARK SMILES IDX 28 34 87 35 29 36 30 37 31 38 81 39 32 40 86 41 80 42 82 43
REMARK SMILES IDX 33 44 85 45 79 46 78 47 34 49 66 50 46 51 65 52 47 53 50 54
REMARK SMILES IDX 64 55 83 56 48 57 49 58 63 60 84 61 51 62 35 63 36 64 44 65
REMARK SMILES IDX 37 66 39 67 45 68 38 69 40 70 41 71 42 72 43 73 67 74 68 75
REMARK SMILES IDX 76 76 69 77 71 78 77 79 70 80 72 81 73 82 74 83 75 84 52 85
REMARK SMILES IDX 53 86 61 87 54 88 56 89 62 90 55 91 57 92 58 93 59 94 60 95
REMARK H PARENT 82 48 50 59
REMARK Flexibility Score: inf
ROOT
ATOM      1  C   UNL A   1      37.518  22.478  25.950  1.00  0.00     0.188 C 
ENDROOT
BRANCH   1   2
ATOM      2  O   UNL A   1      36.264  22.688  25.314  1.00  0.00    -0.376 OA
BRANCH   2   3
ATOM      3  C   UNL A   1      36.235  22.761  23.898  1.00  0.00     0.202 C 
BRANCH   3   4
ATOM      4  C   UNL A   1      34.987  23.398  23.276  1.00  0.00     0.261 C 
BRANCH   4   5
ATOM      5  O   UNL A   1      34.002  23.855  24.244  1.00  0.00    -0.462 OA
BRANCH   5   6
ATOM      6  C   UNL A   1      34.129  25.145  24.667  1.00  0.00     0.325 C 
ATOM      7  O   UNL A   1      34.775  25.463  25.663  1.00  0.00    -0.250 OA
BRANCH   6   8
ATOM      8  C   UNL A   1      33.576  26.218  23.704  1.00  0.00     0.244 C 
BRANCH   8   9
ATOM      9  N   UNL A   1      32.567  27.290  24.003  1.00  0.00    -0.311 N 
BRANCH   9  10
ATOM     10  C   UNL A   1      33.059  28.437  24.630  1.00  0.00     0.320 C 
ATOM     11  O   UNL A   1      33.281  29.423  23.921  1.00  0.00    -0.248 OA
BRANCH  10  12
ATOM     12  N   UNL A   1      33.301  28.537  25.997  1.00  0.00    -0.322 N 
BRANCH  12  13
ATOM     13  C   UNL A   1      32.745  27.739  27.088  1.00  0.00     0.118 C 
ATOM     14  C   UNL A   1      31.333  28.193  27.451  1.00  0.00     0.027 C 
ENDBRANCH  12  13
BRANCH  12  15
ATOM     15  C   UNL A   1      34.115  29.675  26.512  1.00  0.00     0.087 C 
ATOM     16  C   UNL A   1      33.415  30.854  27.194  1.00  0.00     0.025 C 
ATOM     17  C   UNL A   1      35.209  29.278  27.495  1.00  0.00     0.025 C 
ATOM     18  C   UNL A   1      34.559  31.609  27.878  1.00  0.00     0.002 C 
ATOM     19  C   UNL A   1      35.701  30.610  28.056  1.00  0.00     0.002 C 
ENDBRANCH  12  15
ENDBRANCH  10  12
ENDBRANCH   9  10
BRANCH   9  20
ATOM     20  C   UNL A   1      31.187  26.787  24.075  1.00  0.00     0.150 C 
BRANCH  20  21
ATOM     21  C   UNL A   1      30.337  26.999  22.812  1.00  0.00     0.181 C 
BRANCH  21  22
ATOM     22  O   UNL A   1      29.368  28.023  23.053  1.00  0.00    -0.383 OA
ATOM     23  C   UNL A   1      29.722  29.277  22.496  1.00  0.00     0.194 C 
ENDBRANCH  21  22
ENDBRANCH  20  21
ENDBRANCH   9  20
ENDBRANCH   8   9
ENDBRANCH   6   8
ENDBRANCH   5   6
ENDBRANCH   4   5
ENDBRANCH   3   4
ENDBRANCH   2   3
ENDBRANCH   1   2
BRANCH   1  24
ATOM     24  C   UNL A   1      38.467  21.427  25.360  1.00  0.00     0.188 C 
BRANCH  24  25
ATOM     25  O   UNL A   1      39.692  21.288  26.065  1.00  0.00    -0.376 OA
BRANCH  25  26
ATOM     26  C   UNL A   1      40.026  22.444  26.828  1.00  0.00     0.202 C 
BRANCH  26  27
ATOM     27  C   UNL A   1      41.434  22.919  26.451  1.00  0.00     0.261 C 
BRANCH  27  28
ATOM     28  O   UNL A   1      41.463  24.318  26.083  1.00  0.00    -0.460 OA
BRANCH  28  29
ATOM     29  C   UNL A   1      42.701  24.847  25.920  1.00  0.00     0.338 C 
ATOM     30  O   UNL A   1      43.425  24.667  24.960  1.00  0.00    -0.246 OA
BRANCH  29  31
ATOM     31  C   UNL A   1      42.988  25.796  27.029  1.00  0.00     0.060 A 
ATOM     32  C   UNL A   1      41.946  26.303  27.814  1.00  0.00     0.016 A 
ATOM     33  C   UNL A   1      44.283  26.241  27.262  1.00  0.00     0.016 A 
ATOM     34  C   UNL A   1      42.167  27.237  28.828  1.00  0.00     0.010 A 
ATOM     35  C   UNL A   1      44.514  27.181  28.279  1.00  0.00     0.010 A 
ATOM     36  C   UNL A   1      43.461  27.692  29.066  1.00  0.00    -0.014 A 
BRANCH  36  37
ATOM     37  C   UNL A   1      43.734  28.742  30.081  1.00  0.00     0.031 A 
ATOM     38  C   UNL A   1      43.896  28.346  31.520  1.00  0.00     0.074 A 
ATOM     39  C   UNL A   1      43.776  30.044  29.743  1.00  0.00     0.049 A 
ATOM     40  N   UNL A   1      43.873  29.092  32.593  1.00  0.00    -0.248 NA
ATOM     41  C   UNL A   1      44.108  26.913  31.784  1.00  0.00     0.031 C 
ATOM     42  C   UNL A   1      43.713  30.573  28.382  1.00  0.00     0.029 A 
ATOM     43  N   UNL A   1      43.831  31.166  30.537  1.00  0.00    -0.354 N 
ATOM     44  C   UNL A   1      44.003  28.218  33.665  1.00  0.00     0.074 A 
ATOM     45  C   UNL A   1      44.127  26.887  33.110  1.00  0.00     0.031 C 
ATOM     46  C   UNL A   1      43.678  31.915  28.436  1.00  0.00     0.029 A 
ATOM     47  C   UNL A   1      43.656  32.337  29.835  1.00  0.00     0.049 A 
ATOM     48  H   UNL A   1      43.980  31.135  31.510  1.00  0.00     0.167 HD
ATOM     49  C   UNL A   1      44.015  28.501  34.989  1.00  0.00     0.034 A 
ATOM     50  C   UNL A   1      43.440  33.596  30.268  1.00  0.00     0.034 A 
ATOM     51  C   UNL A   1      43.924  29.828  35.539  1.00  0.00     0.049 A 
ATOM     52  C   UNL A   1      43.382  33.877  31.748  1.00  0.00     0.074 A 
ATOM     53  C   UNL A   1      43.958  30.209  36.870  1.00  0.00     0.029 A 
ATOM     54  N   UNL A   1      43.776  30.988  34.796  1.00  0.00    -0.354 N 
ATOM     55  N   UNL A   1      43.558  33.057  32.755  1.00  0.00    -0.248 NA
ATOM     56  C   UNL A   1      43.106  35.265  32.152  1.00  0.00     0.031 C 
ATOM     57  C   UNL A   1      43.799  31.598  36.932  1.00  0.00     0.029 A 
ATOM     58  C   UNL A   1      43.698  32.085  35.640  1.00  0.00     0.049 A 
ATOM     59  H   UNL A   1      43.733  31.027  33.814  1.00  0.00     0.167 HD
ATOM     60  C   UNL A   1      43.445  33.831  33.906  1.00  0.00     0.074 A 
ATOM     61  C   UNL A   1      43.209  35.192  33.472  1.00  0.00     0.031 C 
ATOM     62  C   UNL A   1      43.516  33.446  35.204  1.00  0.00     0.034 A 
BRANCH  49  63
ATOM     63  C   UNL A   1      44.127  27.345  35.948  1.00  0.00     0.023 A 
ATOM     64  C   UNL A   1      42.964  26.702  36.412  1.00  0.00     0.012 A 
ATOM     65  C   UNL A   1      45.391  26.861  36.341  1.00  0.00     0.148 A 
ATOM     66  C   UNL A   1      43.055  25.612  37.277  1.00  0.00     0.002 A 
ATOM     67  C   UNL A   1      45.475  25.748  37.170  1.00  0.00     0.091 A 
ATOM     68  F   UNL A   1      46.485  27.501  35.904  1.00  0.00    -0.205 F 
ATOM     69  C   UNL A   1      44.308  25.130  37.646  1.00  0.00     0.022 A 
BRANCH  67  70
ATOM     70  S   UNL A   1      47.042  25.008  37.640  1.00  0.00     0.127 S 
ATOM     71  O   UNL A   1      47.567  25.999  38.577  1.00  0.00    -0.237 OA
ATOM     72  O   UNL A   1      46.616  23.751  38.256  1.00  0.00    -0.237 OA
ATOM     73  O   UNL A   1      47.799  24.852  36.406  1.00  0.00    -0.744 OA
ENDBRANCH  67  70
ENDBRANCH  49  63
BRANCH  50  74
ATOM     74  C   UNL A   1      43.247  34.700  29.284  1.00  0.00     0.023 A 
ATOM     75  C   UNL A   1      41.941  35.061  28.899  1.00  0.00     0.012 A 
ATOM     76  C   UNL A   1      44.341  35.392  28.729  1.00  0.00     0.148 A 
ATOM     77  C   UNL A   1      41.729  36.072  27.961  1.00  0.00     0.002 A 
ATOM     78  C   UNL A   1      44.122  36.436  27.838  1.00  0.00     0.091 A 
ATOM     79  F   UNL A   1      45.578  35.017  29.089  1.00  0.00    -0.205 F 
ATOM     80  C   UNL A   1      42.818  36.766  27.440  1.00  0.00     0.022 A 
BRANCH  78  81
ATOM     81  S   UNL A   1      45.453  37.464  27.206  1.00  0.00     0.127 S 
ATOM     82  O   UNL A   1      46.225  37.732  28.418  1.00  0.00    -0.237 OA
ATOM     83  O   UNL A   1      46.099  36.565  26.250  1.00  0.00    -0.237 OA
ATOM     84  O   UNL A   1      44.806  38.620  26.602  1.00  0.00    -0.744 OA
ENDBRANCH  78  81
ENDBRANCH  50  74
BRANCH  62  85
ATOM     85  C   UNL A   1      43.371  34.508  36.266  1.00  0.00     0.023 A 
ATOM     86  C   UNL A   1      44.485  35.289  36.632  1.00  0.00     0.012 A 
ATOM     87  C   UNL A   1      42.116  34.784  36.846  1.00  0.00     0.148 A 
ATOM     88  C   UNL A   1      44.361  36.308  37.577  1.00  0.00     0.002 A 
ATOM     89  C   UNL A   1      41.988  35.832  37.752  1.00  0.00     0.091 A 
ATOM     90  F   UNL A   1      41.070  34.022  36.499  1.00  0.00    -0.205 F 
ATOM     91  C   UNL A   1      43.112  36.587  38.127  1.00  0.00     0.022 A 
BRANCH  89  92
ATOM     92  S   UNL A   1      40.406  36.327  38.445  1.00  0.00     0.127 S 
ATOM     93  O   UNL A   1      39.681  36.762  37.253  1.00  0.00    -0.237 OA
ATOM     94  O   UNL A   1      39.920  35.078  39.032  1.00  0.00    -0.237 OA
ATOM     95  O   UNL A   1      40.700  37.376  39.412  1.00  0.00    -0.744 OA
ENDBRANCH  89  92
ENDBRANCH  62  85
ENDBRANCH  36  37
ENDBRANCH  29  31
ENDBRANCH  28  29
ENDBRANCH  27  28
ENDBRANCH  26  27
ENDBRANCH  25  26
ENDBRANCH  24  25
ENDBRANCH   1  24
TORSDOF 28
ENDMDL
MODEL 3
REMARK VINA RESULT:      -7.5      7.956     16.154
REMARK SMILES CCN(C(=O)N(CCOC)CC(=O)OCCOCCOCCOC(=O)c1ccc(-c2c3nc(c(-c4cccc(S(=O)(=O)[O-])c4F)c4ccc([nH]4)c(-c4cccc(S(=O)(=O)[O-])c4F)c4nc(c(-c5cccc(S(=O)(=O)[O-])c5F)c5ccc2[nH]5)C=C4)C=C3)cc1)C1CCCC1
REMARK SMILES IDX 18 1 17 2 16 3 15 4 14 5 12 6 13 7 11 8 6 9 4 10 5 11 3 12
REMARK SMILES IDX 2 13 1 14 89 15 90 16 93 17 91 18 92 19 7 20 8 21 9 22 10 23
REMARK SMILES IDX 19 24 20 25 21 26 22 27 23 28 24 29 25 30 26 31 27 32 88 33
REMARK SMILES IDX 28 34 87 35 29 36 30 37 31 38 81 39 32 40 86 41 80 42 82 43
REMARK SMILES IDX 33 44 85 45 79 46 78 47 34 49 66 50 46 51 65 52 47 53 50 54
REMARK SMILES IDX 64 55 83 56 48 57 49 58 63 60 84 61 51 62 35 63 36 64 44 65
REMARK SMILES IDX 37 66 39 67 45 68 38 69 40 70 41 71 42 72 43 73 67 74 68 75
REMARK SMILES IDX 76 76 69 77 71 78 77 79 70 80 72 81 73 82 74 83 75 84 52 85
REMARK SMILES IDX 53 86 61 87 54 88 56 89 62 90 55 91 57 92 58 93 59 94 60 95
REMARK H PARENT 82 48 50 59
REMARK Flexibility Score: inf
ROOT
ATOM      1  C   UNL A   1      47.150  42.628  25.546  1.00  0.00     0.188 C 
ENDROOT
BRANCH   1   2
ATOM      2  O   UNL A   1      47.554  43.856  24.957  1.00  0.00    -0.376 OA
BRANCH   2   3
ATOM      3  C   UNL A   1      46.718  44.430  23.965  1.00  0.00     0.202 C 
BRANCH   3   4
ATOM      4  C   UNL A   1      47.304  44.516  22.550  1.00  0.00     0.261 C 
BRANCH   4   5
ATOM      5  O   UNL A   1      47.263  43.266  21.808  1.00  0.00    -0.462 OA
BRANCH   5   6
ATOM      6  C   UNL A   1      46.142  43.045  21.063  1.00  0.00     0.325 C 
ATOM      7  O   UNL A   1      45.096  42.615  21.541  1.00  0.00    -0.250 OA
BRANCH   6   8
ATOM      8  C   UNL A   1      46.199  43.560  19.608  1.00  0.00     0.244 C 
BRANCH   8   9
ATOM      9  N   UNL A   1      45.141  44.321  18.861  1.00  0.00    -0.311 N 
BRANCH   9  10
ATOM     10  C   UNL A   1      45.183  45.711  18.984  1.00  0.00     0.320 C 
ATOM     11  O   UNL A   1      44.924  46.193  20.092  1.00  0.00    -0.248 OA
BRANCH  10  12
ATOM     12  N   UNL A   1      45.508  46.579  17.946  1.00  0.00    -0.322 N 
BRANCH  12  13
ATOM     13  C   UNL A   1      46.822  47.077  17.544  1.00  0.00     0.118 C 
ATOM     14  C   UNL A   1      47.540  46.090  16.627  1.00  0.00     0.027 C 
ENDBRANCH  12  13
BRANCH  12  15
ATOM     15  C   UNL A   1      44.414  47.243  17.182  1.00  0.00     0.087 C 
ATOM     16  C   UNL A   1      43.141  46.459  16.852  1.00  0.00     0.025 C 
ATOM     17  C   UNL A   1      43.899  48.534  17.805  1.00  0.00     0.025 C 
ATOM     18  C   UNL A   1      42.154  47.541  16.401  1.00  0.00     0.002 C 
ATOM     19  C   UNL A   1      42.645  48.859  16.998  1.00  0.00     0.002 C 
ENDBRANCH  12  15
ENDBRANCH  10  12
ENDBRANCH   9  10
BRANCH   9  20
ATOM     20  C   UNL A   1      43.952  43.514  18.552  1.00  0.00     0.150 C 
BRANCH  20  21
ATOM     21  C   UNL A   1      42.675  43.893  19.317  1.00  0.00     0.181 C 
BRANCH  21  22
ATOM     22  O   UNL A   1      41.527  43.494  18.563  1.00  0.00    -0.383 OA
ATOM     23  C   UNL A   1      40.499  44.468  18.541  1.00  0.00     0.194 C 
ENDBRANCH  21  22
ENDBRANCH  20  21
ENDBRANCH   9  20
ENDBRANCH   8   9
ENDBRANCH   6   8
ENDBRANCH   5   6
ENDBRANCH   4   5
ENDBRANCH   3   4
ENDBRANCH   2   3
ENDBRANCH   1   2
BRANCH   1  24
ATOM     24  C   UNL A   1      46.684  41.495  24.622  1.00  0.00     0.188 C 
BRANCH  24  25
ATOM     25  O   UNL A   1      45.392  40.989  24.928  1.00  0.00    -0.376 OA
BRANCH  25  26
ATOM     26  C   UNL A   1      44.471  42.010  25.297  1.00  0.00     0.202 C 
BRANCH  26  27
ATOM     27  C   UNL A   1      43.044  41.447  25.278  1.00  0.00     0.261 C 
BRANCH  27  28
ATOM     28  O   UNL A   1      42.413  41.503  26.579  1.00  0.00    -0.460 OA
BRANCH  28  29
ATOM     29  C   UNL A   1      41.414  40.607  26.775  1.00  0.00     0.338 C 
ATOM     30  O   UNL A   1      40.247  40.776  26.479  1.00  0.00    -0.246 OA
BRANCH  29  31
ATOM     31  C   UNL A   1      41.981  39.328  27.280  1.00  0.00     0.060 A 
ATOM     32  C   UNL A   1      42.609  39.278  28.531  1.00  0.00     0.016 A 
ATOM     33  C   UNL A   1      41.952  38.182  26.497  1.00  0.00     0.016 A 
ATOM     34  C   UNL A   1      43.201  38.112  29.018  1.00  0.00     0.010 A 
ATOM     35  C   UNL A   1      42.547  37.005  26.978  1.00  0.00     0.010 A 
ATOM     36  C   UNL A   1      43.181  36.959  28.237  1.00  0.00    -0.014 A 
BRANCH  36  37
ATOM     37  C   UNL A   1      43.865  35.717  28.679  1.00  0.00     0.031 A 
ATOM     38  C   UNL A   1      45.282  35.466  28.250  1.00  0.00     0.074 A 
ATOM     39  C   UNL A   1      43.218  34.786  29.405  1.00  0.00     0.049 A 
ATOM     40  N   UNL A   1      45.976  34.359  28.288  1.00  0.00    -0.248 NA
ATOM     41  C   UNL A   1      46.011  36.620  27.699  1.00  0.00     0.031 C 
ATOM     42  C   UNL A   1      41.872  34.922  29.959  1.00  0.00     0.029 A 
ATOM     43  N   UNL A   1      43.598  33.511  29.756  1.00  0.00    -0.354 N 
ATOM     44  C   UNL A   1      47.201  34.661  27.709  1.00  0.00     0.074 A 
ATOM     45  C   UNL A   1      47.163  36.063  27.349  1.00  0.00     0.031 C 
ATOM     46  C   UNL A   1      41.516  33.761  30.533  1.00  0.00     0.029 A 
ATOM     47  C   UNL A   1      42.584  32.782  30.335  1.00  0.00     0.049 A 
ATOM     48  H   UNL A   1      44.504  33.156  29.609  1.00  0.00     0.167 HD
ATOM     49  C   UNL A   1      48.260  33.844  27.495  1.00  0.00     0.034 A 
ATOM     50  C   UNL A   1      42.499  31.466  30.616  1.00  0.00     0.034 A 
ATOM     51  C   UNL A   1      48.310  32.459  27.883  1.00  0.00     0.049 A 
ATOM     52  C   UNL A   1      43.662  30.559  30.301  1.00  0.00     0.074 A 
ATOM     53  C   UNL A   1      49.355  31.562  27.731  1.00  0.00     0.029 A 
ATOM     54  N   UNL A   1      47.276  31.765  28.490  1.00  0.00    -0.354 N 
ATOM     55  N   UNL A   1      44.836  30.860  29.803  1.00  0.00    -0.248 NA
ATOM     56  C   UNL A   1      43.490  29.128  30.599  1.00  0.00     0.031 C 
ATOM     57  C   UNL A   1      48.939  30.318  28.220  1.00  0.00     0.029 A 
ATOM     58  C   UNL A   1      47.649  30.448  28.704  1.00  0.00     0.049 A 
ATOM     59  H   UNL A   1      46.404  32.152  28.735  1.00  0.00     0.167 HD
ATOM     60  C   UNL A   1      45.551  29.666  29.758  1.00  0.00     0.074 A 
ATOM     61  C   UNL A   1      44.686  28.640  30.300  1.00  0.00     0.031 C 
ATOM     62  C   UNL A   1      46.805  29.440  29.293  1.00  0.00     0.034 A 
BRANCH  49  63
ATOM     63  C   UNL A   1      49.463  34.428  26.802  1.00  0.00     0.023 A 
ATOM     64  C   UNL A   1      49.502  34.490  25.396  1.00  0.00     0.012 A 
ATOM     65  C   UNL A   1      50.529  34.967  27.550  1.00  0.00     0.148 A 
ATOM     66  C   UNL A   1      50.597  35.053  24.742  1.00  0.00     0.002 A 
ATOM     67  C   UNL A   1      51.597  35.565  26.892  1.00  0.00     0.091 A 
ATOM     68  F   UNL A   1      50.482  34.878  28.887  1.00  0.00    -0.205 F 
ATOM     69  C   UNL A   1      51.637  35.600  25.490  1.00  0.00     0.022 A 
BRANCH  67  70
ATOM     70  S   UNL A   1      52.947  36.363  27.768  1.00  0.00     0.127 S 
ATOM     71  O   UNL A   1      53.555  35.231  28.466  1.00  0.00    -0.237 OA
ATOM     72  O   UNL A   1      53.749  36.904  26.670  1.00  0.00    -0.237 OA
ATOM     73  O   UNL A   1      52.334  37.369  28.623  1.00  0.00    -0.744 OA
ENDBRANCH  67  70
ENDBRANCH  49  63
BRANCH  50  74
ATOM     74  C   UNL A   1      41.256  30.912  31.224  1.00  0.00     0.023 A 
ATOM     75  C   UNL A   1      41.134  30.863  32.626  1.00  0.00     0.012 A 
ATOM     76  C   UNL A   1      40.197  30.433  30.427  1.00  0.00     0.148 A 
ATOM     77  C   UNL A   1      39.993  30.326  33.224  1.00  0.00     0.002 A 
ATOM     78  C   UNL A   1      39.040  29.951  31.028  1.00  0.00     0.091 A 
ATOM     79  F   UNL A   1      40.341  30.462  29.094  1.00  0.00    -0.205 F 
ATOM     80  C   UNL A   1      38.943  29.881  32.426  1.00  0.00     0.022 A 
BRANCH  78  81
ATOM     81  S   UNL A   1      37.590  29.465  30.085  1.00  0.00     0.127 S 
ATOM     82  O   UNL A   1      36.686  29.009  31.139  1.00  0.00    -0.237 OA
ATOM     83  O   UNL A   1      37.209  30.726  29.449  1.00  0.00    -0.237 OA
ATOM     84  O   UNL A   1      38.048  28.439  29.158  1.00  0.00    -0.744 OA
ENDBRANCH  78  81
ENDBRANCH  50  74
BRANCH  62  85
ATOM     85  C   UNL A   1      47.346  28.034  29.375  1.00  0.00     0.023 A 
ATOM     86  C   UNL A   1      47.134  27.138  28.308  1.00  0.00     0.012 A 
ATOM     87  C   UNL A   1      48.131  27.623  30.473  1.00  0.00     0.148 A 
ATOM     88  C   UNL A   1      47.667  25.849  28.344  1.00  0.00     0.002 A 
ATOM     89  C   UNL A   1      48.700  26.354  30.480  1.00  0.00     0.091 A 
ATOM     90  F   UNL A   1      48.310  28.482  31.486  1.00  0.00    -0.205 F 
ATOM     91  C   UNL A   1      48.459  25.462  29.422  1.00  0.00     0.022 A 
BRANCH  89  92
ATOM     92  S   UNL A   1      49.808  25.796  31.781  1.00  0.00     0.127 S 
ATOM     93  O   UNL A   1      50.792  26.875  31.817  1.00  0.00    -0.237 OA
ATOM     94  O   UNL A   1      48.920  25.741  32.942  1.00  0.00    -0.237 OA
ATOM     95  O   UNL A   1      50.318  24.502  31.347  1.00  0.00    -0.744 OA
ENDBRANCH  89  92
ENDBRANCH  62  85
ENDBRANCH  36  37
ENDBRANCH  29  31
ENDBRANCH  28  29
ENDBRANCH  27  28
ENDBRANCH  26  27
ENDBRANCH  25  26
ENDBRANCH  24  25
ENDBRANCH   1  24
TORSDOF 28
ENDMDL
