MODEL 1
REMARK VINA RESULT:     -11.0      0.000      0.000
REMARK SMILES CCn1ncc(-c2cc(C(F)(F)F)nc(-n3ccc(C(=O)OCCOCCOCCOC(=O)c4ccc(-c5c6nc(c(-c7cccc(S(=O)(=O)[O-])c7F)c7ccc([nH]7)c(-c7cccc(S(=O)(=O)[O-])c7F)c7nc(c(-c8cccc(S(=O)(=O)[O-])c8F)c8ccc5[nH]8)C=C7)C=C6)cc4)n3)n2)c1C
REMARK SMILES IDX 26 1 25 2 24 3 23 4 22 5 20 6 21 7 19 8 16 9 17 10 97 11
REMARK SMILES IDX 18 12 15 13 7 14 8 15 98 16 9 17 14 18 6 19 3 20 4 21 99 22
REMARK SMILES IDX 5 23 100 24 2 25 1 26 10 27 11 28 12 29 13 30 27 31 28 32
REMARK SMILES IDX 29 33 30 34 31 35 32 36 33 37 34 38 35 39 96 40 36 41 95 42
REMARK SMILES IDX 37 43 38 44 39 45 89 46 40 47 94 48 88 49 90 50 41 51 93 52
REMARK SMILES IDX 87 53 86 54 42 56 74 57 54 58 73 59 55 60 58 61 72 62 91 63
REMARK SMILES IDX 56 64 57 65 71 67 92 68 59 69 43 70 44 71 52 72 45 73 47 74
REMARK SMILES IDX 53 75 46 76 48 77 49 78 50 79 51 80 75 81 76 82 84 83 77 84
REMARK SMILES IDX 79 85 85 86 78 87 80 88 81 89 82 90 83 91 60 92 61 93 69 94
REMARK SMILES IDX 62 95 64 96 70 97 63 98 65 99 66 100 67 101 68 102
REMARK H PARENT 90 55 58 66
REMARK Flexibility Score: inf
ROOT
ATOM      1  C   UNL A   1      38.739  23.066  26.517  1.00  0.00     0.188 C 
ENDROOT
BRANCH   1   2
ATOM      2  O   UNL A   1      37.691  23.488  25.661  1.00  0.00    -0.376 OA
BRANCH   2   3
ATOM      3  C   UNL A   1      36.335  23.339  26.053  1.00  0.00     0.202 C 
BRANCH   3   4
ATOM      4  C   UNL A   1      35.620  21.969  26.023  1.00  0.00     0.261 C 
BRANCH   4   5
ATOM      5  O   UNL A   1      34.208  21.983  25.770  1.00  0.00    -0.458 OA
BRANCH   5   6
ATOM      6  C   UNL A   1      33.386  22.293  26.814  1.00  0.00     0.358 C 
ATOM      7  O   UNL A   1      33.548  21.909  27.971  1.00  0.00    -0.244 OA
BRANCH   6   8
ATOM      8  C   UNL A   1      32.400  23.323  26.449  1.00  0.00     0.170 A 
ATOM      9  N   UNL A   1      31.540  25.255  26.058  1.00  0.00    -0.205 N 
ATOM     10  C   UNL A   1      30.473  24.426  26.323  1.00  0.00     0.119 A 
ATOM     11  N   UNL A   1      32.730  24.585  26.127  1.00  0.00    -0.158 NA
ATOM     12  C   UNL A   1      30.987  23.162  26.476  1.00  0.00     0.058 A 
BRANCH   9  13
ATOM     13  C   UNL A   1      31.461  26.636  25.682  1.00  0.00     0.251 A 
ATOM     14  C   UNL A   1      32.210  28.773  26.007  1.00  0.00     0.080 A 
ATOM     15  C   UNL A   1      31.518  29.238  24.914  1.00  0.00     0.062 A 
ATOM     16  N   UNL A   1      32.144  27.508  26.439  1.00  0.00    -0.211 NA
ATOM     17  C   UNL A   1      30.796  28.295  24.201  1.00  0.00     0.150 A 
ATOM     18  N   UNL A   1      30.811  26.975  24.544  1.00  0.00    -0.207 NA
BRANCH  14  19
ATOM     19  C   UNL A   1      33.185  29.596  26.682  1.00  0.00     0.041 A 
ATOM     20  N   UNL A   1      34.111  31.320  27.672  1.00  0.00    -0.269 N 
ATOM     21  N   UNL A   1      35.045  30.349  27.758  1.00  0.00    -0.181 NA
ATOM     22  C   UNL A   1      32.955  30.913  27.053  1.00  0.00     0.045 A 
ATOM     23  C   UNL A   1      34.486  29.311  27.130  1.00  0.00     0.145 A 
ATOM     24  C   UNL A   1      31.748  31.767  26.870  1.00  0.00     0.067 C 
BRANCH  20  25
ATOM     25  C   UNL A   1      34.408  32.629  28.226  1.00  0.00     0.141 C 
ATOM     26  C   UNL A   1      34.654  32.580  29.725  1.00  0.00     0.029 C 
ENDBRANCH  20  25
ENDBRANCH  14  19
BRANCH  17  27
ATOM     27  C   UNL A   1      29.972  28.745  23.000  1.00  0.00     0.433 C 
ATOM     28  F   UNL A   1      28.674  29.014  23.310  1.00  0.00    -0.165 F 
ATOM     29  F   UNL A   1      30.469  29.866  22.408  1.00  0.00    -0.165 F 
ATOM     30  F   UNL A   1      29.921  27.805  22.009  1.00  0.00    -0.165 F 
ENDBRANCH  17  27
ENDBRANCH   9  13
ENDBRANCH   6   8
ENDBRANCH   5   6
ENDBRANCH   4   5
ENDBRANCH   3   4
ENDBRANCH   2   3
ENDBRANCH   1   2
BRANCH   1  31
ATOM     31  C   UNL A   1      39.650  21.869  26.150  1.00  0.00     0.188 C 
BRANCH  31  32
ATOM     32  O   UNL A   1      40.630  21.540  27.110  1.00  0.00    -0.376 OA
BRANCH  32  33
ATOM     33  C   UNL A   1      41.194  20.242  27.201  1.00  0.00     0.202 C 
BRANCH  33  34
ATOM     34  C   UNL A   1      42.072  19.610  26.122  1.00  0.00     0.261 C 
BRANCH  34  35
ATOM     35  O   UNL A   1      43.415  20.029  26.123  1.00  0.00    -0.460 OA
BRANCH  35  36
ATOM     36  C   UNL A   1      43.942  20.166  24.892  1.00  0.00     0.338 C 
ATOM     37  O   UNL A   1      44.036  19.302  24.032  1.00  0.00    -0.246 OA
BRANCH  36  38
ATOM     38  C   UNL A   1      44.473  21.523  24.763  1.00  0.00     0.060 A 
ATOM     39  C   UNL A   1      45.656  21.753  25.464  1.00  0.00     0.016 A 
ATOM     40  C   UNL A   1      43.562  22.538  24.441  1.00  0.00     0.016 A 
ATOM     41  C   UNL A   1      45.735  22.922  26.169  1.00  0.00     0.010 A 
ATOM     42  C   UNL A   1      43.629  23.693  25.166  1.00  0.00     0.010 A 
ATOM     43  C   UNL A   1      44.651  23.803  26.103  1.00  0.00    -0.014 A 
BRANCH  43  44
ATOM     44  C   UNL A   1      44.650  24.912  27.020  1.00  0.00     0.031 A 
ATOM     45  C   UNL A   1      45.822  25.778  26.808  1.00  0.00     0.074 A 
ATOM     46  C   UNL A   1      43.645  25.112  27.890  1.00  0.00     0.049 A 
ATOM     47  N   UNL A   1      46.855  25.896  27.571  1.00  0.00    -0.248 NA
ATOM     48  C   UNL A   1      45.975  26.382  25.475  1.00  0.00     0.031 C 
ATOM     49  C   UNL A   1      42.341  24.442  27.941  1.00  0.00     0.029 A 
ATOM     50  N   UNL A   1      43.526  26.085  28.828  1.00  0.00    -0.354 N 
ATOM     51  C   UNL A   1      47.662  26.819  26.918  1.00  0.00     0.074 A 
ATOM     52  C   UNL A   1      47.216  26.859  25.553  1.00  0.00     0.031 C 
ATOM     53  C   UNL A   1      41.486  25.205  28.660  1.00  0.00     0.029 A 
ATOM     54  C   UNL A   1      42.213  26.337  29.208  1.00  0.00     0.049 A 
ATOM     55  H   UNL A   1      44.298  26.566  29.204  1.00  0.00     0.167 HD
ATOM     56  C   UNL A   1      48.393  27.718  27.625  1.00  0.00     0.034 A 
ATOM     57  C   UNL A   1      41.769  27.465  29.818  1.00  0.00     0.034 A 
ATOM     58  C   UNL A   1      48.555  27.304  28.996  1.00  0.00     0.049 A 
ATOM     59  C   UNL A   1      42.952  28.144  30.405  1.00  0.00     0.074 A 
ATOM     60  C   UNL A   1      49.074  26.186  29.620  1.00  0.00     0.029 A 
ATOM     61  N   UNL A   1      47.766  27.931  29.931  1.00  0.00    -0.354 N 
ATOM     62  N   UNL A   1      43.648  27.650  31.390  1.00  0.00    -0.248 NA
ATOM     63  C   UNL A   1      43.635  29.141  29.595  1.00  0.00     0.031 C 
ATOM     64  C   UNL A   1      48.218  25.954  30.734  1.00  0.00     0.029 A 
ATOM     65  C   UNL A   1      47.263  26.972  30.769  1.00  0.00     0.049 A 
ATOM     66  H   UNL A   1      47.594  28.898  29.989  1.00  0.00     0.167 HD
ATOM     67  C   UNL A   1      44.969  27.913  31.045  1.00  0.00     0.074 A 
ATOM     68  C   UNL A   1      44.893  28.924  29.992  1.00  0.00     0.031 C 
ATOM     69  C   UNL A   1      45.976  27.072  31.425  1.00  0.00     0.034 A 
BRANCH  56  70
ATOM     70  C   UNL A   1      48.585  29.155  27.199  1.00  0.00     0.023 A 
ATOM     71  C   UNL A   1      49.898  29.665  27.255  1.00  0.00     0.012 A 
ATOM     72  C   UNL A   1      47.541  30.096  27.021  1.00  0.00     0.148 A 
ATOM     73  C   UNL A   1      50.152  31.039  27.202  1.00  0.00     0.002 A 
ATOM     74  C   UNL A   1      47.805  31.451  26.882  1.00  0.00     0.091 A 
ATOM     75  F   UNL A   1      46.264  29.723  27.126  1.00  0.00    -0.205 F 
ATOM     76  C   UNL A   1      49.106  31.933  27.008  1.00  0.00     0.022 A 
BRANCH  74  77
ATOM     77  S   UNL A   1      46.486  32.635  26.582  1.00  0.00     0.127 S 
ATOM     78  O   UNL A   1      45.968  32.842  27.931  1.00  0.00    -0.237 OA
ATOM     79  O   UNL A   1      47.223  33.766  26.019  1.00  0.00    -0.237 OA
ATOM     80  O   UNL A   1      45.582  31.987  25.640  1.00  0.00    -0.744 OA
ENDBRANCH  74  77
ENDBRANCH  56  70
BRANCH  57  81
ATOM     81  C   UNL A   1      40.472  28.163  29.652  1.00  0.00     0.023 A 
ATOM     82  C   UNL A   1      39.857  28.199  28.384  1.00  0.00     0.012 A 
ATOM     83  C   UNL A   1      39.704  28.553  30.772  1.00  0.00     0.148 A 
ATOM     84  C   UNL A   1      38.517  28.582  28.241  1.00  0.00     0.002 A 
ATOM     85  C   UNL A   1      38.377  28.945  30.625  1.00  0.00     0.091 A 
ATOM     86  F   UNL A   1      40.243  28.449  31.994  1.00  0.00    -0.205 F 
ATOM     87  C   UNL A   1      37.775  28.950  29.361  1.00  0.00     0.022 A 
BRANCH  85  88
ATOM     88  S   UNL A   1      37.355  29.412  32.029  1.00  0.00     0.127 S 
ATOM     89  O   UNL A   1      37.408  28.206  32.855  1.00  0.00    -0.237 OA
ATOM     90  O   UNL A   1      38.085  30.556  32.568  1.00  0.00    -0.237 OA
ATOM     91  O   UNL A   1      36.035  29.704  31.483  1.00  0.00    -0.744 OA
ENDBRANCH  85  88
ENDBRANCH  57  81
BRANCH  69  92
ATOM     92  C   UNL A   1      45.659  25.995  32.431  1.00  0.00     0.023 A 
ATOM     93  C   UNL A   1      44.982  24.805  32.082  1.00  0.00     0.012 A 
ATOM     94  C   UNL A   1      46.212  26.107  33.716  1.00  0.00     0.148 A 
ATOM     95  C   UNL A   1      44.845  23.763  33.004  1.00  0.00     0.002 A 
ATOM     96  C   UNL A   1      46.115  25.051  34.613  1.00  0.00     0.091 A 
ATOM     97  F   UNL A   1      46.857  27.241  34.030  1.00  0.00    -0.205 F 
ATOM     98  C   UNL A   1      45.423  23.881  34.265  1.00  0.00     0.022 A 
BRANCH  96  99
ATOM     99  S   UNL A   1      46.949  25.094  36.200  1.00  0.00     0.127 S 
ATOM    100  O   UNL A   1      46.641  23.773  36.742  1.00  0.00    -0.237 OA
ATOM    101  O   UNL A   1      48.348  25.288  35.817  1.00  0.00    -0.237 OA
ATOM    102  O   UNL A   1      46.372  26.219  36.927  1.00  0.00    -0.744 OA
ENDBRANCH  96  99
ENDBRANCH  69  92
ENDBRANCH  43  44
ENDBRANCH  36  38
ENDBRANCH  35  36
ENDBRANCH  34  35
ENDBRANCH  33  34
ENDBRANCH  32  33
ENDBRANCH  31  32
ENDBRANCH   1  31
TORSDOF 24
ENDMDL
MODEL 2
REMARK VINA RESULT:      -9.3      3.299      8.390
REMARK SMILES CCn1ncc(-c2cc(C(F)(F)F)nc(-n3ccc(C(=O)OCCOCCOCCOC(=O)c4ccc(-c5c6nc(c(-c7cccc(S(=O)(=O)[O-])c7F)c7ccc([nH]7)c(-c7cccc(S(=O)(=O)[O-])c7F)c7nc(c(-c8cccc(S(=O)(=O)[O-])c8F)c8ccc5[nH]8)C=C7)C=C6)cc4)n3)n2)c1C
REMARK SMILES IDX 26 1 25 2 24 3 23 4 22 5 20 6 21 7 19 8 16 9 17 10 97 11
REMARK SMILES IDX 18 12 15 13 7 14 8 15 98 16 9 17 14 18 6 19 3 20 4 21 99 22
REMARK SMILES IDX 5 23 100 24 2 25 1 26 10 27 11 28 12 29 13 30 27 31 28 32
REMARK SMILES IDX 29 33 30 34 31 35 32 36 33 37 34 38 35 39 96 40 36 41 95 42
REMARK SMILES IDX 37 43 38 44 39 45 89 46 40 47 94 48 88 49 90 50 41 51 93 52
REMARK SMILES IDX 87 53 86 54 42 56 74 57 54 58 73 59 55 60 58 61 72 62 91 63
REMARK SMILES IDX 56 64 57 65 71 67 92 68 59 69 43 70 44 71 52 72 45 73 47 74
REMARK SMILES IDX 53 75 46 76 48 77 49 78 50 79 51 80 75 81 76 82 84 83 77 84
REMARK SMILES IDX 79 85 85 86 78 87 80 88 81 89 82 90 83 91 60 92 61 93 69 94
REMARK SMILES IDX 62 95 64 96 70 97 63 98 65 99 66 100 67 101 68 102
REMARK H PARENT 90 55 58 66
REMARK Flexibility Score: inf
ROOT
ATOM      1  C   UNL A   1      34.548  32.712  32.009  1.00  0.00     0.188 C 
ENDROOT
BRANCH   1   2
ATOM      2  O   UNL A   1      34.296  32.756  30.615  1.00  0.00    -0.376 OA
BRANCH   2   3
ATOM      3  C   UNL A   1      35.306  33.179  29.712  1.00  0.00     0.202 C 
BRANCH   3   4
ATOM      4  C   UNL A   1      36.188  32.171  28.940  1.00  0.00     0.261 C 
BRANCH   4   5
ATOM      5  O   UNL A   1      35.690  31.714  27.674  1.00  0.00    -0.458 OA
BRANCH   5   6
ATOM      6  C   UNL A   1      35.161  30.456  27.624  1.00  0.00     0.358 C 
ATOM      7  O   UNL A   1      35.667  29.464  28.145  1.00  0.00    -0.244 OA
BRANCH   6   8
ATOM      8  C   UNL A   1      33.801  30.455  27.064  1.00  0.00     0.170 A 
ATOM      9  N   UNL A   1      32.164  30.073  25.722  1.00  0.00    -0.205 N 
ATOM     10  C   UNL A   1      31.783  31.171  26.461  1.00  0.00     0.119 A 
ATOM     11  N   UNL A   1      33.401  29.621  26.088  1.00  0.00    -0.158 NA
ATOM     12  C   UNL A   1      32.768  31.374  27.396  1.00  0.00     0.058 A 
BRANCH   9  13
ATOM     13  C   UNL A   1      31.370  29.407  24.732  1.00  0.00     0.251 A 
ATOM     14  C   UNL A   1      30.877  27.457  23.641  1.00  0.00     0.080 A 
ATOM     15  C   UNL A   1      29.792  28.022  23.013  1.00  0.00     0.062 A 
ATOM     16  N   UNL A   1      31.703  28.140  24.443  1.00  0.00    -0.211 NA
ATOM     17  C   UNL A   1      29.528  29.347  23.320  1.00  0.00     0.150 A 
ATOM     18  N   UNL A   1      30.280  30.032  24.229  1.00  0.00    -0.207 NA
BRANCH  14  19
ATOM     19  C   UNL A   1      31.111  26.033  23.597  1.00  0.00     0.041 A 
ATOM     20  N   UNL A   1      32.130  24.109  23.338  1.00  0.00    -0.269 N 
ATOM     21  N   UNL A   1      30.898  23.774  23.778  1.00  0.00    -0.181 NA
ATOM     22  C   UNL A   1      32.323  25.465  23.234  1.00  0.00     0.045 A 
ATOM     23  C   UNL A   1      30.274  24.947  23.907  1.00  0.00     0.145 A 
ATOM     24  C   UNL A   1      33.602  26.108  22.822  1.00  0.00     0.067 C 
BRANCH  20  25
ATOM     25  C   UNL A   1      33.080  23.051  23.045  1.00  0.00     0.141 C 
ATOM     26  C   UNL A   1      32.425  21.854  22.376  1.00  0.00     0.029 C 
ENDBRANCH  20  25
ENDBRANCH  14  19
BRANCH  17  27
ATOM     27  C   UNL A   1      28.365  30.049  22.631  1.00  0.00     0.433 C 
ATOM     28  F   UNL A   1      28.561  30.227  21.295  1.00  0.00    -0.165 F 
ATOM     29  F   UNL A   1      27.187  29.379  22.764  1.00  0.00    -0.165 F 
ATOM     30  F   UNL A   1      28.128  31.300  23.131  1.00  0.00    -0.165 F 
ENDBRANCH  17  27
ENDBRANCH   9  13
ENDBRANCH   6   8
ENDBRANCH   5   6
ENDBRANCH   4   5
ENDBRANCH   3   4
ENDBRANCH   2   3
ENDBRANCH   1   2
BRANCH   1  31
ATOM     31  C   UNL A   1      35.809  33.368  32.624  1.00  0.00     0.188 C 
BRANCH  31  32
ATOM     32  O   UNL A   1      36.586  32.527  33.447  1.00  0.00    -0.376 OA
BRANCH  32  33
ATOM     33  C   UNL A   1      37.302  31.416  32.931  1.00  0.00     0.202 C 
BRANCH  33  34
ATOM     34  C   UNL A   1      38.753  31.476  32.458  1.00  0.00     0.261 C 
BRANCH  34  35
ATOM     35  O   UNL A   1      39.482  32.594  32.903  1.00  0.00    -0.460 OA
BRANCH  35  36
ATOM     36  C   UNL A   1      39.802  33.459  31.923  1.00  0.00     0.338 C 
ATOM     37  O   UNL A   1      39.082  34.322  31.438  1.00  0.00    -0.246 OA
BRANCH  36  38
ATOM     38  C   UNL A   1      41.153  33.151  31.456  1.00  0.00     0.060 A 
ATOM     39  C   UNL A   1      41.217  32.631  30.164  1.00  0.00     0.016 A 
ATOM     40  C   UNL A   1      42.126  32.900  32.433  1.00  0.00     0.016 A 
ATOM     41  C   UNL A   1      42.045  31.559  29.974  1.00  0.00     0.010 A 
ATOM     42  C   UNL A   1      42.932  31.814  32.250  1.00  0.00     0.010 A 
ATOM     43  C   UNL A   1      42.783  31.097  31.068  1.00  0.00    -0.014 A 
BRANCH  43  44
ATOM     44  C   UNL A   1      43.468  29.841  30.914  1.00  0.00     0.031 A 
ATOM     45  C   UNL A   1      44.607  29.968  29.989  1.00  0.00     0.074 A 
ATOM     46  C   UNL A   1      43.108  28.746  31.605  1.00  0.00     0.049 A 
ATOM     47  N   UNL A   1      44.695  29.502  28.789  1.00  0.00    -0.248 NA
ATOM     48  C   UNL A   1      45.655  30.937  30.346  1.00  0.00     0.031 C 
ATOM     49  C   UNL A   1      42.172  28.650  32.730  1.00  0.00     0.029 A 
ATOM     50  N   UNL A   1      43.636  27.498  31.538  1.00  0.00    -0.354 N 
ATOM     51  C   UNL A   1      45.952  29.905  28.354  1.00  0.00     0.074 A 
ATOM     52  C   UNL A   1      46.357  30.982  29.215  1.00  0.00     0.031 C 
ATOM     53  C   UNL A   1      42.410  27.497  33.398  1.00  0.00     0.029 A 
ATOM     54  C   UNL A   1      43.419  26.738  32.681  1.00  0.00     0.049 A 
ATOM     55  H   UNL A   1      44.125  27.163  30.753  1.00  0.00     0.167 HD
ATOM     56  C   UNL A   1      46.695  29.099  27.554  1.00  0.00     0.034 A 
ATOM     57  C   UNL A   1      44.123  25.636  33.043  1.00  0.00     0.034 A 
ATOM     58  C   UNL A   1      45.881  28.098  26.912  1.00  0.00     0.049 A 
ATOM     59  C   UNL A   1      44.817  25.137  31.830  1.00  0.00     0.074 A 
ATOM     60  C   UNL A   1      44.774  28.127  26.086  1.00  0.00     0.029 A 
ATOM     61  N   UNL A   1      45.936  26.827  27.432  1.00  0.00    -0.354 N 
ATOM     62  N   UNL A   1      44.192  24.639  30.799  1.00  0.00    -0.248 NA
ATOM     63  C   UNL A   1      46.165  25.617  31.570  1.00  0.00     0.031 C 
ATOM     64  C   UNL A   1      43.972  27.027  26.505  1.00  0.00     0.029 A 
ATOM     65  C   UNL A   1      44.655  26.351  27.517  1.00  0.00     0.049 A 
ATOM     66  H   UNL A   1      46.752  26.343  27.696  1.00  0.00     0.167 HD
ATOM     67  C   UNL A   1      44.865  25.163  29.701  1.00  0.00     0.074 A 
ATOM     68  C   UNL A   1      46.131  25.665  30.235  1.00  0.00     0.031 C 
ATOM     69  C   UNL A   1      44.210  25.416  28.529  1.00  0.00     0.034 A 
BRANCH  56  70
ATOM     70  C   UNL A   1      48.192  28.944  27.689  1.00  0.00     0.023 A 
ATOM     71  C   UNL A   1      48.951  29.047  26.505  1.00  0.00     0.012 A 
ATOM     72  C   UNL A   1      48.856  28.433  28.831  1.00  0.00     0.148 A 
ATOM     73  C   UNL A   1      50.278  28.607  26.446  1.00  0.00     0.002 A 
ATOM     74  C   UNL A   1      50.197  28.079  28.790  1.00  0.00     0.091 A 
ATOM     75  F   UNL A   1      48.174  28.143  29.941  1.00  0.00    -0.205 F 
ATOM     76  C   UNL A   1      50.904  28.130  27.590  1.00  0.00     0.022 A 
BRANCH  74  77
ATOM     77  S   UNL A   1      51.057  27.502  30.260  1.00  0.00     0.127 S 
ATOM     78  O   UNL A   1      50.725  26.081  30.252  1.00  0.00    -0.237 OA
ATOM     79  O   UNL A   1      52.448  27.817  29.934  1.00  0.00    -0.237 OA
ATOM     80  O   UNL A   1      50.515  28.282  31.365  1.00  0.00    -0.744 OA
ENDBRANCH  74  77
ENDBRANCH  56  70
BRANCH  57  81
ATOM     81  C   UNL A   1      44.505  25.181  34.402  1.00  0.00     0.023 A 
ATOM     82  C   UNL A   1      43.999  25.857  35.531  1.00  0.00     0.012 A 
ATOM     83  C   UNL A   1      45.132  23.931  34.604  1.00  0.00     0.148 A 
ATOM     84  C   UNL A   1      44.091  25.295  36.811  1.00  0.00     0.002 A 
ATOM     85  C   UNL A   1      45.233  23.382  35.878  1.00  0.00     0.091 A 
ATOM     86  F   UNL A   1      45.546  23.236  33.537  1.00  0.00    -0.205 F 
ATOM     87  C   UNL A   1      44.702  24.056  36.985  1.00  0.00     0.022 A 
BRANCH  85  88
ATOM     88  S   UNL A   1      45.990  21.778  36.173  1.00  0.00     0.127 S 
ATOM     89  O   UNL A   1      47.314  21.954  35.575  1.00  0.00    -0.237 OA
ATOM     90  O   UNL A   1      45.982  21.702  37.631  1.00  0.00    -0.237 OA
ATOM     91  O   UNL A   1      45.148  20.807  35.484  1.00  0.00    -0.744 OA
ENDBRANCH  85  88
ENDBRANCH  57  81
BRANCH  69  92
ATOM     92  C   UNL A   1      42.808  24.885  28.372  1.00  0.00     0.023 A 
ATOM     93  C   UNL A   1      41.664  25.677  28.615  1.00  0.00     0.012 A 
ATOM     94  C   UNL A   1      42.643  23.616  27.794  1.00  0.00     0.148 A 
ATOM     95  C   UNL A   1      40.386  25.201  28.309  1.00  0.00     0.002 A 
ATOM     96  C   UNL A   1      41.376  23.166  27.447  1.00  0.00     0.091 A 
ATOM     97  F   UNL A   1      43.740  22.879  27.563  1.00  0.00    -0.205 F 
ATOM     98  C   UNL A   1      40.243  23.951  27.712  1.00  0.00     0.022 A 
BRANCH  96  99
ATOM     99  S   UNL A   1      41.141  21.625  26.560  1.00  0.00     0.127 S 
ATOM    100  O   UNL A   1      39.702  21.634  26.308  1.00  0.00    -0.237 OA
ATOM    101  O   UNL A   1      41.972  21.817  25.370  1.00  0.00    -0.237 OA
ATOM    102  O   UNL A   1      41.615  20.573  27.451  1.00  0.00    -0.744 OA
ENDBRANCH  96  99
ENDBRANCH  69  92
ENDBRANCH  43  44
ENDBRANCH  36  38
ENDBRANCH  35  36
ENDBRANCH  34  35
ENDBRANCH  33  34
ENDBRANCH  32  33
ENDBRANCH  31  32
ENDBRANCH   1  31
TORSDOF 24
ENDMDL
MODEL 3
REMARK VINA RESULT:      -9.3      3.359      7.573
REMARK SMILES CCn1ncc(-c2cc(C(F)(F)F)nc(-n3ccc(C(=O)OCCOCCOCCOC(=O)c4ccc(-c5c6nc(c(-c7cccc(S(=O)(=O)[O-])c7F)c7ccc([nH]7)c(-c7cccc(S(=O)(=O)[O-])c7F)c7nc(c(-c8cccc(S(=O)(=O)[O-])c8F)c8ccc5[nH]8)C=C7)C=C6)cc4)n3)n2)c1C
REMARK SMILES IDX 26 1 25 2 24 3 23 4 22 5 20 6 21 7 19 8 16 9 17 10 97 11
REMARK SMILES IDX 18 12 15 13 7 14 8 15 98 16 9 17 14 18 6 19 3 20 4 21 99 22
REMARK SMILES IDX 5 23 100 24 2 25 1 26 10 27 11 28 12 29 13 30 27 31 28 32
REMARK SMILES IDX 29 33 30 34 31 35 32 36 33 37 34 38 35 39 96 40 36 41 95 42
REMARK SMILES IDX 37 43 38 44 39 45 89 46 40 47 94 48 88 49 90 50 41 51 93 52
REMARK SMILES IDX 87 53 86 54 42 56 74 57 54 58 73 59 55 60 58 61 72 62 91 63
REMARK SMILES IDX 56 64 57 65 71 67 92 68 59 69 43 70 44 71 52 72 45 73 47 74
REMARK SMILES IDX 53 75 46 76 48 77 49 78 50 79 51 80 75 81 76 82 84 83 77 84
REMARK SMILES IDX 79 85 85 86 78 87 80 88 81 89 82 90 83 91 60 92 61 93 69 94
REMARK SMILES IDX 62 95 64 96 70 97 63 98 65 99 66 100 67 101 68 102
REMARK H PARENT 90 55 58 66
REMARK Flexibility Score: inf
ROOT
ATOM      1  C   UNL A   1      39.131  22.879  26.494  1.00  0.00     0.188 C 
ENDROOT
BRANCH   1   2
ATOM      2  O   UNL A   1      37.932  22.136  26.356  1.00  0.00    -0.376 OA
BRANCH   2   3
ATOM      3  C   UNL A   1      37.728  21.296  25.231  1.00  0.00     0.202 C 
BRANCH   3   4
ATOM      4  C   UNL A   1      36.387  21.266  24.463  1.00  0.00     0.261 C 
BRANCH   4   5
ATOM      5  O   UNL A   1      35.468  20.220  24.809  1.00  0.00    -0.458 OA
BRANCH   5   6
ATOM      6  C   UNL A   1      34.138  20.526  24.807  1.00  0.00     0.358 C 
ATOM      7  O   UNL A   1      33.250  19.787  24.384  1.00  0.00    -0.244 OA
BRANCH   6   8
ATOM      8  C   UNL A   1      33.855  21.751  25.572  1.00  0.00     0.170 A 
ATOM      9  N   UNL A   1      33.279  23.776  26.011  1.00  0.00    -0.205 N 
ATOM     10  C   UNL A   1      34.072  23.383  27.066  1.00  0.00     0.119 A 
ATOM     11  N   UNL A   1      33.135  22.778  25.089  1.00  0.00    -0.158 NA
ATOM     12  C   UNL A   1      34.370  22.059  26.861  1.00  0.00     0.058 A 
BRANCH   9  13
ATOM     13  C   UNL A   1      32.608  25.037  25.884  1.00  0.00     0.251 A 
ATOM     14  C   UNL A   1      32.655  27.296  26.242  1.00  0.00     0.080 A 
ATOM     15  C   UNL A   1      31.500  27.486  25.521  1.00  0.00     0.062 A 
ATOM     16  N   UNL A   1      33.183  26.089  26.485  1.00  0.00    -0.211 NA
ATOM     17  C   UNL A   1      30.932  26.352  24.965  1.00  0.00     0.150 A 
ATOM     18  N   UNL A   1      31.515  25.126  25.091  1.00  0.00    -0.207 NA
BRANCH  14  19
ATOM     19  C   UNL A   1      33.470  28.411  26.660  1.00  0.00     0.041 A 
ATOM     20  N   UNL A   1      34.050  30.425  27.305  1.00  0.00    -0.269 N 
ATOM     21  N   UNL A   1      35.204  29.723  27.335  1.00  0.00    -0.181 NA
ATOM     22  C   UNL A   1      32.964  29.674  26.928  1.00  0.00     0.045 A 
ATOM     23  C   UNL A   1      34.849  28.507  26.915  1.00  0.00     0.145 A 
ATOM     24  C   UNL A   1      31.566  30.185  26.859  1.00  0.00     0.067 C 
BRANCH  20  25
ATOM     25  C   UNL A   1      34.077  31.831  27.668  1.00  0.00     0.141 C 
ATOM     26  C   UNL A   1      34.815  32.078  28.973  1.00  0.00     0.029 C 
ENDBRANCH  20  25
ENDBRANCH  14  19
BRANCH  17  27
ATOM     27  C   UNL A   1      29.628  26.483  24.187  1.00  0.00     0.433 C 
ATOM     28  F   UNL A   1      29.430  27.729  23.675  1.00  0.00    -0.165 F 
ATOM     29  F   UNL A   1      29.547  25.617  23.139  1.00  0.00    -0.165 F 
ATOM     30  F   UNL A   1      28.524  26.227  24.953  1.00  0.00    -0.165 F 
ENDBRANCH  17  27
ENDBRANCH   9  13
ENDBRANCH   6   8
ENDBRANCH   5   6
ENDBRANCH   4   5
ENDBRANCH   3   4
ENDBRANCH   2   3
ENDBRANCH   1   2
BRANCH   1  31
ATOM     31  C   UNL A   1      40.413  22.242  27.083  1.00  0.00     0.188 C 
BRANCH  31  32
ATOM     32  O   UNL A   1      41.613  22.583  26.425  1.00  0.00    -0.376 OA
BRANCH  32  33
ATOM     33  C   UNL A   1      42.378  23.721  26.787  1.00  0.00     0.202 C 
BRANCH  33  34
ATOM     34  C   UNL A   1      42.896  24.758  25.793  1.00  0.00     0.261 C 
BRANCH  34  35
ATOM     35  O   UNL A   1      41.903  25.530  25.162  1.00  0.00    -0.460 OA
BRANCH  35  36
ATOM     36  C   UNL A   1      42.225  26.831  25.034  1.00  0.00     0.338 C 
ATOM     37  O   UNL A   1      43.158  27.298  24.397  1.00  0.00    -0.246 OA
BRANCH  36  38
ATOM     38  C   UNL A   1      41.311  27.618  25.861  1.00  0.00     0.060 A 
ATOM     39  C   UNL A   1      41.641  28.968  25.968  1.00  0.00     0.016 A 
ATOM     40  C   UNL A   1      40.574  26.929  26.834  1.00  0.00     0.016 A 
ATOM     41  C   UNL A   1      41.565  29.522  27.216  1.00  0.00     0.010 A 
ATOM     42  C   UNL A   1      40.524  27.474  28.085  1.00  0.00     0.010 A 
ATOM     43  C   UNL A   1      41.131  28.711  28.270  1.00  0.00    -0.014 A 
BRANCH  43  44
ATOM     44  C   UNL A   1      41.273  29.234  29.602  1.00  0.00     0.031 A 
ATOM     45  C   UNL A   1      40.264  30.273  29.874  1.00  0.00     0.074 A 
ATOM     46  C   UNL A   1      42.184  28.749  30.463  1.00  0.00     0.049 A 
ATOM     47  N   UNL A   1      40.459  31.544  29.978  1.00  0.00    -0.248 NA
ATOM     48  C   UNL A   1      38.851  29.878  29.765  1.00  0.00     0.031 C 
ATOM     49  C   UNL A   1      43.008  27.542  30.329  1.00  0.00     0.029 A 
ATOM     50  N   UNL A   1      42.451  29.164  31.727  1.00  0.00    -0.354 N 
ATOM     51  C   UNL A   1      39.195  32.067  30.223  1.00  0.00     0.074 A 
ATOM     52  C   UNL A   1      38.251  31.066  29.811  1.00  0.00     0.031 C 
ATOM     53  C   UNL A   1      43.457  27.183  31.553  1.00  0.00     0.029 A 
ATOM     54  C   UNL A   1      43.054  28.192  32.517  1.00  0.00     0.049 A 
ATOM     55  H   UNL A   1      42.239  30.067  32.052  1.00  0.00     0.167 HD
ATOM     56  C   UNL A   1      39.038  33.125  31.058  1.00  0.00     0.034 A 
ATOM     57  C   UNL A   1      43.091  28.187  33.874  1.00  0.00     0.034 A 
ATOM     58  C   UNL A   1      40.277  33.837  31.245  1.00  0.00     0.049 A 
ATOM     59  C   UNL A   1      42.804  29.571  34.328  1.00  0.00     0.074 A 
ATOM     60  C   UNL A   1      41.179  34.460  30.405  1.00  0.00     0.029 A 
ATOM     61  N   UNL A   1      40.946  33.618  32.427  1.00  0.00    -0.354 N 
ATOM     62  N   UNL A   1      43.605  30.577  34.114  1.00  0.00    -0.248 NA
ATOM     63  C   UNL A   1      41.420  29.922  34.607  1.00  0.00     0.031 C 
ATOM     64  C   UNL A   1      42.460  34.171  30.957  1.00  0.00     0.029 A 
ATOM     65  C   UNL A   1      42.272  33.444  32.134  1.00  0.00     0.049 A 
ATOM     66  H   UNL A   1      40.543  33.592  33.324  1.00  0.00     0.167 HD
ATOM     67  C   UNL A   1      42.758  31.625  33.772  1.00  0.00     0.074 A 
ATOM     68  C   UNL A   1      41.428  31.194  34.199  1.00  0.00     0.031 C 
ATOM     69  C   UNL A   1      43.162  32.602  32.906  1.00  0.00     0.034 A 
BRANCH  56  70
ATOM     70  C   UNL A   1      37.888  33.257  32.029  1.00  0.00     0.023 A 
ATOM     71  C   UNL A   1      37.931  32.442  33.180  1.00  0.00     0.012 A 
ATOM     72  C   UNL A   1      36.660  33.905  31.750  1.00  0.00     0.148 A 
ATOM     73  C   UNL A   1      36.797  32.235  33.972  1.00  0.00     0.002 A 
ATOM     74  C   UNL A   1      35.562  33.765  32.588  1.00  0.00     0.091 A 
ATOM     75  F   UNL A   1      36.480  34.554  30.599  1.00  0.00    -0.205 F 
ATOM     76  C   UNL A   1      35.614  32.902  33.680  1.00  0.00     0.022 A 
BRANCH  74  77
ATOM     77  S   UNL A   1      34.028  34.647  32.273  1.00  0.00     0.127 S 
ATOM     78  O   UNL A   1      33.871  34.454  30.835  1.00  0.00    -0.237 OA
ATOM     79  O   UNL A   1      33.082  33.905  33.107  1.00  0.00    -0.237 OA
ATOM     80  O   UNL A   1      34.262  36.016  32.716  1.00  0.00    -0.744 OA
ENDBRANCH  74  77
ENDBRANCH  56  70
BRANCH  57  81
ATOM     81  C   UNL A   1      43.026  27.033  34.802  1.00  0.00     0.023 A 
ATOM     82  C   UNL A   1      41.801  26.364  34.997  1.00  0.00     0.012 A 
ATOM     83  C   UNL A   1      44.203  26.414  35.281  1.00  0.00     0.148 A 
ATOM     84  C   UNL A   1      41.753  25.111  35.623  1.00  0.00     0.002 A 
ATOM     85  C   UNL A   1      44.151  25.176  35.913  1.00  0.00     0.091 A 
ATOM     86  F   UNL A   1      45.385  26.993  35.033  1.00  0.00    -0.205 F 
ATOM     87  C   UNL A   1      42.927  24.514  36.075  1.00  0.00     0.022 A 
BRANCH  85  88
ATOM     88  S   UNL A   1      45.628  24.338  36.503  1.00  0.00     0.127 S 
ATOM     89  O   UNL A   1      46.019  25.177  37.636  1.00  0.00    -0.237 OA
ATOM     90  O   UNL A   1      45.107  23.023  36.865  1.00  0.00    -0.237 OA
ATOM     91  O   UNL A   1      46.571  24.361  35.391  1.00  0.00    -0.744 OA
ENDBRANCH  85  88
ENDBRANCH  57  81
BRANCH  69  92
ATOM     92  C   UNL A   1      44.620  32.655  32.527  1.00  0.00     0.023 A 
ATOM     93  C   UNL A   1      45.594  33.276  33.340  1.00  0.00     0.012 A 
ATOM     94  C   UNL A   1      45.042  31.908  31.417  1.00  0.00     0.148 A 
ATOM     95  C   UNL A   1      46.954  33.170  33.037  1.00  0.00     0.002 A 
ATOM     96  C   UNL A   1      46.397  31.765  31.145  1.00  0.00     0.091 A 
ATOM     97  F   UNL A   1      44.105  31.319  30.658  1.00  0.00    -0.205 F 
ATOM     98  C   UNL A   1      47.356  32.403  31.946  1.00  0.00     0.022 A 
BRANCH  96  99
ATOM     99  S   UNL A   1      46.979  30.686  29.836  1.00  0.00     0.127 S 
ATOM    100  O   UNL A   1      46.578  29.369  30.325  1.00  0.00    -0.237 OA
ATOM    101  O   UNL A   1      46.225  31.163  28.675  1.00  0.00    -0.237 OA
ATOM    102  O   UNL A   1      48.417  30.909  29.741  1.00  0.00    -0.744 OA
ENDBRANCH  96  99
ENDBRANCH  69  92
ENDBRANCH  43  44
ENDBRANCH  36  38
ENDBRANCH  35  36
ENDBRANCH  34  35
ENDBRANCH  33  34
ENDBRANCH  32  33
ENDBRANCH  31  32
ENDBRANCH   1  31
TORSDOF 24
ENDMDL
