MODEL 1
REMARK VINA RESULT:     -10.1      0.000      0.000
REMARK SMILES CC(=O)Oc1ccc2oc(N)c([C@@H]3[NH2+][C@@H](C(=O)OCCOCCOCCOC(=O)c4ccc(-c5c6nc(c(-c7cccc(S(=O)(=O)[O-])c7F)c7ccc([nH]7)c(-c7cccc(S(=O)(=O)[O-])c7F)c7nc(c(-c8cccc(S(=O)(=O)[O-])c8F)c8ccc5[nH]8)C=C7)C=C6)cc4)C(C)(C)S3)c(=O)c2c1
REMARK SMILES IDX 22 1 21 2 20 3 19 4 18 5 16 6 17 7 15 8 13 9 14 10 96 11
REMARK SMILES IDX 93 14 94 15 95 16 12 17 5 18 6 19 100 20 7 21 99 22 8 23
REMARK SMILES IDX 97 24 9 25 98 26 10 27 4 28 2 29 1 30 3 31 11 32 23 35 24 36
REMARK SMILES IDX 25 37 26 38 27 39 28 40 29 41 30 42 31 43 92 44 32 45 91 46
REMARK SMILES IDX 33 47 34 48 35 49 85 50 36 51 90 52 84 53 86 54 37 55 89 56
REMARK SMILES IDX 83 57 82 58 38 60 70 61 50 62 69 63 51 64 54 65 68 66 87 67
REMARK SMILES IDX 52 68 53 69 67 71 88 72 55 73 39 74 40 75 48 76 41 77 43 78
REMARK SMILES IDX 49 79 42 80 44 81 45 82 46 83 47 84 71 85 72 86 80 87 73 88
REMARK SMILES IDX 75 89 81 90 74 91 76 92 77 93 78 94 79 95 56 96 57 97 65 98
REMARK SMILES IDX 58 99 60 100 66 101 59 102 61 103 62 104 63 105 64 106
REMARK H PARENT 14 12 14 13 11 33 11 34 86 59 54 70
REMARK Flexibility Score: inf
ROOT
ATOM      1  C   UNL A   1      40.564  20.515  26.545  1.00  0.00     0.188 C 
ENDROOT
BRANCH   1   2
ATOM      2  O   UNL A   1      39.364  20.357  25.799  1.00  0.00    -0.376 OA
BRANCH   2   3
ATOM      3  C   UNL A   1      38.453  21.439  25.660  1.00  0.00     0.202 C 
BRANCH   3   4
ATOM      4  C   UNL A   1      37.089  21.175  25.001  1.00  0.00     0.261 C 
BRANCH   4   5
ATOM      5  O   UNL A   1      36.149  22.281  24.981  1.00  0.00    -0.459 OA
BRANCH   5   6
ATOM      6  C   UNL A   1      35.032  22.104  25.733  1.00  0.00     0.366 C 
ATOM      7  O   UNL A   1      35.050  21.521  26.816  1.00  0.00    -0.245 OA
BRANCH   6   8
ATOM      8  C   UNL A   1      33.690  22.637  25.136  1.00  0.00     0.310 C 
ATOM      9  C   UNL A   1      31.905  24.151  25.705  1.00  0.00     0.284 C 
ATOM     10  N   UNL A   1      33.143  23.549  26.178  1.00  0.00    -0.318 N 
ATOM     11  S   UNL A   1      31.067  22.934  24.677  1.00  0.00    -0.081 SA
ATOM     12  H   UNL A   1      32.956  23.017  27.029  1.00  0.00     0.348 HD
ATOM     13  H   UNL A   1      33.822  24.284  26.374  1.00  0.00     0.348 HD
ATOM     14  C   UNL A   1      32.516  21.781  24.560  1.00  0.00     0.079 C 
ATOM     15  C   UNL A   1      32.168  20.513  25.339  1.00  0.00     0.030 C 
ATOM     16  C   UNL A   1      32.528  21.475  23.047  1.00  0.00     0.030 C 
BRANCH   9  17
ATOM     17  C   UNL A   1      32.024  25.522  25.077  1.00  0.00     0.128 A 
ATOM     18  C   UNL A   1      29.535  28.900  22.529  1.00  0.00     0.131 A 
ATOM     19  C   UNL A   1      30.743  29.531  22.224  1.00  0.00     0.051 A 
ATOM     20  C   UNL A   1      29.481  27.813  23.396  1.00  0.00     0.063 A 
ATOM     21  C   UNL A   1      31.923  29.047  22.784  1.00  0.00     0.052 A 
ATOM     22  C   UNL A   1      30.673  27.329  23.931  1.00  0.00     0.069 A 
ATOM     23  C   UNL A   1      31.877  27.943  23.635  1.00  0.00     0.140 A 
ATOM     24  C   UNL A   1      30.694  26.148  24.797  1.00  0.00     0.205 A 
ATOM     25  O   UNL A   1      33.053  27.510  24.164  1.00  0.00    -0.440 OA
ATOM     26  O   UNL A   1      29.636  25.679  25.206  1.00  0.00    -0.288 OA
ATOM     27  C   UNL A   1      33.115  26.248  24.728  1.00  0.00     0.205 A 
BRANCH  18  28
ATOM     28  O   UNL A   1      28.328  29.409  22.047  1.00  0.00    -0.427 OA
BRANCH  28  29
ATOM     29  C   UNL A   1      27.398  29.713  23.032  1.00  0.00     0.308 C 
ATOM     30  C   UNL A   1      27.650  31.113  23.504  1.00  0.00     0.139 C 
ATOM     31  O   UNL A   1      26.532  28.979  23.488  1.00  0.00    -0.252 OA
ENDBRANCH  28  29
ENDBRANCH  18  28
BRANCH  27  32
ATOM     32  N   UNL A   1      34.416  25.869  24.845  1.00  0.00    -0.369 N 
ATOM     33  H   UNL A   1      35.018  25.931  24.068  1.00  0.00     0.159 HD
ATOM     34  H   UNL A   1      34.757  25.535  25.706  1.00  0.00     0.159 HD
ENDBRANCH  27  32
ENDBRANCH   9  17
ENDBRANCH   6   8
ENDBRANCH   5   6
ENDBRANCH   4   5
ENDBRANCH   3   4
ENDBRANCH   2   3
ENDBRANCH   1   2
BRANCH   1  35
ATOM     35  C   UNL A   1      40.884  21.884  27.144  1.00  0.00     0.188 C 
BRANCH  35  36
ATOM     36  O   UNL A   1      42.240  22.064  27.467  1.00  0.00    -0.376 OA
BRANCH  36  37
ATOM     37  C   UNL A   1      43.233  21.878  26.486  1.00  0.00     0.202 C 
BRANCH  37  38
ATOM     38  C   UNL A   1      43.042  22.488  25.092  1.00  0.00     0.261 C 
BRANCH  38  39
ATOM     39  O   UNL A   1      43.045  23.917  24.995  1.00  0.00    -0.460 OA
BRANCH  39  40
ATOM     40  C   UNL A   1      44.242  24.551  25.009  1.00  0.00     0.338 C 
ATOM     41  O   UNL A   1      45.247  24.221  24.404  1.00  0.00    -0.246 OA
BRANCH  40  42
ATOM     42  C   UNL A   1      44.022  25.849  25.691  1.00  0.00     0.060 A 
ATOM     43  C   UNL A   1      44.476  26.032  26.999  1.00  0.00     0.016 A 
ATOM     44  C   UNL A   1      43.302  26.865  25.045  1.00  0.00     0.016 A 
ATOM     45  C   UNL A   1      44.225  27.237  27.655  1.00  0.00     0.010 A 
ATOM     46  C   UNL A   1      43.051  28.073  25.706  1.00  0.00     0.010 A 
ATOM     47  C   UNL A   1      43.527  28.275  27.011  1.00  0.00    -0.014 A 
BRANCH  47  48
ATOM     48  C   UNL A   1      43.482  29.612  27.649  1.00  0.00     0.031 A 
ATOM     49  C   UNL A   1      42.345  30.053  28.522  1.00  0.00     0.074 A 
ATOM     50  C   UNL A   1      44.524  30.439  27.433  1.00  0.00     0.049 A 
ATOM     51  N   UNL A   1      42.251  31.141  29.244  1.00  0.00    -0.248 NA
ATOM     52  C   UNL A   1      41.164  29.180  28.595  1.00  0.00     0.031 C 
ATOM     53  C   UNL A   1      45.651  30.148  26.542  1.00  0.00     0.029 A 
ATOM     54  N   UNL A   1      44.813  31.679  27.940  1.00  0.00    -0.354 N 
ATOM     55  C   UNL A   1      41.009  31.086  29.864  1.00  0.00     0.074 A 
ATOM     56  C   UNL A   1      40.370  29.867  29.411  1.00  0.00     0.031 C 
ATOM     57  C   UNL A   1      46.515  31.172  26.579  1.00  0.00     0.029 A 
ATOM     58  C   UNL A   1      46.004  32.194  27.487  1.00  0.00     0.049 A 
ATOM     59  H   UNL A   1      44.224  32.155  28.570  1.00  0.00     0.167 HD
ATOM     60  C   UNL A   1      40.471  31.960  30.748  1.00  0.00     0.034 A 
ATOM     61  C   UNL A   1      46.626  33.354  27.773  1.00  0.00     0.034 A 
ATOM     62  C   UNL A   1      41.120  33.161  31.205  1.00  0.00     0.049 A 
ATOM     63  C   UNL A   1      46.020  34.285  28.780  1.00  0.00     0.074 A 
ATOM     64  C   UNL A   1      40.670  34.068  32.150  1.00  0.00     0.029 A 
ATOM     65  N   UNL A   1      42.343  33.629  30.755  1.00  0.00    -0.354 N 
ATOM     66  N   UNL A   1      44.913  34.141  29.465  1.00  0.00    -0.248 NA
ATOM     67  C   UNL A   1      46.758  35.521  29.078  1.00  0.00     0.031 C 
ATOM     68  C   UNL A   1      41.615  35.092  32.261  1.00  0.00     0.029 A 
ATOM     69  C   UNL A   1      42.661  34.813  31.397  1.00  0.00     0.049 A 
ATOM     70  H   UNL A   1      42.902  33.185  30.076  1.00  0.00     0.167 HD
ATOM     71  C   UNL A   1      44.830  35.255  30.290  1.00  0.00     0.074 A 
ATOM     72  C   UNL A   1      46.007  36.059  30.033  1.00  0.00     0.031 C 
ATOM     73  C   UNL A   1      43.855  35.584  31.169  1.00  0.00     0.034 A 
BRANCH  60  74
ATOM     74  C   UNL A   1      39.139  31.631  31.367  1.00  0.00     0.023 A 
ATOM     75  C   UNL A   1      39.120  30.947  32.599  1.00  0.00     0.012 A 
ATOM     76  C   UNL A   1      37.939  32.143  30.836  1.00  0.00     0.148 A 
ATOM     77  C   UNL A   1      37.924  30.780  33.297  1.00  0.00     0.002 A 
ATOM     78  C   UNL A   1      36.755  31.996  31.552  1.00  0.00     0.091 A 
ATOM     79  F   UNL A   1      37.988  32.795  29.666  1.00  0.00    -0.205 F 
ATOM     80  C   UNL A   1      36.747  31.313  32.780  1.00  0.00     0.022 A 
BRANCH  78  81
ATOM     81  S   UNL A   1      35.192  32.698  31.011  1.00  0.00     0.127 S 
ATOM     82  O   UNL A   1      34.899  31.892  29.827  1.00  0.00    -0.237 OA
ATOM     83  O   UNL A   1      34.325  32.433  32.158  1.00  0.00    -0.237 OA
ATOM     84  O   UNL A   1      35.449  34.106  30.746  1.00  0.00    -0.744 OA
ENDBRANCH  78  81
ENDBRANCH  60  74
BRANCH  61  85
ATOM     85  C   UNL A   1      47.932  33.651  27.130  1.00  0.00     0.023 A 
ATOM     86  C   UNL A   1      47.969  34.426  25.956  1.00  0.00     0.012 A 
ATOM     87  C   UNL A   1      49.137  33.229  27.721  1.00  0.00     0.148 A 
ATOM     88  C   UNL A   1      49.190  34.767  25.374  1.00  0.00     0.002 A 
ATOM     89  C   UNL A   1      50.350  33.607  27.160  1.00  0.00     0.091 A 
ATOM     90  F   UNL A   1      49.070  32.492  28.839  1.00  0.00    -0.205 F 
ATOM     91  C   UNL A   1      50.379  34.367  25.980  1.00  0.00     0.022 A 
BRANCH  89  92
ATOM     92  S   UNL A   1      51.929  33.229  27.927  1.00  0.00     0.127 S 
ATOM     93  O   UNL A   1      52.157  31.858  27.476  1.00  0.00    -0.237 OA
ATOM     94  O   UNL A   1      52.804  34.232  27.320  1.00  0.00    -0.237 OA
ATOM     95  O   UNL A   1      51.723  33.393  29.359  1.00  0.00    -0.744 OA
ENDBRANCH  89  92
ENDBRANCH  61  85
BRANCH  73  96
ATOM     96  C   UNL A   1      43.999  36.866  31.942  1.00  0.00     0.023 A 
ATOM     97  C   UNL A   1      44.489  36.825  33.262  1.00  0.00     0.012 A 
ATOM     98  C   UNL A   1      43.775  38.109  31.320  1.00  0.00     0.148 A 
ATOM     99  C   UNL A   1      44.752  38.007  33.953  1.00  0.00     0.002 A 
ATOM    100  C   UNL A   1      44.071  39.282  32.003  1.00  0.00     0.091 A 
ATOM    101  F   UNL A   1      43.302  38.118  30.065  1.00  0.00    -0.205 F 
ATOM    102  C   UNL A   1      44.555  39.233  33.321  1.00  0.00     0.022 A 
BRANCH 100 103
ATOM    103  S   UNL A   1      43.919  40.908  31.253  1.00  0.00     0.127 S 
ATOM    104  O   UNL A   1      42.495  41.188  31.439  1.00  0.00    -0.237 OA
ATOM    105  O   UNL A   1      44.813  41.715  32.082  1.00  0.00    -0.237 OA
ATOM    106  O   UNL A   1      44.340  40.757  29.867  1.00  0.00    -0.744 OA
ENDBRANCH 100 103
ENDBRANCH  73  96
ENDBRANCH  47  48
ENDBRANCH  40  42
ENDBRANCH  39  40
ENDBRANCH  38  39
ENDBRANCH  37  38
ENDBRANCH  36  37
ENDBRANCH  35  36
ENDBRANCH   1  35
TORSDOF 24
ENDMDL
MODEL 2
REMARK VINA RESULT:     -10.0      1.980      2.273
REMARK SMILES CC(=O)Oc1ccc2oc(N)c([C@@H]3[NH2+][C@@H](C(=O)OCCOCCOCCOC(=O)c4ccc(-c5c6nc(c(-c7cccc(S(=O)(=O)[O-])c7F)c7ccc([nH]7)c(-c7cccc(S(=O)(=O)[O-])c7F)c7nc(c(-c8cccc(S(=O)(=O)[O-])c8F)c8ccc5[nH]8)C=C7)C=C6)cc4)C(C)(C)S3)c(=O)c2c1
REMARK SMILES IDX 22 1 21 2 20 3 19 4 18 5 16 6 17 7 15 8 13 9 14 10 96 11
REMARK SMILES IDX 93 14 94 15 95 16 12 17 5 18 6 19 100 20 7 21 99 22 8 23
REMARK SMILES IDX 97 24 9 25 98 26 10 27 4 28 2 29 1 30 3 31 11 32 23 35 24 36
REMARK SMILES IDX 25 37 26 38 27 39 28 40 29 41 30 42 31 43 92 44 32 45 91 46
REMARK SMILES IDX 33 47 34 48 35 49 85 50 36 51 90 52 84 53 86 54 37 55 89 56
REMARK SMILES IDX 83 57 82 58 38 60 70 61 50 62 69 63 51 64 54 65 68 66 87 67
REMARK SMILES IDX 52 68 53 69 67 71 88 72 55 73 39 74 40 75 48 76 41 77 43 78
REMARK SMILES IDX 49 79 42 80 44 81 45 82 46 83 47 84 71 85 72 86 80 87 73 88
REMARK SMILES IDX 75 89 81 90 74 91 76 92 77 93 78 94 79 95 56 96 57 97 65 98
REMARK SMILES IDX 58 99 60 100 66 101 59 102 61 103 62 104 63 105 64 106
REMARK H PARENT 14 12 14 13 11 33 11 34 86 59 54 70
REMARK Flexibility Score: inf
ROOT
ATOM      1  C   UNL A   1      40.575  20.962  26.463  1.00  0.00     0.188 C 
ENDROOT
BRANCH   1   2
ATOM      2  O   UNL A   1      39.269  20.758  25.938  1.00  0.00    -0.376 OA
BRANCH   2   3
ATOM      3  C   UNL A   1      38.413  21.864  25.684  1.00  0.00     0.202 C 
BRANCH   3   4
ATOM      4  C   UNL A   1      36.969  21.590  25.232  1.00  0.00     0.261 C 
BRANCH   4   5
ATOM      5  O   UNL A   1      36.060  22.721  25.228  1.00  0.00    -0.459 OA
BRANCH   5   6
ATOM      6  C   UNL A   1      34.882  22.520  25.875  1.00  0.00     0.366 C 
ATOM      7  O   UNL A   1      34.819  21.986  26.980  1.00  0.00    -0.245 OA
BRANCH   6   8
ATOM      8  C   UNL A   1      33.584  22.958  25.123  1.00  0.00     0.310 C 
ATOM      9  C   UNL A   1      31.656  24.361  25.464  1.00  0.00     0.284 C 
ATOM     10  N   UNL A   1      32.869  23.846  26.081  1.00  0.00    -0.318 N 
ATOM     11  S   UNL A   1      31.015  23.079  24.375  1.00  0.00    -0.081 SA
ATOM     12  H   UNL A   1      32.624  23.315  26.916  1.00  0.00     0.348 HD
ATOM     13  H   UNL A   1      33.475  24.626  26.335  1.00  0.00     0.348 HD
ATOM     14  C   UNL A   1      32.537  22.020  24.440  1.00  0.00     0.079 C 
ATOM     15  C   UNL A   1      32.185  20.744  25.201  1.00  0.00     0.030 C 
ATOM     16  C   UNL A   1      32.735  21.696  22.943  1.00  0.00     0.030 C 
BRANCH   9  17
ATOM     17  C   UNL A   1      31.758  25.729  24.825  1.00  0.00     0.128 A 
ATOM     18  C   UNL A   1      29.170  29.142  22.428  1.00  0.00     0.131 A 
ATOM     19  C   UNL A   1      30.366  29.752  22.046  1.00  0.00     0.051 A 
ATOM     20  C   UNL A   1      29.152  28.058  23.300  1.00  0.00     0.063 A 
ATOM     21  C   UNL A   1      31.570  29.250  22.532  1.00  0.00     0.052 A 
ATOM     22  C   UNL A   1      30.367  27.555  23.761  1.00  0.00     0.069 A 
ATOM     23  C   UNL A   1      31.560  28.149  23.387  1.00  0.00     0.140 A 
ATOM     24  C   UNL A   1      30.424  26.376  24.627  1.00  0.00     0.205 A 
ATOM     25  O   UNL A   1      32.760  27.698  23.843  1.00  0.00    -0.440 OA
ATOM     26  O   UNL A   1      29.386  25.926  25.103  1.00  0.00    -0.288 OA
ATOM     27  C   UNL A   1      32.836  26.436  24.406  1.00  0.00     0.205 A 
BRANCH  18  28
ATOM     28  O   UNL A   1      27.943  29.670  22.021  1.00  0.00    -0.427 OA
BRANCH  28  29
ATOM     29  C   UNL A   1      27.855  31.053  22.108  1.00  0.00     0.308 C 
ATOM     30  C   UNL A   1      27.580  31.420  23.535  1.00  0.00     0.139 C 
ATOM     31  O   UNL A   1      27.943  31.862  21.195  1.00  0.00    -0.252 OA
ENDBRANCH  28  29
ENDBRANCH  18  28
BRANCH  27  32
ATOM     32  N   UNL A   1      34.136  26.036  24.442  1.00  0.00    -0.369 N 
ATOM     33  H   UNL A   1      34.492  25.593  25.246  1.00  0.00     0.159 HD
ATOM     34  H   UNL A   1      34.720  26.187  23.664  1.00  0.00     0.159 HD
ENDBRANCH  27  32
ENDBRANCH   9  17
ENDBRANCH   6   8
ENDBRANCH   5   6
ENDBRANCH   4   5
ENDBRANCH   3   4
ENDBRANCH   2   3
ENDBRANCH   1   2
BRANCH   1  35
ATOM     35  C   UNL A   1      41.064  22.393  26.685  1.00  0.00     0.188 C 
BRANCH  35  36
ATOM     36  O   UNL A   1      42.439  22.490  26.962  1.00  0.00    -0.376 OA
BRANCH  36  37
ATOM     37  C   UNL A   1      43.386  22.144  25.979  1.00  0.00     0.202 C 
BRANCH  37  38
ATOM     38  C   UNL A   1      43.399  22.897  24.642  1.00  0.00     0.261 C 
BRANCH  38  39
ATOM     39  O   UNL A   1      43.510  24.323  24.695  1.00  0.00    -0.460 OA
BRANCH  39  40
ATOM     40  C   UNL A   1      44.714  24.854  25.019  1.00  0.00     0.338 C 
ATOM     41  O   UNL A   1      45.799  24.524  24.571  1.00  0.00    -0.246 OA
BRANCH  40  42
ATOM     42  C   UNL A   1      44.435  26.068  25.824  1.00  0.00     0.060 A 
ATOM     43  C   UNL A   1      44.755  26.089  27.183  1.00  0.00     0.016 A 
ATOM     44  C   UNL A   1      43.792  27.165  25.233  1.00  0.00     0.016 A 
ATOM     45  C   UNL A   1      44.448  27.213  27.948  1.00  0.00     0.010 A 
ATOM     46  C   UNL A   1      43.483  28.293  26.003  1.00  0.00     0.010 A 
ATOM     47  C   UNL A   1      43.826  28.332  27.363  1.00  0.00    -0.014 A 
BRANCH  47  48
ATOM     48  C   UNL A   1      43.726  29.587  28.147  1.00  0.00     0.031 A 
ATOM     49  C   UNL A   1      42.472  29.996  28.861  1.00  0.00     0.074 A 
ATOM     50  C   UNL A   1      44.825  30.364  28.217  1.00  0.00     0.049 A 
ATOM     51  N   UNL A   1      42.298  30.996  29.687  1.00  0.00    -0.248 NA
ATOM     52  C   UNL A   1      41.260  29.198  28.621  1.00  0.00     0.031 C 
ATOM     53  C   UNL A   1      46.078  30.107  27.502  1.00  0.00     0.029 A 
ATOM     54  N   UNL A   1      45.072  31.517  28.918  1.00  0.00    -0.354 N 
ATOM     55  C   UNL A   1      40.966  30.950  30.074  1.00  0.00     0.074 A 
ATOM     56  C   UNL A   1      40.365  29.835  29.369  1.00  0.00     0.031 C 
ATOM     57  C   UNL A   1      46.965  31.062  27.815  1.00  0.00     0.029 A 
ATOM     58  C   UNL A   1      46.345  32.003  28.742  1.00  0.00     0.049 A 
ATOM     59  H   UNL A   1      44.401  31.953  29.492  1.00  0.00     0.167 HD
ATOM     60  C   UNL A   1      40.317  31.749  30.955  1.00  0.00     0.034 A 
ATOM     61  C   UNL A   1      46.956  33.079  29.273  1.00  0.00     0.034 A 
ATOM     62  C   UNL A   1      40.926  32.845  31.663  1.00  0.00     0.049 A 
ATOM     63  C   UNL A   1      46.222  33.925  30.270  1.00  0.00     0.074 A 
ATOM     64  C   UNL A   1      40.355  33.663  32.624  1.00  0.00     0.029 A 
ATOM     65  N   UNL A   1      42.228  33.282  31.490  1.00  0.00    -0.354 N 
ATOM     66  N   UNL A   1      45.006  33.774  30.733  1.00  0.00    -0.248 NA
ATOM     67  C   UNL A   1      46.948  35.068  30.843  1.00  0.00     0.031 C 
ATOM     68  C   UNL A   1      41.308  34.604  33.021  1.00  0.00     0.029 A 
ATOM     69  C   UNL A   1      42.478  34.360  32.321  1.00  0.00     0.049 A 
ATOM     70  H   UNL A   1      42.879  32.885  30.867  1.00  0.00     0.167 HD
ATOM     71  C   UNL A   1      44.826  34.788  31.665  1.00  0.00     0.074 A 
ATOM     72  C   UNL A   1      46.063  35.539  31.715  1.00  0.00     0.031 C 
ATOM     73  C   UNL A   1      43.725  35.075  32.399  1.00  0.00     0.034 A 
BRANCH  60  74
ATOM     74  C   UNL A   1      38.883  31.436  31.292  1.00  0.00     0.023 A 
ATOM     75  C   UNL A   1      38.617  30.600  32.394  1.00  0.00     0.012 A 
ATOM     76  C   UNL A   1      37.820  32.097  30.646  1.00  0.00     0.148 A 
ATOM     77  C   UNL A   1      37.312  30.428  32.853  1.00  0.00     0.002 A 
ATOM     78  C   UNL A   1      36.524  31.942  31.127  1.00  0.00     0.091 A 
ATOM     79  F   UNL A   1      38.103  32.891  29.604  1.00  0.00    -0.205 F 
ATOM     80  C   UNL A   1      36.269  31.106  32.228  1.00  0.00     0.022 A 
BRANCH  78  81
ATOM     81  S   UNL A   1      35.114  32.817  30.438  1.00  0.00     0.127 S 
ATOM     82  O   UNL A   1      34.767  31.969  29.298  1.00  0.00    -0.237 OA
ATOM     83  O   UNL A   1      34.158  32.773  31.544  1.00  0.00    -0.237 OA
ATOM     84  O   UNL A   1      35.592  34.147  30.090  1.00  0.00    -0.744 OA
ENDBRANCH  78  81
ENDBRANCH  60  74
BRANCH  61  85
ATOM     85  C   UNL A   1      48.367  33.365  28.905  1.00  0.00     0.023 A 
ATOM     86  C   UNL A   1      49.411  32.736  29.608  1.00  0.00     0.012 A 
ATOM     87  C   UNL A   1      48.670  34.200  27.813  1.00  0.00     0.148 A 
ATOM     88  C   UNL A   1      50.739  32.945  29.236  1.00  0.00     0.002 A 
ATOM     89  C   UNL A   1      49.992  34.370  27.422  1.00  0.00     0.091 A 
ATOM     90  F   UNL A   1      47.655  34.784  27.162  1.00  0.00    -0.205 F 
ATOM     91  C   UNL A   1      51.028  33.752  28.139  1.00  0.00     0.022 A 
BRANCH  89  92
ATOM     92  S   UNL A   1      50.453  35.304  25.959  1.00  0.00     0.127 S 
ATOM     93  O   UNL A   1      51.907  35.155  25.958  1.00  0.00    -0.237 OA
ATOM     94  O   UNL A   1      49.758  34.568  24.903  1.00  0.00    -0.237 OA
ATOM     95  O   UNL A   1      49.960  36.656  26.180  1.00  0.00    -0.744 OA
ENDBRANCH  89  92
ENDBRANCH  61  85
BRANCH  73  96
ATOM     96  C   UNL A   1      43.784  36.247  33.339  1.00  0.00     0.023 A 
ATOM     97  C   UNL A   1      43.500  37.537  32.852  1.00  0.00     0.012 A 
ATOM     98  C   UNL A   1      43.990  36.051  34.718  1.00  0.00     0.148 A 
ATOM     99  C   UNL A   1      43.422  38.620  33.727  1.00  0.00     0.002 A 
ATOM    100  C   UNL A   1      43.878  37.129  35.588  1.00  0.00     0.091 A 
ATOM    101  F   UNL A   1      44.266  34.813  35.153  1.00  0.00    -0.205 F 
ATOM    102  C   UNL A   1      43.598  38.414  35.094  1.00  0.00     0.022 A 
BRANCH 100 103
ATOM    103  S   UNL A   1      44.019  36.956  37.371  1.00  0.00     0.127 S 
ATOM    104  O   UNL A   1      45.296  36.255  37.501  1.00  0.00    -0.237 OA
ATOM    105  O   UNL A   1      44.039  38.349  37.815  1.00  0.00    -0.237 OA
ATOM    106  O   UNL A   1      42.853  36.195  37.799  1.00  0.00    -0.744 OA
ENDBRANCH 100 103
ENDBRANCH  73  96
ENDBRANCH  47  48
ENDBRANCH  40  42
ENDBRANCH  39  40
ENDBRANCH  38  39
ENDBRANCH  37  38
ENDBRANCH  36  37
ENDBRANCH  35  36
ENDBRANCH   1  35
TORSDOF 24
ENDMDL
MODEL 3
REMARK VINA RESULT:      -9.3      6.153     10.257
REMARK SMILES CC(=O)Oc1ccc2oc(N)c([C@@H]3[NH2+][C@@H](C(=O)OCCOCCOCCOC(=O)c4ccc(-c5c6nc(c(-c7cccc(S(=O)(=O)[O-])c7F)c7ccc([nH]7)c(-c7cccc(S(=O)(=O)[O-])c7F)c7nc(c(-c8cccc(S(=O)(=O)[O-])c8F)c8ccc5[nH]8)C=C7)C=C6)cc4)C(C)(C)S3)c(=O)c2c1
REMARK SMILES IDX 22 1 21 2 20 3 19 4 18 5 16 6 17 7 15 8 13 9 14 10 96 11
REMARK SMILES IDX 93 14 94 15 95 16 12 17 5 18 6 19 100 20 7 21 99 22 8 23
REMARK SMILES IDX 97 24 9 25 98 26 10 27 4 28 2 29 1 30 3 31 11 32 23 35 24 36
REMARK SMILES IDX 25 37 26 38 27 39 28 40 29 41 30 42 31 43 92 44 32 45 91 46
REMARK SMILES IDX 33 47 34 48 35 49 85 50 36 51 90 52 84 53 86 54 37 55 89 56
REMARK SMILES IDX 83 57 82 58 38 60 70 61 50 62 69 63 51 64 54 65 68 66 87 67
REMARK SMILES IDX 52 68 53 69 67 71 88 72 55 73 39 74 40 75 48 76 41 77 43 78
REMARK SMILES IDX 49 79 42 80 44 81 45 82 46 83 47 84 71 85 72 86 80 87 73 88
REMARK SMILES IDX 75 89 81 90 74 91 76 92 77 93 78 94 79 95 56 96 57 97 65 98
REMARK SMILES IDX 58 99 60 100 66 101 59 102 61 103 62 104 63 105 64 106
REMARK H PARENT 14 12 14 13 11 33 11 34 86 59 54 70
REMARK Flexibility Score: inf
ROOT
ATOM      1  C   UNL A   1      46.370  25.435  26.358  1.00  0.00     0.188 C 
ENDROOT
BRANCH   1   2
ATOM      2  O   UNL A   1      46.864  25.477  27.691  1.00  0.00    -0.376 OA
BRANCH   2   3
ATOM      3  C   UNL A   1      46.109  24.920  28.758  1.00  0.00     0.202 C 
BRANCH   3   4
ATOM      4  C   UNL A   1      45.509  25.868  29.810  1.00  0.00     0.261 C 
BRANCH   4   5
ATOM      5  O   UNL A   1      44.095  25.714  30.096  1.00  0.00    -0.459 OA
BRANCH   5   6
ATOM      6  C   UNL A   1      43.282  26.632  29.511  1.00  0.00     0.366 C 
ATOM      7  O   UNL A   1      43.421  27.842  29.684  1.00  0.00    -0.245 OA
BRANCH   6   8
ATOM      8  C   UNL A   1      42.113  26.080  28.634  1.00  0.00     0.310 C 
ATOM      9  C   UNL A   1      41.776  24.942  26.537  1.00  0.00     0.284 C 
ATOM     10  N   UNL A   1      42.774  25.536  27.416  1.00  0.00    -0.318 N 
ATOM     11  S   UNL A   1      40.265  25.907  26.702  1.00  0.00    -0.081 SA
ATOM     12  H   UNL A   1      43.250  26.292  26.923  1.00  0.00     0.348 HD
ATOM     13  H   UNL A   1      43.450  24.823  27.688  1.00  0.00     0.348 HD
ATOM     14  C   UNL A   1      40.825  26.851  28.197  1.00  0.00     0.079 C 
ATOM     15  C   UNL A   1      41.026  28.307  27.782  1.00  0.00     0.030 C 
ATOM     16  C   UNL A   1      39.580  26.735  29.103  1.00  0.00     0.030 C 
BRANCH   9  17
ATOM     17  C   UNL A   1      41.579  23.447  26.663  1.00  0.00     0.128 A 
ATOM     18  C   UNL A   1      43.545  19.114  25.456  1.00  0.00     0.131 A 
ATOM     19  C   UNL A   1      42.333  18.498  25.774  1.00  0.00     0.051 A 
ATOM     20  C   UNL A   1      43.752  20.472  25.680  1.00  0.00     0.063 A 
ATOM     21  C   UNL A   1      41.301  19.265  26.310  1.00  0.00     0.052 A 
ATOM     22  C   UNL A   1      42.702  21.228  26.198  1.00  0.00     0.069 A 
ATOM     23  C   UNL A   1      41.495  20.631  26.515  1.00  0.00     0.140 A 
ATOM     24  C   UNL A   1      42.831  22.673  26.396  1.00  0.00     0.205 A 
ATOM     25  O   UNL A   1      40.462  21.338  27.047  1.00  0.00    -0.440 OA
ATOM     26  O   UNL A   1      43.931  23.204  26.277  1.00  0.00    -0.288 OA
ATOM     27  C   UNL A   1      40.475  22.719  26.961  1.00  0.00     0.205 A 
BRANCH  18  28
ATOM     28  O   UNL A   1      44.623  18.359  24.991  1.00  0.00    -0.427 OA
BRANCH  28  29
ATOM     29  C   UNL A   1      45.483  19.046  24.144  1.00  0.00     0.308 C 
ATOM     30  C   UNL A   1      44.921  18.988  22.755  1.00  0.00     0.139 C 
ATOM     31  O   UNL A   1      46.541  19.584  24.436  1.00  0.00    -0.252 OA
ENDBRANCH  28  29
ENDBRANCH  18  28
BRANCH  27  32
ATOM     32  N   UNL A   1      39.223  23.197  27.195  1.00  0.00    -0.369 N 
ATOM     33  H   UNL A   1      38.742  23.684  26.488  1.00  0.00     0.159 HD
ATOM     34  H   UNL A   1      38.797  23.055  28.071  1.00  0.00     0.159 HD
ENDBRANCH  27  32
ENDBRANCH   9  17
ENDBRANCH   6   8
ENDBRANCH   5   6
ENDBRANCH   4   5
ENDBRANCH   3   4
ENDBRANCH   2   3
ENDBRANCH   1   2
BRANCH   1  35
ATOM     35  C   UNL A   1      45.774  26.705  25.754  1.00  0.00     0.188 C 
BRANCH  35  36
ATOM     36  O   UNL A   1      46.138  27.884  26.429  1.00  0.00    -0.376 OA
BRANCH  36  37
ATOM     37  C   UNL A   1      47.042  28.788  25.840  1.00  0.00     0.202 C 
BRANCH  37  38
ATOM     38  C   UNL A   1      46.885  30.292  26.099  1.00  0.00     0.261 C 
BRANCH  38  39
ATOM     39  O   UNL A   1      45.821  30.700  26.967  1.00  0.00    -0.460 OA
BRANCH  39  40
ATOM     40  C   UNL A   1      45.150  31.836  26.658  1.00  0.00     0.338 C 
ATOM     41  O   UNL A   1      45.052  32.345  25.555  1.00  0.00    -0.246 OA
BRANCH  40  42
ATOM     42  C   UNL A   1      44.358  32.196  27.858  1.00  0.00     0.060 A 
ATOM     43  C   UNL A   1      43.682  31.201  28.568  1.00  0.00     0.016 A 
ATOM     44  C   UNL A   1      44.235  33.540  28.238  1.00  0.00     0.016 A 
ATOM     45  C   UNL A   1      42.899  31.548  29.668  1.00  0.00     0.010 A 
ATOM     46  C   UNL A   1      43.447  33.887  29.341  1.00  0.00     0.010 A 
ATOM     47  C   UNL A   1      42.787  32.890  30.076  1.00  0.00    -0.014 A 
BRANCH  47  48
ATOM     48  C   UNL A   1      42.139  33.192  31.375  1.00  0.00     0.031 A 
ATOM     49  C   UNL A   1      40.660  33.399  31.512  1.00  0.00     0.074 A 
ATOM     50  C   UNL A   1      42.932  33.262  32.463  1.00  0.00     0.049 A 
ATOM     51  N   UNL A   1      39.958  33.535  32.608  1.00  0.00    -0.248 NA
ATOM     52  C   UNL A   1      39.865  33.471  30.277  1.00  0.00     0.031 C 
ATOM     53  C   UNL A   1      44.393  33.154  32.440  1.00  0.00     0.029 A 
ATOM     54  N   UNL A   1      42.631  33.436  33.789  1.00  0.00    -0.354 N 
ATOM     55  C   UNL A   1      38.640  33.701  32.203  1.00  0.00     0.074 A 
ATOM     56  C   UNL A   1      38.642  33.676  30.754  1.00  0.00     0.031 C 
ATOM     57  C   UNL A   1      44.859  33.245  33.694  1.00  0.00     0.029 A 
ATOM     58  C   UNL A   1      43.735  33.427  34.607  1.00  0.00     0.049 A 
ATOM     59  H   UNL A   1      41.712  33.555  34.123  1.00  0.00     0.167 HD
ATOM     60  C   UNL A   1      37.533  33.834  32.973  1.00  0.00     0.034 A 
ATOM     61  C   UNL A   1      43.839  33.543  35.946  1.00  0.00     0.034 A 
ATOM     62  C   UNL A   1      37.538  33.840  34.414  1.00  0.00     0.049 A 
ATOM     63  C   UNL A   1      42.593  33.656  36.773  1.00  0.00     0.074 A 
ATOM     64  C   UNL A   1      36.452  33.905  35.271  1.00  0.00     0.029 A 
ATOM     65  N   UNL A   1      38.671  33.789  35.208  1.00  0.00    -0.354 N 
ATOM     66  N   UNL A   1      41.345  33.662  36.376  1.00  0.00    -0.248 NA
ATOM     67  C   UNL A   1      42.763  33.745  38.230  1.00  0.00     0.031 C 
ATOM     68  C   UNL A   1      36.929  33.906  36.584  1.00  0.00     0.029 A 
ATOM     69  C   UNL A   1      38.312  33.825  36.544  1.00  0.00     0.049 A 
ATOM     70  H   UNL A   1      39.595  33.736  34.872  1.00  0.00     0.167 HD
ATOM     71  C   UNL A   1      40.579  33.737  37.532  1.00  0.00     0.074 A 
ATOM     72  C   UNL A   1      41.502  33.756  38.648  1.00  0.00     0.031 C 
ATOM     73  C   UNL A   1      39.232  33.798  37.650  1.00  0.00     0.034 A 
BRANCH  60  74
ATOM     74  C   UNL A   1      36.189  33.898  32.299  1.00  0.00     0.023 A 
ATOM     75  C   UNL A   1      35.712  32.751  31.636  1.00  0.00     0.012 A 
ATOM     76  C   UNL A   1      35.338  35.008  32.471  1.00  0.00     0.148 A 
ATOM     77  C   UNL A   1      34.404  32.703  31.155  1.00  0.00     0.002 A 
ATOM     78  C   UNL A   1      34.026  34.943  32.012  1.00  0.00     0.091 A 
ATOM     79  F   UNL A   1      35.816  36.084  33.111  1.00  0.00    -0.205 F 
ATOM     80  C   UNL A   1      33.559  33.793  31.353  1.00  0.00     0.022 A 
BRANCH  78  81
ATOM     81  S   UNL A   1      32.834  36.263  32.269  1.00  0.00     0.127 S 
ATOM     82  O   UNL A   1      32.838  36.923  30.965  1.00  0.00    -0.237 OA
ATOM     83  O   UNL A   1      31.613  35.516  32.570  1.00  0.00    -0.237 OA
ATOM     84  O   UNL A   1      33.350  37.068  33.366  1.00  0.00    -0.744 OA
ENDBRANCH  78  81
ENDBRANCH  60  74
BRANCH  61  85
ATOM     85  C   UNL A   1      45.184  33.490  36.574  1.00  0.00     0.023 A 
ATOM     86  C   UNL A   1      45.895  34.683  36.798  1.00  0.00     0.012 A 
ATOM     87  C   UNL A   1      45.724  32.267  37.015  1.00  0.00     0.148 A 
ATOM     88  C   UNL A   1      47.132  34.658  37.442  1.00  0.00     0.002 A 
ATOM     89  C   UNL A   1      46.936  32.254  37.693  1.00  0.00     0.091 A 
ATOM     90  F   UNL A   1      45.024  31.147  36.788  1.00  0.00    -0.205 F 
ATOM     91  C   UNL A   1      47.647  33.447  37.898  1.00  0.00     0.022 A 
BRANCH  89  92
ATOM     92  S   UNL A   1      47.625  30.758  38.409  1.00  0.00     0.127 S 
ATOM     93  O   UNL A   1      47.873  29.946  37.218  1.00  0.00    -0.237 OA
ATOM     94  O   UNL A   1      48.828  31.269  39.067  1.00  0.00    -0.237 OA
ATOM     95  O   UNL A   1      46.608  30.248  39.317  1.00  0.00    -0.744 OA
ENDBRANCH  89  92
ENDBRANCH  61  85
BRANCH  73  96
ATOM     96  C   UNL A   1      38.644  33.885  39.032  1.00  0.00     0.023 A 
ATOM     97  C   UNL A   1      38.739  35.094  39.747  1.00  0.00     0.012 A 
ATOM     98  C   UNL A   1      37.890  32.820  39.559  1.00  0.00     0.148 A 
ATOM     99  C   UNL A   1      38.092  35.240  40.974  1.00  0.00     0.002 A 
ATOM    100  C   UNL A   1      37.221  32.984  40.766  1.00  0.00     0.091 A 
ATOM    101  F   UNL A   1      37.823  31.677  38.859  1.00  0.00    -0.205 F 
ATOM    102  C   UNL A   1      37.324  34.192  41.476  1.00  0.00     0.022 A 
BRANCH 100 103
ATOM    103  S   UNL A   1      36.151  31.720  41.463  1.00  0.00     0.127 S 
ATOM    104  O   UNL A   1      35.437  32.472  42.494  1.00  0.00    -0.237 OA
ATOM    105  O   UNL A   1      35.335  31.338  40.311  1.00  0.00    -0.237 OA
ATOM    106  O   UNL A   1      37.031  30.673  41.962  1.00  0.00    -0.744 OA
ENDBRANCH 100 103
ENDBRANCH  73  96
ENDBRANCH  47  48
ENDBRANCH  40  42
ENDBRANCH  39  40
ENDBRANCH  38  39
ENDBRANCH  37  38
ENDBRANCH  36  37
ENDBRANCH  35  36
ENDBRANCH   1  35
TORSDOF 24
ENDMDL
