MODEL 1
REMARK VINA RESULT:     -10.2      0.000      0.000
REMARK SMILES O=C(Cc1c[nH]c(=S)n(-c2ccc(Cl)c(C(F)(F)F)c2)c1=O)OCCOCCOCCOC(=O)c1ccc(-c2c3nc(c(-c4cccc(S(=O)(=O)[O-])c4F)c4ccc([nH]4)c(-c4cccc(S(=O)(=O)[O-])c4F)c4nc(c(-c5cccc(S(=O)(=O)[O-])c5F)c5ccc2[nH]5)C=C4)C=C3)cc1
REMARK SMILES IDX 27 1 26 2 25 3 24 4 23 5 2 6 1 7 3 8 4 9 5 10 21 11 6 12
REMARK SMILES IDX 9 13 22 14 7 15 8 17 10 18 11 19 20 20 12 21 15 22 13 23
REMARK SMILES IDX 14 24 16 25 17 26 18 27 19 28 28 29 29 30 30 31 31 32 32 33
REMARK SMILES IDX 33 34 34 35 35 36 36 37 97 38 37 39 96 40 38 41 39 42 40 43
REMARK SMILES IDX 90 44 41 45 95 46 89 47 91 48 42 49 94 50 88 51 87 52 43 54
REMARK SMILES IDX 75 55 55 56 74 57 56 58 59 59 73 60 92 61 57 62 58 63 72 65
REMARK SMILES IDX 93 66 60 67 44 68 45 69 53 70 46 71 48 72 54 73 47 74 49 75
REMARK SMILES IDX 50 76 51 77 52 78 76 79 77 80 85 81 78 82 80 83 86 84 79 85
REMARK SMILES IDX 81 86 82 87 83 88 84 89 61 90 62 91 70 92 63 93 65 94 71 95
REMARK SMILES IDX 64 96 66 97 67 98 68 99 69 100
REMARK H PARENT 6 16 91 53 59 64
REMARK Flexibility Score: inf
ROOT
ATOM      1  C   UNL A   1      34.924  21.202  24.610  1.00  0.00     0.188 C 
ENDROOT
BRANCH   1   2
ATOM      2  O   UNL A   1      34.352  21.370  25.891  1.00  0.00    -0.376 OA
BRANCH   2   3
ATOM      3  C   UNL A   1      34.546  22.611  26.529  1.00  0.00     0.202 C 
BRANCH   3   4
ATOM      4  C   UNL A   1      33.427  22.985  27.493  1.00  0.00     0.261 C 
BRANCH   4   5
ATOM      5  O   UNL A   1      32.401  23.883  27.008  1.00  0.00    -0.463 OA
BRANCH   5   6
ATOM      6  C   UNL A   1      31.064  23.767  26.861  1.00  0.00     0.310 C 
ATOM      7  O   UNL A   1      30.507  22.784  27.350  1.00  0.00    -0.252 OA
BRANCH   6   8
ATOM      8  C   UNL A   1      30.269  24.718  25.965  1.00  0.00     0.165 C 
BRANCH   8   9
ATOM      9  C   UNL A   1      31.042  25.548  25.002  1.00  0.00     0.045 A 
ATOM     10  C   UNL A   1      31.389  25.184  23.764  1.00  0.00     0.095 A 
ATOM     11  C   UNL A   1      31.447  26.882  25.480  1.00  0.00     0.262 A 
ATOM     12  N   UNL A   1      32.174  25.987  22.987  1.00  0.00    -0.338 N 
ATOM     13  N   UNL A   1      32.405  27.542  24.721  1.00  0.00    -0.253 N 
ATOM     14  O   UNL A   1      30.967  27.307  26.529  1.00  0.00    -0.269 OA
ATOM     15  C   UNL A   1      32.740  27.167  23.420  1.00  0.00     0.184 A 
ATOM     16  H   UNL A   1      32.347  25.705  22.059  1.00  0.00     0.168 HD
ATOM     17  S   UNL A   1      33.750  27.985  22.363  1.00  0.00    -0.040 S 
BRANCH  13  18
ATOM     18  C   UNL A   1      32.946  28.685  25.361  1.00  0.00     0.052 A 
ATOM     19  C   UNL A   1      34.026  28.519  26.232  1.00  0.00     0.028 A 
ATOM     20  C   UNL A   1      32.156  29.835  25.430  1.00  0.00     0.041 A 
ATOM     21  C   UNL A   1      34.308  29.508  27.173  1.00  0.00     0.023 A 
ATOM     22  C   UNL A   1      32.412  30.822  26.394  1.00  0.00     0.076 A 
ATOM     23  C   UNL A   1      33.502  30.649  27.259  1.00  0.00     0.053 A 
ATOM     24  Cl  UNL A   1      33.879  31.795  28.492  1.00  0.00    -0.084 Cl
BRANCH  22  25
ATOM     25  C   UNL A   1      31.470  31.985  26.519  1.00  0.00     0.417 C 
ATOM     26  F   UNL A   1      30.635  31.889  27.589  1.00  0.00    -0.166 F 
ATOM     27  F   UNL A   1      32.119  33.176  26.643  1.00  0.00    -0.166 F 
ATOM     28  F   UNL A   1      30.655  32.131  25.435  1.00  0.00    -0.166 F 
ENDBRANCH  22  25
ENDBRANCH  13  18
ENDBRANCH   8   9
ENDBRANCH   6   8
ENDBRANCH   5   6
ENDBRANCH   4   5
ENDBRANCH   3   4
ENDBRANCH   2   3
ENDBRANCH   1   2
BRANCH   1  29
ATOM     29  C   UNL A   1      35.931  22.296  24.231  1.00  0.00     0.188 C 
BRANCH  29  30
ATOM     30  O   UNL A   1      37.324  22.017  24.271  1.00  0.00    -0.376 OA
BRANCH  30  31
ATOM     31  C   UNL A   1      37.825  21.083  25.214  1.00  0.00     0.202 C 
BRANCH  31  32
ATOM     32  C   UNL A   1      39.232  21.299  25.796  1.00  0.00     0.261 C 
BRANCH  32  33
ATOM     33  O   UNL A   1      39.829  20.171  26.470  1.00  0.00    -0.460 OA
BRANCH  33  34
ATOM     34  C   UNL A   1      41.137  19.922  26.181  1.00  0.00     0.338 C 
ATOM     35  O   UNL A   1      41.571  18.967  25.568  1.00  0.00    -0.246 OA
BRANCH  34  36
ATOM     36  C   UNL A   1      41.986  21.084  26.572  1.00  0.00     0.060 A 
ATOM     37  C   UNL A   1      42.582  21.905  25.616  1.00  0.00     0.016 A 
ATOM     38  C   UNL A   1      42.151  21.372  27.936  1.00  0.00     0.016 A 
ATOM     39  C   UNL A   1      43.295  23.043  26.029  1.00  0.00     0.010 A 
ATOM     40  C   UNL A   1      42.872  22.505  28.346  1.00  0.00     0.010 A 
ATOM     41  C   UNL A   1      43.421  23.374  27.394  1.00  0.00    -0.014 A 
BRANCH  41  42
ATOM     42  C   UNL A   1      43.906  24.732  27.780  1.00  0.00     0.031 A 
ATOM     43  C   UNL A   1      45.354  25.131  27.769  1.00  0.00     0.074 A 
ATOM     44  C   UNL A   1      42.982  25.638  28.164  1.00  0.00     0.049 A 
ATOM     45  N   UNL A   1      45.871  26.326  27.911  1.00  0.00    -0.248 NA
ATOM     46  C   UNL A   1      46.352  24.067  27.581  1.00  0.00     0.031 C 
ATOM     47  C   UNL A   1      41.554  25.357  28.324  1.00  0.00     0.029 A 
ATOM     48  N   UNL A   1      43.096  26.969  28.483  1.00  0.00    -0.354 N 
ATOM     49  C   UNL A   1      47.247  26.170  27.822  1.00  0.00     0.074 A 
ATOM     50  C   UNL A   1      47.492  24.753  27.640  1.00  0.00     0.031 C 
ATOM     51  C   UNL A   1      40.920  26.484  28.677  1.00  0.00     0.029 A 
ATOM     52  C   UNL A   1      41.894  27.568  28.782  1.00  0.00     0.049 A 
ATOM     53  H   UNL A   1      43.957  27.448  28.497  1.00  0.00     0.167 HD
ATOM     54  C   UNL A   1      48.212  27.122  27.863  1.00  0.00     0.034 A 
ATOM     55  C   UNL A   1      41.593  28.845  29.089  1.00  0.00     0.034 A 
ATOM     56  C   UNL A   1      47.968  28.529  28.051  1.00  0.00     0.049 A 
ATOM     57  C   UNL A   1      42.675  29.885  29.100  1.00  0.00     0.074 A 
ATOM     58  C   UNL A   1      48.887  29.567  28.026  1.00  0.00     0.029 A 
ATOM     59  N   UNL A   1      46.735  29.099  28.321  1.00  0.00    -0.354 N 
ATOM     60  N   UNL A   1      43.948  29.743  28.827  1.00  0.00    -0.248 NA
ATOM     61  C   UNL A   1      42.281  31.265  29.430  1.00  0.00     0.031 C 
ATOM     62  C   UNL A   1      48.213  30.759  28.298  1.00  0.00     0.029 A 
ATOM     63  C   UNL A   1      46.871  30.469  28.473  1.00  0.00     0.049 A 
ATOM     64  H   UNL A   1      45.887  28.604  28.391  1.00  0.00     0.167 HD
ATOM     65  C   UNL A   1      44.505  31.011  28.940  1.00  0.00     0.074 A 
ATOM     66  C   UNL A   1      43.430  31.916  29.289  1.00  0.00     0.031 C 
ATOM     67  C   UNL A   1      45.798  31.378  28.780  1.00  0.00     0.034 A 
BRANCH  54  68
ATOM     68  C   UNL A   1      49.639  26.715  27.609  1.00  0.00     0.023 A 
ATOM     69  C   UNL A   1      50.040  26.472  26.280  1.00  0.00     0.012 A 
ATOM     70  C   UNL A   1      50.608  26.742  28.632  1.00  0.00     0.148 A 
ATOM     71  C   UNL A   1      51.383  26.260  25.971  1.00  0.00     0.002 A 
ATOM     72  C   UNL A   1      51.949  26.553  28.313  1.00  0.00     0.091 A 
ATOM     73  F   UNL A   1      50.203  26.985  29.887  1.00  0.00    -0.205 F 
ATOM     74  C   UNL A   1      52.336  26.310  26.984  1.00  0.00     0.022 A 
BRANCH  72  75
ATOM     75  S   UNL A   1      53.269  26.647  29.528  1.00  0.00     0.127 S 
ATOM     76  O   UNL A   1      54.386  26.062  28.787  1.00  0.00    -0.237 OA
ATOM     77  O   UNL A   1      53.375  28.088  29.754  1.00  0.00    -0.237 OA
ATOM     78  O   UNL A   1      52.817  25.874  30.676  1.00  0.00    -0.744 OA
ENDBRANCH  72  75
ENDBRANCH  54  68
BRANCH  55  79
ATOM     79  C   UNL A   1      40.173  29.206  29.342  1.00  0.00     0.023 A 
ATOM     80  C   UNL A   1      39.301  29.399  28.254  1.00  0.00     0.012 A 
ATOM     81  C   UNL A   1      39.669  29.269  30.656  1.00  0.00     0.148 A 
ATOM     82  C   UNL A   1      37.947  29.652  28.472  1.00  0.00     0.002 A 
ATOM     83  C   UNL A   1      38.313  29.482  30.864  1.00  0.00     0.091 A 
ATOM     84  F   UNL A   1      40.525  29.078  31.670  1.00  0.00    -0.205 F 
ATOM     85  C   UNL A   1      37.451  29.682  29.773  1.00  0.00     0.022 A 
BRANCH  83  86
ATOM     86  S   UNL A   1      37.566  29.440  32.496  1.00  0.00     0.127 S 
ATOM     87  O   UNL A   1      36.205  29.891  32.211  1.00  0.00    -0.237 OA
ATOM     88  O   UNL A   1      37.688  28.023  32.841  1.00  0.00    -0.237 OA
ATOM     89  O   UNL A   1      38.362  30.338  33.320  1.00  0.00    -0.744 OA
ENDBRANCH  83  86
ENDBRANCH  55  79
BRANCH  67  90
ATOM     90  C   UNL A   1      46.168  32.823  28.972  1.00  0.00     0.023 A 
ATOM     91  C   UNL A   1      46.453  33.293  30.268  1.00  0.00     0.012 A 
ATOM     92  C   UNL A   1      46.407  33.657  27.861  1.00  0.00     0.148 A 
ATOM     93  C   UNL A   1      46.980  34.571  30.457  1.00  0.00     0.002 A 
ATOM     94  C   UNL A   1      46.960  34.917  28.055  1.00  0.00     0.091 A 
ATOM     95  F   UNL A   1      46.126  33.183  26.639  1.00  0.00    -0.205 F 
ATOM     96  C   UNL A   1      47.247  35.375  29.351  1.00  0.00     0.022 A 
BRANCH  94  97
ATOM     97  S   UNL A   1      47.407  36.002  26.693  1.00  0.00     0.127 S 
ATOM     98  O   UNL A   1      47.892  37.185  27.403  1.00  0.00    -0.237 OA
ATOM     99  O   UNL A   1      48.445  35.229  26.013  1.00  0.00    -0.237 OA
ATOM    100  O   UNL A   1      46.189  36.208  25.921  1.00  0.00    -0.744 OA
ENDBRANCH  94  97
ENDBRANCH  67  90
ENDBRANCH  41  42
ENDBRANCH  34  36
ENDBRANCH  33  34
ENDBRANCH  32  33
ENDBRANCH  31  32
ENDBRANCH  30  31
ENDBRANCH  29  30
ENDBRANCH   1  29
TORSDOF 23
ENDMDL
MODEL 2
REMARK VINA RESULT:      -9.8      1.801      7.454
REMARK SMILES O=C(Cc1c[nH]c(=S)n(-c2ccc(Cl)c(C(F)(F)F)c2)c1=O)OCCOCCOCCOC(=O)c1ccc(-c2c3nc(c(-c4cccc(S(=O)(=O)[O-])c4F)c4ccc([nH]4)c(-c4cccc(S(=O)(=O)[O-])c4F)c4nc(c(-c5cccc(S(=O)(=O)[O-])c5F)c5ccc2[nH]5)C=C4)C=C3)cc1
REMARK SMILES IDX 27 1 26 2 25 3 24 4 23 5 2 6 1 7 3 8 4 9 5 10 21 11 6 12
REMARK SMILES IDX 9 13 22 14 7 15 8 17 10 18 11 19 20 20 12 21 15 22 13 23
REMARK SMILES IDX 14 24 16 25 17 26 18 27 19 28 28 29 29 30 30 31 31 32 32 33
REMARK SMILES IDX 33 34 34 35 35 36 36 37 97 38 37 39 96 40 38 41 39 42 40 43
REMARK SMILES IDX 90 44 41 45 95 46 89 47 91 48 42 49 94 50 88 51 87 52 43 54
REMARK SMILES IDX 75 55 55 56 74 57 56 58 59 59 73 60 92 61 57 62 58 63 72 65
REMARK SMILES IDX 93 66 60 67 44 68 45 69 53 70 46 71 48 72 54 73 47 74 49 75
REMARK SMILES IDX 50 76 51 77 52 78 76 79 77 80 85 81 78 82 80 83 86 84 79 85
REMARK SMILES IDX 81 86 82 87 83 88 84 89 61 90 62 91 70 92 63 93 65 94 71 95
REMARK SMILES IDX 64 96 66 97 67 98 68 99 69 100
REMARK H PARENT 6 16 91 53 59 64
REMARK Flexibility Score: inf
ROOT
ATOM      1  C   UNL A   1      37.457  20.323  24.827  1.00  0.00     0.188 C 
ENDROOT
BRANCH   1   2
ATOM      2  O   UNL A   1      36.089  20.392  25.175  1.00  0.00    -0.376 OA
BRANCH   2   3
ATOM      3  C   UNL A   1      35.627  21.592  25.750  1.00  0.00     0.202 C 
BRANCH   3   4
ATOM      4  C   UNL A   1      34.267  21.463  26.425  1.00  0.00     0.261 C 
BRANCH   4   5
ATOM      5  O   UNL A   1      33.375  22.600  26.353  1.00  0.00    -0.463 OA
BRANCH   5   6
ATOM      6  C   UNL A   1      32.142  22.842  26.845  1.00  0.00     0.310 C 
ATOM      7  O   UNL A   1      31.961  22.709  28.056  1.00  0.00    -0.252 OA
BRANCH   6   8
ATOM      8  C   UNL A   1      30.946  23.096  25.926  1.00  0.00     0.165 C 
BRANCH   8   9
ATOM      9  C   UNL A   1      31.226  23.724  24.607  1.00  0.00     0.045 A 
ATOM     10  C   UNL A   1      31.724  23.099  23.536  1.00  0.00     0.095 A 
ATOM     11  C   UNL A   1      30.915  25.160  24.498  1.00  0.00     0.262 A 
ATOM     12  N   UNL A   1      32.025  23.786  22.395  1.00  0.00    -0.338 N 
ATOM     13  N   UNL A   1      31.436  25.820  23.392  1.00  0.00    -0.253 N 
ATOM     14  O   UNL A   1      30.273  25.699  25.399  1.00  0.00    -0.269 OA
ATOM     15  C   UNL A   1      31.931  25.156  22.270  1.00  0.00     0.184 A 
ATOM     16  H   UNL A   1      32.328  23.270  21.612  1.00  0.00     0.168 HD
ATOM     17  S   UNL A   1      32.424  25.846  20.825  1.00  0.00    -0.040 S 
BRANCH  13  18
ATOM     18  C   UNL A   1      31.336  27.231  23.474  1.00  0.00     0.052 A 
ATOM     19  C   UNL A   1      32.099  27.904  24.433  1.00  0.00     0.028 A 
ATOM     20  C   UNL A   1      30.215  27.845  22.909  1.00  0.00     0.041 A 
ATOM     21  C   UNL A   1      31.732  29.190  24.824  1.00  0.00     0.023 A 
ATOM     22  C   UNL A   1      29.819  29.128  23.318  1.00  0.00     0.076 A 
ATOM     23  C   UNL A   1      30.595  29.796  24.275  1.00  0.00     0.053 A 
ATOM     24  Cl  UNL A   1      30.173  31.364  24.859  1.00  0.00    -0.084 Cl
BRANCH  22  25
ATOM     25  C   UNL A   1      28.542  29.706  22.779  1.00  0.00     0.417 C 
ATOM     26  F   UNL A   1      28.716  30.899  22.148  1.00  0.00    -0.166 F 
ATOM     27  F   UNL A   1      27.930  28.883  21.884  1.00  0.00    -0.166 F 
ATOM     28  F   UNL A   1      27.611  29.941  23.748  1.00  0.00    -0.166 F 
ENDBRANCH  22  25
ENDBRANCH  13  18
ENDBRANCH   8   9
ENDBRANCH   6   8
ENDBRANCH   5   6
ENDBRANCH   4   5
ENDBRANCH   3   4
ENDBRANCH   2   3
ENDBRANCH   1   2
BRANCH   1  29
ATOM     29  C   UNL A   1      38.291  21.500  25.351  1.00  0.00     0.188 C 
BRANCH  29  30
ATOM     30  O   UNL A   1      39.455  21.249  26.127  1.00  0.00    -0.376 OA
BRANCH  30  31
ATOM     31  C   UNL A   1      40.071  19.972  26.073  1.00  0.00     0.202 C 
BRANCH  31  32
ATOM     32  C   UNL A   1      41.197  19.649  27.071  1.00  0.00     0.261 C 
BRANCH  32  33
ATOM     33  O   UNL A   1      42.328  18.920  26.550  1.00  0.00    -0.460 OA
BRANCH  33  34
ATOM     34  C   UNL A   1      43.153  19.609  25.713  1.00  0.00     0.338 C 
ATOM     35  O   UNL A   1      43.737  19.161  24.746  1.00  0.00    -0.246 OA
BRANCH  34  36
ATOM     36  C   UNL A   1      43.120  21.065  26.032  1.00  0.00     0.060 A 
ATOM     37  C   UNL A   1      43.315  21.532  27.331  1.00  0.00     0.016 A 
ATOM     38  C   UNL A   1      42.924  21.982  24.986  1.00  0.00     0.016 A 
ATOM     39  C   UNL A   1      43.369  22.915  27.569  1.00  0.00     0.010 A 
ATOM     40  C   UNL A   1      42.968  23.364  25.228  1.00  0.00     0.010 A 
ATOM     41  C   UNL A   1      43.229  23.846  26.518  1.00  0.00    -0.014 A 
BRANCH  41  42
ATOM     42  C   UNL A   1      43.597  25.274  26.746  1.00  0.00     0.031 A 
ATOM     43  C   UNL A   1      42.663  26.287  27.345  1.00  0.00     0.074 A 
ATOM     44  C   UNL A   1      44.838  25.663  26.386  1.00  0.00     0.049 A 
ATOM     45  N   UNL A   1      42.933  27.503  27.752  1.00  0.00    -0.248 NA
ATOM     46  C   UNL A   1      41.253  25.903  27.506  1.00  0.00     0.031 C 
ATOM     47  C   UNL A   1      45.812  24.814  25.697  1.00  0.00     0.029 A 
ATOM     48  N   UNL A   1      45.496  26.858  26.546  1.00  0.00    -0.354 N 
ATOM     49  C   UNL A   1      41.739  28.030  28.226  1.00  0.00     0.074 A 
ATOM     50  C   UNL A   1      40.730  27.008  28.032  1.00  0.00     0.031 C 
ATOM     51  C   UNL A   1      46.950  25.500  25.524  1.00  0.00     0.029 A 
ATOM     52  C   UNL A   1      46.789  26.842  26.078  1.00  0.00     0.049 A 
ATOM     53  H   UNL A   1      45.081  27.651  26.958  1.00  0.00     0.167 HD
ATOM     54  C   UNL A   1      41.514  29.241  28.793  1.00  0.00     0.034 A 
ATOM     55  C   UNL A   1      47.752  27.785  26.099  1.00  0.00     0.034 A 
ATOM     56  C   UNL A   1      42.517  30.258  28.980  1.00  0.00     0.049 A 
ATOM     57  C   UNL A   1      47.486  29.107  26.757  1.00  0.00     0.074 A 
ATOM     58  C   UNL A   1      42.384  31.482  29.617  1.00  0.00     0.029 A 
ATOM     59  N   UNL A   1      43.821  30.191  28.518  1.00  0.00    -0.354 N 
ATOM     60  N   UNL A   1      46.400  29.513  27.367  1.00  0.00    -0.248 NA
ATOM     61  C   UNL A   1      48.581  30.091  26.760  1.00  0.00     0.031 C 
ATOM     62  C   UNL A   1      43.601  32.161  29.524  1.00  0.00     0.029 A 
ATOM     63  C   UNL A   1      44.498  31.353  28.847  1.00  0.00     0.049 A 
ATOM     64  H   UNL A   1      44.209  29.430  28.029  1.00  0.00     0.167 HD
ATOM     65  C   UNL A   1      46.682  30.791  27.835  1.00  0.00     0.074 A 
ATOM     66  C   UNL A   1      48.047  31.088  27.456  1.00  0.00     0.031 C 
ATOM     67  C   UNL A   1      45.868  31.638  28.508  1.00  0.00     0.034 A 
BRANCH  54  68
ATOM     68  C   UNL A   1      40.147  29.532  29.353  1.00  0.00     0.023 A 
ATOM     69  C   UNL A   1      39.134  29.949  28.466  1.00  0.00     0.012 A 
ATOM     70  C   UNL A   1      39.819  29.234  30.691  1.00  0.00     0.148 A 
ATOM     71  C   UNL A   1      37.815  30.067  28.900  1.00  0.00     0.002 A 
ATOM     72  C   UNL A   1      38.496  29.332  31.111  1.00  0.00     0.091 A 
ATOM     73  F   UNL A   1      40.798  28.830  31.512  1.00  0.00    -0.205 F 
ATOM     74  C   UNL A   1      37.495  29.750  30.218  1.00  0.00     0.022 A 
BRANCH  72  75
ATOM     75  S   UNL A   1      37.959  28.899  32.770  1.00  0.00     0.127 S 
ATOM     76  O   UNL A   1      36.580  29.385  32.764  1.00  0.00    -0.237 OA
ATOM     77  O   UNL A   1      38.093  27.443  32.765  1.00  0.00    -0.237 OA
ATOM     78  O   UNL A   1      38.856  29.598  33.679  1.00  0.00    -0.744 OA
ENDBRANCH  72  75
ENDBRANCH  54  68
BRANCH  55  79
ATOM     79  C   UNL A   1      49.085  27.462  25.528  1.00  0.00     0.023 A 
ATOM     80  C   UNL A   1      49.295  27.583  24.141  1.00  0.00     0.012 A 
ATOM     81  C   UNL A   1      50.166  27.125  26.366  1.00  0.00     0.148 A 
ATOM     82  C   UNL A   1      50.561  27.369  23.596  1.00  0.00     0.002 A 
ATOM     83  C   UNL A   1      51.432  26.953  25.822  1.00  0.00     0.091 A 
ATOM     84  F   UNL A   1      49.935  27.022  27.682  1.00  0.00    -0.205 F 
ATOM     85  C   UNL A   1      51.630  27.066  24.436  1.00  0.00     0.022 A 
BRANCH  83  86
ATOM     86  S   UNL A   1      52.887  26.658  26.832  1.00  0.00     0.127 S 
ATOM     87  O   UNL A   1      52.512  25.440  27.545  1.00  0.00    -0.237 OA
ATOM     88  O   UNL A   1      53.923  26.483  25.813  1.00  0.00    -0.237 OA
ATOM     89  O   UNL A   1      53.043  27.845  27.660  1.00  0.00    -0.744 OA
ENDBRANCH  83  86
ENDBRANCH  55  79
BRANCH  67  90
ATOM     90  C   UNL A   1      46.397  32.990  28.900  1.00  0.00     0.023 A 
ATOM     91  C   UNL A   1      47.045  33.141  30.140  1.00  0.00     0.012 A 
ATOM     92  C   UNL A   1      46.414  34.051  27.972  1.00  0.00     0.148 A 
ATOM     93  C   UNL A   1      47.710  34.327  30.450  1.00  0.00     0.002 A 
ATOM     94  C   UNL A   1      47.104  35.218  28.276  1.00  0.00     0.091 A 
ATOM     95  F   UNL A   1      45.789  33.878  26.798  1.00  0.00    -0.205 F 
ATOM     96  C   UNL A   1      47.752  35.358  29.514  1.00  0.00     0.022 A 
BRANCH  94  97
ATOM     97  S   UNL A   1      47.277  36.576  27.111  1.00  0.00     0.127 S 
ATOM     98  O   UNL A   1      47.972  37.575  27.921  1.00  0.00    -0.237 OA
ATOM     99  O   UNL A   1      48.089  35.973  26.055  1.00  0.00    -0.237 OA
ATOM    100  O   UNL A   1      45.926  36.944  26.712  1.00  0.00    -0.744 OA
ENDBRANCH  94  97
ENDBRANCH  67  90
ENDBRANCH  41  42
ENDBRANCH  34  36
ENDBRANCH  33  34
ENDBRANCH  32  33
ENDBRANCH  31  32
ENDBRANCH  30  31
ENDBRANCH  29  30
ENDBRANCH   1  29
TORSDOF 23
ENDMDL
MODEL 3
REMARK VINA RESULT:      -9.4      2.715      7.713
REMARK SMILES O=C(Cc1c[nH]c(=S)n(-c2ccc(Cl)c(C(F)(F)F)c2)c1=O)OCCOCCOCCOC(=O)c1ccc(-c2c3nc(c(-c4cccc(S(=O)(=O)[O-])c4F)c4ccc([nH]4)c(-c4cccc(S(=O)(=O)[O-])c4F)c4nc(c(-c5cccc(S(=O)(=O)[O-])c5F)c5ccc2[nH]5)C=C4)C=C3)cc1
REMARK SMILES IDX 27 1 26 2 25 3 24 4 23 5 2 6 1 7 3 8 4 9 5 10 21 11 6 12
REMARK SMILES IDX 9 13 22 14 7 15 8 17 10 18 11 19 20 20 12 21 15 22 13 23
REMARK SMILES IDX 14 24 16 25 17 26 18 27 19 28 28 29 29 30 30 31 31 32 32 33
REMARK SMILES IDX 33 34 34 35 35 36 36 37 97 38 37 39 96 40 38 41 39 42 40 43
REMARK SMILES IDX 90 44 41 45 95 46 89 47 91 48 42 49 94 50 88 51 87 52 43 54
REMARK SMILES IDX 75 55 55 56 74 57 56 58 59 59 73 60 92 61 57 62 58 63 72 65
REMARK SMILES IDX 93 66 60 67 44 68 45 69 53 70 46 71 48 72 54 73 47 74 49 75
REMARK SMILES IDX 50 76 51 77 52 78 76 79 77 80 85 81 78 82 80 83 86 84 79 85
REMARK SMILES IDX 81 86 82 87 83 88 84 89 61 90 62 91 70 92 63 93 65 94 71 95
REMARK SMILES IDX 64 96 66 97 67 98 68 99 69 100
REMARK H PARENT 6 16 91 53 59 64
REMARK Flexibility Score: inf
ROOT
ATOM      1  C   UNL A   1      37.652  20.220  24.856  1.00  0.00     0.188 C 
ENDROOT
BRANCH   1   2
ATOM      2  O   UNL A   1      36.246  20.233  24.994  1.00  0.00    -0.376 OA
BRANCH   2   3
ATOM      3  C   UNL A   1      35.631  21.473  25.252  1.00  0.00     0.202 C 
BRANCH   3   4
ATOM      4  C   UNL A   1      34.225  21.352  25.827  1.00  0.00     0.261 C 
BRANCH   4   5
ATOM      5  O   UNL A   1      33.556  22.574  26.216  1.00  0.00    -0.463 OA
BRANCH   5   6
ATOM      6  C   UNL A   1      32.391  22.830  26.849  1.00  0.00     0.310 C 
ATOM      7  O   UNL A   1      32.329  22.626  28.062  1.00  0.00    -0.252 OA
BRANCH   6   8
ATOM      8  C   UNL A   1      31.120  23.188  26.078  1.00  0.00     0.165 C 
BRANCH   8   9
ATOM      9  C   UNL A   1      31.292  23.810  24.737  1.00  0.00     0.045 A 
ATOM     10  C   UNL A   1      31.686  23.176  23.629  1.00  0.00     0.095 A 
ATOM     11  C   UNL A   1      30.994  25.251  24.652  1.00  0.00     0.262 A 
ATOM     12  N   UNL A   1      31.896  23.856  22.463  1.00  0.00    -0.338 N 
ATOM     13  N   UNL A   1      31.426  25.901  23.502  1.00  0.00    -0.253 N 
ATOM     14  O   UNL A   1      30.440  25.800  25.603  1.00  0.00    -0.269 OA
ATOM     15  C   UNL A   1      31.811  25.228  22.344  1.00  0.00     0.184 A 
ATOM     16  H   UNL A   1      32.122  23.335  21.659  1.00  0.00     0.168 HD
ATOM     17  S   UNL A   1      32.186  25.908  20.859  1.00  0.00    -0.040 S 
BRANCH  13  18
ATOM     18  C   UNL A   1      31.353  27.313  23.589  1.00  0.00     0.052 A 
ATOM     19  C   UNL A   1      32.099  27.965  24.575  1.00  0.00     0.028 A 
ATOM     20  C   UNL A   1      30.265  27.953  22.991  1.00  0.00     0.041 A 
ATOM     21  C   UNL A   1      31.747  29.257  24.960  1.00  0.00     0.023 A 
ATOM     22  C   UNL A   1      29.883  29.243  23.394  1.00  0.00     0.076 A 
ATOM     23  C   UNL A   1      30.642  29.890  24.379  1.00  0.00     0.053 A 
ATOM     24  Cl  UNL A   1      30.234  31.464  24.957  1.00  0.00    -0.084 Cl
BRANCH  22  25
ATOM     25  C   UNL A   1      28.637  29.851  22.817  1.00  0.00     0.417 C 
ATOM     26  F   UNL A   1      28.082  29.102  21.825  1.00  0.00    -0.166 F 
ATOM     27  F   UNL A   1      27.663  30.038  23.749  1.00  0.00    -0.166 F 
ATOM     28  F   UNL A   1      28.848  31.081  22.266  1.00  0.00    -0.166 F 
ENDBRANCH  22  25
ENDBRANCH  13  18
ENDBRANCH   8   9
ENDBRANCH   6   8
ENDBRANCH   5   6
ENDBRANCH   4   5
ENDBRANCH   3   4
ENDBRANCH   2   3
ENDBRANCH   1   2
BRANCH   1  29
ATOM     29  C   UNL A   1      38.359  21.362  25.601  1.00  0.00     0.188 C 
BRANCH  29  30
ATOM     30  O   UNL A   1      39.500  21.082  26.401  1.00  0.00    -0.376 OA
BRANCH  30  31
ATOM     31  C   UNL A   1      40.246  19.898  26.167  1.00  0.00     0.202 C 
BRANCH  31  32
ATOM     32  C   UNL A   1      41.500  19.632  27.018  1.00  0.00     0.261 C 
BRANCH  32  33
ATOM     33  O   UNL A   1      42.584  18.938  26.365  1.00  0.00    -0.460 OA
BRANCH  33  34
ATOM     34  C   UNL A   1      43.319  19.668  25.481  1.00  0.00     0.338 C 
ATOM     35  O   UNL A   1      43.824  19.260  24.454  1.00  0.00    -0.246 OA
BRANCH  34  36
ATOM     36  C   UNL A   1      43.287  21.113  25.846  1.00  0.00     0.060 A 
ATOM     37  C   UNL A   1      43.454  21.536  27.164  1.00  0.00     0.016 A 
ATOM     38  C   UNL A   1      43.122  22.064  24.826  1.00  0.00     0.016 A 
ATOM     39  C   UNL A   1      43.511  22.910  27.448  1.00  0.00     0.010 A 
ATOM     40  C   UNL A   1      43.169  23.438  25.114  1.00  0.00     0.010 A 
ATOM     41  C   UNL A   1      43.401  23.876  26.424  1.00  0.00    -0.014 A 
BRANCH  41  42
ATOM     42  C   UNL A   1      43.773  25.293  26.708  1.00  0.00     0.031 A 
ATOM     43  C   UNL A   1      42.820  26.303  27.282  1.00  0.00     0.074 A 
ATOM     44  C   UNL A   1      45.036  25.675  26.424  1.00  0.00     0.049 A 
ATOM     45  N   UNL A   1      43.081  27.505  27.732  1.00  0.00    -0.248 NA
ATOM     46  C   UNL A   1      41.399  25.932  27.357  1.00  0.00     0.031 C 
ATOM     47  C   UNL A   1      46.036  24.831  25.767  1.00  0.00     0.029 A 
ATOM     48  N   UNL A   1      45.698  26.858  26.649  1.00  0.00    -0.354 N 
ATOM     49  C   UNL A   1      41.869  28.035  28.155  1.00  0.00     0.074 A 
ATOM     50  C   UNL A   1      40.861  27.031  27.881  1.00  0.00     0.031 C 
ATOM     51  C   UNL A   1      47.189  25.507  25.672  1.00  0.00     0.029 A 
ATOM     52  C   UNL A   1      47.014  26.837  26.250  1.00  0.00     0.049 A 
ATOM     53  H   UNL A   1      45.270  27.646  27.058  1.00  0.00     0.167 HD
ATOM     54  C   UNL A   1      41.628  29.234  28.739  1.00  0.00     0.034 A 
ATOM     55  C   UNL A   1      47.984  27.767  26.346  1.00  0.00     0.034 A 
ATOM     56  C   UNL A   1      42.630  30.235  29.005  1.00  0.00     0.049 A 
ATOM     57  C   UNL A   1      47.698  29.076  27.022  1.00  0.00     0.074 A 
ATOM     58  C   UNL A   1      42.477  31.444  29.664  1.00  0.00     0.029 A 
ATOM     59  N   UNL A   1      43.956  30.162  28.611  1.00  0.00    -0.354 N 
ATOM     60  N   UNL A   1      46.586  29.480  27.583  1.00  0.00    -0.248 NA
ATOM     61  C   UNL A   1      48.803  30.046  27.108  1.00  0.00     0.031 C 
ATOM     62  C   UNL A   1      43.705  32.110  29.653  1.00  0.00     0.029 A 
ATOM     63  C   UNL A   1      44.628  31.308  29.005  1.00  0.00     0.049 A 
ATOM     64  H   UNL A   1      44.361  29.408  28.125  1.00  0.00     0.167 HD
ATOM     65  C   UNL A   1      46.857  30.743  28.098  1.00  0.00     0.074 A 
ATOM     66  C   UNL A   1      48.243  31.032  27.799  1.00  0.00     0.031 C 
ATOM     67  C   UNL A   1      46.017  31.583  28.746  1.00  0.00     0.034 A 
BRANCH  54  68
ATOM     68  C   UNL A   1      40.236  29.529  29.233  1.00  0.00     0.023 A 
ATOM     69  C   UNL A   1      39.249  29.874  28.288  1.00  0.00     0.012 A 
ATOM     70  C   UNL A   1      39.865  29.300  30.572  1.00  0.00     0.148 A 
ATOM     71  C   UNL A   1      37.912  29.990  28.667  1.00  0.00     0.002 A 
ATOM     72  C   UNL A   1      38.525  29.395  30.939  1.00  0.00     0.091 A 
ATOM     73  F   UNL A   1      40.820  28.964  31.450  1.00  0.00    -0.205 F 
ATOM     74  C   UNL A   1      37.550  29.741  29.988  1.00  0.00     0.022 A 
BRANCH  72  75
ATOM     75  S   UNL A   1      37.936  29.046  32.600  1.00  0.00     0.127 S 
ATOM     76  O   UNL A   1      38.764  29.952  33.397  1.00  0.00    -0.237 OA
ATOM     77  O   UNL A   1      36.527  29.426  32.512  1.00  0.00    -0.237 OA
ATOM     78  O   UNL A   1      38.180  27.628  32.825  1.00  0.00    -0.744 OA
ENDBRANCH  72  75
ENDBRANCH  54  68
BRANCH  55  79
ATOM     79  C   UNL A   1      49.343  27.442  25.839  1.00  0.00     0.023 A 
ATOM     80  C   UNL A   1      50.293  26.876  26.710  1.00  0.00     0.012 A 
ATOM     81  C   UNL A   1      49.662  27.608  24.477  1.00  0.00     0.148 A 
ATOM     82  C   UNL A   1      51.543  26.483  26.232  1.00  0.00     0.002 A 
ATOM     83  C   UNL A   1      50.894  27.178  24.001  1.00  0.00     0.091 A 
ATOM     84  F   UNL A   1      48.735  28.146  23.673  1.00  0.00    -0.205 F 
ATOM     85  C   UNL A   1      51.839  26.623  24.879  1.00  0.00     0.022 A 
BRANCH  83  86
ATOM     86  S   UNL A   1      51.329  27.227  22.259  1.00  0.00     0.127 S 
ATOM     87  O   UNL A   1      50.145  26.634  21.642  1.00  0.00    -0.237 OA
ATOM     88  O   UNL A   1      51.489  28.664  22.034  1.00  0.00    -0.237 OA
ATOM     89  O   UNL A   1      52.555  26.451  22.135  1.00  0.00    -0.744 OA
ENDBRANCH  83  86
ENDBRANCH  55  79
BRANCH  67  90
ATOM     90  C   UNL A   1      46.540  32.919  29.200  1.00  0.00     0.023 A 
ATOM     91  C   UNL A   1      46.385  34.038  28.360  1.00  0.00     0.012 A 
ATOM     92  C   UNL A   1      47.012  33.095  30.516  1.00  0.00     0.148 A 
ATOM     93  C   UNL A   1      46.685  35.318  28.827  1.00  0.00     0.002 A 
ATOM     94  C   UNL A   1      47.281  34.376  30.983  1.00  0.00     0.091 A 
ATOM     95  F   UNL A   1      47.150  32.011  31.293  1.00  0.00    -0.205 F 
ATOM     96  C   UNL A   1      47.118  35.488  30.140  1.00  0.00     0.022 A 
BRANCH  94  97
ATOM     97  S   UNL A   1      47.774  34.709  32.679  1.00  0.00     0.127 S 
ATOM     98  O   UNL A   1      49.058  34.012  32.757  1.00  0.00    -0.237 OA
ATOM     99  O   UNL A   1      47.869  36.168  32.690  1.00  0.00    -0.237 OA
ATOM    100  O   UNL A   1      46.725  34.154  33.523  1.00  0.00    -0.744 OA
ENDBRANCH  94  97
ENDBRANCH  67  90
ENDBRANCH  41  42
ENDBRANCH  34  36
ENDBRANCH  33  34
ENDBRANCH  32  33
ENDBRANCH  31  32
ENDBRANCH  30  31
ENDBRANCH  29  30
ENDBRANCH   1  29
TORSDOF 23
ENDMDL
