MODEL 1
REMARK VINA RESULT:     -10.2      0.000      0.000
REMARK SMILES O=C(N[C@@H](C(=O)OCCOCCOCCOC(=O)c1ccc(-c2c3nc(c(-c4cccc(S(=O)(=O)[O-])c4F)c4ccc([nH]4)c(-c4cccc(S(=O)(=O)[O-])c4F)c4nc(c(-c5cccc(S(=O)(=O)[O-])c5F)c5ccc2[nH]5)C=C4)C=C3)cc1)c1ccccc1)c1ccc(Br)nc1
REMARK SMILES IDX 12 1 11 2 10 3 9 4 8 5 7 6 5 7 6 8 4 9 3 10 1 11 2 12 88 14
REMARK SMILES IDX 89 15 94 16 90 17 93 18 91 19 92 20 82 21 83 22 87 23 84 24
REMARK SMILES IDX 86 25 85 26 13 27 14 28 15 29 16 30 17 31 18 32 19 33 20 34
REMARK SMILES IDX 81 35 21 36 80 37 22 38 23 39 24 40 74 41 25 42 79 43 73 44
REMARK SMILES IDX 75 45 26 46 78 47 72 48 71 49 27 51 59 52 39 53 58 54 40 55
REMARK SMILES IDX 43 56 57 57 76 58 41 59 42 60 56 62 77 63 44 64 28 65 29 66
REMARK SMILES IDX 37 67 30 68 32 69 38 70 31 71 33 72 34 73 35 74 36 75 60 76
REMARK SMILES IDX 61 77 69 78 62 79 64 80 70 81 63 82 65 83 66 84 67 85 68 86
REMARK SMILES IDX 45 87 46 88 54 89 47 90 49 91 55 92 48 93 50 94 51 95 52 96
REMARK SMILES IDX 53 97
REMARK H PARENT 3 13 75 50 43 61
REMARK Flexibility Score: inf
ROOT
ATOM      1  C   UNL A   1      31.911  28.966  27.183  1.00  0.00     0.188 C 
ENDROOT
BRANCH   1   2
ATOM      2  C   UNL A   1      33.022  27.997  26.756  1.00  0.00     0.188 C 
BRANCH   2   3
ATOM      3  O   UNL A   1      32.645  26.828  26.037  1.00  0.00    -0.376 OA
BRANCH   3   4
ATOM      4  C   UNL A   1      31.435  26.165  26.400  1.00  0.00     0.202 C 
BRANCH   4   5
ATOM      5  C   UNL A   1      30.836  25.175  25.391  1.00  0.00     0.261 C 
BRANCH   5   6
ATOM      6  O   UNL A   1      31.498  23.890  25.371  1.00  0.00    -0.461 OA
BRANCH   6   7
ATOM      7  C   UNL A   1      31.962  23.492  24.152  1.00  0.00     0.333 C 
ATOM      8  O   UNL A   1      31.351  22.718  23.419  1.00  0.00    -0.249 OA
BRANCH   7   9
ATOM      9  C   UNL A   1      33.284  24.186  23.713  1.00  0.00     0.223 C 
BRANCH   9  10
ATOM     10  N   UNL A   1      33.407  24.453  22.266  1.00  0.00    -0.335 N 
ATOM     11  O   UNL A   1      33.214  25.558  20.310  1.00  0.00    -0.269 OA
ATOM     12  C   UNL A   1      32.999  25.519  21.518  1.00  0.00     0.253 C 
ATOM     13  H   UNL A   1      33.862  23.744  21.755  1.00  0.00     0.165 HD
BRANCH  12  14
ATOM     14  C   UNL A   1      32.237  26.605  22.136  1.00  0.00     0.058 A 
ATOM     15  C   UNL A   1      32.931  27.707  22.626  1.00  0.00     0.018 A 
ATOM     16  C   UNL A   1      30.856  26.581  22.250  1.00  0.00     0.126 A 
ATOM     17  C   UNL A   1      32.211  28.788  23.124  1.00  0.00     0.037 A 
ATOM     18  N   UNL A   1      30.132  27.623  22.720  1.00  0.00    -0.249 NA
ATOM     19  C   UNL A   1      30.824  28.711  23.127  1.00  0.00     0.106 A 
ATOM     20  Br  UNL A   1      29.831  30.220  23.703  1.00  0.00    -0.029 Br
ENDBRANCH  12  14
ENDBRANCH   9  10
BRANCH   9  21
ATOM     21  C   UNL A   1      34.566  23.506  24.222  1.00  0.00    -0.014 A 
ATOM     22  C   UNL A   1      34.751  22.114  24.173  1.00  0.00     0.006 A 
ATOM     23  C   UNL A   1      35.566  24.267  24.868  1.00  0.00     0.006 A 
ATOM     24  C   UNL A   1      35.891  21.514  24.722  1.00  0.00     0.000 A 
ATOM     25  C   UNL A   1      36.703  23.667  25.417  1.00  0.00     0.000 A 
ATOM     26  C   UNL A   1      36.865  22.288  25.344  1.00  0.00     0.000 A 
ENDBRANCH   9  21
ENDBRANCH   7   9
ENDBRANCH   6   7
ENDBRANCH   5   6
ENDBRANCH   4   5
ENDBRANCH   3   4
ENDBRANCH   2   3
ENDBRANCH   1   2
BRANCH   1  27
ATOM     27  O   UNL A   1      31.994  30.254  26.607  1.00  0.00    -0.376 OA
BRANCH  27  28
ATOM     28  C   UNL A   1      32.791  31.220  27.278  1.00  0.00     0.202 C 
BRANCH  28  29
ATOM     29  C   UNL A   1      32.234  32.651  27.324  1.00  0.00     0.261 C 
BRANCH  29  30
ATOM     30  O   UNL A   1      33.223  33.692  27.348  1.00  0.00    -0.460 OA
BRANCH  30  31
ATOM     31  C   UNL A   1      33.296  34.454  28.466  1.00  0.00     0.338 C 
ATOM     32  O   UNL A   1      32.490  35.290  28.838  1.00  0.00    -0.246 OA
BRANCH  31  33
ATOM     33  C   UNL A   1      34.388  33.902  29.295  1.00  0.00     0.060 A 
ATOM     34  C   UNL A   1      35.716  34.240  28.987  1.00  0.00     0.016 A 
ATOM     35  C   UNL A   1      34.099  33.100  30.399  1.00  0.00     0.016 A 
ATOM     36  C   UNL A   1      36.761  33.748  29.768  1.00  0.00     0.010 A 
ATOM     37  C   UNL A   1      35.146  32.587  31.164  1.00  0.00     0.010 A 
ATOM     38  C   UNL A   1      36.481  32.880  30.830  1.00  0.00    -0.014 A 
BRANCH  38  39
ATOM     39  C   UNL A   1      37.557  32.064  31.440  1.00  0.00     0.031 A 
ATOM     40  C   UNL A   1      38.097  32.521  32.767  1.00  0.00     0.074 A 
ATOM     41  C   UNL A   1      38.087  31.000  30.814  1.00  0.00     0.049 A 
ATOM     42  N   UNL A   1      39.128  32.085  33.439  1.00  0.00    -0.248 NA
ATOM     43  C   UNL A   1      37.379  33.632  33.418  1.00  0.00     0.031 C 
ATOM     44  C   UNL A   1      37.639  30.454  29.536  1.00  0.00     0.029 A 
ATOM     45  N   UNL A   1      39.158  30.214  31.161  1.00  0.00    -0.354 N 
ATOM     46  C   UNL A   1      39.207  32.890  34.568  1.00  0.00     0.074 A 
ATOM     47  C   UNL A   1      38.120  33.840  34.496  1.00  0.00     0.031 C 
ATOM     48  C   UNL A   1      38.457  29.447  29.182  1.00  0.00     0.029 A 
ATOM     49  C   UNL A   1      39.505  29.300  30.194  1.00  0.00     0.049 A 
ATOM     50  H   UNL A   1      39.632  30.295  32.020  1.00  0.00     0.167 HD
ATOM     51  C   UNL A   1      40.100  32.840  35.582  1.00  0.00     0.034 A 
ATOM     52  C   UNL A   1      40.566  28.469  30.122  1.00  0.00     0.034 A 
ATOM     53  C   UNL A   1      41.171  31.890  35.659  1.00  0.00     0.049 A 
ATOM     54  C   UNL A   1      41.566  28.451  31.252  1.00  0.00     0.074 A 
ATOM     55  C   UNL A   1      42.116  31.739  36.659  1.00  0.00     0.029 A 
ATOM     56  N   UNL A   1      41.446  30.934  34.695  1.00  0.00    -0.354 N 
ATOM     57  N   UNL A   1      41.570  29.147  32.365  1.00  0.00    -0.248 NA
ATOM     58  C   UNL A   1      42.695  27.514  31.133  1.00  0.00     0.031 C 
ATOM     59  C   UNL A   1      42.972  30.698  36.289  1.00  0.00     0.029 A 
ATOM     60  C   UNL A   1      42.545  30.187  35.074  1.00  0.00     0.049 A 
ATOM     61  H   UNL A   1      40.934  30.806  33.864  1.00  0.00     0.167 HD
ATOM     62  C   UNL A   1      42.667  28.698  33.095  1.00  0.00     0.074 A 
ATOM     63  C   UNL A   1      43.303  27.667  32.302  1.00  0.00     0.031 C 
ATOM     64  C   UNL A   1      43.113  29.108  34.308  1.00  0.00     0.034 A 
BRANCH  51  65
ATOM     65  C   UNL A   1      39.939  33.834  36.697  1.00  0.00     0.023 A 
ATOM     66  C   UNL A   1      40.336  35.173  36.499  1.00  0.00     0.012 A 
ATOM     67  C   UNL A   1      39.362  33.457  37.924  1.00  0.00     0.148 A 
ATOM     68  C   UNL A   1      40.186  36.114  37.515  1.00  0.00     0.002 A 
ATOM     69  C   UNL A   1      39.177  34.410  38.918  1.00  0.00     0.091 A 
ATOM     70  F   UNL A   1      39.021  32.172  38.103  1.00  0.00    -0.205 F 
ATOM     71  C   UNL A   1      39.597  35.736  38.719  1.00  0.00     0.022 A 
BRANCH  69  72
ATOM     72  S   UNL A   1      38.363  34.034  40.473  1.00  0.00     0.127 S 
ATOM     73  O   UNL A   1      37.116  33.422  40.015  1.00  0.00    -0.237 OA
ATOM     74  O   UNL A   1      39.305  33.103  41.097  1.00  0.00    -0.237 OA
ATOM     75  O   UNL A   1      38.219  35.305  41.168  1.00  0.00    -0.744 OA
ENDBRANCH  69  72
ENDBRANCH  51  65
BRANCH  52  76
ATOM     76  C   UNL A   1      40.728  27.559  28.953  1.00  0.00     0.023 A 
ATOM     77  C   UNL A   1      39.939  26.396  28.867  1.00  0.00     0.012 A 
ATOM     78  C   UNL A   1      41.656  27.834  27.930  1.00  0.00     0.148 A 
ATOM     79  C   UNL A   1      40.088  25.510  27.800  1.00  0.00     0.002 A 
ATOM     80  C   UNL A   1      41.764  26.974  26.843  1.00  0.00     0.091 A 
ATOM     81  F   UNL A   1      42.414  28.935  28.039  1.00  0.00    -0.205 F 
ATOM     82  C   UNL A   1      40.994  25.803  26.783  1.00  0.00     0.022 A 
BRANCH  80  83
ATOM     83  S   UNL A   1      42.817  27.332  25.431  1.00  0.00     0.127 S 
ATOM     84  O   UNL A   1      42.742  26.083  24.678  1.00  0.00    -0.237 OA
ATOM     85  O   UNL A   1      42.123  28.465  24.817  1.00  0.00    -0.237 OA
ATOM     86  O   UNL A   1      44.121  27.660  25.990  1.00  0.00    -0.744 OA
ENDBRANCH  80  83
ENDBRANCH  52  76
BRANCH  64  87
ATOM     87  C   UNL A   1      44.305  28.407  34.905  1.00  0.00     0.023 A 
ATOM     88  C   UNL A   1      45.601  28.908  34.682  1.00  0.00     0.012 A 
ATOM     89  C   UNL A   1      44.121  27.328  35.793  1.00  0.00     0.148 A 
ATOM     90  C   UNL A   1      46.699  28.336  35.324  1.00  0.00     0.002 A 
ATOM     91  C   UNL A   1      45.213  26.793  36.463  1.00  0.00     0.091 A 
ATOM     92  F   UNL A   1      42.878  26.858  35.977  1.00  0.00    -0.205 F 
ATOM     93  C   UNL A   1      46.504  27.290  36.224  1.00  0.00     0.022 A 
BRANCH  91  94
ATOM     94  S   UNL A   1      45.043  25.515  37.715  1.00  0.00     0.127 S 
ATOM     95  O   UNL A   1      46.437  25.266  38.077  1.00  0.00    -0.237 OA
ATOM     96  O   UNL A   1      44.257  26.193  38.746  1.00  0.00    -0.237 OA
ATOM     97  O   UNL A   1      44.359  24.405  37.066  1.00  0.00    -0.744 OA
ENDBRANCH  91  94
ENDBRANCH  64  87
ENDBRANCH  38  39
ENDBRANCH  31  33
ENDBRANCH  30  31
ENDBRANCH  29  30
ENDBRANCH  28  29
ENDBRANCH  27  28
ENDBRANCH   1  27
TORSDOF 23
ENDMDL
MODEL 2
REMARK VINA RESULT:     -10.1      2.333      7.957
REMARK SMILES O=C(N[C@@H](C(=O)OCCOCCOCCOC(=O)c1ccc(-c2c3nc(c(-c4cccc(S(=O)(=O)[O-])c4F)c4ccc([nH]4)c(-c4cccc(S(=O)(=O)[O-])c4F)c4nc(c(-c5cccc(S(=O)(=O)[O-])c5F)c5ccc2[nH]5)C=C4)C=C3)cc1)c1ccccc1)c1ccc(Br)nc1
REMARK SMILES IDX 12 1 11 2 10 3 9 4 8 5 7 6 5 7 6 8 4 9 3 10 1 11 2 12 88 14
REMARK SMILES IDX 89 15 94 16 90 17 93 18 91 19 92 20 82 21 83 22 87 23 84 24
REMARK SMILES IDX 86 25 85 26 13 27 14 28 15 29 16 30 17 31 18 32 19 33 20 34
REMARK SMILES IDX 81 35 21 36 80 37 22 38 23 39 24 40 74 41 25 42 79 43 73 44
REMARK SMILES IDX 75 45 26 46 78 47 72 48 71 49 27 51 59 52 39 53 58 54 40 55
REMARK SMILES IDX 43 56 57 57 76 58 41 59 42 60 56 62 77 63 44 64 28 65 29 66
REMARK SMILES IDX 37 67 30 68 32 69 38 70 31 71 33 72 34 73 35 74 36 75 60 76
REMARK SMILES IDX 61 77 69 78 62 79 64 80 70 81 63 82 65 83 66 84 67 85 68 86
REMARK SMILES IDX 45 87 46 88 54 89 47 90 49 91 55 92 48 93 50 94 51 95 52 96
REMARK SMILES IDX 53 97
REMARK H PARENT 3 13 75 50 43 61
REMARK Flexibility Score: inf
ROOT
ATOM      1  C   UNL A   1      33.253  28.620  26.783  1.00  0.00     0.188 C 
ENDROOT
BRANCH   1   2
ATOM      2  C   UNL A   1      33.774  27.494  25.880  1.00  0.00     0.188 C 
BRANCH   2   3
ATOM      3  O   UNL A   1      33.251  26.186  26.079  1.00  0.00    -0.376 OA
BRANCH   3   4
ATOM      4  C   UNL A   1      31.920  26.051  26.575  1.00  0.00     0.202 C 
BRANCH   4   5
ATOM      5  C   UNL A   1      31.118  24.818  26.135  1.00  0.00     0.261 C 
BRANCH   5   6
ATOM      6  O   UNL A   1      31.577  23.581  26.727  1.00  0.00    -0.461 OA
BRANCH   6   7
ATOM      7  C   UNL A   1      31.460  22.477  25.936  1.00  0.00     0.333 C 
ATOM      8  O   UNL A   1      30.404  21.868  25.782  1.00  0.00    -0.249 OA
BRANCH   7   9
ATOM      9  C   UNL A   1      32.753  22.112  25.152  1.00  0.00     0.223 C 
BRANCH   9  10
ATOM     10  N   UNL A   1      33.126  23.051  24.074  1.00  0.00    -0.335 N 
ATOM     11  O   UNL A   1      34.446  24.299  22.739  1.00  0.00    -0.269 OA
ATOM     12  C   UNL A   1      34.345  23.523  23.685  1.00  0.00     0.253 C 
ATOM     13  H   UNL A   1      32.367  23.393  23.547  1.00  0.00     0.165 HD
BRANCH  12  14
ATOM     14  C   UNL A   1      35.550  23.163  24.434  1.00  0.00     0.058 A 
ATOM     15  C   UNL A   1      36.274  22.045  24.029  1.00  0.00     0.018 A 
ATOM     16  C   UNL A   1      35.998  23.888  25.527  1.00  0.00     0.126 A 
ATOM     17  C   UNL A   1      37.473  21.752  24.671  1.00  0.00     0.037 A 
ATOM     18  N   UNL A   1      37.165  23.630  26.161  1.00  0.00    -0.249 NA
ATOM     19  C   UNL A   1      37.886  22.580  25.706  1.00  0.00     0.106 A 
ATOM     20  Br  UNL A   1      39.569  22.253  26.516  1.00  0.00    -0.029 Br
ENDBRANCH  12  14
ENDBRANCH   9  10
BRANCH   9  21
ATOM     21  C   UNL A   1      32.795  20.671  24.617  1.00  0.00    -0.014 A 
ATOM     22  C   UNL A   1      32.323  20.329  23.339  1.00  0.00     0.006 A 
ATOM     23  C   UNL A   1      33.214  19.614  25.454  1.00  0.00     0.006 A 
ATOM     24  C   UNL A   1      32.293  18.996  22.910  1.00  0.00     0.000 A 
ATOM     25  C   UNL A   1      33.182  18.283  25.025  1.00  0.00     0.000 A 
ATOM     26  C   UNL A   1      32.721  17.974  23.751  1.00  0.00     0.000 A 
ENDBRANCH   9  21
ENDBRANCH   7   9
ENDBRANCH   6   7
ENDBRANCH   5   6
ENDBRANCH   4   5
ENDBRANCH   3   4
ENDBRANCH   2   3
ENDBRANCH   1   2
BRANCH   1  27
ATOM     27  O   UNL A   1      33.563  29.926  26.340  1.00  0.00    -0.376 OA
BRANCH  27  28
ATOM     28  C   UNL A   1      34.027  30.853  27.313  1.00  0.00     0.202 C 
BRANCH  28  29
ATOM     29  C   UNL A   1      33.104  32.044  27.613  1.00  0.00     0.261 C 
BRANCH  29  30
ATOM     30  O   UNL A   1      33.762  33.317  27.719  1.00  0.00    -0.460 OA
BRANCH  30  31
ATOM     31  C   UNL A   1      33.646  33.980  28.895  1.00  0.00     0.338 C 
ATOM     32  O   UNL A   1      32.657  34.552  29.320  1.00  0.00    -0.246 OA
BRANCH  31  33
ATOM     33  C   UNL A   1      34.849  33.660  29.692  1.00  0.00     0.060 A 
ATOM     34  C   UNL A   1      36.079  34.230  29.329  1.00  0.00     0.016 A 
ATOM     35  C   UNL A   1      34.750  32.845  30.820  1.00  0.00     0.016 A 
ATOM     36  C   UNL A   1      37.223  33.959  30.080  1.00  0.00     0.010 A 
ATOM     37  C   UNL A   1      35.899  32.553  31.554  1.00  0.00     0.010 A 
ATOM     38  C   UNL A   1      37.145  33.080  31.166  1.00  0.00    -0.014 A 
BRANCH  38  39
ATOM     39  C   UNL A   1      38.373  32.493  31.750  1.00  0.00     0.031 A 
ATOM     40  C   UNL A   1      38.981  31.317  31.035  1.00  0.00     0.074 A 
ATOM     41  C   UNL A   1      38.894  32.935  32.908  1.00  0.00     0.049 A 
ATOM     42  N   UNL A   1      39.954  30.531  31.407  1.00  0.00    -0.248 NA
ATOM     43  C   UNL A   1      38.399  30.978  29.723  1.00  0.00     0.031 C 
ATOM     44  C   UNL A   1      38.403  34.071  33.682  1.00  0.00     0.029 A 
ATOM     45  N   UNL A   1      39.935  32.439  33.654  1.00  0.00    -0.354 N 
ATOM     46  C   UNL A   1      40.076  29.584  30.399  1.00  0.00     0.074 A 
ATOM     47  C   UNL A   1      39.081  29.891  29.396  1.00  0.00     0.031 C 
ATOM     48  C   UNL A   1      39.115  34.161  34.820  1.00  0.00     0.029 A 
ATOM     49  C   UNL A   1      40.089  33.070  34.866  1.00  0.00     0.049 A 
ATOM     50  H   UNL A   1      40.516  31.705  33.350  1.00  0.00     0.167 HD
ATOM     51  C   UNL A   1      40.944  28.551  30.309  1.00  0.00     0.034 A 
ATOM     52  C   UNL A   1      40.899  32.773  35.904  1.00  0.00     0.034 A 
ATOM     53  C   UNL A   1      41.940  28.254  31.297  1.00  0.00     0.049 A 
ATOM     54  C   UNL A   1      41.840  31.597  35.793  1.00  0.00     0.074 A 
ATOM     55  C   UNL A   1      42.886  27.245  31.288  1.00  0.00     0.029 A 
ATOM     56  N   UNL A   1      42.111  28.958  32.478  1.00  0.00    -0.354 N 
ATOM     57  N   UNL A   1      42.017  30.771  34.789  1.00  0.00    -0.248 NA
ATOM     58  C   UNL A   1      42.714  31.328  36.946  1.00  0.00     0.031 C 
ATOM     59  C   UNL A   1      43.622  27.331  32.473  1.00  0.00     0.029 A 
ATOM     60  C   UNL A   1      43.149  28.409  33.206  1.00  0.00     0.049 A 
ATOM     61  H   UNL A   1      41.575  29.735  32.755  1.00  0.00     0.167 HD
ATOM     62  C   UNL A   1      43.051  29.921  35.169  1.00  0.00     0.074 A 
ATOM     63  C   UNL A   1      43.466  30.333  36.493  1.00  0.00     0.031 C 
ATOM     64  C   UNL A   1      43.602  28.886  34.487  1.00  0.00     0.034 A 
BRANCH  51  65
ATOM     65  C   UNL A   1      40.864  27.682  29.086  1.00  0.00     0.023 A 
ATOM     66  C   UNL A   1      39.837  26.720  28.983  1.00  0.00     0.012 A 
ATOM     67  C   UNL A   1      41.774  27.841  28.025  1.00  0.00     0.148 A 
ATOM     68  C   UNL A   1      39.737  25.911  27.853  1.00  0.00     0.002 A 
ATOM     69  C   UNL A   1      41.642  27.059  26.883  1.00  0.00     0.091 A 
ATOM     70  F   UNL A   1      42.761  28.739  28.157  1.00  0.00    -0.205 F 
ATOM     71  C   UNL A   1      40.630  26.087  26.801  1.00  0.00     0.022 A 
BRANCH  69  72
ATOM     72  S   UNL A   1      42.701  27.263  25.448  1.00  0.00     0.127 S 
ATOM     73  O   UNL A   1      44.018  27.398  26.069  1.00  0.00    -0.237 OA
ATOM     74  O   UNL A   1      42.492  26.005  24.730  1.00  0.00    -0.237 OA
ATOM     75  O   UNL A   1      42.211  28.445  24.754  1.00  0.00    -0.744 OA
ENDBRANCH  69  72
ENDBRANCH  51  65
BRANCH  52  76
ATOM     76  C   UNL A   1      40.885  33.616  37.133  1.00  0.00     0.023 A 
ATOM     77  C   UNL A   1      39.912  33.378  38.123  1.00  0.00     0.012 A 
ATOM     78  C   UNL A   1      41.823  34.648  37.328  1.00  0.00     0.148 A 
ATOM     79  C   UNL A   1      39.855  34.170  39.271  1.00  0.00     0.002 A 
ATOM     80  C   UNL A   1      41.794  35.399  38.498  1.00  0.00     0.091 A 
ATOM     81  F   UNL A   1      42.729  34.873  36.366  1.00  0.00    -0.205 F 
ATOM     82  C   UNL A   1      40.801  35.174  39.463  1.00  0.00     0.022 A 
BRANCH  80  83
ATOM     83  S   UNL A   1      43.043  36.632  38.884  1.00  0.00     0.127 S 
ATOM     84  O   UNL A   1      43.031  37.457  37.679  1.00  0.00    -0.237 OA
ATOM     85  O   UNL A   1      42.481  37.270  40.074  1.00  0.00    -0.237 OA
ATOM     86  O   UNL A   1      44.268  35.883  39.128  1.00  0.00    -0.744 OA
ENDBRANCH  80  83
ENDBRANCH  52  76
BRANCH  64  87
ATOM     87  C   UNL A   1      44.762  28.157  35.111  1.00  0.00     0.023 A 
ATOM     88  C   UNL A   1      46.078  28.598  34.876  1.00  0.00     0.012 A 
ATOM     89  C   UNL A   1      44.533  27.115  36.032  1.00  0.00     0.148 A 
ATOM     90  C   UNL A   1      47.151  28.003  35.540  1.00  0.00     0.002 A 
ATOM     91  C   UNL A   1      45.601  26.558  36.722  1.00  0.00     0.091 A 
ATOM     92  F   UNL A   1      43.271  26.701  36.226  1.00  0.00    -0.205 F 
ATOM     93  C   UNL A   1      46.912  26.994  36.472  1.00  0.00     0.022 A 
BRANCH  91  94
ATOM     94  S   UNL A   1      45.377  25.328  38.013  1.00  0.00     0.127 S 
ATOM     95  O   UNL A   1      46.760  24.990  38.346  1.00  0.00    -0.237 OA
ATOM     96  O   UNL A   1      44.669  26.086  39.045  1.00  0.00    -0.237 OA
ATOM     97  O   UNL A   1      44.599  24.252  37.413  1.00  0.00    -0.744 OA
ENDBRANCH  91  94
ENDBRANCH  64  87
ENDBRANCH  38  39
ENDBRANCH  31  33
ENDBRANCH  30  31
ENDBRANCH  29  30
ENDBRANCH  28  29
ENDBRANCH  27  28
ENDBRANCH   1  27
TORSDOF 23
ENDMDL
MODEL 3
REMARK VINA RESULT:      -9.9      1.678      7.841
REMARK SMILES O=C(N[C@@H](C(=O)OCCOCCOCCOC(=O)c1ccc(-c2c3nc(c(-c4cccc(S(=O)(=O)[O-])c4F)c4ccc([nH]4)c(-c4cccc(S(=O)(=O)[O-])c4F)c4nc(c(-c5cccc(S(=O)(=O)[O-])c5F)c5ccc2[nH]5)C=C4)C=C3)cc1)c1ccccc1)c1ccc(Br)nc1
REMARK SMILES IDX 12 1 11 2 10 3 9 4 8 5 7 6 5 7 6 8 4 9 3 10 1 11 2 12 88 14
REMARK SMILES IDX 89 15 94 16 90 17 93 18 91 19 92 20 82 21 83 22 87 23 84 24
REMARK SMILES IDX 86 25 85 26 13 27 14 28 15 29 16 30 17 31 18 32 19 33 20 34
REMARK SMILES IDX 81 35 21 36 80 37 22 38 23 39 24 40 74 41 25 42 79 43 73 44
REMARK SMILES IDX 75 45 26 46 78 47 72 48 71 49 27 51 59 52 39 53 58 54 40 55
REMARK SMILES IDX 43 56 57 57 76 58 41 59 42 60 56 62 77 63 44 64 28 65 29 66
REMARK SMILES IDX 37 67 30 68 32 69 38 70 31 71 33 72 34 73 35 74 36 75 60 76
REMARK SMILES IDX 61 77 69 78 62 79 64 80 70 81 63 82 65 83 66 84 67 85 68 86
REMARK SMILES IDX 45 87 46 88 54 89 47 90 49 91 55 92 48 93 50 94 51 95 52 96
REMARK SMILES IDX 53 97
REMARK H PARENT 3 13 75 50 43 61
REMARK Flexibility Score: inf
ROOT
ATOM      1  C   UNL A   1      33.356  28.173  26.692  1.00  0.00     0.188 C 
ENDROOT
BRANCH   1   2
ATOM      2  C   UNL A   1      33.353  27.121  25.576  1.00  0.00     0.188 C 
BRANCH   2   3
ATOM      3  O   UNL A   1      33.198  25.756  25.949  1.00  0.00    -0.376 OA
BRANCH   3   4
ATOM      4  C   UNL A   1      31.953  25.338  26.505  1.00  0.00     0.202 C 
BRANCH   4   5
ATOM      5  C   UNL A   1      31.680  23.830  26.586  1.00  0.00     0.261 C 
BRANCH   5   6
ATOM      6  O   UNL A   1      32.482  23.144  27.575  1.00  0.00    -0.461 OA
BRANCH   6   7
ATOM      7  C   UNL A   1      33.267  22.138  27.094  1.00  0.00     0.333 C 
ATOM      8  O   UNL A   1      33.480  21.097  27.710  1.00  0.00    -0.249 OA
BRANCH   7   9
ATOM      9  C   UNL A   1      33.787  22.370  25.646  1.00  0.00     0.223 C 
BRANCH   9  10
ATOM     10  N   UNL A   1      33.244  21.452  24.625  1.00  0.00    -0.335 N 
ATOM     11  O   UNL A   1      32.195  20.787  22.743  1.00  0.00    -0.269 OA
ATOM     12  C   UNL A   1      32.551  21.704  23.477  1.00  0.00     0.253 C 
ATOM     13  H   UNL A   1      33.411  20.497  24.801  1.00  0.00     0.165 HD
BRANCH  12  14
ATOM     14  C   UNL A   1      32.161  23.073  23.136  1.00  0.00     0.058 A 
ATOM     15  C   UNL A   1      30.845  23.465  23.366  1.00  0.00     0.018 A 
ATOM     16  C   UNL A   1      33.047  23.993  22.597  1.00  0.00     0.126 A 
ATOM     17  C   UNL A   1      30.490  24.791  23.140  1.00  0.00     0.037 A 
ATOM     18  N   UNL A   1      32.729  25.289  22.378  1.00  0.00    -0.249 NA
ATOM     19  C   UNL A   1      31.464  25.665  22.674  1.00  0.00     0.106 A 
ATOM     20  Br  UNL A   1      31.018  27.495  22.465  1.00  0.00    -0.029 Br
ENDBRANCH  12  14
ENDBRANCH   9  10
BRANCH   9  21
ATOM     21  C   UNL A   1      35.318  22.437  25.517  1.00  0.00    -0.014 A 
ATOM     22  C   UNL A   1      36.097  21.312  25.199  1.00  0.00     0.006 A 
ATOM     23  C   UNL A   1      36.006  23.631  25.828  1.00  0.00     0.006 A 
ATOM     24  C   UNL A   1      37.495  21.382  25.172  1.00  0.00     0.000 A 
ATOM     25  C   UNL A   1      37.402  23.700  25.802  1.00  0.00     0.000 A 
ATOM     26  C   UNL A   1      38.148  22.573  25.474  1.00  0.00     0.000 A 
ENDBRANCH   9  21
ENDBRANCH   7   9
ENDBRANCH   6   7
ENDBRANCH   5   6
ENDBRANCH   4   5
ENDBRANCH   3   4
ENDBRANCH   2   3
ENDBRANCH   1   2
BRANCH   1  27
ATOM     27  O   UNL A   1      33.686  29.482  26.271  1.00  0.00    -0.376 OA
BRANCH  27  28
ATOM     28  C   UNL A   1      33.950  30.446  27.282  1.00  0.00     0.202 C 
BRANCH  28  29
ATOM     29  C   UNL A   1      32.956  31.614  27.385  1.00  0.00     0.261 C 
BRANCH  29  30
ATOM     30  O   UNL A   1      33.519  32.917  27.164  1.00  0.00    -0.460 OA
BRANCH  30  31
ATOM     31  C   UNL A   1      33.450  33.804  28.186  1.00  0.00     0.338 C 
ATOM     32  O   UNL A   1      32.513  34.531  28.465  1.00  0.00    -0.246 OA
BRANCH  31  33
ATOM     33  C   UNL A   1      34.610  33.542  29.064  1.00  0.00     0.060 A 
ATOM     34  C   UNL A   1      35.849  34.121  28.749  1.00  0.00     0.016 A 
ATOM     35  C   UNL A   1      34.460  32.771  30.218  1.00  0.00     0.016 A 
ATOM     36  C   UNL A   1      36.952  33.905  29.576  1.00  0.00     0.010 A 
ATOM     37  C   UNL A   1      35.569  32.534  31.029  1.00  0.00     0.010 A 
ATOM     38  C   UNL A   1      36.826  33.069  30.692  1.00  0.00    -0.014 A 
BRANCH  38  39
ATOM     39  C   UNL A   1      38.028  32.532  31.370  1.00  0.00     0.031 A 
ATOM     40  C   UNL A   1      38.704  31.347  30.736  1.00  0.00     0.074 A 
ATOM     41  C   UNL A   1      38.468  33.026  32.541  1.00  0.00     0.049 A 
ATOM     42  N   UNL A   1      39.670  30.598  31.194  1.00  0.00    -0.248 NA
ATOM     43  C   UNL A   1      38.211  30.949  29.405  1.00  0.00     0.031 C 
ATOM     44  C   UNL A   1      37.906  34.177  33.242  1.00  0.00     0.029 A 
ATOM     45  N   UNL A   1      39.471  32.582  33.366  1.00  0.00    -0.354 N 
ATOM     46  C   UNL A   1      39.873  29.619  30.231  1.00  0.00     0.074 A 
ATOM     47  C   UNL A   1      38.935  29.868  29.159  1.00  0.00     0.031 C 
ATOM     48  C   UNL A   1      38.545  34.323  34.417  1.00  0.00     0.029 A 
ATOM     49  C   UNL A   1      39.537  33.257  34.562  1.00  0.00     0.049 A 
ATOM     50  H   UNL A   1      40.085  31.851  33.125  1.00  0.00     0.167 HD
ATOM     51  C   UNL A   1      40.767  28.605  30.231  1.00  0.00     0.034 A 
ATOM     52  C   UNL A   1      40.288  33.016  35.657  1.00  0.00     0.034 A 
ATOM     53  C   UNL A   1      41.706  28.365  31.288  1.00  0.00     0.049 A 
ATOM     54  C   UNL A   1      41.259  31.860  35.645  1.00  0.00     0.074 A 
ATOM     55  C   UNL A   1      42.672  27.379  31.372  1.00  0.00     0.029 A 
ATOM     56  N   UNL A   1      41.789  29.114  32.450  1.00  0.00    -0.354 N 
ATOM     57  N   UNL A   1      41.515  31.004  34.684  1.00  0.00    -0.248 NA
ATOM     58  C   UNL A   1      42.067  31.652  36.858  1.00  0.00     0.031 C 
ATOM     59  C   UNL A   1      43.332  27.524  32.596  1.00  0.00     0.029 A 
ATOM     60  C   UNL A   1      42.792  28.615  33.260  1.00  0.00     0.049 A 
ATOM     61  H   UNL A   1      41.221  29.887  32.667  1.00  0.00     0.167 HD
ATOM     62  C   UNL A   1      42.542  30.192  35.157  1.00  0.00     0.074 A 
ATOM     63  C   UNL A   1      42.865  30.659  36.488  1.00  0.00     0.031 C 
ATOM     64  C   UNL A   1      43.155  29.147  34.547  1.00  0.00     0.034 A 
BRANCH  51  65
ATOM     65  C   UNL A   1      40.780  27.691  29.037  1.00  0.00     0.023 A 
ATOM     66  C   UNL A   1      39.835  26.648  28.949  1.00  0.00     0.012 A 
ATOM     67  C   UNL A   1      41.697  27.887  27.988  1.00  0.00     0.148 A 
ATOM     68  C   UNL A   1      39.821  25.797  27.846  1.00  0.00     0.002 A 
ATOM     69  C   UNL A   1      41.650  27.060  26.872  1.00  0.00     0.091 A 
ATOM     70  F   UNL A   1      42.608  28.864  28.107  1.00  0.00    -0.205 F 
ATOM     71  C   UNL A   1      40.720  26.009  26.805  1.00  0.00     0.022 A 
BRANCH  69  72
ATOM     72  S   UNL A   1      42.720  27.300  25.450  1.00  0.00     0.127 S 
ATOM     73  O   UNL A   1      44.023  27.483  26.088  1.00  0.00    -0.237 OA
ATOM     74  O   UNL A   1      42.566  26.034  24.731  1.00  0.00    -0.237 OA
ATOM     75  O   UNL A   1      42.197  28.462  24.747  1.00  0.00    -0.744 OA
ENDBRANCH  69  72
ENDBRANCH  51  65
BRANCH  52  76
ATOM     76  C   UNL A   1      40.180  33.901  36.851  1.00  0.00     0.023 A 
ATOM     77  C   UNL A   1      40.821  35.155  36.843  1.00  0.00     0.012 A 
ATOM     78  C   UNL A   1      39.450  33.512  37.991  1.00  0.00     0.148 A 
ATOM     79  C   UNL A   1      40.762  35.993  37.957  1.00  0.00     0.002 A 
ATOM     80  C   UNL A   1      39.352  34.374  39.078  1.00  0.00     0.091 A 
ATOM     81  F   UNL A   1      38.864  32.306  37.989  1.00  0.00    -0.205 F 
ATOM     82  C   UNL A   1      40.020  35.607  39.071  1.00  0.00     0.022 A 
BRANCH  80  83
ATOM     83  S   UNL A   1      38.322  34.011  40.505  1.00  0.00     0.127 S 
ATOM     84  O   UNL A   1      37.117  33.475  39.876  1.00  0.00    -0.237 OA
ATOM     85  O   UNL A   1      39.134  33.027  41.221  1.00  0.00    -0.237 OA
ATOM     86  O   UNL A   1      38.163  35.279  41.204  1.00  0.00    -0.744 OA
ENDBRANCH  80  83
ENDBRANCH  52  76
BRANCH  64  87
ATOM     87  C   UNL A   1      44.290  28.467  35.266  1.00  0.00     0.023 A 
ATOM     88  C   UNL A   1      44.036  27.354  36.089  1.00  0.00     0.012 A 
ATOM     89  C   UNL A   1      45.622  28.857  35.017  1.00  0.00     0.148 A 
ATOM     90  C   UNL A   1      45.090  26.647  36.666  1.00  0.00     0.002 A 
ATOM     91  C   UNL A   1      46.668  28.121  35.558  1.00  0.00     0.091 A 
ATOM     92  F   UNL A   1      45.838  29.930  34.242  1.00  0.00    -0.205 F 
ATOM     93  C   UNL A   1      46.404  27.021  36.390  1.00  0.00     0.022 A 
BRANCH  91  94
ATOM     94  S   UNL A   1      48.389  28.467  35.173  1.00  0.00     0.127 S 
ATOM     95  O   UNL A   1      48.646  29.649  35.994  1.00  0.00    -0.237 OA
ATOM     96  O   UNL A   1      49.060  27.250  35.629  1.00  0.00    -0.237 OA
ATOM     97  O   UNL A   1      48.443  28.684  33.733  1.00  0.00    -0.744 OA
ENDBRANCH  91  94
ENDBRANCH  64  87
ENDBRANCH  38  39
ENDBRANCH  31  33
ENDBRANCH  30  31
ENDBRANCH  29  30
ENDBRANCH  28  29
ENDBRANCH  27  28
ENDBRANCH   1  27
TORSDOF 23
ENDMDL
