MODEL 1
REMARK VINA RESULT:      -9.3      0.000      0.000
REMARK SMILES C#CC[N@@H+](CC(=O)OCCOCCOCCOC(=O)c1ccc(-c2c3nc(c(-c4cccc(S(=O)(=O)[O-])c4F)c4ccc([nH]4)c(-c4cccc(S(=O)(=O)[O-])c4F)c4nc(c(-c5cccc(S(=O)(=O)[O-])c5F)c5ccc2[nH]5)C=C4)C=C3)cc1)[C@@H](C)Cc1ccco1
REMARK SMILES IDX 12 1 11 2 10 3 9 4 8 5 6 6 7 7 5 8 4 9 3 11 2 12 1 13 83 14
REMARK SMILES IDX 84 15 85 16 86 17 87 18 90 19 88 20 89 21 13 22 14 23 15 24
REMARK SMILES IDX 16 25 17 26 18 27 19 28 20 29 21 30 82 31 22 32 81 33 23 34
REMARK SMILES IDX 24 35 25 36 75 37 26 38 80 39 74 40 76 41 27 42 79 43 73 44
REMARK SMILES IDX 72 45 28 47 60 48 40 49 59 50 41 51 44 52 58 53 77 54 42 55
REMARK SMILES IDX 43 56 57 58 78 59 45 60 29 61 30 62 38 63 31 64 33 65 39 66
REMARK SMILES IDX 32 67 34 68 35 69 36 70 37 71 61 72 62 73 70 74 63 75 65 76
REMARK SMILES IDX 71 77 64 78 66 79 67 80 68 81 69 82 46 83 47 84 55 85 48 86
REMARK SMILES IDX 50 87 56 88 49 89 51 90 52 91 53 92 54 93
REMARK H PARENT 4 10 76 46 44 57
REMARK Flexibility Score: inf
ROOT
ATOM      1  C   UNL A   1      37.073  23.537  25.939  1.00  0.00     0.188 C 
ENDROOT
BRANCH   1   2
ATOM      2  O   UNL A   1      36.578  23.930  24.663  1.00  0.00    -0.376 OA
BRANCH   2   3
ATOM      3  C   UNL A   1      35.162  23.973  24.527  1.00  0.00     0.202 C 
BRANCH   3   4
ATOM      4  C   UNL A   1      34.527  22.920  23.602  1.00  0.00     0.261 C 
BRANCH   4   5
ATOM      5  O   UNL A   1      34.038  23.399  22.321  1.00  0.00    -0.459 OA
BRANCH   5   6
ATOM      6  C   UNL A   1      33.397  24.600  22.342  1.00  0.00     0.361 C 
ATOM      7  O   UNL A   1      33.936  25.646  21.981  1.00  0.00    -0.245 OA
BRANCH   6   8
ATOM      8  C   UNL A   1      31.962  24.656  22.902  1.00  0.00     0.387 C 
BRANCH   8   9
ATOM      9  N   UNL A   1      31.640  25.003  24.313  1.00  0.00    -0.313 N 
ATOM     10  H   UNL A   1      32.532  25.069  24.802  1.00  0.00     0.349 HD
BRANCH   9  11
ATOM     11  C   UNL A   1      30.961  23.930  25.022  1.00  0.00     0.354 C 
BRANCH  11  12
ATOM     12  C   UNL A   1      31.856  23.319  26.088  1.00  0.00    -0.047 C 
ATOM     13  C   UNL A   1      32.624  22.795  27.002  1.00  0.00     0.010 C 
ENDBRANCH  11  12
ENDBRANCH   9  11
BRANCH   9  14
ATOM     14  C   UNL A   1      31.113  26.368  24.498  1.00  0.00     0.189 C 
ATOM     15  C   UNL A   1      31.569  26.820  25.871  1.00  0.00     0.076 C 
BRANCH  14  16
ATOM     16  C   UNL A   1      31.457  27.519  23.497  1.00  0.00     0.140 C 
BRANCH  16  17
ATOM     17  C   UNL A   1      30.463  28.594  23.233  1.00  0.00     0.109 A 
ATOM     18  C   UNL A   1      30.202  29.766  23.922  1.00  0.00     0.046 A 
ATOM     19  O   UNL A   1      29.747  28.570  22.077  1.00  0.00    -0.469 OA
ATOM     20  C   UNL A   1      29.267  30.490  23.149  1.00  0.00     0.042 A 
ATOM     21  C   UNL A   1      29.019  29.717  22.039  1.00  0.00     0.195 A 
ENDBRANCH  16  17
ENDBRANCH  14  16
ENDBRANCH   9  14
ENDBRANCH   8   9
ENDBRANCH   6   8
ENDBRANCH   5   6
ENDBRANCH   4   5
ENDBRANCH   3   4
ENDBRANCH   2   3
ENDBRANCH   1   2
BRANCH   1  22
ATOM     22  C   UNL A   1      38.200  22.490  25.910  1.00  0.00     0.188 C 
BRANCH  22  23
ATOM     23  O   UNL A   1      37.989  21.505  24.902  1.00  0.00    -0.376 OA
BRANCH  23  24
ATOM     24  C   UNL A   1      38.094  20.119  25.225  1.00  0.00     0.202 C 
BRANCH  24  25
ATOM     25  C   UNL A   1      39.457  19.428  25.349  1.00  0.00     0.261 C 
BRANCH  25  26
ATOM     26  O   UNL A   1      40.154  19.671  26.581  1.00  0.00    -0.460 OA
BRANCH  26  27
ATOM     27  C   UNL A   1      41.491  19.902  26.535  1.00  0.00     0.338 C 
ATOM     28  O   UNL A   1      42.350  19.132  26.167  1.00  0.00    -0.246 OA
BRANCH  27  29
ATOM     29  C   UNL A   1      41.684  21.357  26.813  1.00  0.00     0.060 A 
ATOM     30  C   UNL A   1      41.757  22.263  25.747  1.00  0.00     0.016 A 
ATOM     31  C   UNL A   1      41.718  21.840  28.119  1.00  0.00     0.016 A 
ATOM     32  C   UNL A   1      41.787  23.635  25.957  1.00  0.00     0.010 A 
ATOM     33  C   UNL A   1      41.825  23.216  28.341  1.00  0.00     0.010 A 
ATOM     34  C   UNL A   1      41.862  24.114  27.260  1.00  0.00    -0.014 A 
BRANCH  34  35
ATOM     35  C   UNL A   1      42.214  25.530  27.469  1.00  0.00     0.031 A 
ATOM     36  C   UNL A   1      43.569  25.981  27.013  1.00  0.00     0.074 A 
ATOM     37  C   UNL A   1      41.344  26.396  28.014  1.00  0.00     0.049 A 
ATOM     38  N   UNL A   1      44.175  27.117  27.218  1.00  0.00    -0.248 NA
ATOM     39  C   UNL A   1      44.345  25.014  26.215  1.00  0.00     0.031 C 
ATOM     40  C   UNL A   1      39.968  26.090  28.399  1.00  0.00     0.029 A 
ATOM     41  N   UNL A   1      41.510  27.712  28.364  1.00  0.00    -0.354 N 
ATOM     42  C   UNL A   1      45.424  26.983  26.629  1.00  0.00     0.074 A 
ATOM     43  C   UNL A   1      45.484  25.664  26.040  1.00  0.00     0.031 C 
ATOM     44  C   UNL A   1      39.429  27.175  28.982  1.00  0.00     0.029 A 
ATOM     45  C   UNL A   1      40.441  28.228  29.055  1.00  0.00     0.049 A 
ATOM     46  H   UNL A   1      42.315  28.234  28.143  1.00  0.00     0.167 HD
ATOM     47  C   UNL A   1      46.431  27.882  26.590  1.00  0.00     0.034 A 
ATOM     48  C   UNL A   1      40.322  29.393  29.722  1.00  0.00     0.034 A 
ATOM     49  C   UNL A   1      46.347  29.197  27.161  1.00  0.00     0.049 A 
ATOM     50  C   UNL A   1      41.488  30.349  29.730  1.00  0.00     0.074 A 
ATOM     51  C   UNL A   1      47.302  30.195  27.159  1.00  0.00     0.029 A 
ATOM     52  N   UNL A   1      45.248  29.689  27.846  1.00  0.00    -0.354 N 
ATOM     53  N   UNL A   1      42.650  30.241  29.130  1.00  0.00    -0.248 NA
ATOM     54  C   UNL A   1      41.322  31.594  30.495  1.00  0.00     0.031 C 
ATOM     55  C   UNL A   1      46.795  31.280  27.880  1.00  0.00     0.029 A 
ATOM     56  C   UNL A   1      45.507  30.972  28.293  1.00  0.00     0.049 A 
ATOM     57  H   UNL A   1      44.407  29.199  27.993  1.00  0.00     0.167 HD
ATOM     58  C   UNL A   1      43.340  31.415  29.417  1.00  0.00     0.074 A 
ATOM     59  C   UNL A   1      42.456  32.228  30.229  1.00  0.00     0.031 C 
ATOM     60  C   UNL A   1      44.594  31.783  29.055  1.00  0.00     0.034 A 
BRANCH  47  61
ATOM     61  C   UNL A   1      47.716  27.461  25.934  1.00  0.00     0.023 A 
ATOM     62  C   UNL A   1      48.740  26.863  26.695  1.00  0.00     0.012 A 
ATOM     63  C   UNL A   1      47.888  27.626  24.546  1.00  0.00     0.148 A 
ATOM     64  C   UNL A   1      49.929  26.463  26.088  1.00  0.00     0.002 A 
ATOM     65  C   UNL A   1      49.056  27.181  23.941  1.00  0.00     0.091 A 
ATOM     66  F   UNL A   1      46.913  28.227  23.848  1.00  0.00    -0.205 F 
ATOM     67  C   UNL A   1      50.081  26.610  24.712  1.00  0.00     0.022 A 
BRANCH  65  68
ATOM     68  S   UNL A   1      49.313  27.257  22.167  1.00  0.00     0.127 S 
ATOM     69  O   UNL A   1      48.970  28.649  21.878  1.00  0.00    -0.237 OA
ATOM     70  O   UNL A   1      50.739  26.945  22.052  1.00  0.00    -0.237 OA
ATOM     71  O   UNL A   1      48.422  26.263  21.586  1.00  0.00    -0.744 OA
ENDBRANCH  65  68
ENDBRANCH  47  61
BRANCH  48  72
ATOM     72  C   UNL A   1      39.068  29.710  30.462  1.00  0.00     0.023 A 
ATOM     73  C   UNL A   1      38.810  29.087  31.697  1.00  0.00     0.012 A 
ATOM     74  C   UNL A   1      38.131  30.628  29.947  1.00  0.00     0.148 A 
ATOM     75  C   UNL A   1      37.625  29.346  32.390  1.00  0.00     0.002 A 
ATOM     76  C   UNL A   1      36.981  30.924  30.669  1.00  0.00     0.091 A 
ATOM     77  F   UNL A   1      38.386  31.195  28.760  1.00  0.00    -0.205 F 
ATOM     78  C   UNL A   1      36.718  30.271  31.882  1.00  0.00     0.022 A 
BRANCH  76  79
ATOM     79  S   UNL A   1      35.815  32.187  30.147  1.00  0.00     0.127 S 
ATOM     80  O   UNL A   1      34.796  32.102  31.192  1.00  0.00    -0.237 OA
ATOM     81  O   UNL A   1      36.641  33.393  30.189  1.00  0.00    -0.237 OA
ATOM     82  O   UNL A   1      35.382  31.798  28.812  1.00  0.00    -0.744 OA
ENDBRANCH  76  79
ENDBRANCH  48  72
BRANCH  60  83
ATOM     83  C   UNL A   1      45.082  33.140  29.492  1.00  0.00     0.023 A 
ATOM     84  C   UNL A   1      45.826  33.270  30.680  1.00  0.00     0.012 A 
ATOM     85  C   UNL A   1      44.887  34.267  28.669  1.00  0.00     0.148 A 
ATOM     86  C   UNL A   1      46.347  34.508  31.057  1.00  0.00     0.002 A 
ATOM     87  C   UNL A   1      45.452  35.484  29.024  1.00  0.00     0.091 A 
ATOM     88  F   UNL A   1      44.165  34.122  27.548  1.00  0.00    -0.205 F 
ATOM     89  C   UNL A   1      46.171  35.610  30.223  1.00  0.00     0.022 A 
BRANCH  87  90
ATOM     90  S   UNL A   1      45.369  36.934  27.966  1.00  0.00     0.127 S 
ATOM     91  O   UNL A   1      44.423  37.780  28.694  1.00  0.00    -0.237 OA
ATOM     92  O   UNL A   1      46.752  37.409  27.984  1.00  0.00    -0.237 OA
ATOM     93  O   UNL A   1      44.906  36.461  26.668  1.00  0.00    -0.744 OA
ENDBRANCH  87  90
ENDBRANCH  60  83
ENDBRANCH  34  35
ENDBRANCH  27  29
ENDBRANCH  26  27
ENDBRANCH  25  26
ENDBRANCH  24  25
ENDBRANCH  23  24
ENDBRANCH  22  23
ENDBRANCH   1  22
TORSDOF 26
ENDMDL
MODEL 2
REMARK VINA RESULT:      -8.9      1.521      7.714
REMARK SMILES C#CC[N@@H+](CC(=O)OCCOCCOCCOC(=O)c1ccc(-c2c3nc(c(-c4cccc(S(=O)(=O)[O-])c4F)c4ccc([nH]4)c(-c4cccc(S(=O)(=O)[O-])c4F)c4nc(c(-c5cccc(S(=O)(=O)[O-])c5F)c5ccc2[nH]5)C=C4)C=C3)cc1)[C@@H](C)Cc1ccco1
REMARK SMILES IDX 12 1 11 2 10 3 9 4 8 5 6 6 7 7 5 8 4 9 3 11 2 12 1 13 83 14
REMARK SMILES IDX 84 15 85 16 86 17 87 18 90 19 88 20 89 21 13 22 14 23 15 24
REMARK SMILES IDX 16 25 17 26 18 27 19 28 20 29 21 30 82 31 22 32 81 33 23 34
REMARK SMILES IDX 24 35 25 36 75 37 26 38 80 39 74 40 76 41 27 42 79 43 73 44
REMARK SMILES IDX 72 45 28 47 60 48 40 49 59 50 41 51 44 52 58 53 77 54 42 55
REMARK SMILES IDX 43 56 57 58 78 59 45 60 29 61 30 62 38 63 31 64 33 65 39 66
REMARK SMILES IDX 32 67 34 68 35 69 36 70 37 71 61 72 62 73 70 74 63 75 65 76
REMARK SMILES IDX 71 77 64 78 66 79 67 80 68 81 69 82 46 83 47 84 55 85 48 86
REMARK SMILES IDX 50 87 56 88 49 89 51 90 52 91 53 92 54 93
REMARK H PARENT 4 10 76 46 44 57
REMARK Flexibility Score: inf
ROOT
ATOM      1  C   UNL A   1      36.075  23.311  26.080  1.00  0.00     0.188 C 
ENDROOT
BRANCH   1   2
ATOM      2  O   UNL A   1      34.746  23.730  26.369  1.00  0.00    -0.376 OA
BRANCH   2   3
ATOM      3  C   UNL A   1      33.972  22.847  27.174  1.00  0.00     0.202 C 
BRANCH   3   4
ATOM      4  C   UNL A   1      33.213  21.730  26.437  1.00  0.00     0.261 C 
BRANCH   4   5
ATOM      5  O   UNL A   1      31.900  22.075  25.920  1.00  0.00    -0.459 OA
BRANCH   5   6
ATOM      6  C   UNL A   1      31.309  23.165  26.483  1.00  0.00     0.361 C 
ATOM      7  O   UNL A   1      30.782  23.132  27.595  1.00  0.00    -0.245 OA
BRANCH   6   8
ATOM      8  C   UNL A   1      31.243  24.469  25.665  1.00  0.00     0.387 C 
BRANCH   8   9
ATOM      9  N   UNL A   1      30.180  24.764  24.667  1.00  0.00    -0.313 N 
ATOM     10  H   UNL A   1      29.360  24.232  24.956  1.00  0.00     0.349 HD
BRANCH   9  11
ATOM     11  C   UNL A   1      30.470  24.219  23.349  1.00  0.00     0.354 C 
BRANCH  11  12
ATOM     12  C   UNL A   1      31.689  24.885  22.731  1.00  0.00    -0.047 C 
ATOM     13  C   UNL A   1      32.735  25.456  22.202  1.00  0.00     0.010 C 
ENDBRANCH  11  12
ENDBRANCH   9  11
BRANCH   9  14
ATOM     14  C   UNL A   1      29.658  26.142  24.722  1.00  0.00     0.189 C 
ATOM     15  C   UNL A   1      30.854  27.044  24.955  1.00  0.00     0.076 C 
BRANCH  14  16
ATOM     16  C   UNL A   1      28.844  26.755  23.536  1.00  0.00     0.140 C 
BRANCH  16  17
ATOM     17  C   UNL A   1      29.136  28.138  23.072  1.00  0.00     0.109 A 
ATOM     18  C   UNL A   1      28.747  29.361  23.590  1.00  0.00     0.046 A 
ATOM     19  O   UNL A   1      30.029  28.328  22.065  1.00  0.00    -0.469 OA
ATOM     20  C   UNL A   1      29.433  30.350  22.851  1.00  0.00     0.042 A 
ATOM     21  C   UNL A   1      30.197  29.670  21.932  1.00  0.00     0.195 A 
ENDBRANCH  16  17
ENDBRANCH  14  16
ENDBRANCH   9  14
ENDBRANCH   8   9
ENDBRANCH   6   8
ENDBRANCH   5   6
ENDBRANCH   4   5
ENDBRANCH   3   4
ENDBRANCH   2   3
ENDBRANCH   1   2
BRANCH   1  22
ATOM     22  C   UNL A   1      36.235  22.489  24.788  1.00  0.00     0.188 C 
BRANCH  22  23
ATOM     23  O   UNL A   1      37.451  21.746  24.776  1.00  0.00    -0.376 OA
BRANCH  23  24
ATOM     24  C   UNL A   1      37.421  20.324  24.900  1.00  0.00     0.202 C 
BRANCH  24  25
ATOM     25  C   UNL A   1      38.668  19.531  25.306  1.00  0.00     0.261 C 
BRANCH  25  26
ATOM     26  O   UNL A   1      39.428  20.099  26.385  1.00  0.00    -0.460 OA
BRANCH  26  27
ATOM     27  C   UNL A   1      40.783  20.085  26.302  1.00  0.00     0.338 C 
ATOM     28  O   UNL A   1      41.472  19.218  25.814  1.00  0.00    -0.246 OA
BRANCH  27  29
ATOM     29  C   UNL A   1      41.251  21.438  26.725  1.00  0.00     0.060 A 
ATOM     30  C   UNL A   1      41.225  22.499  25.811  1.00  0.00     0.016 A 
ATOM     31  C   UNL A   1      41.645  21.683  28.039  1.00  0.00     0.016 A 
ATOM     32  C   UNL A   1      41.510  23.802  26.197  1.00  0.00     0.010 A 
ATOM     33  C   UNL A   1      42.007  22.979  28.419  1.00  0.00     0.010 A 
ATOM     34  C   UNL A   1      41.941  24.039  27.497  1.00  0.00    -0.014 A 
BRANCH  34  35
ATOM     35  C   UNL A   1      42.543  25.347  27.810  1.00  0.00     0.031 A 
ATOM     36  C   UNL A   1      41.670  26.371  28.470  1.00  0.00     0.074 A 
ATOM     37  C   UNL A   1      43.835  25.606  27.549  1.00  0.00     0.049 A 
ATOM     38  N   UNL A   1      41.905  27.631  28.705  1.00  0.00    -0.248 NA
ATOM     39  C   UNL A   1      40.348  25.905  28.928  1.00  0.00     0.031 C 
ATOM     40  C   UNL A   1      44.799  24.652  27.004  1.00  0.00     0.029 A 
ATOM     41  N   UNL A   1      44.548  26.769  27.685  1.00  0.00    -0.354 N 
ATOM     42  C   UNL A   1      40.744  28.125  29.282  1.00  0.00     0.074 A 
ATOM     43  C   UNL A   1      39.811  27.026  29.382  1.00  0.00     0.031 C 
ATOM     44  C   UNL A   1      45.968  25.285  26.802  1.00  0.00     0.029 A 
ATOM     45  C   UNL A   1      45.813  26.695  27.154  1.00  0.00     0.049 A 
ATOM     46  H   UNL A   1      44.189  27.577  28.118  1.00  0.00     0.167 HD
ATOM     47  C   UNL A   1      40.482  29.387  29.686  1.00  0.00     0.034 A 
ATOM     48  C   UNL A   1      46.714  27.671  26.925  1.00  0.00     0.034 A 
ATOM     49  C   UNL A   1      41.428  30.463  29.601  1.00  0.00     0.049 A 
ATOM     50  C   UNL A   1      46.369  29.086  27.314  1.00  0.00     0.074 A 
ATOM     51  C   UNL A   1      41.271  31.776  30.001  1.00  0.00     0.029 A 
ATOM     52  N   UNL A   1      42.702  30.352  29.066  1.00  0.00    -0.354 N 
ATOM     53  N   UNL A   1      45.290  29.542  27.905  1.00  0.00    -0.248 NA
ATOM     54  C   UNL A   1      47.371  30.120  27.019  1.00  0.00     0.031 C 
ATOM     55  C   UNL A   1      42.440  32.471  29.672  1.00  0.00     0.029 A 
ATOM     56  C   UNL A   1      43.338  31.579  29.105  1.00  0.00     0.049 A 
ATOM     57  H   UNL A   1      43.095  29.522  28.711  1.00  0.00     0.167 HD
ATOM     58  C   UNL A   1      45.496  30.907  28.081  1.00  0.00     0.074 A 
ATOM     59  C   UNL A   1      46.813  31.199  27.552  1.00  0.00     0.031 C 
ATOM     60  C   UNL A   1      44.669  31.836  28.619  1.00  0.00     0.034 A 
BRANCH  47  61
ATOM     61  C   UNL A   1      39.110  29.673  30.229  1.00  0.00     0.023 A 
ATOM     62  C   UNL A   1      38.795  29.361  31.566  1.00  0.00     0.012 A 
ATOM     63  C   UNL A   1      38.141  30.289  29.413  1.00  0.00     0.148 A 
ATOM     64  C   UNL A   1      37.527  29.633  32.076  1.00  0.00     0.002 A 
ATOM     65  C   UNL A   1      36.895  30.601  29.941  1.00  0.00     0.091 A 
ATOM     66  F   UNL A   1      38.453  30.547  28.134  1.00  0.00    -0.205 F 
ATOM     67  C   UNL A   1      36.583  30.263  31.268  1.00  0.00     0.022 A 
BRANCH  65  68
ATOM     68  S   UNL A   1      35.642  31.479  29.005  1.00  0.00     0.127 S 
ATOM     69  O   UNL A   1      35.083  30.407  28.182  1.00  0.00    -0.237 OA
ATOM     70  O   UNL A   1      34.753  31.962  30.063  1.00  0.00    -0.237 OA
ATOM     71  O   UNL A   1      36.342  32.524  28.272  1.00  0.00    -0.744 OA
ENDBRANCH  65  68
ENDBRANCH  47  61
BRANCH  48  72
ATOM     72  C   UNL A   1      48.014  27.353  26.270  1.00  0.00     0.023 A 
ATOM     73  C   UNL A   1      49.097  26.902  27.047  1.00  0.00     0.012 A 
ATOM     74  C   UNL A   1      48.181  27.497  24.878  1.00  0.00     0.148 A 
ATOM     75  C   UNL A   1      50.332  26.631  26.455  1.00  0.00     0.002 A 
ATOM     76  C   UNL A   1      49.397  27.171  24.288  1.00  0.00     0.091 A 
ATOM     77  F   UNL A   1      47.144  27.947  24.158  1.00  0.00    -0.205 F 
ATOM     78  C   UNL A   1      50.479  26.755  25.077  1.00  0.00     0.022 A 
BRANCH  76  79
ATOM     79  S   UNL A   1      49.639  27.190  22.508  1.00  0.00     0.127 S 
ATOM     80  O   UNL A   1      48.707  26.153  22.069  1.00  0.00    -0.237 OA
ATOM     81  O   UNL A   1      49.246  28.556  22.166  1.00  0.00    -0.237 OA
ATOM     82  O   UNL A   1      51.050  26.898  22.298  1.00  0.00    -0.744 OA
ENDBRANCH  76  79
ENDBRANCH  48  72
BRANCH  60  83
ATOM     83  C   UNL A   1      45.168  33.255  28.706  1.00  0.00     0.023 A 
ATOM     84  C   UNL A   1      44.893  34.162  27.664  1.00  0.00     0.012 A 
ATOM     85  C   UNL A   1      45.821  33.711  29.869  1.00  0.00     0.148 A 
ATOM     86  C   UNL A   1      45.286  35.497  27.767  1.00  0.00     0.002 A 
ATOM     87  C   UNL A   1      46.162  35.052  29.986  1.00  0.00     0.091 A 
ATOM     88  F   UNL A   1      46.082  32.827  30.843  1.00  0.00    -0.205 F 
ATOM     89  C   UNL A   1      45.907  35.944  28.931  1.00  0.00     0.022 A 
BRANCH  87  90
ATOM     90  S   UNL A   1      46.870  35.742  31.485  1.00  0.00     0.127 S 
ATOM     91  O   UNL A   1      47.020  37.151  31.123  1.00  0.00    -0.237 OA
ATOM     92  O   UNL A   1      45.825  35.474  32.472  1.00  0.00    -0.237 OA
ATOM     93  O   UNL A   1      48.118  35.024  31.711  1.00  0.00    -0.744 OA
ENDBRANCH  87  90
ENDBRANCH  60  83
ENDBRANCH  34  35
ENDBRANCH  27  29
ENDBRANCH  26  27
ENDBRANCH  25  26
ENDBRANCH  24  25
ENDBRANCH  23  24
ENDBRANCH  22  23
ENDBRANCH   1  22
TORSDOF 26
ENDMDL
MODEL 3
REMARK VINA RESULT:      -8.7      1.966      7.904
REMARK SMILES C#CC[N@@H+](CC(=O)OCCOCCOCCOC(=O)c1ccc(-c2c3nc(c(-c4cccc(S(=O)(=O)[O-])c4F)c4ccc([nH]4)c(-c4cccc(S(=O)(=O)[O-])c4F)c4nc(c(-c5cccc(S(=O)(=O)[O-])c5F)c5ccc2[nH]5)C=C4)C=C3)cc1)[C@@H](C)Cc1ccco1
REMARK SMILES IDX 12 1 11 2 10 3 9 4 8 5 6 6 7 7 5 8 4 9 3 11 2 12 1 13 83 14
REMARK SMILES IDX 84 15 85 16 86 17 87 18 90 19 88 20 89 21 13 22 14 23 15 24
REMARK SMILES IDX 16 25 17 26 18 27 19 28 20 29 21 30 82 31 22 32 81 33 23 34
REMARK SMILES IDX 24 35 25 36 75 37 26 38 80 39 74 40 76 41 27 42 79 43 73 44
REMARK SMILES IDX 72 45 28 47 60 48 40 49 59 50 41 51 44 52 58 53 77 54 42 55
REMARK SMILES IDX 43 56 57 58 78 59 45 60 29 61 30 62 38 63 31 64 33 65 39 66
REMARK SMILES IDX 32 67 34 68 35 69 36 70 37 71 61 72 62 73 70 74 63 75 65 76
REMARK SMILES IDX 71 77 64 78 66 79 67 80 68 81 69 82 46 83 47 84 55 85 48 86
REMARK SMILES IDX 50 87 56 88 49 89 51 90 52 91 53 92 54 93
REMARK H PARENT 4 10 76 46 44 57
REMARK Flexibility Score: inf
ROOT
ATOM      1  C   UNL A   1      36.295  23.203  26.045  1.00  0.00     0.188 C 
ENDROOT
BRANCH   1   2
ATOM      2  O   UNL A   1      34.948  23.633  26.208  1.00  0.00    -0.376 OA
BRANCH   2   3
ATOM      3  C   UNL A   1      34.129  22.823  27.044  1.00  0.00     0.202 C 
BRANCH   3   4
ATOM      4  C   UNL A   1      33.298  21.733  26.344  1.00  0.00     0.261 C 
BRANCH   4   5
ATOM      5  O   UNL A   1      31.997  22.138  25.840  1.00  0.00    -0.459 OA
BRANCH   5   6
ATOM      6  C   UNL A   1      31.442  23.227  26.440  1.00  0.00     0.361 C 
ATOM      7  O   UNL A   1      30.993  23.196  27.586  1.00  0.00    -0.245 OA
BRANCH   6   8
ATOM      8  C   UNL A   1      31.313  24.528  25.625  1.00  0.00     0.387 C 
BRANCH   8   9
ATOM      9  N   UNL A   1      30.232  24.777  24.633  1.00  0.00    -0.313 N 
ATOM     10  H   UNL A   1      29.443  24.195  24.916  1.00  0.00     0.349 HD
BRANCH   9  11
ATOM     11  C   UNL A   1      30.547  24.267  23.307  1.00  0.00     0.354 C 
BRANCH  11  12
ATOM     12  C   UNL A   1      31.842  24.863  22.779  1.00  0.00    -0.047 C 
ATOM     13  C   UNL A   1      32.953  25.375  22.326  1.00  0.00     0.010 C 
ENDBRANCH  11  12
ENDBRANCH   9  11
BRANCH   9  14
ATOM     14  C   UNL A   1      29.634  26.123  24.708  1.00  0.00     0.189 C 
ATOM     15  C   UNL A   1      30.775  27.084  24.969  1.00  0.00     0.076 C 
BRANCH  14  16
ATOM     16  C   UNL A   1      28.796  26.711  23.527  1.00  0.00     0.140 C 
BRANCH  16  17
ATOM     17  C   UNL A   1      29.053  28.098  23.054  1.00  0.00     0.109 A 
ATOM     18  C   UNL A   1      28.509  29.303  23.465  1.00  0.00     0.046 A 
ATOM     19  O   UNL A   1      30.065  28.325  22.175  1.00  0.00    -0.469 OA
ATOM     20  C   UNL A   1      29.222  30.319  22.790  1.00  0.00     0.042 A 
ATOM     21  C   UNL A   1      30.155  29.672  22.014  1.00  0.00     0.195 A 
ENDBRANCH  16  17
ENDBRANCH  14  16
ENDBRANCH   9  14
ENDBRANCH   8   9
ENDBRANCH   6   8
ENDBRANCH   5   6
ENDBRANCH   4   5
ENDBRANCH   3   4
ENDBRANCH   2   3
ENDBRANCH   1   2
BRANCH   1  22
ATOM     22  C   UNL A   1      36.562  22.351  24.790  1.00  0.00     0.188 C 
BRANCH  22  23
ATOM     23  O   UNL A   1      37.817  21.682  24.856  1.00  0.00    -0.376 OA
BRANCH  23  24
ATOM     24  C   UNL A   1      37.864  20.259  24.957  1.00  0.00     0.202 C 
BRANCH  24  25
ATOM     25  C   UNL A   1      39.182  19.518  25.211  1.00  0.00     0.261 C 
BRANCH  25  26
ATOM     26  O   UNL A   1      40.048  20.128  26.181  1.00  0.00    -0.460 OA
BRANCH  26  27
ATOM     27  C   UNL A   1      41.389  20.072  25.981  1.00  0.00     0.338 C 
ATOM     28  O   UNL A   1      42.001  19.211  25.391  1.00  0.00    -0.246 OA
BRANCH  27  29
ATOM     29  C   UNL A   1      41.944  21.384  26.431  1.00  0.00     0.060 A 
ATOM     30  C   UNL A   1      42.000  22.459  25.534  1.00  0.00     0.016 A 
ATOM     31  C   UNL A   1      42.338  21.581  27.752  1.00  0.00     0.016 A 
ATOM     32  C   UNL A   1      42.368  23.733  25.944  1.00  0.00     0.010 A 
ATOM     33  C   UNL A   1      42.783  22.844  28.157  1.00  0.00     0.010 A 
ATOM     34  C   UNL A   1      42.799  23.920  27.252  1.00  0.00    -0.014 A 
BRANCH  34  35
ATOM     35  C   UNL A   1      43.484  25.179  27.593  1.00  0.00     0.031 A 
ATOM     36  C   UNL A   1      42.663  26.269  28.212  1.00  0.00     0.074 A 
ATOM     37  C   UNL A   1      44.803  25.337  27.391  1.00  0.00     0.049 A 
ATOM     38  N   UNL A   1      42.983  27.508  28.459  1.00  0.00    -0.248 NA
ATOM     39  C   UNL A   1      41.290  25.907  28.609  1.00  0.00     0.031 C 
ATOM     40  C   UNL A   1      45.715  24.311  26.890  1.00  0.00     0.029 A 
ATOM     41  N   UNL A   1      45.596  26.444  27.560  1.00  0.00    -0.354 N 
ATOM     42  C   UNL A   1      41.838  28.091  28.982  1.00  0.00     0.074 A 
ATOM     43  C   UNL A   1      40.820  27.067  29.039  1.00  0.00     0.031 C 
ATOM     44  C   UNL A   1      46.937  24.852  26.742  1.00  0.00     0.029 A 
ATOM     45  C   UNL A   1      46.874  26.271  27.087  1.00  0.00     0.049 A 
ATOM     46  H   UNL A   1      45.280  27.278  27.977  1.00  0.00     0.167 HD
ATOM     47  C   UNL A   1      41.655  29.371  29.374  1.00  0.00     0.034 A 
ATOM     48  C   UNL A   1      47.857  27.174  26.900  1.00  0.00     0.034 A 
ATOM     49  C   UNL A   1      42.684  30.371  29.332  1.00  0.00     0.049 A 
ATOM     50  C   UNL A   1      47.604  28.613  27.273  1.00  0.00     0.074 A 
ATOM     51  C   UNL A   1      42.610  31.693  29.726  1.00  0.00     0.029 A 
ATOM     52  N   UNL A   1      43.968  30.161  28.857  1.00  0.00    -0.354 N 
ATOM     53  N   UNL A   1      46.537  29.151  27.815  1.00  0.00    -0.248 NA
ATOM     54  C   UNL A   1      48.695  29.567  27.024  1.00  0.00     0.031 C 
ATOM     55  C   UNL A   1      43.842  32.296  29.450  1.00  0.00     0.029 A 
ATOM     56  C   UNL A   1      44.694  31.336  28.925  1.00  0.00     0.049 A 
ATOM     57  H   UNL A   1      44.313  29.302  28.519  1.00  0.00     0.167 HD
ATOM     58  C   UNL A   1      46.839  30.497  28.000  1.00  0.00     0.074 A 
ATOM     59  C   UNL A   1      48.197  30.686  27.531  1.00  0.00     0.031 C 
ATOM     60  C   UNL A   1      46.061  31.489  28.500  1.00  0.00     0.034 A 
BRANCH  47  61
ATOM     61  C   UNL A   1      40.286  29.763  29.853  1.00  0.00     0.023 A 
ATOM     62  C   UNL A   1      39.329  30.256  28.945  1.00  0.00     0.012 A 
ATOM     63  C   UNL A   1      39.938  29.604  31.209  1.00  0.00     0.148 A 
ATOM     64  C   UNL A   1      38.055  30.612  29.384  1.00  0.00     0.002 A 
ATOM     65  C   UNL A   1      38.653  29.915  31.631  1.00  0.00     0.091 A 
ATOM     66  F   UNL A   1      40.876  29.163  32.061  1.00  0.00    -0.205 F 
ATOM     67  C   UNL A   1      37.714  30.430  30.722  1.00  0.00     0.022 A 
BRANCH  65  68
ATOM     68  S   UNL A   1      38.096  29.643  33.314  1.00  0.00     0.127 S 
ATOM     69  O   UNL A   1      39.337  29.236  33.973  1.00  0.00    -0.237 OA
ATOM     70  O   UNL A   1      37.613  30.972  33.694  1.00  0.00    -0.237 OA
ATOM     71  O   UNL A   1      37.066  28.618  33.240  1.00  0.00    -0.744 OA
ENDBRANCH  65  68
ENDBRANCH  47  61
BRANCH  48  72
ATOM     72  C   UNL A   1      49.158  26.756  26.304  1.00  0.00     0.023 A 
ATOM     73  C   UNL A   1      50.042  25.956  27.051  1.00  0.00     0.012 A 
ATOM     74  C   UNL A   1      49.520  27.148  25.000  1.00  0.00     0.148 A 
ATOM     75  C   UNL A   1      51.280  25.581  26.522  1.00  0.00     0.002 A 
ATOM     76  C   UNL A   1      50.728  26.725  24.459  1.00  0.00     0.091 A 
ATOM     77  F   UNL A   1      48.672  27.927  24.313  1.00  0.00    -0.205 F 
ATOM     78  C   UNL A   1      51.617  25.957  25.224  1.00  0.00     0.022 A 
BRANCH  76  79
ATOM     79  S   UNL A   1      51.192  27.063  22.757  1.00  0.00     0.127 S 
ATOM     80  O   UNL A   1      51.547  28.479  22.820  1.00  0.00    -0.237 OA
ATOM     81  O   UNL A   1      52.321  26.153  22.567  1.00  0.00    -0.237 OA
ATOM     82  O   UNL A   1      50.019  26.742  21.956  1.00  0.00    -0.744 OA
ENDBRANCH  76  79
ENDBRANCH  48  72
BRANCH  60  83
ATOM     83  C   UNL A   1      46.663  32.866  28.610  1.00  0.00     0.023 A 
ATOM     84  C   UNL A   1      47.184  33.309  29.841  1.00  0.00     0.012 A 
ATOM     85  C   UNL A   1      46.802  33.678  27.466  1.00  0.00     0.148 A 
ATOM     86  C   UNL A   1      47.810  34.552  29.938  1.00  0.00     0.002 A 
ATOM     87  C   UNL A   1      47.472  34.890  27.559  1.00  0.00     0.091 A 
ATOM     88  F   UNL A   1      46.288  33.240  26.307  1.00  0.00    -0.205 F 
ATOM     89  C   UNL A   1      47.966  35.334  28.796  1.00  0.00     0.022 A 
BRANCH  87  90
ATOM     90  S   UNL A   1      47.813  35.918  26.127  1.00  0.00     0.127 S 
ATOM     91  O   UNL A   1      48.916  36.748  26.611  1.00  0.00    -0.237 OA
ATOM     92  O   UNL A   1      48.191  34.928  25.119  1.00  0.00    -0.237 OA
ATOM     93  O   UNL A   1      46.577  36.636  25.841  1.00  0.00    -0.744 OA
ENDBRANCH  87  90
ENDBRANCH  60  83
ENDBRANCH  34  35
ENDBRANCH  27  29
ENDBRANCH  26  27
ENDBRANCH  25  26
ENDBRANCH  24  25
ENDBRANCH  23  24
ENDBRANCH  22  23
ENDBRANCH   1  22
TORSDOF 26
ENDMDL
