MODEL 1
REMARK VINA RESULT:     -10.2      0.000      0.000
REMARK SMILES Cc1nc(-c2ccc(S(=O)(=O)N3CC[NH2+][C@H](C(=O)OCCOCCOCCOC(=O)c4ccc(-c5c6nc(c(-c7cccc(S(=O)(=O)[O-])c7F)c7ccc([nH]7)c(-c7cccc(S(=O)(=O)[O-])c7F)c7nc(c(-c8cccc(S(=O)(=O)[O-])c8F)c8ccc5[nH]8)C=C7)C=C6)cc4)C3)s2)cs1
REMARK SMILES IDX 23 1 22 2 21 3 20 4 19 5 17 6 18 7 16 8 12 9 13 10 94 11
REMARK SMILES IDX 14 12 15 13 9 16 10 17 11 18 8 19 5 20 6 21 95 22 7 23 4 24
REMARK SMILES IDX 1 25 2 26 3 27 97 28 96 29 24 30 25 31 26 32 27 33 28 34
REMARK SMILES IDX 29 35 30 36 31 37 32 38 93 39 33 40 92 41 34 42 35 43 36 44
REMARK SMILES IDX 86 45 37 46 91 47 85 48 87 49 38 50 90 51 84 52 83 53 39 55
REMARK SMILES IDX 71 56 51 57 70 58 52 59 55 60 69 61 88 62 53 63 54 64 68 66
REMARK SMILES IDX 89 67 56 68 40 69 41 70 49 71 42 72 44 73 50 74 43 75 45 76
REMARK SMILES IDX 46 77 47 78 48 79 72 80 73 81 81 82 74 83 76 84 82 85 75 86
REMARK SMILES IDX 77 87 78 88 79 89 80 90 57 91 58 92 66 93 59 94 61 95 67 96
REMARK SMILES IDX 60 97 62 98 63 99 64 100 65 101
REMARK H PARENT 15 14 15 15 87 54 55 65
REMARK Flexibility Score: inf
ROOT
ATOM      1  C   UNL A   1      34.408  31.897  28.426  1.00  0.00     0.188 C 
ENDROOT
BRANCH   1   2
ATOM      2  O   UNL A   1      34.804  31.085  27.325  1.00  0.00    -0.376 OA
BRANCH   2   3
ATOM      3  C   UNL A   1      33.929  30.047  26.907  1.00  0.00     0.202 C 
BRANCH   3   4
ATOM      4  C   UNL A   1      32.457  30.259  27.252  1.00  0.00     0.261 C 
BRANCH   4   5
ATOM      5  O   UNL A   1      31.596  29.591  26.309  1.00  0.00    -0.459 OA
BRANCH   5   6
ATOM      6  C   UNL A   1      31.431  28.259  26.522  1.00  0.00     0.366 C 
ATOM      7  O   UNL A   1      31.384  27.731  27.627  1.00  0.00    -0.245 OA
BRANCH   6   8
ATOM      8  C   UNL A   1      31.316  27.459  25.233  1.00  0.00     0.308 C 
ATOM      9  N   UNL A   1      31.862  27.377  22.857  1.00  0.00    -0.185 NA
ATOM     10  C   UNL A   1      30.707  26.483  22.572  1.00  0.00     0.164 C 
ATOM     11  C   UNL A   1      31.603  28.300  23.993  1.00  0.00     0.180 C 
ATOM     12  C   UNL A   1      30.041  25.891  23.843  1.00  0.00     0.278 C 
ATOM     13  N   UNL A   1      30.039  26.702  25.082  1.00  0.00    -0.332 N 
ATOM     14  H   UNL A   1      29.922  26.083  25.884  1.00  0.00     0.347 HD
ATOM     15  H   UNL A   1      29.271  27.371  25.029  1.00  0.00     0.347 HD
BRANCH   9  16
ATOM     16  S   UNL A   1      33.457  26.823  22.634  1.00  0.00     0.253 S 
ATOM     17  O   UNL A   1      34.316  27.811  23.268  1.00  0.00    -0.206 OA
ATOM     18  O   UNL A   1      33.615  26.470  21.247  1.00  0.00    -0.206 OA
BRANCH  16  19
ATOM     19  C   UNL A   1      33.744  25.290  23.521  1.00  0.00     0.135 A 
ATOM     20  C   UNL A   1      33.792  22.875  24.073  1.00  0.00     0.055 A 
ATOM     21  C   UNL A   1      34.372  23.645  25.054  1.00  0.00     0.023 A 
ATOM     22  S   UNL A   1      33.271  23.819  22.754  1.00  0.00    -0.121 S 
ATOM     23  C   UNL A   1      34.270  25.027  24.773  1.00  0.00     0.034 A 
BRANCH  20  24
ATOM     24  C   UNL A   1      33.649  21.398  24.264  1.00  0.00     0.091 A 
ATOM     25  C   UNL A   1      32.152  18.391  22.846  1.00  0.00     0.079 C 
ATOM     26  C   UNL A   1      32.876  19.411  23.650  1.00  0.00     0.090 A 
ATOM     27  N   UNL A   1      32.850  20.694  23.379  1.00  0.00    -0.241 NA
ATOM     28  S   UNL A   1      33.832  18.975  25.009  1.00  0.00    -0.127 S 
ATOM     29  C   UNL A   1      34.268  20.628  25.224  1.00  0.00     0.096 A 
ENDBRANCH  20  24
ENDBRANCH  16  19
ENDBRANCH   9  16
ENDBRANCH   6   8
ENDBRANCH   5   6
ENDBRANCH   4   5
ENDBRANCH   3   4
ENDBRANCH   2   3
ENDBRANCH   1   2
BRANCH   1  30
ATOM     30  C   UNL A   1      34.369  33.421  28.204  1.00  0.00     0.188 C 
BRANCH  30  31
ATOM     31  O   UNL A   1      33.829  34.247  29.228  1.00  0.00    -0.376 OA
BRANCH  31  32
ATOM     32  C   UNL A   1      33.127  35.416  28.826  1.00  0.00     0.202 C 
BRANCH  32  33
ATOM     33  C   UNL A   1      32.904  36.435  29.941  1.00  0.00     0.261 C 
BRANCH  33  34
ATOM     34  O   UNL A   1      32.382  35.807  31.125  1.00  0.00    -0.460 OA
BRANCH  34  35
ATOM     35  C   UNL A   1      33.077  36.010  32.270  1.00  0.00     0.338 C 
ATOM     36  O   UNL A   1      32.803  36.790  33.166  1.00  0.00    -0.246 OA
BRANCH  35  37
ATOM     37  C   UNL A   1      34.167  35.018  32.370  1.00  0.00     0.060 A 
ATOM     38  C   UNL A   1      33.862  33.745  32.874  1.00  0.00     0.016 A 
ATOM     39  C   UNL A   1      35.481  35.348  32.034  1.00  0.00     0.016 A 
ATOM     40  C   UNL A   1      34.879  32.816  33.093  1.00  0.00     0.010 A 
ATOM     41  C   UNL A   1      36.500  34.422  32.265  1.00  0.00     0.010 A 
ATOM     42  C   UNL A   1      36.209  33.168  32.830  1.00  0.00    -0.014 A 
BRANCH  42  43
ATOM     43  C   UNL A   1      37.330  32.318  33.295  1.00  0.00     0.031 A 
ATOM     44  C   UNL A   1      38.022  32.689  34.576  1.00  0.00     0.074 A 
ATOM     45  C   UNL A   1      37.773  31.287  32.555  1.00  0.00     0.049 A 
ATOM     46  N   UNL A   1      39.121  32.207  35.094  1.00  0.00    -0.248 NA
ATOM     47  C   UNL A   1      37.394  33.753  35.378  1.00  0.00     0.031 C 
ATOM     48  C   UNL A   1      37.171  30.819  31.309  1.00  0.00     0.029 A 
ATOM     49  N   UNL A   1      38.867  30.476  32.730  1.00  0.00    -0.354 N 
ATOM     50  C   UNL A   1      39.337  32.931  36.259  1.00  0.00     0.074 A 
ATOM     51  C   UNL A   1      38.252  33.880  36.380  1.00  0.00     0.031 C 
ATOM     52  C   UNL A   1      37.931  29.832  30.804  1.00  0.00     0.029 A 
ATOM     53  C   UNL A   1      39.088  29.625  31.673  1.00  0.00     0.049 A 
ATOM     54  H   UNL A   1      39.436  30.501  33.532  1.00  0.00     0.167 HD
ATOM     55  C   UNL A   1      40.347  32.814  37.152  1.00  0.00     0.034 A 
ATOM     56  C   UNL A   1      40.128  28.804  31.420  1.00  0.00     0.034 A 
ATOM     57  C   UNL A   1      41.416  31.863  37.039  1.00  0.00     0.049 A 
ATOM     58  C   UNL A   1      41.262  28.720  32.410  1.00  0.00     0.074 A 
ATOM     59  C   UNL A   1      42.470  31.647  37.909  1.00  0.00     0.029 A 
ATOM     60  N   UNL A   1      41.573  30.976  35.987  1.00  0.00    -0.354 N 
ATOM     61  N   UNL A   1      41.403  29.336  33.560  1.00  0.00    -0.248 NA
ATOM     62  C   UNL A   1      42.375  27.815  32.079  1.00  0.00     0.031 C 
ATOM     63  C   UNL A   1      43.274  30.635  37.375  1.00  0.00     0.029 A 
ATOM     64  C   UNL A   1      42.711  30.213  36.181  1.00  0.00     0.049 A 
ATOM     65  H   UNL A   1      40.966  30.898  35.217  1.00  0.00     0.167 HD
ATOM     66  C   UNL A   1      42.594  28.864  34.104  1.00  0.00     0.074 A 
ATOM     67  C   UNL A   1      43.133  27.904  33.165  1.00  0.00     0.031 C 
ATOM     68  C   UNL A   1      43.194  29.207  35.270  1.00  0.00     0.034 A 
BRANCH  55  69
ATOM     69  C   UNL A   1      40.327  33.726  38.347  1.00  0.00     0.023 A 
ATOM     70  C   UNL A   1      41.164  34.858  38.366  1.00  0.00     0.012 A 
ATOM     71  C   UNL A   1      39.450  33.492  39.422  1.00  0.00     0.148 A 
ATOM     72  C   UNL A   1      41.143  35.736  39.449  1.00  0.00     0.002 A 
ATOM     73  C   UNL A   1      39.410  34.389  40.483  1.00  0.00     0.091 A 
ATOM     74  F   UNL A   1      38.684  32.391  39.397  1.00  0.00    -0.205 F 
ATOM     75  C   UNL A   1      40.260  35.506  40.501  1.00  0.00     0.022 A 
BRANCH  73  76
ATOM     76  S   UNL A   1      38.260  34.208  41.851  1.00  0.00     0.127 S 
ATOM     77  O   UNL A   1      38.937  33.206  42.674  1.00  0.00    -0.237 OA
ATOM     78  O   UNL A   1      38.241  35.555  42.423  1.00  0.00    -0.237 OA
ATOM     79  O   UNL A   1      36.999  33.788  41.257  1.00  0.00    -0.744 OA
ENDBRANCH  73  76
ENDBRANCH  55  69
BRANCH  56  80
ATOM     80  C   UNL A   1      40.137  27.972  30.184  1.00  0.00     0.023 A 
ATOM     81  C   UNL A   1      39.281  26.856  30.100  1.00  0.00     0.012 A 
ATOM     82  C   UNL A   1      40.969  28.285  29.092  1.00  0.00     0.148 A 
ATOM     83  C   UNL A   1      39.272  26.053  28.958  1.00  0.00     0.002 A 
ATOM     84  C   UNL A   1      40.918  27.509  27.939  1.00  0.00     0.091 A 
ATOM     85  F   UNL A   1      41.795  29.335  29.201  1.00  0.00    -0.205 F 
ATOM     86  C   UNL A   1      40.081  26.385  27.875  1.00  0.00     0.022 A 
BRANCH  84  87
ATOM     87  S   UNL A   1      41.841  27.934  26.457  1.00  0.00     0.127 S 
ATOM     88  O   UNL A   1      41.207  27.081  25.454  1.00  0.00    -0.237 OA
ATOM     89  O   UNL A   1      41.555  29.362  26.318  1.00  0.00    -0.237 OA
ATOM     90  O   UNL A   1      43.232  27.628  26.764  1.00  0.00    -0.744 OA
ENDBRANCH  84  87
ENDBRANCH  56  80
BRANCH  68  91
ATOM     91  C   UNL A   1      44.481  28.517  35.638  1.00  0.00     0.023 A 
ATOM     92  C   UNL A   1      45.711  29.117  35.310  1.00  0.00     0.012 A 
ATOM     93  C   UNL A   1      44.466  27.344  36.420  1.00  0.00     0.148 A 
ATOM     94  C   UNL A   1      46.910  28.552  35.743  1.00  0.00     0.002 A 
ATOM     95  C   UNL A   1      45.663  26.811  36.884  1.00  0.00     0.091 A 
ATOM     96  F   UNL A   1      43.283  26.783  36.708  1.00  0.00    -0.205 F 
ATOM     97  C   UNL A   1      46.886  27.409  36.541  1.00  0.00     0.022 A 
BRANCH  95  98
ATOM     98  S   UNL A   1      45.724  25.398  37.992  1.00  0.00     0.127 S 
ATOM     99  O   UNL A   1      47.149  25.328  38.310  1.00  0.00    -0.237 OA
ATOM    100  O   UNL A   1      44.873  25.836  39.099  1.00  0.00    -0.237 OA
ATOM    101  O   UNL A   1      45.197  24.271  37.235  1.00  0.00    -0.744 OA
ENDBRANCH  95  98
ENDBRANCH  68  91
ENDBRANCH  42  43
ENDBRANCH  35  37
ENDBRANCH  34  35
ENDBRANCH  33  34
ENDBRANCH  32  33
ENDBRANCH  31  32
ENDBRANCH  30  31
ENDBRANCH   1  30
TORSDOF 23
ENDMDL
MODEL 2
REMARK VINA RESULT:      -9.9      0.858      7.462
REMARK SMILES Cc1nc(-c2ccc(S(=O)(=O)N3CC[NH2+][C@H](C(=O)OCCOCCOCCOC(=O)c4ccc(-c5c6nc(c(-c7cccc(S(=O)(=O)[O-])c7F)c7ccc([nH]7)c(-c7cccc(S(=O)(=O)[O-])c7F)c7nc(c(-c8cccc(S(=O)(=O)[O-])c8F)c8ccc5[nH]8)C=C7)C=C6)cc4)C3)s2)cs1
REMARK SMILES IDX 23 1 22 2 21 3 20 4 19 5 17 6 18 7 16 8 12 9 13 10 94 11
REMARK SMILES IDX 14 12 15 13 9 16 10 17 11 18 8 19 5 20 6 21 95 22 7 23 4 24
REMARK SMILES IDX 1 25 2 26 3 27 97 28 96 29 24 30 25 31 26 32 27 33 28 34
REMARK SMILES IDX 29 35 30 36 31 37 32 38 93 39 33 40 92 41 34 42 35 43 36 44
REMARK SMILES IDX 86 45 37 46 91 47 85 48 87 49 38 50 90 51 84 52 83 53 39 55
REMARK SMILES IDX 71 56 51 57 70 58 52 59 55 60 69 61 88 62 53 63 54 64 68 66
REMARK SMILES IDX 89 67 56 68 40 69 41 70 49 71 42 72 44 73 50 74 43 75 45 76
REMARK SMILES IDX 46 77 47 78 48 79 72 80 73 81 81 82 74 83 76 84 82 85 75 86
REMARK SMILES IDX 77 87 78 88 79 89 80 90 57 91 58 92 66 93 59 94 61 95 67 96
REMARK SMILES IDX 60 97 62 98 63 99 64 100 65 101
REMARK H PARENT 15 14 15 15 87 54 55 65
REMARK Flexibility Score: inf
ROOT
ATOM      1  C   UNL A   1      35.592  31.624  28.526  1.00  0.00     0.188 C 
ENDROOT
BRANCH   1   2
ATOM      2  O   UNL A   1      35.837  30.564  27.605  1.00  0.00    -0.376 OA
BRANCH   2   3
ATOM      3  C   UNL A   1      34.747  29.731  27.236  1.00  0.00     0.202 C 
BRANCH   3   4
ATOM      4  C   UNL A   1      33.391  30.427  27.164  1.00  0.00     0.261 C 
BRANCH   4   5
ATOM      5  O   UNL A   1      32.572  29.873  26.115  1.00  0.00    -0.459 OA
BRANCH   5   6
ATOM      6  C   UNL A   1      31.898  28.741  26.447  1.00  0.00     0.366 C 
ATOM      7  O   UNL A   1      31.566  28.437  27.587  1.00  0.00    -0.245 OA
BRANCH   6   8
ATOM      8  C   UNL A   1      31.594  27.855  25.248  1.00  0.00     0.308 C 
ATOM      9  N   UNL A   1      31.927  27.519  22.854  1.00  0.00    -0.185 NA
ATOM     10  C   UNL A   1      30.666  26.736  22.739  1.00  0.00     0.164 C 
ATOM     11  C   UNL A   1      31.861  28.554  23.918  1.00  0.00     0.180 C 
ATOM     12  C   UNL A   1      30.052  26.328  24.104  1.00  0.00     0.278 C 
ATOM     13  N   UNL A   1      30.238  27.233  25.262  1.00  0.00    -0.332 N 
ATOM     14  H   UNL A   1      30.125  26.699  26.123  1.00  0.00     0.347 HD
ATOM     15  H   UNL A   1      29.541  27.976  25.205  1.00  0.00     0.347 HD
BRANCH   9  16
ATOM     16  S   UNL A   1      33.432  26.776  22.564  1.00  0.00     0.253 S 
ATOM     17  O   UNL A   1      34.436  27.683  23.098  1.00  0.00    -0.206 OA
ATOM     18  O   UNL A   1      33.460  26.351  21.189  1.00  0.00    -0.206 OA
BRANCH  16  19
ATOM     19  C   UNL A   1      33.601  25.258  23.505  1.00  0.00     0.135 A 
ATOM     20  C   UNL A   1      33.450  22.870  24.148  1.00  0.00     0.055 A 
ATOM     21  C   UNL A   1      34.112  23.622  25.091  1.00  0.00     0.023 A 
ATOM     22  S   UNL A   1      32.989  23.806  22.802  1.00  0.00    -0.121 S 
ATOM     23  C   UNL A   1      34.125  24.996  24.758  1.00  0.00     0.034 A 
BRANCH  20  24
ATOM     24  C   UNL A   1      33.184  21.418  24.398  1.00  0.00     0.091 A 
ATOM     25  C   UNL A   1      32.242  18.291  22.777  1.00  0.00     0.079 C 
ATOM     26  C   UNL A   1      32.633  19.384  23.707  1.00  0.00     0.090 A 
ATOM     27  N   UNL A   1      32.768  20.633  23.335  1.00  0.00    -0.241 NA
ATOM     28  S   UNL A   1      32.960  19.079  25.366  1.00  0.00    -0.127 S 
ATOM     29  C   UNL A   1      33.345  20.744  25.588  1.00  0.00     0.096 A 
ENDBRANCH  20  24
ENDBRANCH  16  19
ENDBRANCH   9  16
ENDBRANCH   6   8
ENDBRANCH   5   6
ENDBRANCH   4   5
ENDBRANCH   3   4
ENDBRANCH   2   3
ENDBRANCH   1   2
BRANCH   1  30
ATOM     30  C   UNL A   1      35.814  33.063  28.023  1.00  0.00     0.188 C 
BRANCH  30  31
ATOM     31  O   UNL A   1      35.383  34.145  28.838  1.00  0.00    -0.376 OA
BRANCH  31  32
ATOM     32  C   UNL A   1      34.400  35.020  28.301  1.00  0.00     0.202 C 
BRANCH  32  33
ATOM     33  C   UNL A   1      33.364  35.505  29.314  1.00  0.00     0.261 C 
BRANCH  33  34
ATOM     34  O   UNL A   1      33.120  34.513  30.327  1.00  0.00    -0.460 OA
BRANCH  34  35
ATOM     35  C   UNL A   1      33.095  34.954  31.606  1.00  0.00     0.338 C 
ATOM     36  O   UNL A   1      32.171  35.514  32.172  1.00  0.00    -0.246 OA
BRANCH  35  37
ATOM     37  C   UNL A   1      34.321  34.517  32.306  1.00  0.00     0.060 A 
ATOM     38  C   UNL A   1      35.476  35.300  32.173  1.00  0.00     0.016 A 
ATOM     39  C   UNL A   1      34.355  33.324  33.031  1.00  0.00     0.016 A 
ATOM     40  C   UNL A   1      36.684  34.866  32.721  1.00  0.00     0.010 A 
ATOM     41  C   UNL A   1      35.567  32.885  33.568  1.00  0.00     0.010 A 
ATOM     42  C   UNL A   1      36.742  33.633  33.383  1.00  0.00    -0.014 A 
BRANCH  42  43
ATOM     43  C   UNL A   1      38.042  33.019  33.740  1.00  0.00     0.031 A 
ATOM     44  C   UNL A   1      38.527  31.851  32.927  1.00  0.00     0.074 A 
ATOM     45  C   UNL A   1      38.739  33.439  34.810  1.00  0.00     0.049 A 
ATOM     46  N   UNL A   1      39.535  31.050  33.146  1.00  0.00    -0.248 NA
ATOM     47  C   UNL A   1      37.764  31.540  31.705  1.00  0.00     0.031 C 
ATOM     48  C   UNL A   1      38.383  34.573  35.660  1.00  0.00     0.029 A 
ATOM     49  N   UNL A   1      39.873  32.924  35.387  1.00  0.00    -0.354 N 
ATOM     50  C   UNL A   1      39.508  30.119  32.116  1.00  0.00     0.074 A 
ATOM     51  C   UNL A   1      38.389  30.459  31.264  1.00  0.00     0.031 C 
ATOM     52  C   UNL A   1      39.255  34.640  36.680  1.00  0.00     0.029 A 
ATOM     53  C   UNL A   1      40.205  33.535  36.573  1.00  0.00     0.049 A 
ATOM     54  H   UNL A   1      40.395  32.190  34.992  1.00  0.00     0.167 HD
ATOM     55  C   UNL A   1      40.342  29.077  31.895  1.00  0.00     0.034 A 
ATOM     56  C   UNL A   1      41.145  33.212  37.485  1.00  0.00     0.034 A 
ATOM     57  C   UNL A   1      41.461  28.750  32.733  1.00  0.00     0.049 A 
ATOM     58  C   UNL A   1      42.038  32.022  37.238  1.00  0.00     0.074 A 
ATOM     59  C   UNL A   1      42.383  27.731  32.576  1.00  0.00     0.029 A 
ATOM     60  N   UNL A   1      41.803  29.429  33.892  1.00  0.00    -0.354 N 
ATOM     61  N   UNL A   1      42.067  31.211  36.207  1.00  0.00    -0.248 NA
ATOM     62  C   UNL A   1      43.039  31.710  38.270  1.00  0.00     0.031 C 
ATOM     63  C   UNL A   1      43.279  27.786  33.648  1.00  0.00     0.029 A 
ATOM     64  C   UNL A   1      42.920  28.848  34.464  1.00  0.00     0.049 A 
ATOM     65  H   UNL A   1      41.324  30.209  34.252  1.00  0.00     0.167 HD
ATOM     66  C   UNL A   1      43.111  30.323  36.447  1.00  0.00     0.074 A 
ATOM     67  C   UNL A   1      43.696  30.698  37.717  1.00  0.00     0.031 C 
ATOM     68  C   UNL A   1      43.537  29.281  35.692  1.00  0.00     0.034 A 
BRANCH  55  69
ATOM     69  C   UNL A   1      40.090  28.229  30.681  1.00  0.00     0.023 A 
ATOM     70  C   UNL A   1      39.122  27.208  30.740  1.00  0.00     0.012 A 
ATOM     71  C   UNL A   1      40.768  28.474  29.472  1.00  0.00     0.148 A 
ATOM     72  C   UNL A   1      38.847  26.427  29.620  1.00  0.00     0.002 A 
ATOM     73  C   UNL A   1      40.465  27.713  28.349  1.00  0.00     0.091 A 
ATOM     74  F   UNL A   1      41.708  29.431  29.447  1.00  0.00    -0.205 F 
ATOM     75  C   UNL A   1      39.511  26.685  28.423  1.00  0.00     0.022 A 
BRANCH  73  76
ATOM     76  S   UNL A   1      41.225  28.017  26.750  1.00  0.00     0.127 S 
ATOM     77  O   UNL A   1      40.991  26.746  26.066  1.00  0.00    -0.237 OA
ATOM     78  O   UNL A   1      40.436  29.138  26.238  1.00  0.00    -0.237 OA
ATOM     79  O   UNL A   1      42.618  28.337  27.027  1.00  0.00    -0.744 OA
ENDBRANCH  73  76
ENDBRANCH  55  69
BRANCH  56  80
ATOM     80  C   UNL A   1      41.310  34.042  38.711  1.00  0.00     0.023 A 
ATOM     81  C   UNL A   1      42.277  35.067  38.723  1.00  0.00     0.012 A 
ATOM     82  C   UNL A   1      40.511  33.837  39.853  1.00  0.00     0.148 A 
ATOM     83  C   UNL A   1      42.461  35.857  39.860  1.00  0.00     0.002 A 
ATOM     84  C   UNL A   1      40.667  34.660  40.963  1.00  0.00     0.091 A 
ATOM     85  F   UNL A   1      39.615  32.840  39.832  1.00  0.00    -0.205 F 
ATOM     86  C   UNL A   1      41.650  35.661  40.974  1.00  0.00     0.022 A 
BRANCH  84  87
ATOM     87  S   UNL A   1      39.587  34.550  42.395  1.00  0.00     0.127 S 
ATOM     88  O   UNL A   1      39.790  33.167  42.818  1.00  0.00    -0.237 OA
ATOM     89  O   UNL A   1      40.163  35.557  43.289  1.00  0.00    -0.237 OA
ATOM     90  O   UNL A   1      38.255  34.876  41.905  1.00  0.00    -0.744 OA
ENDBRANCH  84  87
ENDBRANCH  56  80
BRANCH  68  91
ATOM     91  C   UNL A   1      44.720  28.487  36.177  1.00  0.00     0.023 A 
ATOM     92  C   UNL A   1      46.023  28.902  35.841  1.00  0.00     0.012 A 
ATOM     93  C   UNL A   1      44.543  27.410  37.069  1.00  0.00     0.148 A 
ATOM     94  C   UNL A   1      47.133  28.249  36.375  1.00  0.00     0.002 A 
ATOM     95  C   UNL A   1      45.654  26.790  37.630  1.00  0.00     0.091 A 
ATOM     96  F   UNL A   1      43.293  27.023  37.362  1.00  0.00    -0.205 F 
ATOM     97  C   UNL A   1      46.949  27.203  37.279  1.00  0.00     0.022 A 
BRANCH  95  98
ATOM     98  S   UNL A   1      45.513  25.501  38.873  1.00  0.00     0.127 S 
ATOM     99  O   UNL A   1      46.915  25.201  39.153  1.00  0.00    -0.237 OA
ATOM    100  O   UNL A   1      44.808  26.189  39.955  1.00  0.00    -0.237 OA
ATOM    101  O   UNL A   1      44.756  24.423  38.250  1.00  0.00    -0.744 OA
ENDBRANCH  95  98
ENDBRANCH  68  91
ENDBRANCH  42  43
ENDBRANCH  35  37
ENDBRANCH  34  35
ENDBRANCH  33  34
ENDBRANCH  32  33
ENDBRANCH  31  32
ENDBRANCH  30  31
ENDBRANCH   1  30
TORSDOF 23
ENDMDL
MODEL 3
REMARK VINA RESULT:      -9.9      5.491     11.311
REMARK SMILES Cc1nc(-c2ccc(S(=O)(=O)N3CC[NH2+][C@H](C(=O)OCCOCCOCCOC(=O)c4ccc(-c5c6nc(c(-c7cccc(S(=O)(=O)[O-])c7F)c7ccc([nH]7)c(-c7cccc(S(=O)(=O)[O-])c7F)c7nc(c(-c8cccc(S(=O)(=O)[O-])c8F)c8ccc5[nH]8)C=C7)C=C6)cc4)C3)s2)cs1
REMARK SMILES IDX 23 1 22 2 21 3 20 4 19 5 17 6 18 7 16 8 12 9 13 10 94 11
REMARK SMILES IDX 14 12 15 13 9 16 10 17 11 18 8 19 5 20 6 21 95 22 7 23 4 24
REMARK SMILES IDX 1 25 2 26 3 27 97 28 96 29 24 30 25 31 26 32 27 33 28 34
REMARK SMILES IDX 29 35 30 36 31 37 32 38 93 39 33 40 92 41 34 42 35 43 36 44
REMARK SMILES IDX 86 45 37 46 91 47 85 48 87 49 38 50 90 51 84 52 83 53 39 55
REMARK SMILES IDX 71 56 51 57 70 58 52 59 55 60 69 61 88 62 53 63 54 64 68 66
REMARK SMILES IDX 89 67 56 68 40 69 41 70 49 71 42 72 44 73 50 74 43 75 45 76
REMARK SMILES IDX 46 77 47 78 48 79 72 80 73 81 81 82 74 83 76 84 82 85 75 86
REMARK SMILES IDX 77 87 78 88 79 89 80 90 57 91 58 92 66 93 59 94 61 95 67 96
REMARK SMILES IDX 60 97 62 98 63 99 64 100 65 101
REMARK H PARENT 15 14 15 15 87 54 55 65
REMARK Flexibility Score: inf
ROOT
ATOM      1  C   UNL A   1      45.474  19.202  24.959  1.00  0.00     0.188 C 
ENDROOT
BRANCH   1   2
ATOM      2  O   UNL A   1      44.096  19.472  25.196  1.00  0.00    -0.376 OA
BRANCH   2   3
ATOM      3  C   UNL A   1      43.321  18.481  25.857  1.00  0.00     0.202 C 
BRANCH   3   4
ATOM      4  C   UNL A   1      41.932  18.930  26.301  1.00  0.00     0.261 C 
BRANCH   4   5
ATOM      5  O   UNL A   1      42.002  20.106  27.131  1.00  0.00    -0.459 OA
BRANCH   5   6
ATOM      6  C   UNL A   1      41.068  21.056  26.865  1.00  0.00     0.366 C 
ATOM      7  O   UNL A   1      40.020  20.853  26.262  1.00  0.00    -0.245 OA
BRANCH   6   8
ATOM      8  C   UNL A   1      41.452  22.433  27.387  1.00  0.00     0.308 C 
ATOM      9  N   UNL A   1      42.246  24.663  26.795  1.00  0.00    -0.185 NA
ATOM     10  C   UNL A   1      42.822  24.870  28.151  1.00  0.00     0.164 C 
ATOM     11  C   UNL A   1      42.267  23.236  26.378  1.00  0.00     0.180 C 
ATOM     12  C   UNL A   1      42.380  23.809  29.193  1.00  0.00     0.278 C 
ATOM     13  N   UNL A   1      42.111  22.430  28.726  1.00  0.00    -0.332 N 
ATOM     14  H   UNL A   1      41.500  21.965  29.397  1.00  0.00     0.347 HD
ATOM     15  H   UNL A   1      43.000  21.937  28.647  1.00  0.00     0.347 HD
BRANCH   9  16
ATOM     16  S   UNL A   1      40.952  25.627  26.252  1.00  0.00     0.253 S 
ATOM     17  O   UNL A   1      39.767  24.785  26.325  1.00  0.00    -0.206 OA
ATOM     18  O   UNL A   1      41.352  26.254  25.019  1.00  0.00    -0.206 OA
BRANCH  16  19
ATOM     19  C   UNL A   1      40.644  26.995  27.371  1.00  0.00     0.135 A 
ATOM     20  C   UNL A   1      39.760  28.313  29.274  1.00  0.00     0.055 A 
ATOM     21  C   UNL A   1      40.627  29.042  28.493  1.00  0.00     0.023 A 
ATOM     22  S   UNL A   1      39.608  26.709  28.721  1.00  0.00    -0.121 S 
ATOM     23  C   UNL A   1      41.065  28.312  27.364  1.00  0.00     0.034 A 
BRANCH  20  24
ATOM     24  C   UNL A   1      39.056  28.963  30.423  1.00  0.00     0.091 A 
ATOM     25  C   UNL A   1      38.647  32.119  32.204  1.00  0.00     0.079 C 
ATOM     26  C   UNL A   1      38.603  30.720  31.699  1.00  0.00     0.090 A 
ATOM     27  N   UNL A   1      39.339  30.289  30.704  1.00  0.00    -0.241 NA
ATOM     28  S   UNL A   1      37.550  29.549  32.385  1.00  0.00    -0.127 S 
ATOM     29  C   UNL A   1      38.102  28.390  31.236  1.00  0.00     0.096 A 
ENDBRANCH  20  24
ENDBRANCH  16  19
ENDBRANCH   9  16
ENDBRANCH   6   8
ENDBRANCH   5   6
ENDBRANCH   4   5
ENDBRANCH   3   4
ENDBRANCH   2   3
ENDBRANCH   1   2
BRANCH   1  30
ATOM     30  C   UNL A   1      46.394  20.406  24.679  1.00  0.00     0.188 C 
BRANCH  30  31
ATOM     31  O   UNL A   1      46.169  21.615  25.392  1.00  0.00    -0.376 OA
BRANCH  31  32
ATOM     32  C   UNL A   1      46.165  22.826  24.646  1.00  0.00     0.202 C 
BRANCH  32  33
ATOM     33  C   UNL A   1      46.836  24.005  25.349  1.00  0.00     0.261 C 
BRANCH  33  34
ATOM     34  O   UNL A   1      46.659  25.224  24.606  1.00  0.00    -0.460 OA
BRANCH  34  35
ATOM     35  C   UNL A   1      47.414  26.279  24.993  1.00  0.00     0.338 C 
ATOM     36  O   UNL A   1      48.493  26.617  24.537  1.00  0.00    -0.246 OA
BRANCH  35  37
ATOM     37  C   UNL A   1      46.664  27.092  25.974  1.00  0.00     0.060 A 
ATOM     38  C   UNL A   1      47.371  27.664  27.040  1.00  0.00     0.016 A 
ATOM     39  C   UNL A   1      45.278  27.240  25.883  1.00  0.00     0.016 A 
ATOM     40  C   UNL A   1      46.687  28.343  28.050  1.00  0.00     0.010 A 
ATOM     41  C   UNL A   1      44.595  27.909  26.900  1.00  0.00     0.010 A 
ATOM     42  C   UNL A   1      45.290  28.429  28.005  1.00  0.00    -0.014 A 
BRANCH  42  43
ATOM     43  C   UNL A   1      44.516  28.901  29.177  1.00  0.00     0.031 A 
ATOM     44  C   UNL A   1      44.077  30.338  29.211  1.00  0.00     0.074 A 
ATOM     45  C   UNL A   1      44.277  28.090  30.222  1.00  0.00     0.049 A 
ATOM     46  N   UNL A   1      43.544  31.018  30.191  1.00  0.00    -0.248 NA
ATOM     47  C   UNL A   1      44.274  31.114  27.974  1.00  0.00     0.031 C 
ATOM     48  C   UNL A   1      44.634  26.676  30.296  1.00  0.00     0.029 A 
ATOM     49  N   UNL A   1      43.714  28.363  31.444  1.00  0.00    -0.354 N 
ATOM     50  C   UNL A   1      43.376  32.308  29.705  1.00  0.00     0.074 A 
ATOM     51  C   UNL A   1      43.854  32.316  28.340  1.00  0.00     0.031 C 
ATOM     52  C   UNL A   1      44.325  26.213  31.519  1.00  0.00     0.029 A 
ATOM     53  C   UNL A   1      43.782  27.308  32.323  1.00  0.00     0.049 A 
ATOM     54  H   UNL A   1      43.304  29.228  31.670  1.00  0.00     0.167 HD
ATOM     55  C   UNL A   1      42.864  33.390  30.338  1.00  0.00     0.034 A 
ATOM     56  C   UNL A   1      43.478  27.246  33.636  1.00  0.00     0.034 A 
ATOM     57  C   UNL A   1      42.377  33.377  31.688  1.00  0.00     0.049 A 
ATOM     58  C   UNL A   1      42.948  28.476  34.330  1.00  0.00     0.074 A 
ATOM     59  C   UNL A   1      41.812  34.415  32.407  1.00  0.00     0.029 A 
ATOM     60  N   UNL A   1      42.404  32.274  32.526  1.00  0.00    -0.354 N 
ATOM     61  N   UNL A   1      42.697  29.663  33.831  1.00  0.00    -0.248 NA
ATOM     62  C   UNL A   1      42.640  28.355  35.764  1.00  0.00     0.031 C 
ATOM     63  C   UNL A   1      41.508  33.942  33.687  1.00  0.00     0.029 A 
ATOM     64  C   UNL A   1      41.872  32.607  33.758  1.00  0.00     0.049 A 
ATOM     65  H   UNL A   1      42.750  31.386  32.280  1.00  0.00     0.167 HD
ATOM     66  C   UNL A   1      42.167  30.414  34.876  1.00  0.00     0.074 A 
ATOM     67  C   UNL A   1      42.124  29.547  36.035  1.00  0.00     0.031 C 
ATOM     68  C   UNL A   1      41.767  31.709  34.881  1.00  0.00     0.034 A 
BRANCH  55  69
ATOM     69  C   UNL A   1      42.784  34.674  29.563  1.00  0.00     0.023 A 
ATOM     70  C   UNL A   1      41.623  34.961  28.817  1.00  0.00     0.012 A 
ATOM     71  C   UNL A   1      43.828  35.617  29.612  1.00  0.00     0.148 A 
ATOM     72  C   UNL A   1      41.511  36.158  28.114  1.00  0.00     0.002 A 
ATOM     73  C   UNL A   1      43.695  36.824  28.936  1.00  0.00     0.091 A 
ATOM     74  F   UNL A   1      44.936  35.310  30.303  1.00  0.00    -0.205 F 
ATOM     75  C   UNL A   1      42.542  37.093  28.181  1.00  0.00     0.022 A 
BRANCH  73  76
ATOM     76  S   UNL A   1      44.944  38.112  29.017  1.00  0.00     0.127 S 
ATOM     77  O   UNL A   1      44.597  38.782  30.269  1.00  0.00    -0.237 OA
ATOM     78  O   UNL A   1      46.186  37.339  29.063  1.00  0.00    -0.237 OA
ATOM     79  O   UNL A   1      44.774  38.907  27.808  1.00  0.00    -0.744 OA
ENDBRANCH  73  76
ENDBRANCH  55  69
BRANCH  56  80
ATOM     80  C   UNL A   1      43.643  25.966  34.380  1.00  0.00     0.023 A 
ATOM     81  C   UNL A   1      42.535  25.111  34.532  1.00  0.00     0.012 A 
ATOM     82  C   UNL A   1      44.886  25.585  34.921  1.00  0.00     0.148 A 
ATOM     83  C   UNL A   1      42.656  23.908  35.231  1.00  0.00     0.002 A 
ATOM     84  C   UNL A   1      45.011  24.363  35.573  1.00  0.00     0.091 A 
ATOM     85  F   UNL A   1      45.923  26.425  34.789  1.00  0.00    -0.205 F 
ATOM     86  C   UNL A   1      43.895  23.530  35.741  1.00  0.00     0.022 A 
BRANCH  84  87
ATOM     87  S   UNL A   1      46.594  23.747  36.160  1.00  0.00     0.127 S 
ATOM     88  O   UNL A   1      47.012  24.814  37.067  1.00  0.00    -0.237 OA
ATOM     89  O   UNL A   1      46.211  22.497  36.817  1.00  0.00    -0.237 OA
ATOM     90  O   UNL A   1      47.410  23.571  34.967  1.00  0.00    -0.744 OA
ENDBRANCH  84  87
ENDBRANCH  56  80
BRANCH  68  91
ATOM     91  C   UNL A   1      41.201  32.275  36.155  1.00  0.00     0.023 A 
ATOM     92  C   UNL A   1      41.969  33.174  36.919  1.00  0.00     0.012 A 
ATOM     93  C   UNL A   1      39.865  32.016  36.522  1.00  0.00     0.148 A 
ATOM     94  C   UNL A   1      41.419  33.798  38.039  1.00  0.00     0.002 A 
ATOM     95  C   UNL A   1      39.311  32.674  37.614  1.00  0.00     0.091 A 
ATOM     96  F   UNL A   1      39.158  31.145  35.787  1.00  0.00    -0.205 F 
ATOM     97  C   UNL A   1      40.088  33.559  38.378  1.00  0.00     0.022 A 
BRANCH  95  98
ATOM     98  S   UNL A   1      37.582  32.501  38.068  1.00  0.00     0.127 S 
ATOM     99  O   UNL A   1      37.374  31.062  37.912  1.00  0.00    -0.237 OA
ATOM    100  O   UNL A   1      37.575  32.971  39.454  1.00  0.00    -0.237 OA
ATOM    101  O   UNL A   1      36.837  33.343  37.141  1.00  0.00    -0.744 OA
ENDBRANCH  95  98
ENDBRANCH  68  91
ENDBRANCH  42  43
ENDBRANCH  35  37
ENDBRANCH  34  35
ENDBRANCH  33  34
ENDBRANCH  32  33
ENDBRANCH  31  32
ENDBRANCH  30  31
ENDBRANCH   1  30
TORSDOF 23
ENDMDL
