MODEL 1
REMARK VINA RESULT:     -11.1      0.000      0.000
REMARK SMILES C=Cc1cc(Cl)cc2c1O[C@H](C(F)(F)F)C(C(=O)OCCOCCOCCOC(=O)c1ccc(-c3c4nc(c(-c5cccc(S(=O)(=O)[O-])c5F)c5ccc([nH]5)c(-c5cccc(S(=O)(=O)[O-])c5F)c5nc(c(-c6cccc(S(=O)(=O)[O-])c6F)c6ccc3[nH]6)C=C5)C=C4)cc1)=C2
REMARK SMILES IDX 24 1 23 2 22 3 21 4 20 5 19 6 17 7 18 8 16 9 3 10 4 11 9 12
REMARK SMILES IDX 5 13 8 14 10 15 6 16 7 17 94 18 11 19 2 20 1 21 12 22 13 23
REMARK SMILES IDX 14 24 15 25 25 26 26 27 27 28 28 29 29 30 30 31 31 32 32 33
REMARK SMILES IDX 93 34 33 35 92 36 34 37 35 38 36 39 86 40 37 41 91 42 85 43
REMARK SMILES IDX 87 44 38 45 90 46 84 47 83 48 39 50 71 51 51 52 70 53 52 54
REMARK SMILES IDX 55 55 69 56 88 57 53 58 54 59 68 61 89 62 56 63 40 64 41 65
REMARK SMILES IDX 49 66 42 67 44 68 50 69 43 70 45 71 46 72 47 73 48 74 72 75
REMARK SMILES IDX 73 76 81 77 74 78 76 79 82 80 75 81 77 82 78 83 79 84 80 85
REMARK SMILES IDX 57 86 58 87 66 88 59 89 61 90 67 91 60 92 62 93 63 94 64 95
REMARK SMILES IDX 65 96
REMARK H PARENT 87 49 55 60
REMARK Flexibility Score: inf
ROOT
ATOM      1  C   UNL A   1      34.900  18.540  24.669  1.00  0.00     0.188 C 
ENDROOT
BRANCH   1   2
ATOM      2  C   UNL A   1      33.481  18.057  24.300  1.00  0.00     0.188 C 
BRANCH   2   3
ATOM      3  O   UNL A   1      32.947  18.596  23.116  1.00  0.00    -0.376 OA
BRANCH   3   4
ATOM      4  C   UNL A   1      32.084  19.717  23.131  1.00  0.00     0.202 C 
BRANCH   4   5
ATOM      5  C   UNL A   1      32.448  21.138  23.597  1.00  0.00     0.261 C 
BRANCH   5   6
ATOM      6  O   UNL A   1      31.810  22.235  22.946  1.00  0.00    -0.460 OA
BRANCH   6   7
ATOM      7  C   UNL A   1      32.635  23.207  22.489  1.00  0.00     0.338 C 
ATOM      8  O   UNL A   1      33.447  23.108  21.584  1.00  0.00    -0.246 OA
BRANCH   7   9
ATOM      9  C   UNL A   1      32.325  24.468  23.189  1.00  0.00     0.087 C 
ATOM     10  C   UNL A   1      31.578  28.138  25.080  1.00  0.00     0.018 A 
ATOM     11  C   UNL A   1      30.898  29.133  24.361  1.00  0.00     0.032 A 
ATOM     12  C   UNL A   1      31.791  26.884  24.466  1.00  0.00     0.135 A 
ATOM     13  C   UNL A   1      30.417  28.875  23.078  1.00  0.00     0.042 A 
ATOM     14  C   UNL A   1      31.336  26.646  23.161  1.00  0.00     0.019 A 
ATOM     15  O   UNL A   1      32.450  25.934  25.202  1.00  0.00    -0.475 OA
ATOM     16  Cl  UNL A   1      29.578  30.109  22.223  1.00  0.00    -0.084 Cl
ATOM     17  C   UNL A   1      30.631  27.640  22.475  1.00  0.00     0.032 A 
ATOM     18  C   UNL A   1      31.638  25.386  22.500  1.00  0.00     0.027 C 
ATOM     19  C   UNL A   1      32.765  24.646  24.615  1.00  0.00     0.316 C 
BRANCH  10  20
ATOM     20  C   UNL A   1      32.146  28.428  26.412  1.00  0.00     0.004 C 
ATOM     21  C   UNL A   1      31.486  28.329  27.573  1.00  0.00     0.009 C 
ENDBRANCH  10  20
BRANCH  19  22
ATOM     22  C   UNL A   1      34.268  24.396  24.803  1.00  0.00     0.430 C 
ATOM     23  F   UNL A   1      34.756  25.108  25.851  1.00  0.00    -0.167 F 
ATOM     24  F   UNL A   1      34.537  23.096  25.067  1.00  0.00    -0.167 F 
ATOM     25  F   UNL A   1      34.985  24.745  23.711  1.00  0.00    -0.167 F 
ENDBRANCH  19  22
ENDBRANCH   7   9
ENDBRANCH   6   7
ENDBRANCH   5   6
ENDBRANCH   4   5
ENDBRANCH   3   4
ENDBRANCH   2   3
ENDBRANCH   1   2
BRANCH   1  26
ATOM     26  O   UNL A   1      35.247  19.911  24.520  1.00  0.00    -0.376 OA
BRANCH  26  27
ATOM     27  C   UNL A   1      36.242  20.467  25.374  1.00  0.00     0.202 C 
BRANCH  27  28
ATOM     28  C   UNL A   1      37.718  20.432  24.950  1.00  0.00     0.261 C 
BRANCH  28  29
ATOM     29  O   UNL A   1      38.474  21.583  25.353  1.00  0.00    -0.460 OA
BRANCH  29  30
ATOM     30  C   UNL A   1      39.492  21.339  26.218  1.00  0.00     0.338 C 
ATOM     31  O   UNL A   1      40.071  20.280  26.393  1.00  0.00    -0.246 OA
BRANCH  30  32
ATOM     32  C   UNL A   1      39.953  22.622  26.786  1.00  0.00     0.060 A 
ATOM     33  C   UNL A   1      40.955  22.661  27.756  1.00  0.00     0.016 A 
ATOM     34  C   UNL A   1      39.356  23.807  26.330  1.00  0.00     0.016 A 
ATOM     35  C   UNL A   1      41.381  23.898  28.249  1.00  0.00     0.010 A 
ATOM     36  C   UNL A   1      39.769  25.039  26.839  1.00  0.00     0.010 A 
ATOM     37  C   UNL A   1      40.801  25.093  27.786  1.00  0.00    -0.014 A 
BRANCH  37  38
ATOM     38  C   UNL A   1      41.409  26.395  28.149  1.00  0.00     0.031 A 
ATOM     39  C   UNL A   1      42.822  26.745  27.798  1.00  0.00     0.074 A 
ATOM     40  C   UNL A   1      40.647  27.269  28.833  1.00  0.00     0.049 A 
ATOM     41  N   UNL A   1      43.440  27.887  27.959  1.00  0.00    -0.248 NA
ATOM     42  C   UNL A   1      43.651  25.688  27.201  1.00  0.00     0.031 C 
ATOM     43  C   UNL A   1      39.280  27.010  29.290  1.00  0.00     0.029 A 
ATOM     44  N   UNL A   1      40.909  28.543  29.268  1.00  0.00    -0.354 N 
ATOM     45  C   UNL A   1      44.729  27.695  27.480  1.00  0.00     0.074 A 
ATOM     46  C   UNL A   1      44.812  26.315  27.043  1.00  0.00     0.031 C 
ATOM     47  C   UNL A   1      38.820  28.095  29.931  1.00  0.00     0.029 A 
ATOM     48  C   UNL A   1      39.856  29.123  29.932  1.00  0.00     0.049 A 
ATOM     49  H   UNL A   1      41.769  28.999  29.117  1.00  0.00     0.167 HD
ATOM     50  C   UNL A   1      45.735  28.597  27.390  1.00  0.00     0.034 A 
ATOM     51  C   UNL A   1      39.727  30.351  30.469  1.00  0.00     0.034 A 
ATOM     52  C   UNL A   1      45.640  29.970  27.814  1.00  0.00     0.049 A 
ATOM     53  C   UNL A   1      40.849  31.337  30.336  1.00  0.00     0.074 A 
ATOM     54  C   UNL A   1      46.589  30.972  27.692  1.00  0.00     0.029 A 
ATOM     55  N   UNL A   1      44.547  30.533  28.453  1.00  0.00    -0.354 N 
ATOM     56  N   UNL A   1      42.004  31.186  29.736  1.00  0.00    -0.248 NA
ATOM     57  C   UNL A   1      40.643  32.669  30.922  1.00  0.00     0.031 C 
ATOM     58  C   UNL A   1      46.073  32.137  28.267  1.00  0.00     0.029 A 
ATOM     59  C   UNL A   1      44.799  31.865  28.738  1.00  0.00     0.049 A 
ATOM     60  H   UNL A   1      43.714  30.057  28.671  1.00  0.00     0.167 HD
ATOM     61  C   UNL A   1      42.656  32.407  29.854  1.00  0.00     0.074 A 
ATOM     62  C   UNL A   1      41.761  33.292  30.569  1.00  0.00     0.031 C 
ATOM     63  C   UNL A   1      43.891  32.753  29.417  1.00  0.00     0.034 A 
BRANCH  50  64
ATOM     64  C   UNL A   1      47.019  28.167  26.735  1.00  0.00     0.023 A 
ATOM     65  C   UNL A   1      48.073  27.706  27.549  1.00  0.00     0.012 A 
ATOM     66  C   UNL A   1      47.137  28.087  25.335  1.00  0.00     0.148 A 
ATOM     67  C   UNL A   1      49.229  27.174  26.980  1.00  0.00     0.002 A 
ATOM     68  C   UNL A   1      48.282  27.532  24.773  1.00  0.00     0.091 A 
ATOM     69  F   UNL A   1      46.125  28.540  24.582  1.00  0.00    -0.205 F 
ATOM     70  C   UNL A   1      49.329  27.078  25.594  1.00  0.00     0.022 A 
BRANCH  68  71
ATOM     71  S   UNL A   1      48.492  27.307  23.003  1.00  0.00     0.127 S 
ATOM     72  O   UNL A   1      47.416  28.144  22.473  1.00  0.00    -0.237 OA
ATOM     73  O   UNL A   1      49.839  27.834  22.783  1.00  0.00    -0.237 OA
ATOM     74  O   UNL A   1      48.345  25.880  22.758  1.00  0.00    -0.744 OA
ENDBRANCH  68  71
ENDBRANCH  50  64
BRANCH  51  75
ATOM     75  C   UNL A   1      38.434  30.725  31.099  1.00  0.00     0.023 A 
ATOM     76  C   UNL A   1      38.249  30.491  32.475  1.00  0.00     0.012 A 
ATOM     77  C   UNL A   1      37.437  31.395  30.366  1.00  0.00     0.148 A 
ATOM     78  C   UNL A   1      37.083  30.916  33.111  1.00  0.00     0.002 A 
ATOM     79  C   UNL A   1      36.296  31.848  31.015  1.00  0.00     0.091 A 
ATOM     80  F   UNL A   1      37.645  31.605  29.059  1.00  0.00    -0.205 F 
ATOM     81  C   UNL A   1      36.113  31.603  32.386  1.00  0.00     0.022 A 
BRANCH  79  82
ATOM     82  S   UNL A   1      35.040  32.835  30.193  1.00  0.00     0.127 S 
ATOM     83  O   UNL A   1      34.114  33.110  31.288  1.00  0.00    -0.237 OA
ATOM     84  O   UNL A   1      35.817  33.987  29.737  1.00  0.00    -0.237 OA
ATOM     85  O   UNL A   1      34.512  31.996  29.125  1.00  0.00    -0.744 OA
ENDBRANCH  79  82
ENDBRANCH  51  75
BRANCH  63  86
ATOM     86  C   UNL A   1      44.372  34.149  29.694  1.00  0.00     0.023 A 
ATOM     87  C   UNL A   1      45.050  34.417  30.898  1.00  0.00     0.012 A 
ATOM     88  C   UNL A   1      44.261  35.159  28.719  1.00  0.00     0.148 A 
ATOM     89  C   UNL A   1      45.607  35.674  31.133  1.00  0.00     0.002 A 
ATOM     90  C   UNL A   1      44.847  36.399  28.945  1.00  0.00     0.091 A 
ATOM     91  F   UNL A   1      43.603  34.881  27.585  1.00  0.00    -0.205 F 
ATOM     92  C   UNL A   1      45.516  36.659  30.153  1.00  0.00     0.022 A 
BRANCH  90  93
ATOM     93  S   UNL A   1      44.846  37.713  27.719  1.00  0.00     0.127 S 
ATOM     94  O   UNL A   1      43.435  37.761  27.335  1.00  0.00    -0.237 OA
ATOM     95  O   UNL A   1      45.305  38.862  28.499  1.00  0.00    -0.237 OA
ATOM     96  O   UNL A   1      45.758  37.286  26.666  1.00  0.00    -0.744 OA
ENDBRANCH  90  93
ENDBRANCH  63  86
ENDBRANCH  37  38
ENDBRANCH  30  32
ENDBRANCH  29  30
ENDBRANCH  28  29
ENDBRANCH  27  28
ENDBRANCH  26  27
ENDBRANCH   1  26
TORSDOF 22
ENDMDL
MODEL 2
REMARK VINA RESULT:     -10.8      1.768      2.361
REMARK SMILES C=Cc1cc(Cl)cc2c1O[C@H](C(F)(F)F)C(C(=O)OCCOCCOCCOC(=O)c1ccc(-c3c4nc(c(-c5cccc(S(=O)(=O)[O-])c5F)c5ccc([nH]5)c(-c5cccc(S(=O)(=O)[O-])c5F)c5nc(c(-c6cccc(S(=O)(=O)[O-])c6F)c6ccc3[nH]6)C=C5)C=C4)cc1)=C2
REMARK SMILES IDX 24 1 23 2 22 3 21 4 20 5 19 6 17 7 18 8 16 9 3 10 4 11 9 12
REMARK SMILES IDX 5 13 8 14 10 15 6 16 7 17 94 18 11 19 2 20 1 21 12 22 13 23
REMARK SMILES IDX 14 24 15 25 25 26 26 27 27 28 28 29 29 30 30 31 31 32 32 33
REMARK SMILES IDX 93 34 33 35 92 36 34 37 35 38 36 39 86 40 37 41 91 42 85 43
REMARK SMILES IDX 87 44 38 45 90 46 84 47 83 48 39 50 71 51 51 52 70 53 52 54
REMARK SMILES IDX 55 55 69 56 88 57 53 58 54 59 68 61 89 62 56 63 40 64 41 65
REMARK SMILES IDX 49 66 42 67 44 68 50 69 43 70 45 71 46 72 47 73 48 74 72 75
REMARK SMILES IDX 73 76 81 77 74 78 76 79 82 80 75 81 77 82 78 83 79 84 80 85
REMARK SMILES IDX 57 86 58 87 66 88 59 89 61 90 67 91 60 92 62 93 63 94 64 95
REMARK SMILES IDX 65 96
REMARK H PARENT 87 49 55 60
REMARK Flexibility Score: inf
ROOT
ATOM      1  C   UNL A   1      33.939  20.668  24.942  1.00  0.00     0.188 C 
ENDROOT
BRANCH   1   2
ATOM      2  C   UNL A   1      32.582  20.832  24.225  1.00  0.00     0.188 C 
BRANCH   2   3
ATOM      3  O   UNL A   1      32.489  21.930  23.350  1.00  0.00    -0.376 OA
BRANCH   3   4
ATOM      4  C   UNL A   1      33.607  22.744  23.054  1.00  0.00     0.202 C 
BRANCH   4   5
ATOM      5  C   UNL A   1      33.776  24.226  23.433  1.00  0.00     0.261 C 
BRANCH   5   6
ATOM      6  O   UNL A   1      32.643  25.082  23.292  1.00  0.00    -0.460 OA
BRANCH   6   7
ATOM      7  C   UNL A   1      32.810  26.147  22.472  1.00  0.00     0.338 C 
ATOM      8  O   UNL A   1      33.367  26.151  21.387  1.00  0.00    -0.246 OA
BRANCH   7   9
ATOM      9  C   UNL A   1      32.107  27.310  23.047  1.00  0.00     0.087 C 
ATOM     10  C   UNL A   1      30.223  30.728  24.585  1.00  0.00     0.018 A 
ATOM     11  C   UNL A   1      29.373  31.459  23.740  1.00  0.00     0.032 A 
ATOM     12  C   UNL A   1      30.822  29.550  24.088  1.00  0.00     0.135 A 
ATOM     13  C   UNL A   1      29.106  31.012  22.447  1.00  0.00     0.042 A 
ATOM     14  C   UNL A   1      30.577  29.128  22.774  1.00  0.00     0.019 A 
ATOM     15  O   UNL A   1      31.638  28.858  24.944  1.00  0.00    -0.475 OA
ATOM     16  Cl  UNL A   1      28.053  31.922  21.436  1.00  0.00    -0.084 Cl
ATOM     17  C   UNL A   1      29.701  29.853  21.960  1.00  0.00     0.032 A 
ATOM     18  C   UNL A   1      31.268  27.966  22.237  1.00  0.00     0.027 C 
ATOM     19  C   UNL A   1      32.343  27.676  24.485  1.00  0.00     0.316 C 
BRANCH  10  20
ATOM     20  C   UNL A   1      30.560  31.232  25.931  1.00  0.00     0.004 C 
ATOM     21  C   UNL A   1      31.267  32.340  26.189  1.00  0.00     0.009 C 
ENDBRANCH  10  20
BRANCH  19  22
ATOM     22  C   UNL A   1      33.832  27.858  24.809  1.00  0.00     0.430 C 
ATOM     23  F   UNL A   1      34.548  28.130  23.688  1.00  0.00    -0.167 F 
ATOM     24  F   UNL A   1      34.044  28.892  25.656  1.00  0.00    -0.167 F 
ATOM     25  F   UNL A   1      34.371  26.754  25.373  1.00  0.00    -0.167 F 
ENDBRANCH  19  22
ENDBRANCH   7   9
ENDBRANCH   6   7
ENDBRANCH   5   6
ENDBRANCH   4   5
ENDBRANCH   3   4
ENDBRANCH   2   3
ENDBRANCH   1   2
BRANCH   1  26
ATOM     26  O   UNL A   1      34.694  19.474  24.774  1.00  0.00    -0.376 OA
BRANCH  26  27
ATOM     27  C   UNL A   1      36.115  19.542  24.835  1.00  0.00     0.202 C 
BRANCH  27  28
ATOM     28  C   UNL A   1      36.827  20.878  24.580  1.00  0.00     0.261 C 
BRANCH  28  29
ATOM     29  O   UNL A   1      37.386  21.482  25.756  1.00  0.00    -0.460 OA
BRANCH  29  30
ATOM     30  C   UNL A   1      38.706  21.241  25.965  1.00  0.00     0.338 C 
ATOM     31  O   UNL A   1      39.340  20.261  25.613  1.00  0.00    -0.246 OA
BRANCH  30  32
ATOM     32  C   UNL A   1      39.332  22.461  26.515  1.00  0.00     0.060 A 
ATOM     33  C   UNL A   1      40.395  22.381  27.414  1.00  0.00     0.016 A 
ATOM     34  C   UNL A   1      38.830  23.708  26.113  1.00  0.00     0.016 A 
ATOM     35  C   UNL A   1      40.977  23.560  27.891  1.00  0.00     0.010 A 
ATOM     36  C   UNL A   1      39.400  24.882  26.606  1.00  0.00     0.010 A 
ATOM     37  C   UNL A   1      40.493  24.816  27.481  1.00  0.00    -0.014 A 
BRANCH  37  38
ATOM     38  C   UNL A   1      41.254  26.043  27.816  1.00  0.00     0.031 A 
ATOM     39  C   UNL A   1      42.681  26.237  27.407  1.00  0.00     0.074 A 
ATOM     40  C   UNL A   1      40.621  26.993  28.528  1.00  0.00     0.049 A 
ATOM     41  N   UNL A   1      43.426  27.304  27.540  1.00  0.00    -0.248 NA
ATOM     42  C   UNL A   1      43.365  25.097  26.780  1.00  0.00     0.031 C 
ATOM     43  C   UNL A   1      39.253  26.884  29.041  1.00  0.00     0.029 A 
ATOM     44  N   UNL A   1      41.038  28.230  28.949  1.00  0.00    -0.354 N 
ATOM     45  C   UNL A   1      44.666  26.973  27.010  1.00  0.00     0.074 A 
ATOM     46  C   UNL A   1      44.580  25.594  26.573  1.00  0.00     0.031 C 
ATOM     47  C   UNL A   1      38.941  28.011  29.697  1.00  0.00     0.029 A 
ATOM     48  C   UNL A   1      40.082  28.920  29.654  1.00  0.00     0.049 A 
ATOM     49  H   UNL A   1      41.935  28.589  28.762  1.00  0.00     0.167 HD
ATOM     50  C   UNL A   1      45.760  27.760  26.877  1.00  0.00     0.034 A 
ATOM     51  C   UNL A   1      40.110  30.153  30.193  1.00  0.00     0.034 A 
ATOM     52  C   UNL A   1      45.833  29.135  27.301  1.00  0.00     0.049 A 
ATOM     53  C   UNL A   1      41.326  31.011  30.012  1.00  0.00     0.074 A 
ATOM     54  C   UNL A   1      46.880  30.028  27.138  1.00  0.00     0.029 A 
ATOM     55  N   UNL A   1      44.835  29.812  27.983  1.00  0.00    -0.354 N 
ATOM     56  N   UNL A   1      42.432  30.736  29.366  1.00  0.00    -0.248 NA
ATOM     57  C   UNL A   1      41.290  32.357  30.603  1.00  0.00     0.031 C 
ATOM     58  C   UNL A   1      46.518  31.240  27.731  1.00  0.00     0.029 A 
ATOM     59  C   UNL A   1      45.242  31.108  28.254  1.00  0.00     0.049 A 
ATOM     60  H   UNL A   1      43.964  29.430  28.235  1.00  0.00     0.167 HD
ATOM     61  C   UNL A   1      43.218  31.878  29.454  1.00  0.00     0.074 A 
ATOM     62  C   UNL A   1      42.455  32.855  30.203  1.00  0.00     0.031 C 
ATOM     63  C   UNL A   1      44.464  32.088  28.967  1.00  0.00     0.034 A 
BRANCH  50  64
ATOM     64  C   UNL A   1      46.962  27.194  26.172  1.00  0.00     0.023 A 
ATOM     65  C   UNL A   1      47.092  27.401  24.783  1.00  0.00     0.012 A 
ATOM     66  C   UNL A   1      48.015  26.592  26.886  1.00  0.00     0.148 A 
ATOM     67  C   UNL A   1      48.250  27.011  24.113  1.00  0.00     0.002 A 
ATOM     68  C   UNL A   1      49.179  26.229  26.215  1.00  0.00     0.091 A 
ATOM     69  F   UNL A   1      47.865  26.400  28.203  1.00  0.00    -0.205 F 
ATOM     70  C   UNL A   1      49.296  26.436  24.830  1.00  0.00     0.022 A 
BRANCH  68  71
ATOM     71  S   UNL A   1      50.610  25.534  27.050  1.00  0.00     0.127 S 
ATOM     72  O   UNL A   1      50.040  24.329  27.653  1.00  0.00    -0.237 OA
ATOM     73  O   UNL A   1      51.524  25.282  25.935  1.00  0.00    -0.237 OA
ATOM     74  O   UNL A   1      51.059  26.547  27.993  1.00  0.00    -0.744 OA
ENDBRANCH  68  71
ENDBRANCH  50  64
BRANCH  51  75
ATOM     75  C   UNL A   1      38.892  30.666  30.874  1.00  0.00     0.023 A 
ATOM     76  C   UNL A   1      38.760  30.491  32.264  1.00  0.00     0.012 A 
ATOM     77  C   UNL A   1      37.922  31.403  30.169  1.00  0.00     0.148 A 
ATOM     78  C   UNL A   1      37.674  31.042  32.943  1.00  0.00     0.002 A 
ATOM     79  C   UNL A   1      36.864  31.980  30.858  1.00  0.00     0.091 A 
ATOM     80  F   UNL A   1      38.079  31.553  28.846  1.00  0.00    -0.205 F 
ATOM     81  C   UNL A   1      36.733  31.794  32.244  1.00  0.00     0.022 A 
BRANCH  79  82
ATOM     82  S   UNL A   1      35.661  33.054  30.067  1.00  0.00     0.127 S 
ATOM     83  O   UNL A   1      36.519  33.915  29.257  1.00  0.00    -0.237 OA
ATOM     84  O   UNL A   1      34.857  32.095  29.310  1.00  0.00    -0.237 OA
ATOM     85  O   UNL A   1      34.951  33.721  31.150  1.00  0.00    -0.744 OA
ENDBRANCH  79  82
ENDBRANCH  51  75
BRANCH  63  86
ATOM     86  C   UNL A   1      45.106  33.423  29.221  1.00  0.00     0.023 A 
ATOM     87  C   UNL A   1      45.832  33.622  30.410  1.00  0.00     0.012 A 
ATOM     88  C   UNL A   1      45.093  34.431  28.237  1.00  0.00     0.148 A 
ATOM     89  C   UNL A   1      46.533  34.810  30.622  1.00  0.00     0.002 A 
ATOM     90  C   UNL A   1      45.820  35.598  28.440  1.00  0.00     0.091 A 
ATOM     91  F   UNL A   1      44.387  34.220  27.117  1.00  0.00    -0.205 F 
ATOM     92  C   UNL A   1      46.536  35.791  29.634  1.00  0.00     0.022 A 
BRANCH  90  93
ATOM     93  S   UNL A   1      45.945  36.893  27.200  1.00  0.00     0.127 S 
ATOM     94  O   UNL A   1      46.936  37.785  27.799  1.00  0.00    -0.237 OA
ATOM     95  O   UNL A   1      46.418  36.153  26.030  1.00  0.00    -0.237 OA
ATOM     96  O   UNL A   1      44.608  37.456  27.065  1.00  0.00    -0.744 OA
ENDBRANCH  90  93
ENDBRANCH  63  86
ENDBRANCH  37  38
ENDBRANCH  30  32
ENDBRANCH  29  30
ENDBRANCH  28  29
ENDBRANCH  27  28
ENDBRANCH  26  27
ENDBRANCH   1  26
TORSDOF 22
ENDMDL
MODEL 3
REMARK VINA RESULT:     -10.7      1.576      7.565
REMARK SMILES C=Cc1cc(Cl)cc2c1O[C@H](C(F)(F)F)C(C(=O)OCCOCCOCCOC(=O)c1ccc(-c3c4nc(c(-c5cccc(S(=O)(=O)[O-])c5F)c5ccc([nH]5)c(-c5cccc(S(=O)(=O)[O-])c5F)c5nc(c(-c6cccc(S(=O)(=O)[O-])c6F)c6ccc3[nH]6)C=C5)C=C4)cc1)=C2
REMARK SMILES IDX 24 1 23 2 22 3 21 4 20 5 19 6 17 7 18 8 16 9 3 10 4 11 9 12
REMARK SMILES IDX 5 13 8 14 10 15 6 16 7 17 94 18 11 19 2 20 1 21 12 22 13 23
REMARK SMILES IDX 14 24 15 25 25 26 26 27 27 28 28 29 29 30 30 31 31 32 32 33
REMARK SMILES IDX 93 34 33 35 92 36 34 37 35 38 36 39 86 40 37 41 91 42 85 43
REMARK SMILES IDX 87 44 38 45 90 46 84 47 83 48 39 50 71 51 51 52 70 53 52 54
REMARK SMILES IDX 55 55 69 56 88 57 53 58 54 59 68 61 89 62 56 63 40 64 41 65
REMARK SMILES IDX 49 66 42 67 44 68 50 69 43 70 45 71 46 72 47 73 48 74 72 75
REMARK SMILES IDX 73 76 81 77 74 78 76 79 82 80 75 81 77 82 78 83 79 84 80 85
REMARK SMILES IDX 57 86 58 87 66 88 59 89 61 90 67 91 60 92 62 93 63 94 64 95
REMARK SMILES IDX 65 96
REMARK H PARENT 87 49 55 60
REMARK Flexibility Score: inf
ROOT
ATOM      1  C   UNL A   1      33.544  19.447  24.981  1.00  0.00     0.188 C 
ENDROOT
BRANCH   1   2
ATOM      2  C   UNL A   1      32.436  19.185  23.939  1.00  0.00     0.188 C 
BRANCH   2   3
ATOM      3  O   UNL A   1      32.359  20.119  22.890  1.00  0.00    -0.376 OA
BRANCH   3   4
ATOM      4  C   UNL A   1      32.399  21.513  23.128  1.00  0.00     0.202 C 
BRANCH   4   5
ATOM      5  C   UNL A   1      33.660  22.395  23.142  1.00  0.00     0.261 C 
BRANCH   5   6
ATOM      6  O   UNL A   1      33.485  23.801  23.316  1.00  0.00    -0.460 OA
BRANCH   6   7
ATOM      7  C   UNL A   1      33.198  24.204  24.576  1.00  0.00     0.338 C 
ATOM      8  O   UNL A   1      33.430  23.597  25.608  1.00  0.00    -0.246 OA
BRANCH   7   9
ATOM      9  C   UNL A   1      32.646  25.572  24.528  1.00  0.00     0.087 C 
ATOM     10  C   UNL A   1      30.988  29.426  24.550  1.00  0.00     0.018 A 
ATOM     11  C   UNL A   1      31.508  30.371  25.447  1.00  0.00     0.032 A 
ATOM     12  C   UNL A   1      31.573  28.142  24.504  1.00  0.00     0.135 A 
ATOM     13  C   UNL A   1      32.600  30.054  26.255  1.00  0.00     0.042 A 
ATOM     14  C   UNL A   1      32.647  27.820  25.346  1.00  0.00     0.019 A 
ATOM     15  O   UNL A   1      31.045  27.248  23.609  1.00  0.00    -0.475 OA
ATOM     16  Cl  UNL A   1      33.224  31.235  27.339  1.00  0.00    -0.084 Cl
ATOM     17  C   UNL A   1      33.172  28.787  26.209  1.00  0.00     0.032 A 
ATOM     18  C   UNL A   1      33.186  26.469  25.361  1.00  0.00     0.027 C 
ATOM     19  C   UNL A   1      31.549  25.889  23.552  1.00  0.00     0.316 C 
BRANCH  10  20
ATOM     20  C   UNL A   1      29.792  29.736  23.741  1.00  0.00     0.004 C 
ATOM     21  C   UNL A   1      29.802  30.098  22.452  1.00  0.00     0.009 C 
ENDBRANCH  10  20
BRANCH  19  22
ATOM     22  C   UNL A   1      30.352  24.936  23.682  1.00  0.00     0.430 C 
ATOM     23  F   UNL A   1      30.297  24.385  24.921  1.00  0.00    -0.167 F 
ATOM     24  F   UNL A   1      29.173  25.575  23.497  1.00  0.00    -0.167 F 
ATOM     25  F   UNL A   1      30.408  23.921  22.792  1.00  0.00    -0.167 F 
ENDBRANCH  19  22
ENDBRANCH   7   9
ENDBRANCH   6   7
ENDBRANCH   5   6
ENDBRANCH   4   5
ENDBRANCH   3   4
ENDBRANCH   2   3
ENDBRANCH   1   2
BRANCH   1  26
ATOM     26  O   UNL A   1      34.906  19.214  24.646  1.00  0.00    -0.376 OA
BRANCH  26  27
ATOM     27  C   UNL A   1      35.881  20.187  25.008  1.00  0.00     0.202 C 
BRANCH  27  28
ATOM     28  C   UNL A   1      37.371  19.813  25.003  1.00  0.00     0.261 C 
BRANCH  28  29
ATOM     29  O   UNL A   1      38.259  20.930  25.159  1.00  0.00    -0.460 OA
BRANCH  29  30
ATOM     30  C   UNL A   1      39.334  20.713  25.961  1.00  0.00     0.338 C 
ATOM     31  O   UNL A   1      39.934  19.664  26.119  1.00  0.00    -0.246 OA
BRANCH  30  32
ATOM     32  C   UNL A   1      39.815  22.012  26.474  1.00  0.00     0.060 A 
ATOM     33  C   UNL A   1      40.921  22.086  27.320  1.00  0.00     0.016 A 
ATOM     34  C   UNL A   1      39.131  23.175  26.091  1.00  0.00     0.016 A 
ATOM     35  C   UNL A   1      41.361  23.337  27.762  1.00  0.00     0.010 A 
ATOM     36  C   UNL A   1      39.561  24.422  26.550  1.00  0.00     0.010 A 
ATOM     37  C   UNL A   1      40.694  24.512  27.371  1.00  0.00    -0.014 A 
BRANCH  37  38
ATOM     38  C   UNL A   1      41.297  25.834  27.662  1.00  0.00     0.031 A 
ATOM     39  C   UNL A   1      40.562  26.902  28.411  1.00  0.00     0.074 A 
ATOM     40  C   UNL A   1      42.544  26.063  27.210  1.00  0.00     0.049 A 
ATOM     41  N   UNL A   1      41.011  28.058  28.827  1.00  0.00    -0.248 NA
ATOM     42  C   UNL A   1      39.149  26.653  28.731  1.00  0.00     0.031 C 
ATOM     43  C   UNL A   1      43.330  25.122  26.409  1.00  0.00     0.029 A 
ATOM     44  N   UNL A   1      43.367  27.151  27.352  1.00  0.00    -0.354 N 
ATOM     45  C   UNL A   1      39.944  28.678  29.462  1.00  0.00     0.074 A 
ATOM     46  C   UNL A   1      38.813  27.777  29.357  1.00  0.00     0.031 C 
ATOM     47  C   UNL A   1      44.524  25.669  26.139  1.00  0.00     0.029 A 
ATOM     48  C   UNL A   1      44.589  26.995  26.744  1.00  0.00     0.049 A 
ATOM     49  H   UNL A   1      43.107  27.964  27.842  1.00  0.00     0.167 HD
ATOM     50  C   UNL A   1      39.923  29.874  30.097  1.00  0.00     0.034 A 
ATOM     51  C   UNL A   1      45.653  27.818  26.694  1.00  0.00     0.034 A 
ATOM     52  C   UNL A   1      41.054  30.758  30.210  1.00  0.00     0.049 A 
ATOM     53  C   UNL A   1      45.610  29.128  27.423  1.00  0.00     0.074 A 
ATOM     54  C   UNL A   1      41.140  31.957  30.898  1.00  0.00     0.029 A 
ATOM     55  N   UNL A   1      42.287  30.554  29.610  1.00  0.00    -0.354 N 
ATOM     56  N   UNL A   1      44.644  29.625  28.155  1.00  0.00    -0.248 NA
ATOM     57  C   UNL A   1      46.810  29.974  27.350  1.00  0.00     0.031 C 
ATOM     58  C   UNL A   1      42.421  32.483  30.705  1.00  0.00     0.029 A 
ATOM     59  C   UNL A   1      43.137  31.608  29.906  1.00  0.00     0.049 A 
ATOM     60  H   UNL A   1      42.524  29.776  29.057  1.00  0.00     0.167 HD
ATOM     61  C   UNL A   1      45.123  30.833  28.645  1.00  0.00     0.074 A 
ATOM     62  C   UNL A   1      46.471  30.986  28.141  1.00  0.00     0.031 C 
ATOM     63  C   UNL A   1      44.491  31.737  29.433  1.00  0.00     0.034 A 
BRANCH  50  64
ATOM     64  C   UNL A   1      38.658  30.284  30.801  1.00  0.00     0.023 A 
ATOM     65  C   UNL A   1      38.398  29.762  32.084  1.00  0.00     0.012 A 
ATOM     66  C   UNL A   1      37.810  31.274  30.269  1.00  0.00     0.148 A 
ATOM     67  C   UNL A   1      37.309  30.215  32.827  1.00  0.00     0.002 A 
ATOM     68  C   UNL A   1      36.741  31.740  31.026  1.00  0.00     0.091 A 
ATOM     69  F   UNL A   1      38.074  31.749  29.044  1.00  0.00    -0.205 F 
ATOM     70  C   UNL A   1      36.488  31.210  32.304  1.00  0.00     0.022 A 
BRANCH  68  71
ATOM     71  S   UNL A   1      35.654  33.059  30.473  1.00  0.00     0.127 S 
ATOM     72  O   UNL A   1      34.411  32.725  31.168  1.00  0.00    -0.237 OA
ATOM     73  O   UNL A   1      36.334  34.251  30.980  1.00  0.00    -0.237 OA
ATOM     74  O   UNL A   1      35.599  32.955  29.022  1.00  0.00    -0.744 OA
ENDBRANCH  68  71
ENDBRANCH  50  64
BRANCH  51  75
ATOM     75  C   UNL A   1      46.880  27.361  25.989  1.00  0.00     0.023 A 
ATOM     76  C   UNL A   1      47.751  26.468  26.641  1.00  0.00     0.012 A 
ATOM     77  C   UNL A   1      47.129  27.728  24.654  1.00  0.00     0.148 A 
ATOM     78  C   UNL A   1      48.859  25.950  25.971  1.00  0.00     0.002 A 
ATOM     79  C   UNL A   1      48.213  27.178  23.982  1.00  0.00     0.091 A 
ATOM     80  F   UNL A   1      46.279  28.577  24.061  1.00  0.00    -0.205 F 
ATOM     81  C   UNL A   1      49.084  26.295  24.641  1.00  0.00     0.022 A 
BRANCH  79  82
ATOM     82  S   UNL A   1      48.526  27.476  22.239  1.00  0.00     0.127 S 
ATOM     83  O   UNL A   1      49.773  28.236  22.285  1.00  0.00    -0.237 OA
ATOM     84  O   UNL A   1      48.653  26.114  21.721  1.00  0.00    -0.237 OA
ATOM     85  O   UNL A   1      47.367  28.207  21.746  1.00  0.00    -0.744 OA
ENDBRANCH  79  82
ENDBRANCH  51  75
BRANCH  63  86
ATOM     86  C   UNL A   1      45.235  32.987  29.810  1.00  0.00     0.023 A 
ATOM     87  C   UNL A   1      46.065  32.977  30.947  1.00  0.00     0.012 A 
ATOM     88  C   UNL A   1      45.209  34.123  28.977  1.00  0.00     0.148 A 
ATOM     89  C   UNL A   1      46.855  34.084  31.256  1.00  0.00     0.002 A 
ATOM     90  C   UNL A   1      46.022  35.210  29.273  1.00  0.00     0.091 A 
ATOM     91  F   UNL A   1      44.403  34.110  27.906  1.00  0.00    -0.205 F 
ATOM     92  C   UNL A   1      46.842  35.194  30.415  1.00  0.00     0.022 A 
BRANCH  90  93
ATOM     93  S   UNL A   1      46.131  36.659  28.216  1.00  0.00     0.127 S 
ATOM     94  O   UNL A   1      47.093  37.487  28.942  1.00  0.00    -0.237 OA
ATOM     95  O   UNL A   1      46.637  36.090  26.966  1.00  0.00    -0.237 OA
ATOM     96  O   UNL A   1      44.783  37.204  28.135  1.00  0.00    -0.744 OA
ENDBRANCH  90  93
ENDBRANCH  63  86
ENDBRANCH  37  38
ENDBRANCH  30  32
ENDBRANCH  29  30
ENDBRANCH  28  29
ENDBRANCH  27  28
ENDBRANCH  26  27
ENDBRANCH   1  26
TORSDOF 22
ENDMDL
