MODEL 1
REMARK VINA RESULT:     -10.3      0.000      0.000
REMARK SMILES COc1cccc(-c2nn(-c3cc4c(cc3C(N)=O)OCO4)cc2C(=O)OCCOCCOCCOC(=O)c2ccc(-c3c4nc(c(-c5cccc(S(=O)(=O)[O-])c5F)c5ccc([nH]5)c(-c5cccc(S(=O)(=O)[O-])c5F)c5nc(c(-c6cccc(S(=O)(=O)[O-])c6F)c6ccc3[nH]6)C=C5)C=C4)cc2)c1
REMARK SMILES IDX 32 1 31 2 30 3 29 4 28 5 27 6 25 7 26 8 24 9 8 10 9 11 10 12
REMARK SMILES IDX 23 13 7 14 3 15 4 16 102 17 5 18 6 19 2 20 1 21 11 22 12 23
REMARK SMILES IDX 16 24 13 25 15 26 14 27 22 28 20 29 21 30 17 31 18 32 19 33
REMARK SMILES IDX 33 36 34 37 35 38 36 39 37 40 38 41 39 42 40 43 101 44 41 45
REMARK SMILES IDX 100 46 42 47 43 48 44 49 94 50 45 51 99 52 93 53 95 54 46 55
REMARK SMILES IDX 98 56 92 57 91 58 47 60 79 61 59 62 78 63 60 64 63 65 77 66
REMARK SMILES IDX 96 67 61 68 62 69 76 71 97 72 64 73 48 74 49 75 57 76 50 77
REMARK SMILES IDX 52 78 58 79 51 80 53 81 54 82 55 83 56 84 80 85 81 86 89 87
REMARK SMILES IDX 82 88 84 89 90 90 83 91 85 92 86 93 87 94 88 95 65 96 66 97
REMARK SMILES IDX 74 98 67 99 69 100 75 101 68 102 70 103 71 104 72 105 73 106
REMARK H PARENT 18 34 18 35 95 59 63 70
REMARK Flexibility Score: inf
ROOT
ATOM      1  C   UNL A   1      36.943  32.700  29.465  1.00  0.00     0.188 C 
ENDROOT
BRANCH   1   2
ATOM      2  C   UNL A   1      36.212  32.436  28.130  1.00  0.00     0.188 C 
BRANCH   2   3
ATOM      3  O   UNL A   1      34.826  32.667  28.191  1.00  0.00    -0.376 OA
BRANCH   3   4
ATOM      4  C   UNL A   1      33.928  31.598  27.968  1.00  0.00     0.202 C 
BRANCH   4   5
ATOM      5  C   UNL A   1      34.315  30.252  27.314  1.00  0.00     0.261 C 
BRANCH   5   6
ATOM      6  O   UNL A   1      33.291  29.282  27.096  1.00  0.00    -0.460 OA
BRANCH   6   7
ATOM      7  C   UNL A   1      32.688  29.279  25.867  1.00  0.00     0.342 C 
ATOM      8  O   UNL A   1      32.251  30.271  25.310  1.00  0.00    -0.246 OA
BRANCH   7   9
ATOM      9  C   UNL A   1      32.710  27.961  25.264  1.00  0.00     0.106 A 
ATOM     10  C   UNL A   1      31.744  27.317  24.440  1.00  0.00     0.107 A 
ATOM     11  N   UNL A   1      32.123  26.061  24.132  1.00  0.00    -0.167 NA
ATOM     12  N   UNL A   1      33.235  25.873  24.884  1.00  0.00    -0.239 N 
ATOM     13  C   UNL A   1      33.761  27.070  25.293  1.00  0.00     0.131 A 
BRANCH  10  14
ATOM     14  C   UNL A   1      30.537  27.912  23.880  1.00  0.00     0.007 A 
ATOM     15  C   UNL A   1      29.458  29.670  22.610  1.00  0.00     0.119 A 
ATOM     16  C   UNL A   1      28.252  28.966  22.679  1.00  0.00     0.046 A 
ATOM     17  C   UNL A   1      30.605  29.136  23.204  1.00  0.00     0.056 A 
ATOM     18  C   UNL A   1      28.176  27.750  23.358  1.00  0.00     0.005 A 
ATOM     19  C   UNL A   1      29.313  27.237  23.977  1.00  0.00     0.011 A 
BRANCH  15  20
ATOM     20  O   UNL A   1      29.375  30.871  21.961  1.00  0.00    -0.497 OA
ATOM     21  C   UNL A   1      28.074  31.397  21.749  1.00  0.00     0.278 C 
ENDBRANCH  15  20
ENDBRANCH  10  14
BRANCH  12  22
ATOM     22  C   UNL A   1      33.762  24.584  25.151  1.00  0.00     0.081 A 
ATOM     23  C   UNL A   1      35.003  24.243  24.573  1.00  0.00     0.079 A 
ATOM     24  C   UNL A   1      33.062  23.653  25.979  1.00  0.00     0.069 A 
ATOM     25  C   UNL A   1      35.539  23.015  24.894  1.00  0.00     0.167 A 
ATOM     26  C   UNL A   1      33.715  22.474  26.373  1.00  0.00     0.066 A 
ATOM     27  C   UNL A   1      34.927  22.176  25.793  1.00  0.00     0.166 A 
ATOM     28  O   UNL A   1      36.678  22.468  24.388  1.00  0.00    -0.454 OA
ATOM     29  O   UNL A   1      35.603  21.007  25.966  1.00  0.00    -0.454 OA
ATOM     30  C   UNL A   1      36.585  21.128  24.916  1.00  0.00     0.468 C 
BRANCH  24  31
ATOM     31  C   UNL A   1      31.572  23.749  26.209  1.00  0.00     0.251 C 
ATOM     32  N   UNL A   1      30.716  23.418  25.195  1.00  0.00    -0.366 N 
ATOM     33  O   UNL A   1      31.061  24.205  27.222  1.00  0.00    -0.269 OA
ATOM     34  H   UNL A   1      31.069  23.046  24.356  1.00  0.00     0.159 HD
ATOM     35  H   UNL A   1      29.747  23.552  25.307  1.00  0.00     0.159 HD
ENDBRANCH  24  31
ENDBRANCH  12  22
ENDBRANCH   7   9
ENDBRANCH   6   7
ENDBRANCH   5   6
ENDBRANCH   4   5
ENDBRANCH   3   4
ENDBRANCH   2   3
ENDBRANCH   1   2
BRANCH   1  36
ATOM     36  O   UNL A   1      36.788  33.917  30.186  1.00  0.00    -0.376 OA
BRANCH  36  37
ATOM     37  C   UNL A   1      37.546  34.196  31.355  1.00  0.00     0.202 C 
BRANCH  37  38
ATOM     38  C   UNL A   1      37.068  33.771  32.740  1.00  0.00     0.261 C 
BRANCH  38  39
ATOM     39  O   UNL A   1      37.741  32.650  33.263  1.00  0.00    -0.460 OA
BRANCH  39  40
ATOM     40  C   UNL A   1      37.128  31.477  33.027  1.00  0.00     0.338 C 
ATOM     41  O   UNL A   1      35.995  31.300  32.591  1.00  0.00    -0.246 OA
BRANCH  40  42
ATOM     42  C   UNL A   1      38.026  30.407  33.454  1.00  0.00     0.060 A 
ATOM     43  C   UNL A   1      39.233  30.807  34.029  1.00  0.00     0.016 A 
ATOM     44  C   UNL A   1      37.830  29.131  32.904  1.00  0.00     0.016 A 
ATOM     45  C   UNL A   1      40.341  30.048  33.754  1.00  0.00     0.010 A 
ATOM     46  C   UNL A   1      38.940  28.402  32.589  1.00  0.00     0.010 A 
ATOM     47  C   UNL A   1      40.181  28.932  32.928  1.00  0.00    -0.014 A 
BRANCH  47  48
ATOM     48  C   UNL A   1      41.363  28.269  32.448  1.00  0.00     0.031 A 
ATOM     49  C   UNL A   1      42.099  27.617  33.543  1.00  0.00     0.074 A 
ATOM     50  C   UNL A   1      41.647  28.201  31.135  1.00  0.00     0.049 A 
ATOM     51  N   UNL A   1      43.197  28.018  34.090  1.00  0.00    -0.248 NA
ATOM     52  C   UNL A   1      41.409  26.549  34.283  1.00  0.00     0.031 C 
ATOM     53  C   UNL A   1      40.790  28.574  30.003  1.00  0.00     0.029 A 
ATOM     54  N   UNL A   1      42.723  27.638  30.531  1.00  0.00    -0.354 N 
ATOM     55  C   UNL A   1      43.465  27.065  35.064  1.00  0.00     0.074 A 
ATOM     56  C   UNL A   1      42.221  26.397  35.328  1.00  0.00     0.031 C 
ATOM     57  C   UNL A   1      41.269  27.989  28.880  1.00  0.00     0.029 A 
ATOM     58  C   UNL A   1      42.516  27.313  29.195  1.00  0.00     0.049 A 
ATOM     59  H   UNL A   1      43.575  27.475  30.997  1.00  0.00     0.167 HD
ATOM     60  C   UNL A   1      44.740  26.659  35.299  1.00  0.00     0.034 A 
ATOM     61  C   UNL A   1      43.269  26.456  28.459  1.00  0.00     0.034 A 
ATOM     62  C   UNL A   1      45.691  27.597  34.750  1.00  0.00     0.049 A 
ATOM     63  C   UNL A   1      44.565  26.298  29.162  1.00  0.00     0.074 A 
ATOM     64  C   UNL A   1      45.938  28.946  34.912  1.00  0.00     0.029 A 
ATOM     65  N   UNL A   1      46.302  27.234  33.574  1.00  0.00    -0.354 N 
ATOM     66  N   UNL A   1      45.439  27.257  29.286  1.00  0.00    -0.248 NA
ATOM     67  C   UNL A   1      44.692  25.210  30.120  1.00  0.00     0.031 C 
ATOM     68  C   UNL A   1      46.301  29.415  33.616  1.00  0.00     0.029 A 
ATOM     69  C   UNL A   1      46.321  28.323  32.746  1.00  0.00     0.049 A 
ATOM     70  H   UNL A   1      46.663  26.342  33.362  1.00  0.00     0.167 HD
ATOM     71  C   UNL A   1      45.900  27.135  30.591  1.00  0.00     0.074 A 
ATOM     72  C   UNL A   1      45.497  25.795  31.013  1.00  0.00     0.031 C 
ATOM     73  C   UNL A   1      46.287  28.235  31.302  1.00  0.00     0.034 A 
BRANCH  60  74
ATOM     74  C   UNL A   1      45.132  25.232  35.620  1.00  0.00     0.023 A 
ATOM     75  C   UNL A   1      44.855  24.265  34.631  1.00  0.00     0.012 A 
ATOM     76  C   UNL A   1      45.483  24.747  36.904  1.00  0.00     0.148 A 
ATOM     77  C   UNL A   1      44.856  22.897  34.921  1.00  0.00     0.002 A 
ATOM     78  C   UNL A   1      45.562  23.386  37.167  1.00  0.00     0.091 A 
ATOM     79  F   UNL A   1      45.615  25.580  37.936  1.00  0.00    -0.205 F 
ATOM     80  C   UNL A   1      45.213  22.455  36.189  1.00  0.00     0.022 A 
BRANCH  78  81
ATOM     81  S   UNL A   1      46.061  22.768  38.780  1.00  0.00     0.127 S 
ATOM     82  O   UNL A   1      47.422  23.284  38.882  1.00  0.00    -0.237 OA
ATOM     83  O   UNL A   1      45.085  23.410  39.660  1.00  0.00    -0.237 OA
ATOM     84  O   UNL A   1      45.931  21.317  38.706  1.00  0.00    -0.744 OA
ENDBRANCH  78  81
ENDBRANCH  60  74
BRANCH  61  85
ATOM     85  C   UNL A   1      42.862  25.536  27.371  1.00  0.00     0.023 A 
ATOM     86  C   UNL A   1      43.656  25.441  26.208  1.00  0.00     0.012 A 
ATOM     87  C   UNL A   1      41.874  24.549  27.583  1.00  0.00     0.148 A 
ATOM     88  C   UNL A   1      43.492  24.380  25.307  1.00  0.00     0.002 A 
ATOM     89  C   UNL A   1      41.709  23.502  26.680  1.00  0.00     0.091 A 
ATOM     90  F   UNL A   1      41.160  24.582  28.716  1.00  0.00    -0.205 F 
ATOM     91  C   UNL A   1      42.526  23.408  25.547  1.00  0.00     0.022 A 
BRANCH  89  92
ATOM     92  S   UNL A   1      40.503  22.195  26.940  1.00  0.00     0.127 S 
ATOM     93  O   UNL A   1      39.239  22.911  26.766  1.00  0.00    -0.237 OA
ATOM     94  O   UNL A   1      40.832  21.263  25.865  1.00  0.00    -0.237 OA
ATOM     95  O   UNL A   1      40.731  21.704  28.293  1.00  0.00    -0.744 OA
ENDBRANCH  89  92
ENDBRANCH  61  85
BRANCH  73  96
ATOM     96  C   UNL A   1      46.468  29.531  30.552  1.00  0.00     0.023 A 
ATOM     97  C   UNL A   1      47.667  29.868  29.888  1.00  0.00     0.012 A 
ATOM     98  C   UNL A   1      45.342  30.350  30.376  1.00  0.00     0.148 A 
ATOM     99  C   UNL A   1      47.743  31.010  29.085  1.00  0.00     0.002 A 
ATOM    100  C   UNL A   1      45.407  31.457  29.540  1.00  0.00     0.091 A 
ATOM    101  F   UNL A   1      44.209  30.014  31.012  1.00  0.00    -0.205 F 
ATOM    102  C   UNL A   1      46.609  31.797  28.900  1.00  0.00     0.022 A 
BRANCH 100 103
ATOM    103  S   UNL A   1      43.946  32.428  29.166  1.00  0.00     0.127 S 
ATOM    104  O   UNL A   1      44.077  32.632  27.725  1.00  0.00    -0.237 OA
ATOM    105  O   UNL A   1      42.860  31.528  29.560  1.00  0.00    -0.237 OA
ATOM    106  O   UNL A   1      44.045  33.630  29.984  1.00  0.00    -0.744 OA
ENDBRANCH 100 103
ENDBRANCH  73  96
ENDBRANCH  47  48
ENDBRANCH  40  42
ENDBRANCH  39  40
ENDBRANCH  38  39
ENDBRANCH  37  38
ENDBRANCH  36  37
ENDBRANCH   1  36
TORSDOF 24
ENDMDL
MODEL 2
REMARK VINA RESULT:      -9.8      4.167      8.551
REMARK SMILES COc1cccc(-c2nn(-c3cc4c(cc3C(N)=O)OCO4)cc2C(=O)OCCOCCOCCOC(=O)c2ccc(-c3c4nc(c(-c5cccc(S(=O)(=O)[O-])c5F)c5ccc([nH]5)c(-c5cccc(S(=O)(=O)[O-])c5F)c5nc(c(-c6cccc(S(=O)(=O)[O-])c6F)c6ccc3[nH]6)C=C5)C=C4)cc2)c1
REMARK SMILES IDX 32 1 31 2 30 3 29 4 28 5 27 6 25 7 26 8 24 9 8 10 9 11 10 12
REMARK SMILES IDX 23 13 7 14 3 15 4 16 102 17 5 18 6 19 2 20 1 21 11 22 12 23
REMARK SMILES IDX 16 24 13 25 15 26 14 27 22 28 20 29 21 30 17 31 18 32 19 33
REMARK SMILES IDX 33 36 34 37 35 38 36 39 37 40 38 41 39 42 40 43 101 44 41 45
REMARK SMILES IDX 100 46 42 47 43 48 44 49 94 50 45 51 99 52 93 53 95 54 46 55
REMARK SMILES IDX 98 56 92 57 91 58 47 60 79 61 59 62 78 63 60 64 63 65 77 66
REMARK SMILES IDX 96 67 61 68 62 69 76 71 97 72 64 73 48 74 49 75 57 76 50 77
REMARK SMILES IDX 52 78 58 79 51 80 53 81 54 82 55 83 56 84 80 85 81 86 89 87
REMARK SMILES IDX 82 88 84 89 90 90 83 91 85 92 86 93 87 94 88 95 65 96 66 97
REMARK SMILES IDX 74 98 67 99 69 100 75 101 68 102 70 103 71 104 72 105 73 106
REMARK H PARENT 18 34 18 35 95 59 63 70
REMARK Flexibility Score: inf
ROOT
ATOM      1  C   UNL A   1      36.072  30.942  27.824  1.00  0.00     0.188 C 
ENDROOT
BRANCH   1   2
ATOM      2  C   UNL A   1      36.936  29.760  28.315  1.00  0.00     0.188 C 
BRANCH   2   3
ATOM      3  O   UNL A   1      38.061  30.156  29.060  1.00  0.00    -0.376 OA
BRANCH   3   4
ATOM      4  C   UNL A   1      39.353  29.770  28.633  1.00  0.00     0.202 C 
BRANCH   4   5
ATOM      5  C   UNL A   1      39.779  28.314  28.338  1.00  0.00     0.261 C 
BRANCH   5   6
ATOM      6  O   UNL A   1      40.349  27.544  29.396  1.00  0.00    -0.460 OA
BRANCH   6   7
ATOM      7  C   UNL A   1      41.495  26.852  29.115  1.00  0.00     0.342 C 
ATOM      8  O   UNL A   1      42.566  27.037  29.666  1.00  0.00    -0.246 OA
BRANCH   7   9
ATOM      9  C   UNL A   1      41.262  25.805  28.140  1.00  0.00     0.106 A 
ATOM     10  C   UNL A   1      41.916  25.548  26.902  1.00  0.00     0.107 A 
ATOM     11  N   UNL A   1      41.356  24.502  26.262  1.00  0.00    -0.167 NA
ATOM     12  N   UNL A   1      40.269  24.212  27.018  1.00  0.00    -0.239 N 
ATOM     13  C   UNL A   1      40.386  24.749  28.273  1.00  0.00     0.131 A 
BRANCH  10  14
ATOM     14  C   UNL A   1      43.103  26.217  26.385  1.00  0.00     0.007 A 
ATOM     15  C   UNL A   1      44.402  28.235  26.061  1.00  0.00     0.119 A 
ATOM     16  C   UNL A   1      45.445  27.467  25.532  1.00  0.00     0.046 A 
ATOM     17  C   UNL A   1      43.234  27.606  26.497  1.00  0.00     0.056 A 
ATOM     18  C   UNL A   1      45.318  26.084  25.410  1.00  0.00     0.005 A 
ATOM     19  C   UNL A   1      44.139  25.463  25.815  1.00  0.00     0.011 A 
BRANCH  15  20
ATOM     20  O   UNL A   1      44.642  29.581  26.071  1.00  0.00    -0.497 OA
ATOM     21  C   UNL A   1      45.634  30.050  26.972  1.00  0.00     0.278 C 
ENDBRANCH  15  20
ENDBRANCH  10  14
BRANCH  12  22
ATOM     22  C   UNL A   1      39.196  23.422  26.534  1.00  0.00     0.081 A 
ATOM     23  C   UNL A   1      37.945  24.046  26.349  1.00  0.00     0.079 A 
ATOM     24  C   UNL A   1      39.369  22.035  26.241  1.00  0.00     0.069 A 
ATOM     25  C   UNL A   1      36.927  23.288  25.813  1.00  0.00     0.167 A 
ATOM     26  C   UNL A   1      38.338  21.348  25.580  1.00  0.00     0.066 A 
ATOM     27  C   UNL A   1      37.133  21.990  25.411  1.00  0.00     0.166 A 
ATOM     28  O   UNL A   1      35.636  23.674  25.628  1.00  0.00    -0.454 OA
ATOM     29  O   UNL A   1      36.004  21.406  24.921  1.00  0.00    -0.454 OA
ATOM     30  C   UNL A   1      35.032  22.415  25.263  1.00  0.00     0.468 C 
BRANCH  24  31
ATOM     31  C   UNL A   1      40.481  21.219  26.859  1.00  0.00     0.251 C 
ATOM     32  N   UNL A   1      41.276  20.452  26.052  1.00  0.00    -0.366 N 
ATOM     33  O   UNL A   1      40.668  21.112  28.062  1.00  0.00    -0.269 OA
ATOM     34  H   UNL A   1      41.173  20.496  25.075  1.00  0.00     0.159 HD
ATOM     35  H   UNL A   1      41.951  19.857  26.450  1.00  0.00     0.159 HD
ENDBRANCH  24  31
ENDBRANCH  12  22
ENDBRANCH   7   9
ENDBRANCH   6   7
ENDBRANCH   5   6
ENDBRANCH   4   5
ENDBRANCH   3   4
ENDBRANCH   2   3
ENDBRANCH   1   2
BRANCH   1  36
ATOM     36  O   UNL A   1      34.681  31.035  28.111  1.00  0.00    -0.376 OA
BRANCH  36  37
ATOM     37  C   UNL A   1      33.889  32.113  27.634  1.00  0.00     0.202 C 
BRANCH  37  38
ATOM     38  C   UNL A   1      33.562  33.317  28.513  1.00  0.00     0.261 C 
BRANCH  38  39
ATOM     39  O   UNL A   1      34.663  33.825  29.229  1.00  0.00    -0.460 OA
BRANCH  39  40
ATOM     40  C   UNL A   1      34.704  33.450  30.519  1.00  0.00     0.338 C 
ATOM     41  O   UNL A   1      33.902  33.729  31.405  1.00  0.00    -0.246 OA
BRANCH  40  42
ATOM     42  C   UNL A   1      35.934  32.690  30.728  1.00  0.00     0.060 A 
ATOM     43  C   UNL A   1      35.856  31.622  31.622  1.00  0.00     0.016 A 
ATOM     44  C   UNL A   1      37.147  33.302  30.376  1.00  0.00     0.016 A 
ATOM     45  C   UNL A   1      36.949  31.386  32.415  1.00  0.00     0.010 A 
ATOM     46  C   UNL A   1      38.218  33.099  31.197  1.00  0.00     0.010 A 
ATOM     47  C   UNL A   1      38.057  32.223  32.266  1.00  0.00    -0.014 A 
BRANCH  47  48
ATOM     48  C   UNL A   1      39.110  32.133  33.242  1.00  0.00     0.031 A 
ATOM     49  C   UNL A   1      38.870  33.036  34.379  1.00  0.00     0.074 A 
ATOM     50  C   UNL A   1      40.108  31.239  33.119  1.00  0.00     0.049 A 
ATOM     51  N   UNL A   1      39.467  34.154  34.626  1.00  0.00    -0.248 NA
ATOM     52  C   UNL A   1      37.662  32.804  35.187  1.00  0.00     0.031 C 
ATOM     53  C   UNL A   1      40.217  30.129  32.166  1.00  0.00     0.029 A 
ATOM     54  N   UNL A   1      41.175  31.049  33.934  1.00  0.00    -0.354 N 
ATOM     55  C   UNL A   1      38.876  34.608  35.798  1.00  0.00     0.074 A 
ATOM     56  C   UNL A   1      37.619  33.923  35.909  1.00  0.00     0.031 C 
ATOM     57  C   UNL A   1      41.137  29.247  32.623  1.00  0.00     0.029 A 
ATOM     58  C   UNL A   1      41.755  29.790  33.822  1.00  0.00     0.049 A 
ATOM     59  H   UNL A   1      41.511  31.740  34.549  1.00  0.00     0.167 HD
ATOM     60  C   UNL A   1      39.624  35.220  36.754  1.00  0.00     0.034 A 
ATOM     61  C   UNL A   1      42.592  29.216  34.723  1.00  0.00     0.034 A 
ATOM     62  C   UNL A   1      40.887  35.666  36.216  1.00  0.00     0.049 A 
ATOM     63  C   UNL A   1      43.125  30.303  35.579  1.00  0.00     0.074 A 
ATOM     64  C   UNL A   1      41.271  36.497  35.181  1.00  0.00     0.029 A 
ATOM     65  N   UNL A   1      41.989  34.904  36.524  1.00  0.00    -0.354 N 
ATOM     66  N   UNL A   1      43.928  31.234  35.145  1.00  0.00    -0.248 NA
ATOM     67  C   UNL A   1      42.407  30.619  36.805  1.00  0.00     0.031 C 
ATOM     68  C   UNL A   1      42.434  35.888  34.628  1.00  0.00     0.029 A 
ATOM     69  C   UNL A   1      42.740  34.757  35.389  1.00  0.00     0.049 A 
ATOM     70  H   UNL A   1      42.200  34.526  37.408  1.00  0.00     0.167 HD
ATOM     71  C   UNL A   1      43.464  32.396  35.750  1.00  0.00     0.074 A 
ATOM     72  C   UNL A   1      42.609  31.940  36.845  1.00  0.00     0.031 C 
ATOM     73  C   UNL A   1      43.569  33.602  35.119  1.00  0.00     0.034 A 
BRANCH  60  74
ATOM     74  C   UNL A   1      39.421  35.030  38.242  1.00  0.00     0.023 A 
ATOM     75  C   UNL A   1      39.257  36.202  39.010  1.00  0.00     0.012 A 
ATOM     76  C   UNL A   1      39.658  33.829  38.956  1.00  0.00     0.148 A 
ATOM     77  C   UNL A   1      39.393  36.193  40.401  1.00  0.00     0.002 A 
ATOM     78  C   UNL A   1      39.712  33.810  40.343  1.00  0.00     0.091 A 
ATOM     79  F   UNL A   1      39.972  32.704  38.314  1.00  0.00    -0.205 F 
ATOM     80  C   UNL A   1      39.617  34.996  41.070  1.00  0.00     0.022 A 
BRANCH  78  81
ATOM     81  S   UNL A   1      39.957  32.279  41.253  1.00  0.00     0.127 S 
ATOM     82  O   UNL A   1      38.789  31.506  40.842  1.00  0.00    -0.237 OA
ATOM     83  O   UNL A   1      41.234  31.813  40.713  1.00  0.00    -0.237 OA
ATOM     84  O   UNL A   1      40.010  32.659  42.660  1.00  0.00    -0.744 OA
ENDBRANCH  78  81
ENDBRANCH  60  74
BRANCH  61  85
ATOM     85  C   UNL A   1      42.739  27.790  35.101  1.00  0.00     0.023 A 
ATOM     86  C   UNL A   1      41.852  27.227  36.042  1.00  0.00     0.012 A 
ATOM     87  C   UNL A   1      43.548  26.915  34.344  1.00  0.00     0.148 A 
ATOM     88  C   UNL A   1      41.750  25.837  36.196  1.00  0.00     0.002 A 
ATOM     89  C   UNL A   1      43.450  25.536  34.507  1.00  0.00     0.091 A 
ATOM     90  F   UNL A   1      44.343  27.428  33.396  1.00  0.00    -0.205 F 
ATOM     91  C   UNL A   1      42.542  24.993  35.424  1.00  0.00     0.022 A 
BRANCH  89  92
ATOM     92  S   UNL A   1      44.419  24.384  33.524  1.00  0.00     0.127 S 
ATOM     93  O   UNL A   1      43.651  23.146  33.665  1.00  0.00    -0.237 OA
ATOM     94  O   UNL A   1      44.359  24.993  32.199  1.00  0.00    -0.237 OA
ATOM     95  O   UNL A   1      45.738  24.344  34.142  1.00  0.00    -0.744 OA
ENDBRANCH  89  92
ENDBRANCH  61  85
BRANCH  73  96
ATOM     96  C   UNL A   1      44.442  33.683  33.892  1.00  0.00     0.023 A 
ATOM     97  C   UNL A   1      45.843  33.837  33.960  1.00  0.00     0.012 A 
ATOM     98  C   UNL A   1      43.847  33.429  32.646  1.00  0.00     0.148 A 
ATOM     99  C   UNL A   1      46.628  33.761  32.806  1.00  0.00     0.002 A 
ATOM    100  C   UNL A   1      44.634  33.307  31.508  1.00  0.00     0.091 A 
ATOM    101  F   UNL A   1      42.514  33.283  32.599  1.00  0.00    -0.205 F 
ATOM    102  C   UNL A   1      46.025  33.482  31.582  1.00  0.00     0.022 A 
BRANCH 100 103
ATOM    103  S   UNL A   1      43.925  32.823  29.934  1.00  0.00     0.127 S 
ATOM    104  O   UNL A   1      43.064  33.963  29.624  1.00  0.00    -0.237 OA
ATOM    105  O   UNL A   1      45.108  32.699  29.080  1.00  0.00    -0.237 OA
ATOM    106  O   UNL A   1      43.236  31.561  30.177  1.00  0.00    -0.744 OA
ENDBRANCH 100 103
ENDBRANCH  73  96
ENDBRANCH  47  48
ENDBRANCH  40  42
ENDBRANCH  39  40
ENDBRANCH  38  39
ENDBRANCH  37  38
ENDBRANCH  36  37
ENDBRANCH   1  36
TORSDOF 24
ENDMDL
MODEL 3
REMARK VINA RESULT:      -9.8      6.051     14.322
REMARK SMILES COc1cccc(-c2nn(-c3cc4c(cc3C(N)=O)OCO4)cc2C(=O)OCCOCCOCCOC(=O)c2ccc(-c3c4nc(c(-c5cccc(S(=O)(=O)[O-])c5F)c5ccc([nH]5)c(-c5cccc(S(=O)(=O)[O-])c5F)c5nc(c(-c6cccc(S(=O)(=O)[O-])c6F)c6ccc3[nH]6)C=C5)C=C4)cc2)c1
REMARK SMILES IDX 32 1 31 2 30 3 29 4 28 5 27 6 25 7 26 8 24 9 8 10 9 11 10 12
REMARK SMILES IDX 23 13 7 14 3 15 4 16 102 17 5 18 6 19 2 20 1 21 11 22 12 23
REMARK SMILES IDX 16 24 13 25 15 26 14 27 22 28 20 29 21 30 17 31 18 32 19 33
REMARK SMILES IDX 33 36 34 37 35 38 36 39 37 40 38 41 39 42 40 43 101 44 41 45
REMARK SMILES IDX 100 46 42 47 43 48 44 49 94 50 45 51 99 52 93 53 95 54 46 55
REMARK SMILES IDX 98 56 92 57 91 58 47 60 79 61 59 62 78 63 60 64 63 65 77 66
REMARK SMILES IDX 96 67 61 68 62 69 76 71 97 72 64 73 48 74 49 75 57 76 50 77
REMARK SMILES IDX 52 78 58 79 51 80 53 81 54 82 55 83 56 84 80 85 81 86 89 87
REMARK SMILES IDX 82 88 84 89 90 90 83 91 85 92 86 93 87 94 88 95 65 96 66 97
REMARK SMILES IDX 74 98 67 99 69 100 75 101 68 102 70 103 71 104 72 105 73 106
REMARK H PARENT 18 34 18 35 95 59 63 70
REMARK Flexibility Score: inf
ROOT
ATOM      1  C   UNL A   1      51.847  26.230  39.982  1.00  0.00     0.188 C 
ENDROOT
BRANCH   1   2
ATOM      2  C   UNL A   1      51.125  25.276  40.959  1.00  0.00     0.188 C 
BRANCH   2   3
ATOM      3  O   UNL A   1      50.887  23.997  40.424  1.00  0.00    -0.376 OA
BRANCH   3   4
ATOM      4  C   UNL A   1      49.558  23.537  40.276  1.00  0.00     0.202 C 
BRANCH   4   5
ATOM      5  C   UNL A   1      49.139  22.337  39.397  1.00  0.00     0.261 C 
BRANCH   5   6
ATOM      6  O   UNL A   1      48.466  21.242  40.016  1.00  0.00    -0.460 OA
BRANCH   6   7
ATOM      7  C   UNL A   1      48.792  19.985  39.583  1.00  0.00     0.342 C 
ATOM      8  O   UNL A   1      49.925  19.536  39.560  1.00  0.00    -0.246 OA
BRANCH   7   9
ATOM      9  C   UNL A   1      47.614  19.216  39.235  1.00  0.00     0.106 A 
ATOM     10  C   UNL A   1      46.727  19.352  38.130  1.00  0.00     0.107 A 
ATOM     11  N   UNL A   1      45.713  18.468  38.205  1.00  0.00    -0.167 NA
ATOM     12  N   UNL A   1      45.881  17.896  39.422  1.00  0.00    -0.239 N 
ATOM     13  C   UNL A   1      47.156  18.090  39.886  1.00  0.00     0.131 A 
BRANCH  10  14
ATOM     14  C   UNL A   1      46.892  20.234  36.981  1.00  0.00     0.007 A 
ATOM     15  C   UNL A   1      48.203  21.001  35.094  1.00  0.00     0.119 A 
ATOM     16  C   UNL A   1      47.135  21.813  34.696  1.00  0.00     0.046 A 
ATOM     17  C   UNL A   1      48.075  20.203  36.234  1.00  0.00     0.056 A 
ATOM     18  C   UNL A   1      45.958  21.855  35.440  1.00  0.00     0.005 A 
ATOM     19  C   UNL A   1      45.846  21.083  36.594  1.00  0.00     0.011 A 
BRANCH  15  20
ATOM     20  O   UNL A   1      49.313  21.100  34.303  1.00  0.00    -0.497 OA
ATOM     21  C   UNL A   1      50.344  20.149  34.522  1.00  0.00     0.278 C 
ENDBRANCH  15  20
ENDBRANCH  10  14
BRANCH  12  22
ATOM     22  C   UNL A   1      44.848  17.171  40.069  1.00  0.00     0.081 A 
ATOM     23  C   UNL A   1      44.206  16.145  39.345  1.00  0.00     0.079 A 
ATOM     24  C   UNL A   1      44.464  17.466  41.413  1.00  0.00     0.069 A 
ATOM     25  C   UNL A   1      43.252  15.401  40.005  1.00  0.00     0.167 A 
ATOM     26  C   UNL A   1      43.581  16.595  42.072  1.00  0.00     0.066 A 
ATOM     27  C   UNL A   1      42.978  15.602  41.336  1.00  0.00     0.166 A 
ATOM     28  O   UNL A   1      42.469  14.425  39.470  1.00  0.00    -0.454 OA
ATOM     29  O   UNL A   1      41.997  14.779  41.801  1.00  0.00    -0.454 OA
ATOM     30  C   UNL A   1      41.550  14.196  40.559  1.00  0.00     0.468 C 
BRANCH  24  31
ATOM     31  C   UNL A   1      44.740  18.810  42.047  1.00  0.00     0.251 C 
ATOM     32  N   UNL A   1      45.538  18.875  43.156  1.00  0.00    -0.366 N 
ATOM     33  O   UNL A   1      44.213  19.856  41.697  1.00  0.00    -0.269 OA
ATOM     34  H   UNL A   1      45.989  18.065  43.485  1.00  0.00     0.159 HD
ATOM     35  H   UNL A   1      45.660  19.732  43.624  1.00  0.00     0.159 HD
ENDBRANCH  24  31
ENDBRANCH  12  22
ENDBRANCH   7   9
ENDBRANCH   6   7
ENDBRANCH   5   6
ENDBRANCH   4   5
ENDBRANCH   3   4
ENDBRANCH   2   3
ENDBRANCH   1   2
BRANCH   1  36
ATOM     36  O   UNL A   1      51.161  26.901  38.932  1.00  0.00    -0.376 OA
BRANCH  36  37
ATOM     37  C   UNL A   1      50.960  26.296  37.663  1.00  0.00     0.202 C 
BRANCH  37  38
ATOM     38  C   UNL A   1      49.746  25.418  37.377  1.00  0.00     0.261 C 
BRANCH  38  39
ATOM     39  O   UNL A   1      49.238  25.544  36.069  1.00  0.00    -0.460 OA
BRANCH  39  40
ATOM     40  C   UNL A   1      48.052  26.172  35.994  1.00  0.00     0.338 C 
ATOM     41  O   UNL A   1      47.618  27.043  36.743  1.00  0.00    -0.246 OA
BRANCH  40  42
ATOM     42  C   UNL A   1      47.301  25.584  34.888  1.00  0.00     0.060 A 
ATOM     43  C   UNL A   1      47.842  25.758  33.614  1.00  0.00     0.016 A 
ATOM     44  C   UNL A   1      45.949  25.277  35.106  1.00  0.00     0.016 A 
ATOM     45  C   UNL A   1      46.964  25.952  32.580  1.00  0.00     0.010 A 
ATOM     46  C   UNL A   1      45.075  25.518  34.087  1.00  0.00     0.010 A 
ATOM     47  C   UNL A   1      45.598  25.956  32.874  1.00  0.00    -0.014 A 
BRANCH  47  48
ATOM     48  C   UNL A   1      44.685  26.386  31.850  1.00  0.00     0.031 A 
ATOM     49  C   UNL A   1      44.583  25.395  30.766  1.00  0.00     0.074 A 
ATOM     50  C   UNL A   1      43.965  27.515  31.978  1.00  0.00     0.049 A 
ATOM     51  N   UNL A   1      45.102  25.476  29.586  1.00  0.00    -0.248 NA
ATOM     52  C   UNL A   1      44.072  24.060  31.113  1.00  0.00     0.031 C 
ATOM     53  C   UNL A   1      43.816  28.363  33.167  1.00  0.00     0.029 A 
ATOM     54  N   UNL A   1      43.089  28.063  31.100  1.00  0.00    -0.354 N 
ATOM     55  C   UNL A   1      44.720  24.295  28.961  1.00  0.00     0.074 A 
ATOM     56  C   UNL A   1      44.376  23.376  30.009  1.00  0.00     0.031 C 
ATOM     57  C   UNL A   1      42.721  29.145  33.013  1.00  0.00     0.029 A 
ATOM     58  C   UNL A   1      42.176  28.936  31.682  1.00  0.00     0.049 A 
ATOM     59  H   UNL A   1      43.098  27.861  30.136  1.00  0.00     0.167 HD
ATOM     60  C   UNL A   1      44.369  24.294  27.649  1.00  0.00     0.034 A 
ATOM     61  C   UNL A   1      41.009  29.352  31.129  1.00  0.00     0.034 A 
ATOM     62  C   UNL A   1      44.837  25.488  26.986  1.00  0.00     0.049 A 
ATOM     63  C   UNL A   1      41.098  29.093  29.671  1.00  0.00     0.074 A 
ATOM     64  C   UNL A   1      46.069  26.086  26.804  1.00  0.00     0.029 A 
ATOM     65  N   UNL A   1      43.898  26.461  26.740  1.00  0.00    -0.354 N 
ATOM     66  N   UNL A   1      41.916  29.723  28.876  1.00  0.00    -0.248 NA
ATOM     67  C   UNL A   1      40.604  27.817  29.174  1.00  0.00     0.031 C 
ATOM     68  C   UNL A   1      45.818  27.486  26.893  1.00  0.00     0.029 A 
ATOM     69  C   UNL A   1      44.444  27.675  27.058  1.00  0.00     0.049 A 
ATOM     70  H   UNL A   1      42.988  26.311  26.395  1.00  0.00     0.167 HD
ATOM     71  C   UNL A   1      42.403  28.734  28.029  1.00  0.00     0.074 A 
ATOM     72  C   UNL A   1      41.476  27.614  28.181  1.00  0.00     0.031 C 
ATOM     73  C   UNL A   1      43.670  28.805  27.527  1.00  0.00     0.034 A 
BRANCH  60  74
ATOM     74  C   UNL A   1      43.249  23.456  27.070  1.00  0.00     0.023 A 
ATOM     75  C   UNL A   1      41.945  23.981  27.187  1.00  0.00     0.012 A 
ATOM     76  C   UNL A   1      43.356  22.096  26.685  1.00  0.00     0.148 A 
ATOM     77  C   UNL A   1      40.813  23.181  27.004  1.00  0.00     0.002 A 
ATOM     78  C   UNL A   1      42.230  21.327  26.424  1.00  0.00     0.091 A 
ATOM     79  F   UNL A   1      44.535  21.475  26.693  1.00  0.00    -0.205 F 
ATOM     80  C   UNL A   1      40.953  21.854  26.618  1.00  0.00     0.022 A 
BRANCH  78  81
ATOM     81  S   UNL A   1      42.364  19.618  25.881  1.00  0.00     0.127 S 
ATOM     82  O   UNL A   1      43.425  19.712  24.884  1.00  0.00    -0.237 OA
ATOM     83  O   UNL A   1      42.734  18.939  27.123  1.00  0.00    -0.237 OA
ATOM     84  O   UNL A   1      41.044  19.258  25.378  1.00  0.00    -0.744 OA
ENDBRANCH  78  81
ENDBRANCH  60  74
BRANCH  61  85
ATOM     85  C   UNL A   1      39.715  29.671  31.779  1.00  0.00     0.023 A 
ATOM     86  C   UNL A   1      38.842  28.624  32.139  1.00  0.00     0.012 A 
ATOM     87  C   UNL A   1      39.463  30.958  32.303  1.00  0.00     0.148 A 
ATOM     88  C   UNL A   1      37.774  28.846  33.020  1.00  0.00     0.002 A 
ATOM     89  C   UNL A   1      38.396  31.175  33.171  1.00  0.00     0.091 A 
ATOM     90  F   UNL A   1      40.323  31.948  32.030  1.00  0.00    -0.205 F 
ATOM     91  C   UNL A   1      37.557  30.117  33.542  1.00  0.00     0.022 A 
BRANCH  89  92
ATOM     92  S   UNL A   1      38.071  32.783  33.906  1.00  0.00     0.127 S 
ATOM     93  O   UNL A   1      36.861  32.520  34.686  1.00  0.00    -0.237 OA
ATOM     94  O   UNL A   1      39.276  33.000  34.701  1.00  0.00    -0.237 OA
ATOM     95  O   UNL A   1      37.876  33.700  32.790  1.00  0.00    -0.744 OA
ENDBRANCH  89  92
ENDBRANCH  61  85
BRANCH  73  96
ATOM     96  C   UNL A   1      44.420  30.104  27.684  1.00  0.00     0.023 A 
ATOM     97  C   UNL A   1      45.505  30.257  28.574  1.00  0.00     0.012 A 
ATOM     98  C   UNL A   1      44.125  31.144  26.788  1.00  0.00     0.148 A 
ATOM     99  C   UNL A   1      46.262  31.432  28.582  1.00  0.00     0.002 A 
ATOM    100  C   UNL A   1      44.909  32.290  26.765  1.00  0.00     0.091 A 
ATOM    101  F   UNL A   1      43.093  30.981  25.947  1.00  0.00    -0.205 F 
ATOM    102  C   UNL A   1      45.973  32.443  27.668  1.00  0.00     0.022 A 
BRANCH 100 103
ATOM    103  S   UNL A   1      44.662  33.563  25.527  1.00  0.00     0.127 S 
ATOM    104  O   UNL A   1      43.589  34.359  26.119  1.00  0.00    -0.237 OA
ATOM    105  O   UNL A   1      45.967  34.225  25.490  1.00  0.00    -0.237 OA
ATOM    106  O   UNL A   1      44.319  32.861  24.296  1.00  0.00    -0.744 OA
ENDBRANCH 100 103
ENDBRANCH  73  96
ENDBRANCH  47  48
ENDBRANCH  40  42
ENDBRANCH  39  40
ENDBRANCH  38  39
ENDBRANCH  37  38
ENDBRANCH  36  37
ENDBRANCH   1  36
TORSDOF 24
ENDMDL
