MODEL 1
REMARK VINA RESULT:     -12.3      0.000      0.000
REMARK SMILES N#C/C(=C/c1cccc(OCC(=O)OCCOCCOCCOC(=O)c2ccc(-c3c4nc(c(-c5cccc(S(=O)(=O)[O-])c5F)c5ccc([nH]5)c(-c5cccc(S(=O)(=O)[O-])c5F)c5nc(c(-c6cccc(S(=O)(=O)[O-])c6F)c6ccc3[nH]6)C=C5)C=C4)cc2)c1)c1nc2ccccc2[nH]1
REMARK SMILES IDX 18 1 17 2 16 3 15 4 14 5 12 6 13 7 11 8 10 9 9 10 5 11 6 12
REMARK SMILES IDX 89 13 7 14 8 15 4 16 3 17 2 18 1 19 90 20 91 21 98 22 92 23
REMARK SMILES IDX 97 24 93 26 96 27 94 28 95 29 19 30 20 31 21 32 22 33 23 34
REMARK SMILES IDX 24 35 25 36 26 37 27 38 88 39 28 40 87 41 29 42 30 43 31 44
REMARK SMILES IDX 81 45 32 46 86 47 80 48 82 49 33 50 85 51 79 52 78 53 34 55
REMARK SMILES IDX 66 56 46 57 65 58 47 59 50 60 64 61 83 62 48 63 49 64 63 66
REMARK SMILES IDX 84 67 51 68 35 69 36 70 44 71 37 72 39 73 45 74 38 75 40 76
REMARK SMILES IDX 41 77 42 78 43 79 67 80 68 81 76 82 69 83 71 84 77 85 70 86
REMARK SMILES IDX 72 87 73 88 74 89 75 90 52 91 53 92 61 93 54 94 56 95 62 96
REMARK SMILES IDX 55 97 57 98 58 99 59 100 60 101
REMARK H PARENT 98 25 82 54 50 65
REMARK Flexibility Score: inf
ROOT
ATOM      1  C   UNL A   1      32.633  33.437  27.618  1.00  0.00     0.188 C 
ENDROOT
BRANCH   1   2
ATOM      2  O   UNL A   1      32.056  31.605  26.805  1.00  0.00    -0.376 OA
BRANCH   2   3
ATOM      3  C   UNL A   1      32.650  30.157  27.190  1.00  0.00     0.202 C 
BRANCH   3   4
ATOM      4  C   UNL A   1      31.363  28.967  27.152  1.00  0.00     0.261 C 
BRANCH   4   5
ATOM      5  O   UNL A   1      31.940  27.010  27.150  1.00  0.00    -0.461 OA
BRANCH   5   6
ATOM      6  C   UNL A   1      32.398  25.647  26.598  1.00  0.00     0.344 C 
ATOM      7  O   UNL A   1      33.466  25.529  25.973  1.00  0.00    -0.248 OA
BRANCH   6   8
ATOM      8  C   UNL A   1      31.662  24.051  27.132  1.00  0.00     0.351 C 
BRANCH   8   9
ATOM      9  O   UNL A   1      31.799  22.594  26.936  1.00  0.00    -0.482 OA
BRANCH   9  10
ATOM     10  C   UNL A   1      32.517  21.794  26.010  1.00  0.00     0.120 A 
ATOM     11  C   UNL A   1      33.521  21.765  23.676  1.00  0.00    -0.021 A 
ATOM     12  C   UNL A   1      34.741  21.336  24.184  1.00  0.00     0.008 A 
ATOM     13  C   UNL A   1      32.341  21.607  24.614  1.00  0.00     0.054 A 
ATOM     14  C   UNL A   1      34.833  21.083  25.571  1.00  0.00     0.004 A 
ATOM     15  C   UNL A   1      33.772  21.388  26.470  1.00  0.00     0.046 A 
BRANCH  11  16
ATOM     16  C   UNL A   1      33.594  23.073  22.319  1.00  0.00     0.031 C 
ATOM     17  C   UNL A   1      32.734  24.700  21.887  1.00  0.00     0.095 C 
BRANCH  17  18
ATOM     18  C   UNL A   1      32.848  25.162  20.443  1.00  0.00     0.103 C 
ATOM     19  N   UNL A   1      32.942  25.545  19.245  1.00  0.00    -0.192 NA
ENDBRANCH  17  18
BRANCH  17  20
ATOM     20  C   UNL A   1      31.907  25.917  22.854  1.00  0.00     0.149 A 
ATOM     21  N   UNL A   1      30.404  25.774  23.675  1.00  0.00    -0.228 NA
ATOM     22  N   UNL A   1      32.007  27.645  22.218  1.00  0.00    -0.337 N 
ATOM     23  C   UNL A   1      29.248  27.314  23.432  1.00  0.00     0.089 A 
ATOM     24  C   UNL A   1      30.415  28.536  22.454  1.00  0.00     0.066 A 
ATOM     25  H   UNL A   1      32.809  28.039  21.805  1.00  0.00     0.168 HD
ATOM     26  C   UNL A   1      27.530  27.741  23.624  1.00  0.00     0.030 A 
ATOM     27  C   UNL A   1      29.759  30.112  21.978  1.00  0.00     0.028 A 
ATOM     28  C   UNL A   1      26.958  29.321  23.078  1.00  0.00     0.002 A 
ATOM     29  C   UNL A   1      28.043  30.483  22.334  1.00  0.00     0.002 A 
ENDBRANCH  17  20
ENDBRANCH  11  16
ENDBRANCH   9  10
ENDBRANCH   8   9
ENDBRANCH   6   8
ENDBRANCH   5   6
ENDBRANCH   4   5
ENDBRANCH   3   4
ENDBRANCH   2   3
ENDBRANCH   1   2
BRANCH   1  30
ATOM     30  C   UNL A   1      34.140  33.518  28.762  1.00  0.00     0.188 C 
BRANCH  30  31
ATOM     31  O   UNL A   1      34.572  34.413  29.819  1.00  0.00    -0.376 OA
BRANCH  31  32
ATOM     32  C   UNL A   1      34.421  34.278  31.230  1.00  0.00     0.202 C 
BRANCH  32  33
ATOM     33  C   UNL A   1      35.609  34.012  32.172  1.00  0.00     0.261 C 
BRANCH  33  34
ATOM     34  O   UNL A   1      36.218  32.751  32.006  1.00  0.00    -0.460 OA
BRANCH  34  35
ATOM     35  C   UNL A   1      37.470  32.747  32.504  1.00  0.00     0.338 C 
ATOM     36  O   UNL A   1      37.819  32.317  33.584  1.00  0.00    -0.246 OA
BRANCH  35  37
ATOM     37  C   UNL A   1      38.245  33.505  31.507  1.00  0.00     0.060 A 
ATOM     38  C   UNL A   1      38.080  33.872  29.625  1.00  0.00     0.016 A 
ATOM     39  C   UNL A   1      39.849  33.880  32.321  1.00  0.00     0.016 A 
ATOM     40  C   UNL A   1      39.589  34.549  28.673  1.00  0.00     0.010 A 
ATOM     41  C   UNL A   1      41.289  34.448  31.377  1.00  0.00     0.010 A 
ATOM     42  C   UNL A   1      41.220  34.740  29.557  1.00  0.00    -0.014 A 
BRANCH  42  43
ATOM     43  C   UNL A   1      42.621  34.842  28.881  1.00  0.00     0.031 A 
ATOM     44  C   UNL A   1      43.659  33.670  28.716  1.00  0.00     0.074 A 
ATOM     45  C   UNL A   1      43.048  36.041  28.441  1.00  0.00     0.049 A 
ATOM     46  N   UNL A   1      44.907  33.708  28.265  1.00  0.00    -0.248 NA
ATOM     47  C   UNL A   1      43.260  32.302  29.081  1.00  0.00     0.031 C 
ATOM     48  C   UNL A   1      42.281  37.273  28.533  1.00  0.00     0.029 A 
ATOM     49  N   UNL A   1      44.241  36.429  27.862  1.00  0.00    -0.354 N 
ATOM     50  C   UNL A   1      45.441  32.407  28.355  1.00  0.00     0.074 A 
ATOM     51  C   UNL A   1      44.375  31.599  28.908  1.00  0.00     0.031 C 
ATOM     52  C   UNL A   1      42.997  38.275  28.009  1.00  0.00     0.029 A 
ATOM     53  C   UNL A   1      44.319  37.783  27.631  1.00  0.00     0.049 A 
ATOM     54  H   UNL A   1      44.962  35.799  27.636  1.00  0.00     0.167 HD
ATOM     55  C   UNL A   1      46.667  31.905  28.011  1.00  0.00     0.034 A 
ATOM     56  C   UNL A   1      45.329  38.580  27.223  1.00  0.00     0.034 A 
ATOM     57  C   UNL A   1      47.742  32.661  27.399  1.00  0.00     0.049 A 
ATOM     58  C   UNL A   1      46.683  38.024  26.884  1.00  0.00     0.074 A 
ATOM     59  C   UNL A   1      48.971  32.201  26.940  1.00  0.00     0.029 A 
ATOM     60  N   UNL A   1      47.739  34.027  27.182  1.00  0.00    -0.354 N 
ATOM     61  N   UNL A   1      47.098  36.784  26.900  1.00  0.00    -0.248 NA
ATOM     62  C   UNL A   1      47.704  38.989  26.441  1.00  0.00     0.031 C 
ATOM     63  C   UNL A   1      49.736  33.297  26.520  1.00  0.00     0.029 A 
ATOM     64  C   UNL A   1      48.952  34.429  26.635  1.00  0.00     0.049 A 
ATOM     65  H   UNL A   1      46.987  34.628  27.386  1.00  0.00     0.167 HD
ATOM     66  C   UNL A   1      48.410  36.816  26.434  1.00  0.00     0.074 A 
ATOM     67  C   UNL A   1      48.715  38.194  26.122  1.00  0.00     0.031 C 
ATOM     68  C   UNL A   1      49.278  35.787  26.282  1.00  0.00     0.034 A 
BRANCH  55  69
ATOM     69  C   UNL A   1      46.973  30.423  28.258  1.00  0.00     0.023 A 
ATOM     70  C   UNL A   1      47.358  29.977  29.540  1.00  0.00     0.012 A 
ATOM     71  C   UNL A   1      46.736  29.450  27.254  1.00  0.00     0.148 A 
ATOM     72  C   UNL A   1      47.561  28.616  29.800  1.00  0.00     0.002 A 
ATOM     73  C   UNL A   1      46.896  28.092  27.533  1.00  0.00     0.091 A 
ATOM     74  F   UNL A   1      46.333  29.867  26.045  1.00  0.00    -0.205 F 
ATOM     75  C   UNL A   1      47.327  27.677  28.801  1.00  0.00     0.022 A 
BRANCH  73  76
ATOM     76  S   UNL A   1      46.536  26.790  26.342  1.00  0.00     0.127 S 
ATOM     77  O   UNL A   1      47.755  26.785  25.535  1.00  0.00    -0.237 OA
ATOM     78  O   UNL A   1      46.375  25.617  27.203  1.00  0.00    -0.237 OA
ATOM     79  O   UNL A   1      45.328  27.204  25.643  1.00  0.00    -0.744 OA
ENDBRANCH  73  76
ENDBRANCH  55  69
BRANCH  56  80
ATOM     80  C   UNL A   1      45.087  40.048  27.117  1.00  0.00     0.023 A 
ATOM     81  C   UNL A   1      44.493  40.578  25.957  1.00  0.00     0.012 A 
ATOM     82  C   UNL A   1      45.422  40.910  28.179  1.00  0.00     0.148 A 
ATOM     83  C   UNL A   1      44.263  41.949  25.844  1.00  0.00     0.002 A 
ATOM     84  C   UNL A   1      45.122  42.261  28.090  1.00  0.00     0.091 A 
ATOM     85  F   UNL A   1      45.995  40.382  29.269  1.00  0.00    -0.205 F 
ATOM     86  C   UNL A   1      44.564  42.787  26.915  1.00  0.00     0.022 A 
BRANCH  84  87
ATOM     87  S   UNL A   1      45.333  43.385  29.473  1.00  0.00     0.127 S 
ATOM     88  O   UNL A   1      44.864  44.647  28.907  1.00  0.00    -0.237 OA
ATOM     89  O   UNL A   1      44.451  42.790  30.476  1.00  0.00    -0.237 OA
ATOM     90  O   UNL A   1      46.749  43.336  29.814  1.00  0.00    -0.744 OA
ENDBRANCH  84  87
ENDBRANCH  56  80
BRANCH  68  91
ATOM     91  C   UNL A   1      50.636  36.081  25.687  1.00  0.00     0.023 A 
ATOM     92  C   UNL A   1      50.833  36.049  24.291  1.00  0.00     0.012 A 
ATOM     93  C   UNL A   1      51.721  36.420  26.521  1.00  0.00     0.148 A 
ATOM     94  C   UNL A   1      52.093  36.299  23.742  1.00  0.00     0.002 A 
ATOM     95  C   UNL A   1      52.960  36.723  25.965  1.00  0.00     0.091 A 
ATOM     96  F   UNL A   1      51.526  36.433  27.848  1.00  0.00    -0.205 F 
ATOM     97  C   UNL A   1      53.153  36.646  24.577  1.00  0.00     0.022 A 
BRANCH  95  98
ATOM     98  S   UNL A   1      54.362  37.260  26.953  1.00  0.00     0.127 S 
ATOM     99  O   UNL A   1      55.273  37.768  25.928  1.00  0.00    -0.237 OA
ATOM    100  O   UNL A   1      53.763  38.290  27.802  1.00  0.00    -0.237 OA
ATOM    101  O   UNL A   1      54.832  36.080  27.667  1.00  0.00    -0.744 OA
ENDBRANCH  95  98
ENDBRANCH  68  91
ENDBRANCH  42  43
ENDBRANCH  35  37
ENDBRANCH  34  35
ENDBRANCH  33  34
ENDBRANCH  32  33
ENDBRANCH  31  32
ENDBRANCH  30  31
ENDBRANCH   1  30
TORSDOF 25
ENDMDL
MODEL 2
REMARK VINA RESULT:     -12.0      3.608      5.462
REMARK SMILES N#C/C(=C/c1cccc(OCC(=O)OCCOCCOCCOC(=O)c2ccc(-c3c4nc(c(-c5cccc(S(=O)(=O)[O-])c5F)c5ccc([nH]5)c(-c5cccc(S(=O)(=O)[O-])c5F)c5nc(c(-c6cccc(S(=O)(=O)[O-])c6F)c6ccc3[nH]6)C=C5)C=C4)cc2)c1)c1nc2ccccc2[nH]1
REMARK SMILES IDX 18 1 17 2 16 3 15 4 14 5 12 6 13 7 11 8 10 9 9 10 5 11 6 12
REMARK SMILES IDX 89 13 7 14 8 15 4 16 3 17 2 18 1 19 90 20 91 21 98 22 92 23
REMARK SMILES IDX 97 24 93 26 96 27 94 28 95 29 19 30 20 31 21 32 22 33 23 34
REMARK SMILES IDX 24 35 25 36 26 37 27 38 88 39 28 40 87 41 29 42 30 43 31 44
REMARK SMILES IDX 81 45 32 46 86 47 80 48 82 49 33 50 85 51 79 52 78 53 34 55
REMARK SMILES IDX 66 56 46 57 65 58 47 59 50 60 64 61 83 62 48 63 49 64 63 66
REMARK SMILES IDX 84 67 51 68 35 69 36 70 44 71 37 72 39 73 45 74 38 75 40 76
REMARK SMILES IDX 41 77 42 78 43 79 67 80 68 81 76 82 69 83 71 84 77 85 70 86
REMARK SMILES IDX 72 87 73 88 74 89 75 90 52 91 53 92 61 93 54 94 56 95 62 96
REMARK SMILES IDX 55 97 57 98 58 99 59 100 60 101
REMARK H PARENT 98 25 82 54 50 65
REMARK Flexibility Score: inf
ROOT
ATOM      1  C   UNL A   1      32.172  33.093  27.275  1.00  0.00     0.188 C 
ENDROOT
BRANCH   1   2
ATOM      2  O   UNL A   1      31.493  31.496  26.118  1.00  0.00    -0.376 OA
BRANCH   2   3
ATOM      3  C   UNL A   1      32.156  30.030  26.027  1.00  0.00     0.202 C 
BRANCH   3   4
ATOM      4  C   UNL A   1      31.563  29.037  27.346  1.00  0.00     0.261 C 
BRANCH   4   5
ATOM      5  O   UNL A   1      31.686  27.018  27.084  1.00  0.00    -0.461 OA
BRANCH   5   6
ATOM      6  C   UNL A   1      32.218  25.663  26.578  1.00  0.00     0.344 C 
ATOM      7  O   UNL A   1      33.314  25.576  25.999  1.00  0.00    -0.248 OA
BRANCH   6   8
ATOM      8  C   UNL A   1      31.524  24.050  27.114  1.00  0.00     0.351 C 
BRANCH   8   9
ATOM      9  O   UNL A   1      31.668  22.599  26.889  1.00  0.00    -0.482 OA
BRANCH   9  10
ATOM     10  C   UNL A   1      32.459  21.820  26.004  1.00  0.00     0.120 A 
ATOM     11  C   UNL A   1      33.546  21.800  23.708  1.00  0.00    -0.021 A 
ATOM     12  C   UNL A   1      34.767  21.443  24.267  1.00  0.00     0.008 A 
ATOM     13  C   UNL A   1      32.343  21.599  24.607  1.00  0.00     0.054 A 
ATOM     14  C   UNL A   1      34.822  21.220  25.661  1.00  0.00     0.004 A 
ATOM     15  C   UNL A   1      33.715  21.487  26.516  1.00  0.00     0.046 A 
BRANCH  11  16
ATOM     16  C   UNL A   1      33.602  23.086  22.329  1.00  0.00     0.031 C 
ATOM     17  C   UNL A   1      32.739  24.706  21.881  1.00  0.00     0.095 C 
BRANCH  17  18
ATOM     18  C   UNL A   1      32.833  25.144  20.429  1.00  0.00     0.103 C 
ATOM     19  N   UNL A   1      32.911  25.508  19.224  1.00  0.00    -0.192 NA
ENDBRANCH  17  18
BRANCH  17  20
ATOM     20  C   UNL A   1      31.927  25.940  22.839  1.00  0.00     0.149 A 
ATOM     21  N   UNL A   1      30.425  25.819  23.669  1.00  0.00    -0.228 NA
ATOM     22  N   UNL A   1      32.039  27.661  22.186  1.00  0.00    -0.337 N 
ATOM     23  C   UNL A   1      29.282  27.367  23.415  1.00  0.00     0.089 A 
ATOM     24  C   UNL A   1      30.456  28.568  22.420  1.00  0.00     0.066 A 
ATOM     25  H   UNL A   1      32.843  28.044  21.766  1.00  0.00     0.168 HD
ATOM     26  C   UNL A   1      27.569  27.811  23.609  1.00  0.00     0.030 A 
ATOM     27  C   UNL A   1      29.812  30.145  21.931  1.00  0.00     0.028 A 
ATOM     28  C   UNL A   1      27.009  29.390  23.050  1.00  0.00     0.002 A 
ATOM     29  C   UNL A   1      28.101  30.535  22.290  1.00  0.00     0.002 A 
ENDBRANCH  17  20
ENDBRANCH  11  16
ENDBRANCH   9  10
ENDBRANCH   8   9
ENDBRANCH   6   8
ENDBRANCH   5   6
ENDBRANCH   4   5
ENDBRANCH   3   4
ENDBRANCH   2   3
ENDBRANCH   1   2
BRANCH   1  30
ATOM     30  C   UNL A   1      33.739  32.892  28.318  1.00  0.00     0.188 C 
BRANCH  30  31
ATOM     31  O   UNL A   1      34.510  33.765  29.184  1.00  0.00    -0.376 OA
BRANCH  31  32
ATOM     32  C   UNL A   1      34.394  33.967  30.590  1.00  0.00     0.202 C 
BRANCH  32  33
ATOM     33  C   UNL A   1      35.518  33.603  31.577  1.00  0.00     0.261 C 
BRANCH  33  34
ATOM     34  O   UNL A   1      35.276  32.443  32.341  1.00  0.00    -0.460 OA
BRANCH  34  35
ATOM     35  C   UNL A   1      36.413  31.980  32.896  1.00  0.00     0.338 C 
ATOM     36  O   UNL A   1      36.628  31.819  34.079  1.00  0.00    -0.246 OA
BRANCH  35  37
ATOM     37  C   UNL A   1      37.338  31.872  31.756  1.00  0.00     0.060 A 
ATOM     38  C   UNL A   1      37.291  31.046  30.018  1.00  0.00     0.016 A 
ATOM     39  C   UNL A   1      38.963  32.447  32.392  1.00  0.00     0.016 A 
ATOM     40  C   UNL A   1      38.921  30.804  29.056  1.00  0.00     0.010 A 
ATOM     41  C   UNL A   1      40.506  32.132  31.492  1.00  0.00     0.010 A 
ATOM     42  C   UNL A   1      40.537  31.272  29.861  1.00  0.00    -0.014 A 
BRANCH  42  43
ATOM     43  C   UNL A   1      41.949  30.759  29.446  1.00  0.00     0.031 A 
ATOM     44  C   UNL A   1      42.362  29.257  29.223  1.00  0.00     0.074 A 
ATOM     45  C   UNL A   1      42.954  31.646  29.316  1.00  0.00     0.049 A 
ATOM     46  N   UNL A   1      43.563  28.739  28.989  1.00  0.00    -0.248 NA
ATOM     47  C   UNL A   1      41.323  28.216  29.253  1.00  0.00     0.031 C 
ATOM     48  C   UNL A   1      42.819  33.079  29.522  1.00  0.00     0.029 A 
ATOM     49  N   UNL A   1      44.291  31.474  29.016  1.00  0.00    -0.354 N 
ATOM     50  C   UNL A   1      43.423  27.340  28.911  1.00  0.00     0.074 A 
ATOM     51  C   UNL A   1      42.014  27.087  29.125  1.00  0.00     0.031 C 
ATOM     52  C   UNL A   1      44.006  33.666  29.318  1.00  0.00     0.029 A 
ATOM     53  C   UNL A   1      45.016  32.642  29.065  1.00  0.00     0.049 A 
ATOM     54  H   UNL A   1      44.687  30.601  28.790  1.00  0.00     0.167 HD
ATOM     55  C   UNL A   1      44.339  26.349  28.674  1.00  0.00     0.034 A 
ATOM     56  C   UNL A   1      46.339  32.897  28.981  1.00  0.00     0.034 A 
ATOM     57  C   UNL A   1      45.747  26.557  28.394  1.00  0.00     0.049 A 
ATOM     58  C   UNL A   1      47.340  31.800  28.758  1.00  0.00     0.074 A 
ATOM     59  C   UNL A   1      46.710  25.615  28.054  1.00  0.00     0.029 A 
ATOM     60  N   UNL A   1      46.403  27.774  28.446  1.00  0.00    -0.354 N 
ATOM     61  N   UNL A   1      47.143  30.517  28.601  1.00  0.00    -0.248 NA
ATOM     62  C   UNL A   1      48.755  32.200  28.674  1.00  0.00     0.031 C 
ATOM     63  C   UNL A   1      47.956  26.249  27.978  1.00  0.00     0.029 A 
ATOM     64  C   UNL A   1      47.757  27.601  28.183  1.00  0.00     0.049 A 
ATOM     65  H   UNL A   1      45.974  28.638  28.641  1.00  0.00     0.167 HD
ATOM     66  C   UNL A   1      48.399  29.965  28.361  1.00  0.00     0.074 A 
ATOM     67  C   UNL A   1      49.349  31.054  28.371  1.00  0.00     0.031 C 
ATOM     68  C   UNL A   1      48.725  28.666  28.153  1.00  0.00     0.034 A 
BRANCH  55  69
ATOM     69  C   UNL A   1      43.886  24.885  28.677  1.00  0.00     0.023 A 
ATOM     70  C   UNL A   1      43.885  24.140  29.875  1.00  0.00     0.012 A 
ATOM     71  C   UNL A   1      43.323  24.291  27.519  1.00  0.00     0.148 A 
ATOM     72  C   UNL A   1      43.397  22.828  29.909  1.00  0.00     0.002 A 
ATOM     73  C   UNL A   1      42.798  22.999  27.571  1.00  0.00     0.091 A 
ATOM     74  F   UNL A   1      43.289  25.009  26.387  1.00  0.00    -0.205 F 
ATOM     75  C   UNL A   1      42.852  22.261  28.761  1.00  0.00     0.022 A 
BRANCH  73  76
ATOM     76  S   UNL A   1      41.992  22.204  26.170  1.00  0.00     0.127 S 
ATOM     77  O   UNL A   1      42.146  20.790  26.506  1.00  0.00    -0.237 OA
ATOM     78  O   UNL A   1      40.621  22.705  26.275  1.00  0.00    -0.237 OA
ATOM     79  O   UNL A   1      42.713  22.645  24.984  1.00  0.00    -0.744 OA
ENDBRANCH  73  76
ENDBRANCH  55  69
BRANCH  56  80
ATOM     80  C   UNL A   1      46.809  34.306  29.122  1.00  0.00     0.023 A 
ATOM     81  C   UNL A   1      47.161  34.802  30.391  1.00  0.00     0.012 A 
ATOM     82  C   UNL A   1      46.932  35.140  27.995  1.00  0.00     0.148 A 
ATOM     83  C   UNL A   1      47.600  36.118  30.538  1.00  0.00     0.002 A 
ATOM     84  C   UNL A   1      47.440  36.422  28.137  1.00  0.00     0.091 A 
ATOM     85  F   UNL A   1      46.582  34.646  26.799  1.00  0.00    -0.205 F 
ATOM     86  C   UNL A   1      47.754  36.921  29.411  1.00  0.00     0.022 A 
BRANCH  84  87
ATOM     87  S   UNL A   1      47.813  37.470  26.730  1.00  0.00     0.127 S 
ATOM     88  O   UNL A   1      48.774  36.653  25.994  1.00  0.00    -0.237 OA
ATOM     89  O   UNL A   1      46.499  37.600  26.100  1.00  0.00    -0.237 OA
ATOM     90  O   UNL A   1      48.337  38.711  27.285  1.00  0.00    -0.744 OA
ENDBRANCH  84  87
ENDBRANCH  56  80
BRANCH  68  91
ATOM     91  C   UNL A   1      50.167  28.334  27.845  1.00  0.00     0.023 A 
ATOM     92  C   UNL A   1      50.642  28.343  26.518  1.00  0.00     0.012 A 
ATOM     93  C   UNL A   1      51.068  28.037  28.890  1.00  0.00     0.148 A 
ATOM     94  C   UNL A   1      51.969  28.015  26.232  1.00  0.00     0.002 A 
ATOM     95  C   UNL A   1      52.402  27.766  28.603  1.00  0.00     0.091 A 
ATOM     96  F   UNL A   1      50.603  28.016  30.147  1.00  0.00    -0.205 F 
ATOM     97  C   UNL A   1      52.851  27.736  27.274  1.00  0.00     0.022 A 
BRANCH  95  98
ATOM     98  S   UNL A   1      53.630  27.477  29.882  1.00  0.00     0.127 S 
ATOM     99  O   UNL A   1      54.878  27.733  29.163  1.00  0.00    -0.237 OA
ATOM    100  O   UNL A   1      53.281  28.491  30.878  1.00  0.00    -0.237 OA
ATOM    101  O   UNL A   1      53.442  26.101  30.323  1.00  0.00    -0.744 OA
ENDBRANCH  95  98
ENDBRANCH  68  91
ENDBRANCH  42  43
ENDBRANCH  35  37
ENDBRANCH  34  35
ENDBRANCH  33  34
ENDBRANCH  32  33
ENDBRANCH  31  32
ENDBRANCH  30  31
ENDBRANCH   1  30
TORSDOF 25
ENDMDL
MODEL 3
REMARK VINA RESULT:     -10.8      9.157     15.973
REMARK SMILES N#C/C(=C/c1cccc(OCC(=O)OCCOCCOCCOC(=O)c2ccc(-c3c4nc(c(-c5cccc(S(=O)(=O)[O-])c5F)c5ccc([nH]5)c(-c5cccc(S(=O)(=O)[O-])c5F)c5nc(c(-c6cccc(S(=O)(=O)[O-])c6F)c6ccc3[nH]6)C=C5)C=C4)cc2)c1)c1nc2ccccc2[nH]1
REMARK SMILES IDX 18 1 17 2 16 3 15 4 14 5 12 6 13 7 11 8 10 9 9 10 5 11 6 12
REMARK SMILES IDX 89 13 7 14 8 15 4 16 3 17 2 18 1 19 90 20 91 21 98 22 92 23
REMARK SMILES IDX 97 24 93 26 96 27 94 28 95 29 19 30 20 31 21 32 22 33 23 34
REMARK SMILES IDX 24 35 25 36 26 37 27 38 88 39 28 40 87 41 29 42 30 43 31 44
REMARK SMILES IDX 81 45 32 46 86 47 80 48 82 49 33 50 85 51 79 52 78 53 34 55
REMARK SMILES IDX 66 56 46 57 65 58 47 59 50 60 64 61 83 62 48 63 49 64 63 66
REMARK SMILES IDX 84 67 51 68 35 69 36 70 44 71 37 72 39 73 45 74 38 75 40 76
REMARK SMILES IDX 41 77 42 78 43 79 67 80 68 81 76 82 69 83 71 84 77 85 70 86
REMARK SMILES IDX 72 87 73 88 74 89 75 90 52 91 53 92 61 93 54 94 56 95 62 96
REMARK SMILES IDX 55 97 57 98 58 99 59 100 60 101
REMARK H PARENT 98 25 82 54 50 65
REMARK Flexibility Score: inf
ROOT
ATOM      1  C   UNL A   1      37.195  32.670  34.932  1.00  0.00     0.188 C 
ENDROOT
BRANCH   1   2
ATOM      2  O   UNL A   1      37.720  32.253  36.907  1.00  0.00    -0.376 OA
BRANCH   2   3
ATOM      3  C   UNL A   1      37.068  32.907  38.229  1.00  0.00     0.202 C 
BRANCH   3   4
ATOM      4  C   UNL A   1      36.371  31.643  39.224  1.00  0.00     0.261 C 
BRANCH   4   5
ATOM      5  O   UNL A   1      35.087  32.250  40.689  1.00  0.00    -0.461 OA
BRANCH   5   6
ATOM      6  C   UNL A   1      34.598  32.942  41.975  1.00  0.00     0.344 C 
ATOM      7  O   UNL A   1      34.018  34.041  41.937  1.00  0.00    -0.248 OA
BRANCH   6   8
ATOM      8  C   UNL A   1      34.452  32.075  43.587  1.00  0.00     0.351 C 
BRANCH   8   9
ATOM      9  O   UNL A   1      34.079  32.311  44.995  1.00  0.00    -0.482 OA
BRANCH   9  10
ATOM     10  C   UNL A   1      34.823  32.579  46.174  1.00  0.00     0.120 A 
ATOM     11  C   UNL A   1      35.458  34.402  47.825  1.00  0.00    -0.021 A 
ATOM     12  C   UNL A   1      35.065  33.602  48.891  1.00  0.00     0.008 A 
ATOM     13  C   UNL A   1      35.661  33.672  46.513  1.00  0.00     0.054 A 
ATOM     14  C   UNL A   1      34.616  32.293  48.610  1.00  0.00     0.004 A 
ATOM     15  C   UNL A   1      34.419  31.827  47.279  1.00  0.00     0.046 A 
BRANCH  11  16
ATOM     16  C   UNL A   1      34.988  36.226  47.931  1.00  0.00     0.031 C 
ATOM     17  C   UNL A   1      34.181  37.536  46.834  1.00  0.00     0.095 C 
BRANCH  17  18
ATOM     18  C   UNL A   1      34.421  38.985  47.223  1.00  0.00     0.103 C 
ATOM     19  N   UNL A   1      34.620  40.188  47.545  1.00  0.00    -0.192 NA
ENDBRANCH  17  18
BRANCH  17  20
ATOM     20  C   UNL A   1      33.057  37.445  45.482  1.00  0.00     0.149 A 
ATOM     21  N   UNL A   1      31.439  38.022  45.409  1.00  0.00    -0.228 NA
ATOM     22  N   UNL A   1      33.112  35.885  44.500  1.00  0.00    -0.337 N 
ATOM     23  C   UNL A   1      30.210  36.759  44.596  1.00  0.00     0.089 A 
ATOM     24  C   UNL A   1      31.425  35.355  43.994  1.00  0.00     0.066 A 
ATOM     25  H   UNL A   1      33.938  35.398  44.277  1.00  0.00     0.168 HD
ATOM     26  C   UNL A   1      28.456  36.471  44.502  1.00  0.00     0.030 A 
ATOM     27  C   UNL A   1      30.727  33.938  43.190  1.00  0.00     0.028 A 
ATOM     28  C   UNL A   1      27.853  35.007  43.720  1.00  0.00     0.002 A 
ATOM     29  C   UNL A   1      28.946  33.813  43.041  1.00  0.00     0.002 A 
ENDBRANCH  17  20
ENDBRANCH  11  16
ENDBRANCH   9  10
ENDBRANCH   8   9
ENDBRANCH   6   8
ENDBRANCH   5   6
ENDBRANCH   4   5
ENDBRANCH   3   4
ENDBRANCH   2   3
ENDBRANCH   1   2
BRANCH   1  30
ATOM     30  C   UNL A   1      36.161  34.207  34.544  1.00  0.00     0.188 C 
BRANCH  30  31
ATOM     31  O   UNL A   1      34.915  34.450  33.841  1.00  0.00    -0.376 OA
BRANCH  31  32
ATOM     32  C   UNL A   1      34.450  33.894  32.614  1.00  0.00     0.202 C 
BRANCH  32  33
ATOM     33  C   UNL A   1      34.301  34.726  31.328  1.00  0.00     0.261 C 
BRANCH  33  34
ATOM     34  O   UNL A   1      33.875  33.994  30.201  1.00  0.00    -0.460 OA
BRANCH  34  35
ATOM     35  C   UNL A   1      34.595  34.319  29.110  1.00  0.00     0.338 C 
ATOM     36  O   UNL A   1      34.413  35.271  28.378  1.00  0.00    -0.246 OA
BRANCH  35  37
ATOM     37  C   UNL A   1      35.523  33.187  28.953  1.00  0.00     0.060 A 
ATOM     38  C   UNL A   1      35.357  31.271  28.882  1.00  0.00     0.016 A 
ATOM     39  C   UNL A   1      37.202  33.898  29.184  1.00  0.00     0.016 A 
ATOM     40  C   UNL A   1      36.914  30.191  29.110  1.00  0.00     0.010 A 
ATOM     41  C   UNL A   1      38.651  32.848  29.477  1.00  0.00     0.010 A 
ATOM     42  C   UNL A   1      38.544  31.007  29.504  1.00  0.00    -0.014 A 
BRANCH  42  43
ATOM     43  C   UNL A   1      39.784  30.313  30.144  1.00  0.00     0.031 A 
ATOM     44  C   UNL A   1      40.560  30.797  31.425  1.00  0.00     0.074 A 
ATOM     45  C   UNL A   1      40.311  29.230  29.541  1.00  0.00     0.049 A 
ATOM     46  N   UNL A   1      41.685  30.331  31.955  1.00  0.00    -0.248 NA
ATOM     47  C   UNL A   1      40.018  31.916  32.212  1.00  0.00     0.031 C 
ATOM     48  C   UNL A   1      39.792  28.635  28.319  1.00  0.00     0.029 A 
ATOM     49  N   UNL A   1      41.415  28.460  29.848  1.00  0.00    -0.354 N 
ATOM     50  C   UNL A   1      42.002  31.129  33.071  1.00  0.00     0.074 A 
ATOM     51  C   UNL A   1      40.945  32.115  33.144  1.00  0.00     0.031 C 
ATOM     52  C   UNL A   1      40.549  27.581  27.989  1.00  0.00     0.029 A 
ATOM     53  C   UNL A   1      41.672  27.479  28.918  1.00  0.00     0.049 A 
ATOM     54  H   UNL A   1      41.964  28.599  30.653  1.00  0.00     0.167 HD
ATOM     55  C   UNL A   1      43.037  31.067  33.966  1.00  0.00     0.034 A 
ATOM     56  C   UNL A   1      42.701  26.620  28.761  1.00  0.00     0.034 A 
ATOM     57  C   UNL A   1      44.083  30.063  33.970  1.00  0.00     0.049 A 
ATOM     58  C   UNL A   1      43.852  26.585  29.727  1.00  0.00     0.074 A 
ATOM     59  C   UNL A   1      45.106  29.882  34.894  1.00  0.00     0.029 A 
ATOM     60  N   UNL A   1      44.266  29.091  33.002  1.00  0.00    -0.354 N 
ATOM     61  N   UNL A   1      44.050  27.295  30.807  1.00  0.00    -0.248 NA
ATOM     62  C   UNL A   1      44.913  25.600  29.458  1.00  0.00     0.031 C 
ATOM     63  C   UNL A   1      45.945  28.856  34.445  1.00  0.00     0.029 A 
ATOM     64  C   UNL A   1      45.398  28.337  33.286  1.00  0.00     0.049 A 
ATOM     65  H   UNL A   1      43.678  28.953  32.225  1.00  0.00     0.167 HD
ATOM     66  C   UNL A   1      45.233  26.816  31.365  1.00  0.00     0.074 A 
ATOM     67  C   UNL A   1      45.696  25.741  30.517  1.00  0.00     0.031 C 
ATOM     68  C   UNL A   1      45.871  27.240  32.483  1.00  0.00     0.034 A 
BRANCH  55  69
ATOM     69  C   UNL A   1      43.134  32.112  35.083  1.00  0.00     0.023 A 
ATOM     70  C   UNL A   1      43.652  33.397  34.816  1.00  0.00     0.012 A 
ATOM     71  C   UNL A   1      42.576  31.867  36.363  1.00  0.00     0.148 A 
ATOM     72  C   UNL A   1      43.671  34.388  35.806  1.00  0.00     0.002 A 
ATOM     73  C   UNL A   1      42.558  32.874  37.331  1.00  0.00     0.091 A 
ATOM     74  F   UNL A   1      42.049  30.659  36.609  1.00  0.00    -0.205 F 
ATOM     75  C   UNL A   1      43.122  34.127  37.058  1.00  0.00     0.022 A 
BRANCH  73  76
ATOM     76  S   UNL A   1      41.795  32.672  38.950  1.00  0.00     0.127 S 
ATOM     77  O   UNL A   1      40.421  32.332  38.587  1.00  0.00    -0.237 OA
ATOM     78  O   UNL A   1      42.563  31.564  39.519  1.00  0.00    -0.237 OA
ATOM     79  O   UNL A   1      41.961  33.945  39.636  1.00  0.00    -0.744 OA
ENDBRANCH  73  76
ENDBRANCH  55  69
BRANCH  56  80
ATOM     80  C   UNL A   1      42.691  25.694  27.592  1.00  0.00     0.023 A 
ATOM     81  C   UNL A   1      43.322  26.074  26.393  1.00  0.00     0.012 A 
ATOM     82  C   UNL A   1      42.081  24.428  27.682  1.00  0.00     0.148 A 
ATOM     83  C   UNL A   1      43.319  25.218  25.291  1.00  0.00     0.002 A 
ATOM     84  C   UNL A   1      42.147  23.553  26.609  1.00  0.00     0.091 A 
ATOM     85  F   UNL A   1      41.480  24.094  28.833  1.00  0.00    -0.205 F 
ATOM     86  C   UNL A   1      42.745  23.954  25.405  1.00  0.00     0.022 A 
BRANCH  84  87
ATOM     87  S   UNL A   1      41.572  21.857  26.715  1.00  0.00     0.127 S 
ATOM     88  O   UNL A   1      41.967  21.325  25.414  1.00  0.00    -0.237 OA
ATOM     89  O   UNL A   1      42.343  21.353  27.851  1.00  0.00    -0.237 OA
ATOM     90  O   UNL A   1      40.136  21.937  26.953  1.00  0.00    -0.744 OA
ENDBRANCH  84  87
ENDBRANCH  56  80
BRANCH  68  91
ATOM     91  C   UNL A   1      47.117  26.501  32.915  1.00  0.00     0.023 A 
ATOM     92  C   UNL A   1      48.393  26.939  32.509  1.00  0.00     0.012 A 
ATOM     93  C   UNL A   1      47.019  25.373  33.758  1.00  0.00     0.148 A 
ATOM     94  C   UNL A   1      49.543  26.243  32.892  1.00  0.00     0.002 A 
ATOM     95  C   UNL A   1      48.170  24.717  34.180  1.00  0.00     0.091 A 
ATOM     96  F   UNL A   1      45.798  24.955  34.125  1.00  0.00    -0.205 F 
ATOM     97  C   UNL A   1      49.432  25.139  33.734  1.00  0.00     0.022 A 
BRANCH  95  98
ATOM     98  S   UNL A   1      48.134  23.337  35.330  1.00  0.00     0.127 S 
ATOM     99  O   UNL A   1      47.529  23.949  36.513  1.00  0.00    -0.237 OA
ATOM    100  O   UNL A   1      47.275  22.379  34.633  1.00  0.00    -0.237 OA
ATOM    101  O   UNL A   1      49.516  22.908  35.495  1.00  0.00    -0.744 OA
ENDBRANCH  95  98
ENDBRANCH  68  91
ENDBRANCH  42  43
ENDBRANCH  35  37
ENDBRANCH  34  35
ENDBRANCH  33  34
ENDBRANCH  32  33
ENDBRANCH  31  32
ENDBRANCH  30  31
ENDBRANCH   1  30
TORSDOF 25
ENDMDL
