MODEL 1
REMARK VINA RESULT:      -9.4      0.000      0.000
REMARK SMILES [NH3+][C@@H](Cc1cccc(O)c1)C(=O)OCCOCCOCCOC(=O)c1ccc(-c2c3nc(c(-c4cccc(S(=O)(=O)[O-])c4F)c4ccc([nH]4)c(-c4cccc(S(=O)(=O)[O-])c4F)c4nc(c(-c5cccc(S(=O)(=O)[O-])c5F)c5ccc2[nH]5)C=C4)C=C3)cc1
REMARK SMILES IDX 17 1 16 2 15 3 14 4 13 5 11 6 12 7 2 8 1 9 3 13 4 14 5 15
REMARK SMILES IDX 10 16 6 17 8 18 7 19 9 20 18 22 19 23 20 24 21 25 22 26
REMARK SMILES IDX 23 27 24 28 25 29 26 30 87 31 27 32 86 33 28 34 29 35 30 36
REMARK SMILES IDX 80 37 31 38 85 39 79 40 81 41 32 42 84 43 78 44 77 45 33 47
REMARK SMILES IDX 65 48 45 49 64 50 46 51 49 52 63 53 82 54 47 55 48 56 62 58
REMARK SMILES IDX 83 59 50 60 34 61 35 62 43 63 36 64 38 65 44 66 37 67 39 68
REMARK SMILES IDX 40 69 41 70 42 71 66 72 67 73 75 74 68 75 70 76 76 77 69 78
REMARK SMILES IDX 71 79 72 80 73 81 74 82 51 83 52 84 60 85 53 86 55 87 61 88
REMARK SMILES IDX 54 89 56 90 57 91 58 92 59 93
REMARK H PARENT 1 10 1 11 1 12 9 21 81 46 49 57
REMARK Flexibility Score: inf
ROOT
ATOM      1  C   UNL A   1      36.030  23.567  24.457  1.00  0.00     0.188 C 
ENDROOT
BRANCH   1   2
ATOM      2  O   UNL A   1      34.856  23.707  25.251  1.00  0.00    -0.376 OA
BRANCH   2   3
ATOM      3  C   UNL A   1      33.952  24.762  24.949  1.00  0.00     0.202 C 
BRANCH   3   4
ATOM      4  C   UNL A   1      33.718  25.167  23.483  1.00  0.00     0.261 C 
BRANCH   4   5
ATOM      5  O   UNL A   1      33.715  26.584  23.219  1.00  0.00    -0.459 OA
BRANCH   5   6
ATOM      6  C   UNL A   1      32.561  27.101  22.703  1.00  0.00     0.365 C 
ATOM      7  O   UNL A   1      31.827  26.506  21.919  1.00  0.00    -0.245 OA
BRANCH   6   8
ATOM      8  C   UNL A   1      32.290  28.562  23.118  1.00  0.00     0.296 C 
BRANCH   8   9
ATOM      9  N   UNL A   1      31.936  29.464  22.001  1.00  0.00    -0.346 N 
ATOM     10  H   UNL A   1      32.731  30.065  21.782  1.00  0.00     0.345 HD
ATOM     11  H   UNL A   1      31.138  30.041  22.269  1.00  0.00     0.345 HD
ATOM     12  H   UNL A   1      31.693  28.909  21.179  1.00  0.00     0.345 HD
ENDBRANCH   8   9
BRANCH   8  13
ATOM     13  C   UNL A   1      31.233  28.612  24.233  1.00  0.00     0.113 C 
BRANCH  13  14
ATOM     14  C   UNL A   1      29.889  29.151  23.791  1.00  0.00    -0.038 A 
ATOM     15  C   UNL A   1      28.938  28.273  23.253  1.00  0.00     0.004 A 
ATOM     16  C   UNL A   1      29.595  30.521  23.836  1.00  0.00     0.050 A 
ATOM     17  C   UNL A   1      27.730  28.756  22.751  1.00  0.00     0.004 A 
ATOM     18  C   UNL A   1      28.405  30.997  23.296  1.00  0.00     0.115 A 
ATOM     19  C   UNL A   1      27.466  30.126  22.759  1.00  0.00     0.046 A 
BRANCH  18  20
ATOM     20  O   UNL A   1      28.204  32.346  23.294  1.00  0.00    -0.508 OA
ATOM     21  H   UNL A   1      27.692  32.742  22.617  1.00  0.00     0.293 HD
ENDBRANCH  18  20
ENDBRANCH  13  14
ENDBRANCH   8  13
ENDBRANCH   6   8
ENDBRANCH   5   6
ENDBRANCH   4   5
ENDBRANCH   3   4
ENDBRANCH   2   3
ENDBRANCH   1   2
BRANCH   1  22
ATOM     22  C   UNL A   1      36.727  22.194  24.403  1.00  0.00     0.188 C 
BRANCH  22  23
ATOM     23  O   UNL A   1      37.228  21.741  25.638  1.00  0.00    -0.376 OA
BRANCH  23  24
ATOM     24  C   UNL A   1      38.623  21.540  25.748  1.00  0.00     0.202 C 
BRANCH  24  25
ATOM     25  C   UNL A   1      39.266  20.150  25.542  1.00  0.00     0.261 C 
BRANCH  25  26
ATOM     26  O   UNL A   1      40.221  19.691  26.515  1.00  0.00    -0.460 OA
BRANCH  26  27
ATOM     27  C   UNL A   1      41.526  19.698  26.156  1.00  0.00     0.338 C 
ATOM     28  O   UNL A   1      42.115  18.822  25.535  1.00  0.00    -0.246 OA
BRANCH  27  29
ATOM     29  C   UNL A   1      42.085  21.044  26.425  1.00  0.00     0.060 A 
ATOM     30  C   UNL A   1      42.273  21.452  27.755  1.00  0.00     0.016 A 
ATOM     31  C   UNL A   1      42.411  21.906  25.377  1.00  0.00     0.016 A 
ATOM     32  C   UNL A   1      42.753  22.734  28.041  1.00  0.00     0.010 A 
ATOM     33  C   UNL A   1      42.866  23.198  25.666  1.00  0.00     0.010 A 
ATOM     34  C   UNL A   1      43.003  23.633  26.998  1.00  0.00    -0.014 A 
BRANCH  34  35
ATOM     35  C   UNL A   1      43.193  25.078  27.292  1.00  0.00     0.031 A 
ATOM     36  C   UNL A   1      44.561  25.673  27.079  1.00  0.00     0.074 A 
ATOM     37  C   UNL A   1      42.190  25.852  27.744  1.00  0.00     0.049 A 
ATOM     38  N   UNL A   1      44.990  26.883  27.319  1.00  0.00    -0.248 NA
ATOM     39  C   UNL A   1      45.586  24.771  26.524  1.00  0.00     0.031 C 
ATOM     40  C   UNL A   1      40.816  25.411  27.974  1.00  0.00     0.029 A 
ATOM     41  N   UNL A   1      42.188  27.175  28.118  1.00  0.00    -0.354 N 
ATOM     42  C   UNL A   1      46.339  26.881  26.984  1.00  0.00     0.074 A 
ATOM     43  C   UNL A   1      46.660  25.545  26.532  1.00  0.00     0.031 C 
ATOM     44  C   UNL A   1      40.109  26.440  28.479  1.00  0.00     0.029 A 
ATOM     45  C   UNL A   1      40.986  27.600  28.634  1.00  0.00     0.049 A 
ATOM     46  H   UNL A   1      42.972  27.762  28.026  1.00  0.00     0.167 HD
ATOM     47  C   UNL A   1      47.232  27.899  27.034  1.00  0.00     0.034 A 
ATOM     48  C   UNL A   1      40.642  28.780  29.189  1.00  0.00     0.034 A 
ATOM     49  C   UNL A   1      46.912  29.230  27.471  1.00  0.00     0.049 A 
ATOM     50  C   UNL A   1      41.665  29.888  29.272  1.00  0.00     0.074 A 
ATOM     51  C   UNL A   1      47.736  30.341  27.515  1.00  0.00     0.029 A 
ATOM     52  N   UNL A   1      45.677  29.630  27.956  1.00  0.00    -0.354 N 
ATOM     53  N   UNL A   1      42.906  29.903  28.850  1.00  0.00    -0.248 NA
ATOM     54  C   UNL A   1      41.226  31.154  29.878  1.00  0.00     0.031 C 
ATOM     55  C   UNL A   1      47.010  31.402  28.067  1.00  0.00     0.029 A 
ATOM     56  C   UNL A   1      45.720  30.966  28.318  1.00  0.00     0.049 A 
ATOM     57  H   UNL A   1      44.886  29.049  28.032  1.00  0.00     0.167 HD
ATOM     58  C   UNL A   1      43.380  31.189  29.097  1.00  0.00     0.074 A 
ATOM     59  C   UNL A   1      42.286  31.928  29.691  1.00  0.00     0.031 C 
ATOM     60  C   UNL A   1      44.610  31.709  28.860  1.00  0.00     0.034 A 
BRANCH  47  61
ATOM     61  C   UNL A   1      48.645  27.607  26.602  1.00  0.00     0.023 A 
ATOM     62  C   UNL A   1      49.592  27.154  27.545  1.00  0.00     0.012 A 
ATOM     63  C   UNL A   1      49.027  27.745  25.253  1.00  0.00     0.148 A 
ATOM     64  C   UNL A   1      50.904  26.881  27.160  1.00  0.00     0.002 A 
ATOM     65  C   UNL A   1      50.323  27.423  24.868  1.00  0.00     0.091 A 
ATOM     66  F   UNL A   1      48.121  28.197  24.375  1.00  0.00    -0.205 F 
ATOM     67  C   UNL A   1      51.266  27.006  25.821  1.00  0.00     0.022 A 
BRANCH  65  68
ATOM     68  S   UNL A   1      50.864  27.469  23.156  1.00  0.00     0.127 S 
ATOM     69  O   UNL A   1      51.036  28.905  22.940  1.00  0.00    -0.237 OA
ATOM     70  O   UNL A   1      52.112  26.707  23.208  1.00  0.00    -0.237 OA
ATOM     71  O   UNL A   1      49.802  26.844  22.381  1.00  0.00    -0.744 OA
ENDBRANCH  65  68
ENDBRANCH  47  61
BRANCH  48  72
ATOM     72  C   UNL A   1      39.255  29.000  29.690  1.00  0.00     0.023 A 
ATOM     73  C   UNL A   1      38.916  28.595  30.997  1.00  0.00     0.012 A 
ATOM     74  C   UNL A   1      38.269  29.597  28.881  1.00  0.00     0.148 A 
ATOM     75  C   UNL A   1      37.613  28.747  31.476  1.00  0.00     0.002 A 
ATOM     76  C   UNL A   1      36.987  29.797  29.384  1.00  0.00     0.091 A 
ATOM     77  F   UNL A   1      38.604  29.960  27.635  1.00  0.00    -0.205 F 
ATOM     78  C   UNL A   1      36.652  29.355  30.673  1.00  0.00     0.022 A 
BRANCH  76  79
ATOM     79  S   UNL A   1      35.714  30.672  28.468  1.00  0.00     0.127 S 
ATOM     80  O   UNL A   1      34.971  31.327  29.542  1.00  0.00    -0.237 OA
ATOM     81  O   UNL A   1      36.511  31.571  27.633  1.00  0.00    -0.237 OA
ATOM     82  O   UNL A   1      34.984  29.651  27.730  1.00  0.00    -0.744 OA
ENDBRANCH  76  79
ENDBRANCH  48  72
BRANCH  60  83
ATOM     83  C   UNL A   1      44.836  33.165  29.184  1.00  0.00     0.023 A 
ATOM     84  C   UNL A   1      45.363  33.543  30.435  1.00  0.00     0.012 A 
ATOM     85  C   UNL A   1      44.585  34.159  28.215  1.00  0.00     0.148 A 
ATOM     86  C   UNL A   1      45.597  34.886  30.731  1.00  0.00     0.002 A 
ATOM     87  C   UNL A   1      44.872  35.490  28.497  1.00  0.00     0.091 A 
ATOM     88  F   UNL A   1      44.070  33.785  27.034  1.00  0.00    -0.205 F 
ATOM     89  C   UNL A   1      45.362  35.857  29.760  1.00  0.00     0.022 A 
BRANCH  87  90
ATOM     90  S   UNL A   1      44.698  36.794  27.273  1.00  0.00     0.127 S 
ATOM     91  O   UNL A   1      43.346  36.551  26.770  1.00  0.00    -0.237 OA
ATOM     92  O   UNL A   1      44.839  38.002  28.087  1.00  0.00    -0.237 OA
ATOM     93  O   UNL A   1      45.768  36.587  26.308  1.00  0.00    -0.744 OA
ENDBRANCH  87  90
ENDBRANCH  60  83
ENDBRANCH  34  35
ENDBRANCH  27  29
ENDBRANCH  26  27
ENDBRANCH  25  26
ENDBRANCH  24  25
ENDBRANCH  23  24
ENDBRANCH  22  23
ENDBRANCH   1  22
TORSDOF 24
ENDMDL
MODEL 2
REMARK VINA RESULT:      -9.3      2.852      4.152
REMARK SMILES [NH3+][C@@H](Cc1cccc(O)c1)C(=O)OCCOCCOCCOC(=O)c1ccc(-c2c3nc(c(-c4cccc(S(=O)(=O)[O-])c4F)c4ccc([nH]4)c(-c4cccc(S(=O)(=O)[O-])c4F)c4nc(c(-c5cccc(S(=O)(=O)[O-])c5F)c5ccc2[nH]5)C=C4)C=C3)cc1
REMARK SMILES IDX 17 1 16 2 15 3 14 4 13 5 11 6 12 7 2 8 1 9 3 13 4 14 5 15
REMARK SMILES IDX 10 16 6 17 8 18 7 19 9 20 18 22 19 23 20 24 21 25 22 26
REMARK SMILES IDX 23 27 24 28 25 29 26 30 87 31 27 32 86 33 28 34 29 35 30 36
REMARK SMILES IDX 80 37 31 38 85 39 79 40 81 41 32 42 84 43 78 44 77 45 33 47
REMARK SMILES IDX 65 48 45 49 64 50 46 51 49 52 63 53 82 54 47 55 48 56 62 58
REMARK SMILES IDX 83 59 50 60 34 61 35 62 43 63 36 64 38 65 44 66 37 67 39 68
REMARK SMILES IDX 40 69 41 70 42 71 66 72 67 73 75 74 68 75 70 76 76 77 69 78
REMARK SMILES IDX 71 79 72 80 73 81 74 82 51 83 52 84 60 85 53 86 55 87 61 88
REMARK SMILES IDX 54 89 56 90 57 91 58 92 59 93
REMARK H PARENT 1 10 1 11 1 12 9 21 81 46 49 57
REMARK Flexibility Score: inf
ROOT
ATOM      1  C   UNL A   1      35.000  23.040  26.940  1.00  0.00     0.188 C 
ENDROOT
BRANCH   1   2
ATOM      2  O   UNL A   1      34.284  21.965  27.542  1.00  0.00    -0.376 OA
BRANCH   2   3
ATOM      3  C   UNL A   1      32.940  22.188  27.950  1.00  0.00     0.202 C 
BRANCH   3   4
ATOM      4  C   UNL A   1      32.180  23.420  27.427  1.00  0.00     0.261 C 
BRANCH   4   5
ATOM      5  O   UNL A   1      31.162  23.154  26.444  1.00  0.00    -0.459 OA
BRANCH   5   6
ATOM      6  C   UNL A   1      31.294  23.798  25.247  1.00  0.00     0.365 C 
ATOM      7  O   UNL A   1      31.336  25.018  25.118  1.00  0.00    -0.245 OA
BRANCH   6   8
ATOM      8  C   UNL A   1      31.294  22.854  24.026  1.00  0.00     0.296 C 
BRANCH   8   9
ATOM      9  N   UNL A   1      30.846  23.480  22.763  1.00  0.00    -0.346 N 
ATOM     10  H   UNL A   1      31.655  23.669  22.171  1.00  0.00     0.345 HD
ATOM     11  H   UNL A   1      30.365  24.356  22.969  1.00  0.00     0.345 HD
ATOM     12  H   UNL A   1      30.209  22.848  22.277  1.00  0.00     0.345 HD
ENDBRANCH   8   9
BRANCH   8  13
ATOM     13  C   UNL A   1      32.672  22.192  23.863  1.00  0.00     0.113 C 
BRANCH  13  14
ATOM     14  C   UNL A   1      32.651  20.681  23.964  1.00  0.00    -0.038 A 
ATOM     15  C   UNL A   1      32.350  19.919  22.828  1.00  0.00     0.004 A 
ATOM     16  C   UNL A   1      32.854  20.023  25.186  1.00  0.00     0.050 A 
ATOM     17  C   UNL A   1      32.230  18.532  22.915  1.00  0.00     0.004 A 
ATOM     18  C   UNL A   1      32.692  18.645  25.271  1.00  0.00     0.115 A 
ATOM     19  C   UNL A   1      32.389  17.891  24.144  1.00  0.00     0.046 A 
BRANCH  18  20
ATOM     20  O   UNL A   1      32.823  18.065  26.498  1.00  0.00    -0.508 OA
ATOM     21  H   UNL A   1      33.651  18.077  26.936  1.00  0.00     0.293 HD
ENDBRANCH  18  20
ENDBRANCH  13  14
ENDBRANCH   8  13
ENDBRANCH   6   8
ENDBRANCH   5   6
ENDBRANCH   4   5
ENDBRANCH   3   4
ENDBRANCH   2   3
ENDBRANCH   1   2
BRANCH   1  22
ATOM     22  C   UNL A   1      35.845  22.752  25.685  1.00  0.00     0.188 C 
BRANCH  22  23
ATOM     23  O   UNL A   1      37.174  22.367  25.947  1.00  0.00    -0.376 OA
BRANCH  23  24
ATOM     24  C   UNL A   1      37.831  21.572  24.979  1.00  0.00     0.202 C 
BRANCH  24  25
ATOM     25  C   UNL A   1      38.507  20.232  25.347  1.00  0.00     0.261 C 
BRANCH  25  26
ATOM     26  O   UNL A   1      39.336  20.187  26.521  1.00  0.00    -0.460 OA
BRANCH  26  27
ATOM     27  C   UNL A   1      40.671  20.064  26.335  1.00  0.00     0.338 C 
ATOM     28  O   UNL A   1      41.248  19.124  25.803  1.00  0.00    -0.246 OA
BRANCH  27  29
ATOM     29  C   UNL A   1      41.318  21.357  26.664  1.00  0.00     0.060 A 
ATOM     30  C   UNL A   1      41.350  21.784  28.001  1.00  0.00     0.016 A 
ATOM     31  C   UNL A   1      41.877  22.152  25.663  1.00  0.00     0.016 A 
ATOM     32  C   UNL A   1      41.908  23.021  28.336  1.00  0.00     0.010 A 
ATOM     33  C   UNL A   1      42.413  23.402  25.997  1.00  0.00     0.010 A 
ATOM     34  C   UNL A   1      42.397  23.861  27.328  1.00  0.00    -0.014 A 
BRANCH  34  35
ATOM     35  C   UNL A   1      42.686  25.288  27.626  1.00  0.00     0.031 A 
ATOM     36  C   UNL A   1      44.101  25.777  27.457  1.00  0.00     0.074 A 
ATOM     37  C   UNL A   1      41.730  26.137  28.044  1.00  0.00     0.049 A 
ATOM     38  N   UNL A   1      44.613  26.952  27.708  1.00  0.00    -0.248 NA
ATOM     39  C   UNL A   1      45.072  24.798  26.937  1.00  0.00     0.031 C 
ATOM     40  C   UNL A   1      40.321  25.803  28.230  1.00  0.00     0.029 A 
ATOM     41  N   UNL A   1      41.817  27.458  28.415  1.00  0.00    -0.354 N 
ATOM     42  C   UNL A   1      45.968  26.847  27.417  1.00  0.00     0.074 A 
ATOM     43  C   UNL A   1      46.201  25.488  26.978  1.00  0.00     0.031 C 
ATOM     44  C   UNL A   1      39.677  26.884  28.709  1.00  0.00     0.029 A 
ATOM     45  C   UNL A   1      40.633  27.975  28.891  1.00  0.00     0.049 A 
ATOM     46  H   UNL A   1      42.645  27.984  28.347  1.00  0.00     0.167 HD
ATOM     47  C   UNL A   1      46.933  27.795  27.495  1.00  0.00     0.034 A 
ATOM     48  C   UNL A   1      40.363  29.180  29.433  1.00  0.00     0.034 A 
ATOM     49  C   UNL A   1      46.701  29.148  27.919  1.00  0.00     0.049 A 
ATOM     50  C   UNL A   1      41.463  30.207  29.547  1.00  0.00     0.074 A 
ATOM     51  C   UNL A   1      47.605  30.193  27.988  1.00  0.00     0.029 A 
ATOM     52  N   UNL A   1      45.484  29.642  28.363  1.00  0.00    -0.354 N 
ATOM     53  N   UNL A   1      42.715  30.128  29.166  1.00  0.00    -0.248 NA
ATOM     54  C   UNL A   1      41.101  31.506  30.136  1.00  0.00     0.031 C 
ATOM     55  C   UNL A   1      46.943  31.309  28.514  1.00  0.00     0.029 A 
ATOM     56  C   UNL A   1      45.616  30.972  28.724  1.00  0.00     0.049 A 
ATOM     57  H   UNL A   1      44.650  29.123  28.413  1.00  0.00     0.167 HD
ATOM     58  C   UNL A   1      43.277  31.375  29.425  1.00  0.00     0.074 A 
ATOM     59  C   UNL A   1      42.223  32.197  29.982  1.00  0.00     0.031 C 
ATOM     60  C   UNL A   1      44.549  31.799  29.228  1.00  0.00     0.034 A 
BRANCH  47  61
ATOM     61  C   UNL A   1      48.333  27.395  27.110  1.00  0.00     0.023 A 
ATOM     62  C   UNL A   1      48.676  27.252  25.749  1.00  0.00     0.012 A 
ATOM     63  C   UNL A   1      49.321  27.198  28.094  1.00  0.00     0.148 A 
ATOM     64  C   UNL A   1      49.967  26.880  25.376  1.00  0.00     0.002 A 
ATOM     65  C   UNL A   1      50.619  26.878  27.713  1.00  0.00     0.091 A 
ATOM     66  F   UNL A   1      48.973  27.317  29.383  1.00  0.00    -0.205 F 
ATOM     67  C   UNL A   1      50.941  26.703  26.357  1.00  0.00     0.022 A 
BRANCH  65  68
ATOM     68  S   UNL A   1      51.962  26.712  28.894  1.00  0.00     0.127 S 
ATOM     69  O   UNL A   1      53.016  26.132  28.063  1.00  0.00    -0.237 OA
ATOM     70  O   UNL A   1      52.194  28.101  29.292  1.00  0.00    -0.237 OA
ATOM     71  O   UNL A   1      51.460  25.851  29.956  1.00  0.00    -0.744 OA
ENDBRANCH  65  68
ENDBRANCH  47  61
BRANCH  48  72
ATOM     72  C   UNL A   1      38.980  29.506  29.888  1.00  0.00     0.023 A 
ATOM     73  C   UNL A   1      38.566  29.125  31.180  1.00  0.00     0.012 A 
ATOM     74  C   UNL A   1      38.072  30.181  29.049  1.00  0.00     0.148 A 
ATOM     75  C   UNL A   1      37.264  29.377  31.616  1.00  0.00     0.002 A 
ATOM     76  C   UNL A   1      36.794  30.478  29.509  1.00  0.00     0.091 A 
ATOM     77  F   UNL A   1      38.477  30.520  27.817  1.00  0.00    -0.205 F 
ATOM     78  C   UNL A   1      36.382  30.061  30.784  1.00  0.00     0.022 A 
BRANCH  76  79
ATOM     79  S   UNL A   1      35.624  31.453  28.556  1.00  0.00     0.127 S 
ATOM     80  O   UNL A   1      35.260  30.523  27.490  1.00  0.00    -0.237 OA
ATOM     81  O   UNL A   1      34.572  31.704  29.541  1.00  0.00    -0.237 OA
ATOM     82  O   UNL A   1      36.351  32.642  28.132  1.00  0.00    -0.744 OA
ENDBRANCH  76  79
ENDBRANCH  48  72
BRANCH  60  83
ATOM     83  C   UNL A   1      44.874  33.236  29.557  1.00  0.00     0.023 A 
ATOM     84  C   UNL A   1      45.321  33.587  30.845  1.00  0.00     0.012 A 
ATOM     85  C   UNL A   1      44.797  34.231  28.560  1.00  0.00     0.148 A 
ATOM     86  C   UNL A   1      45.646  34.911  31.148  1.00  0.00     0.002 A 
ATOM     87  C   UNL A   1      45.175  35.536  28.853  1.00  0.00     0.091 A 
ATOM     88  F   UNL A   1      44.356  33.883  27.342  1.00  0.00    -0.205 F 
ATOM     89  C   UNL A   1      45.584  35.881  30.151  1.00  0.00     0.022 A 
BRANCH  87  90
ATOM     90  S   UNL A   1      45.224  36.829  27.606  1.00  0.00     0.127 S 
ATOM     91  O   UNL A   1      43.802  37.101  27.404  1.00  0.00    -0.237 OA
ATOM     92  O   UNL A   1      45.957  37.893  28.293  1.00  0.00    -0.237 OA
ATOM     93  O   UNL A   1      45.919  36.258  26.461  1.00  0.00    -0.744 OA
ENDBRANCH  87  90
ENDBRANCH  60  83
ENDBRANCH  34  35
ENDBRANCH  27  29
ENDBRANCH  26  27
ENDBRANCH  25  26
ENDBRANCH  24  25
ENDBRANCH  23  24
ENDBRANCH  22  23
ENDBRANCH   1  22
TORSDOF 24
ENDMDL
MODEL 3
REMARK VINA RESULT:      -9.2      1.445      7.783
REMARK SMILES [NH3+][C@@H](Cc1cccc(O)c1)C(=O)OCCOCCOCCOC(=O)c1ccc(-c2c3nc(c(-c4cccc(S(=O)(=O)[O-])c4F)c4ccc([nH]4)c(-c4cccc(S(=O)(=O)[O-])c4F)c4nc(c(-c5cccc(S(=O)(=O)[O-])c5F)c5ccc2[nH]5)C=C4)C=C3)cc1
REMARK SMILES IDX 17 1 16 2 15 3 14 4 13 5 11 6 12 7 2 8 1 9 3 13 4 14 5 15
REMARK SMILES IDX 10 16 6 17 8 18 7 19 9 20 18 22 19 23 20 24 21 25 22 26
REMARK SMILES IDX 23 27 24 28 25 29 26 30 87 31 27 32 86 33 28 34 29 35 30 36
REMARK SMILES IDX 80 37 31 38 85 39 79 40 81 41 32 42 84 43 78 44 77 45 33 47
REMARK SMILES IDX 65 48 45 49 64 50 46 51 49 52 63 53 82 54 47 55 48 56 62 58
REMARK SMILES IDX 83 59 50 60 34 61 35 62 43 63 36 64 38 65 44 66 37 67 39 68
REMARK SMILES IDX 40 69 41 70 42 71 66 72 67 73 75 74 68 75 70 76 76 77 69 78
REMARK SMILES IDX 71 79 72 80 73 81 74 82 51 83 52 84 60 85 53 86 55 87 61 88
REMARK SMILES IDX 54 89 56 90 57 91 58 92 59 93
REMARK H PARENT 1 10 1 11 1 12 9 21 81 46 49 57
REMARK Flexibility Score: inf
ROOT
ATOM      1  C   UNL A   1      34.590  23.061  26.451  1.00  0.00     0.188 C 
ENDROOT
BRANCH   1   2
ATOM      2  O   UNL A   1      33.480  22.214  26.168  1.00  0.00    -0.376 OA
BRANCH   2   3
ATOM      3  C   UNL A   1      32.459  22.698  25.304  1.00  0.00     0.202 C 
BRANCH   3   4
ATOM      4  C   UNL A   1      32.675  22.671  23.780  1.00  0.00     0.261 C 
BRANCH   4   5
ATOM      5  O   UNL A   1      32.147  23.798  23.055  1.00  0.00    -0.459 OA
BRANCH   5   6
ATOM      6  C   UNL A   1      33.025  24.809  22.786  1.00  0.00     0.365 C 
ATOM      7  O   UNL A   1      34.225  24.647  22.579  1.00  0.00    -0.245 OA
BRANCH   6   8
ATOM      8  C   UNL A   1      32.398  26.217  22.854  1.00  0.00     0.296 C 
BRANCH   8   9
ATOM      9  N   UNL A   1      31.812  26.693  21.583  1.00  0.00    -0.346 N 
ATOM     10  H   UNL A   1      31.142  27.438  21.774  1.00  0.00     0.345 HD
ATOM     11  H   UNL A   1      31.336  25.920  21.117  1.00  0.00     0.345 HD
ATOM     12  H   UNL A   1      32.553  27.049  20.979  1.00  0.00     0.345 HD
ENDBRANCH   8   9
BRANCH   8  13
ATOM     13  C   UNL A   1      31.377  26.291  24.002  1.00  0.00     0.113 C 
BRANCH  13  14
ATOM     14  C   UNL A   1      31.491  27.536  24.856  1.00  0.00    -0.038 A 
ATOM     15  C   UNL A   1      31.076  28.769  24.334  1.00  0.00     0.004 A 
ATOM     16  C   UNL A   1      32.072  27.503  26.132  1.00  0.00     0.050 A 
ATOM     17  C   UNL A   1      31.258  29.945  25.062  1.00  0.00     0.004 A 
ATOM     18  C   UNL A   1      32.286  28.685  26.832  1.00  0.00     0.115 A 
ATOM     19  C   UNL A   1      31.877  29.907  26.311  1.00  0.00     0.046 A 
BRANCH  18  20
ATOM     20  O   UNL A   1      32.926  28.604  28.033  1.00  0.00    -0.508 OA
ATOM     21  H   UNL A   1      32.524  28.957  28.802  1.00  0.00     0.293 HD
ENDBRANCH  18  20
ENDBRANCH  13  14
ENDBRANCH   8  13
ENDBRANCH   6   8
ENDBRANCH   5   6
ENDBRANCH   4   5
ENDBRANCH   3   4
ENDBRANCH   2   3
ENDBRANCH   1   2
BRANCH   1  22
ATOM     22  C   UNL A   1      35.830  22.982  25.540  1.00  0.00     0.188 C 
BRANCH  22  23
ATOM     23  O   UNL A   1      36.236  21.675  25.212  1.00  0.00    -0.376 OA
BRANCH  23  24
ATOM     24  C   UNL A   1      37.596  21.472  24.883  1.00  0.00     0.202 C 
BRANCH  24  25
ATOM     25  C   UNL A   1      38.368  20.214  25.339  1.00  0.00     0.261 C 
BRANCH  25  26
ATOM     26  O   UNL A   1      39.206  20.313  26.504  1.00  0.00    -0.460 OA
BRANCH  26  27
ATOM     27  C   UNL A   1      40.510  19.982  26.361  1.00  0.00     0.338 C 
ATOM     28  O   UNL A   1      40.949  18.933  25.907  1.00  0.00    -0.246 OA
BRANCH  27  29
ATOM     29  C   UNL A   1      41.337  21.185  26.621  1.00  0.00     0.060 A 
ATOM     30  C   UNL A   1      41.745  21.462  27.936  1.00  0.00     0.016 A 
ATOM     31  C   UNL A   1      41.698  22.043  25.582  1.00  0.00     0.016 A 
ATOM     32  C   UNL A   1      42.484  22.614  28.220  1.00  0.00     0.010 A 
ATOM     33  C   UNL A   1      42.416  23.210  25.872  1.00  0.00     0.010 A 
ATOM     34  C   UNL A   1      42.779  23.522  27.196  1.00  0.00    -0.014 A 
BRANCH  34  35
ATOM     35  C   UNL A   1      43.267  24.886  27.531  1.00  0.00     0.031 A 
ATOM     36  C   UNL A   1      42.282  25.874  28.099  1.00  0.00     0.074 A 
ATOM     37  C   UNL A   1      44.546  25.254  27.334  1.00  0.00     0.049 A 
ATOM     38  N   UNL A   1      42.449  27.132  28.412  1.00  0.00    -0.248 NA
ATOM     39  C   UNL A   1      40.919  25.371  28.340  1.00  0.00     0.031 C 
ATOM     40  C   UNL A   1      45.606  24.395  26.811  1.00  0.00     0.029 A 
ATOM     41  N   UNL A   1      45.161  26.469  27.528  1.00  0.00    -0.354 N 
ATOM     42  C   UNL A   1      41.209  27.582  28.848  1.00  0.00     0.074 A 
ATOM     43  C   UNL A   1      40.295  26.464  28.751  1.00  0.00     0.031 C 
ATOM     44  C   UNL A   1      46.735  25.118  26.698  1.00  0.00     0.029 A 
ATOM     45  C   UNL A   1      46.472  26.496  27.111  1.00  0.00     0.049 A 
ATOM     46  H   UNL A   1      44.706  27.245  27.926  1.00  0.00     0.167 HD
ATOM     47  C   UNL A   1      40.858  28.810  29.301  1.00  0.00     0.034 A 
ATOM     48  C   UNL A   1      47.347  27.519  27.049  1.00  0.00     0.034 A 
ATOM     49  C   UNL A   1      41.767  29.918  29.410  1.00  0.00     0.049 A 
ATOM     50  C   UNL A   1      46.923  28.889  27.522  1.00  0.00     0.074 A 
ATOM     51  C   UNL A   1      41.517  31.188  29.899  1.00  0.00     0.029 A 
ATOM     52  N   UNL A   1      43.094  29.898  29.009  1.00  0.00    -0.354 N 
ATOM     53  N   UNL A   1      45.778  29.272  28.034  1.00  0.00    -0.248 NA
ATOM     54  C   UNL A   1      47.927  29.961  27.439  1.00  0.00     0.031 C 
ATOM     55  C   UNL A   1      42.684  31.948  29.755  1.00  0.00     0.029 A 
ATOM     56  C   UNL A   1      43.672  31.137  29.223  1.00  0.00     0.049 A 
ATOM     57  H   UNL A   1      43.555  29.116  28.628  1.00  0.00     0.167 HD
ATOM     58  C   UNL A   1      45.938  30.612  28.375  1.00  0.00     0.074 A 
ATOM     59  C   UNL A   1      47.297  30.971  28.026  1.00  0.00     0.031 C 
ATOM     60  C   UNL A   1      45.041  31.470  28.921  1.00  0.00     0.034 A 
BRANCH  47  61
ATOM     61  C   UNL A   1      39.424  29.016  29.715  1.00  0.00     0.023 A 
ATOM     62  C   UNL A   1      39.010  28.668  31.018  1.00  0.00     0.012 A 
ATOM     63  C   UNL A   1      38.495  29.589  28.826  1.00  0.00     0.148 A 
ATOM     64  C   UNL A   1      37.686  28.851  31.416  1.00  0.00     0.002 A 
ATOM     65  C   UNL A   1      37.189  29.815  29.246  1.00  0.00     0.091 A 
ATOM     66  F   UNL A   1      38.900  29.893  27.585  1.00  0.00    -0.205 F 
ATOM     67  C   UNL A   1      36.779  29.433  30.533  1.00  0.00     0.022 A 
BRANCH  65  68
ATOM     68  S   UNL A   1      35.969  30.636  28.214  1.00  0.00     0.127 S 
ATOM     69  O   UNL A   1      34.942  30.987  29.194  1.00  0.00    -0.237 OA
ATOM     70  O   UNL A   1      36.725  31.773  27.689  1.00  0.00    -0.237 OA
ATOM     71  O   UNL A   1      35.567  29.659  27.212  1.00  0.00    -0.744 OA
ENDBRANCH  65  68
ENDBRANCH  47  61
BRANCH  48  72
ATOM     72  C   UNL A   1      48.734  27.295  26.546  1.00  0.00     0.023 A 
ATOM     73  C   UNL A   1      49.718  26.797  27.423  1.00  0.00     0.012 A 
ATOM     74  C   UNL A   1      49.085  27.579  25.213  1.00  0.00     0.148 A 
ATOM     75  C   UNL A   1      51.034  26.621  26.992  1.00  0.00     0.002 A 
ATOM     76  C   UNL A   1      50.384  27.349  24.774  1.00  0.00     0.091 A 
ATOM     77  F   UNL A   1      48.140  28.069  24.398  1.00  0.00    -0.205 F 
ATOM     78  C   UNL A   1      51.365  26.888  25.667  1.00  0.00     0.022 A 
BRANCH  76  79
ATOM     79  S   UNL A   1      50.878  27.555  23.059  1.00  0.00     0.127 S 
ATOM     80  O   UNL A   1      52.208  26.950  23.057  1.00  0.00    -0.237 OA
ATOM     81  O   UNL A   1      49.850  26.785  22.358  1.00  0.00    -0.237 OA
ATOM     82  O   UNL A   1      50.839  28.988  22.805  1.00  0.00    -0.744 OA
ENDBRANCH  76  79
ENDBRANCH  48  72
BRANCH  60  83
ATOM     83  C   UNL A   1      45.506  32.871  29.237  1.00  0.00     0.023 A 
ATOM     84  C   UNL A   1      46.152  33.147  30.458  1.00  0.00     0.012 A 
ATOM     85  C   UNL A   1      45.358  33.904  28.288  1.00  0.00     0.148 A 
ATOM     86  C   UNL A   1      46.606  34.436  30.746  1.00  0.00     0.002 A 
ATOM     87  C   UNL A   1      45.861  35.171  28.559  1.00  0.00     0.091 A 
ATOM     88  F   UNL A   1      44.728  33.628  27.137  1.00  0.00    -0.205 F 
ATOM     89  C   UNL A   1      46.471  35.443  29.793  1.00  0.00     0.022 A 
BRANCH  87  90
ATOM     90  S   UNL A   1      45.823  36.501  27.351  1.00  0.00     0.127 S 
ATOM     91  O   UNL A   1      44.441  36.434  26.878  1.00  0.00    -0.237 OA
ATOM     92  O   UNL A   1      46.129  37.673  28.173  1.00  0.00    -0.237 OA
ATOM     93  O   UNL A   1      46.839  36.176  26.360  1.00  0.00    -0.744 OA
ENDBRANCH  87  90
ENDBRANCH  60  83
ENDBRANCH  34  35
ENDBRANCH  27  29
ENDBRANCH  26  27
ENDBRANCH  25  26
ENDBRANCH  24  25
ENDBRANCH  23  24
ENDBRANCH  22  23
ENDBRANCH   1  22
TORSDOF 24
ENDMDL
