MODEL 1
REMARK VINA RESULT:      -8.9      0.000      0.000
REMARK SMILES Cc1cc(NC(=O)/C=C/c2ccco2)cc(C(=O)OCCOCCOCCOC(=O)c2ccc(-c3c4nc(c(-c5cccc(S(=O)(=O)[O-])c5F)c5ccc([nH]5)c(-c5cccc(S(=O)(=O)[O-])c5F)c5nc(c(-c6cccc(S(=O)(=O)[O-])c6F)c6ccc3[nH]6)C=C5)C=C4)cc2)c1O
REMARK SMILES IDX 23 1 22 2 21 3 20 4 19 5 17 6 18 7 16 8 1 9 2 10 3 11 94 12
REMARK SMILES IDX 4 13 15 14 95 15 5 17 6 18 7 20 8 21 9 22 10 23 11 24 14 25
REMARK SMILES IDX 12 26 13 27 24 28 25 29 26 30 27 31 28 32 29 33 30 34 31 35
REMARK SMILES IDX 32 36 93 37 33 38 92 39 34 40 35 41 36 42 86 43 37 44 91 45
REMARK SMILES IDX 85 46 87 47 38 48 90 49 84 50 83 51 39 53 71 54 51 55 70 56
REMARK SMILES IDX 52 57 55 58 69 59 88 60 53 61 54 62 68 64 89 65 56 66 40 67
REMARK SMILES IDX 41 68 49 69 42 70 44 71 50 72 43 73 45 74 46 75 47 76 48 77
REMARK SMILES IDX 72 78 73 79 81 80 74 81 76 82 82 83 75 84 77 85 78 86 79 87
REMARK SMILES IDX 80 88 57 89 58 90 66 91 59 92 61 93 67 94 60 95 62 96 63 97
REMARK SMILES IDX 64 98 65 99
REMARK H PARENT 95 16 5 19 87 52 55 63
REMARK Flexibility Score: inf
ROOT
ATOM      1  C   UNL A   1      45.714  20.558  24.635  1.00  0.00     0.188 C 
ENDROOT
BRANCH   1   2
ATOM      2  O   UNL A   1      45.892  21.237  25.874  1.00  0.00    -0.376 OA
BRANCH   2   3
ATOM      3  C   UNL A   1      45.517  22.610  25.943  1.00  0.00     0.202 C 
BRANCH   3   4
ATOM      4  C   UNL A   1      46.651  23.637  25.878  1.00  0.00     0.261 C 
BRANCH   4   5
ATOM      5  O   UNL A   1      47.175  23.910  27.186  1.00  0.00    -0.460 OA
BRANCH   5   6
ATOM      6  C   UNL A   1      48.308  24.656  27.215  1.00  0.00     0.342 C 
ATOM      7  O   UNL A   1      49.083  24.854  26.297  1.00  0.00    -0.246 OA
BRANCH   6   8
ATOM      8  C   UNL A   1      48.433  25.230  28.570  1.00  0.00     0.104 A 
ATOM      9  C   UNL A   1      51.104  26.161  31.139  1.00  0.00     0.048 C 
ATOM     10  C   UNL A   1      49.787  25.960  30.442  1.00  0.00    -0.006 A 
ATOM     11  C   UNL A   1      48.603  26.353  31.095  1.00  0.00     0.033 A 
ATOM     12  C   UNL A   1      49.691  25.438  29.147  1.00  0.00     0.133 A 
ATOM     13  C   UNL A   1      47.340  26.212  30.496  1.00  0.00     0.042 A 
ATOM     14  C   UNL A   1      47.264  25.596  29.251  1.00  0.00     0.045 A 
BRANCH  12  15
ATOM     15  O   UNL A   1      50.801  25.160  28.401  1.00  0.00    -0.507 OA
ATOM     16  H   UNL A   1      51.565  24.807  28.811  1.00  0.00     0.293 HD
ENDBRANCH  12  15
BRANCH  13  17
ATOM     17  N   UNL A   1      46.241  26.717  31.223  1.00  0.00    -0.322 N 
ATOM     18  C   UNL A   1      45.488  26.225  32.251  1.00  0.00     0.248 C 
ATOM     19  H   UNL A   1      45.959  27.613  30.928  1.00  0.00     0.170 HD
ATOM     20  O   UNL A   1      44.622  26.927  32.773  1.00  0.00    -0.270 OA
BRANCH  18  21
ATOM     21  C   UNL A   1      45.702  24.861  32.748  1.00  0.00     0.075 C 
ATOM     22  C   UNL A   1      45.869  24.630  34.058  1.00  0.00     0.053 C 
BRANCH  22  23
ATOM     23  C   UNL A   1      45.918  23.291  34.529  1.00  0.00     0.126 A 
ATOM     24  C   UNL A   1      45.016  22.253  34.332  1.00  0.00     0.050 A 
ATOM     25  O   UNL A   1      46.977  22.785  35.255  1.00  0.00    -0.465 OA
ATOM     26  C   UNL A   1      45.551  21.090  34.937  1.00  0.00     0.042 A 
ATOM     27  C   UNL A   1      46.757  21.466  35.469  1.00  0.00     0.195 A 
ENDBRANCH  22  23
ENDBRANCH  18  21
ENDBRANCH  13  17
ENDBRANCH   6   8
ENDBRANCH   5   6
ENDBRANCH   4   5
ENDBRANCH   3   4
ENDBRANCH   2   3
ENDBRANCH   1   2
BRANCH   1  28
ATOM     28  C   UNL A   1      45.689  19.015  24.650  1.00  0.00     0.188 C 
BRANCH  28  29
ATOM     29  O   UNL A   1      44.386  18.445  24.607  1.00  0.00    -0.376 OA
BRANCH  29  30
ATOM     30  C   UNL A   1      43.659  18.461  25.827  1.00  0.00     0.202 C 
BRANCH  30  31
ATOM     31  C   UNL A   1      42.340  19.236  25.773  1.00  0.00     0.261 C 
BRANCH  31  32
ATOM     32  O   UNL A   1      42.360  20.513  26.430  1.00  0.00    -0.460 OA
BRANCH  32  33
ATOM     33  C   UNL A   1      41.256  20.880  27.120  1.00  0.00     0.338 C 
ATOM     34  O   UNL A   1      40.383  20.150  27.553  1.00  0.00    -0.246 OA
BRANCH  33  35
ATOM     35  C   UNL A   1      41.402  22.315  27.445  1.00  0.00     0.060 A 
ATOM     36  C   UNL A   1      40.769  23.260  26.626  1.00  0.00     0.016 A 
ATOM     37  C   UNL A   1      42.107  22.720  28.581  1.00  0.00     0.016 A 
ATOM     38  C   UNL A   1      40.856  24.619  26.939  1.00  0.00     0.010 A 
ATOM     39  C   UNL A   1      42.206  24.079  28.883  1.00  0.00     0.010 A 
ATOM     40  C   UNL A   1      41.601  25.035  28.050  1.00  0.00    -0.014 A 
BRANCH  40  41
ATOM     41  C   UNL A   1      41.907  26.473  28.247  1.00  0.00     0.031 A 
ATOM     42  C   UNL A   1      43.264  26.972  27.832  1.00  0.00     0.074 A 
ATOM     43  C   UNL A   1      41.019  27.311  28.812  1.00  0.00     0.049 A 
ATOM     44  N   UNL A   1      43.771  28.171  27.930  1.00  0.00    -0.248 NA
ATOM     45  C   UNL A   1      44.172  25.980  27.228  1.00  0.00     0.031 C 
ATOM     46  C   UNL A   1      39.683  26.944  29.278  1.00  0.00     0.029 A 
ATOM     47  N   UNL A   1      41.131  28.644  29.121  1.00  0.00    -0.354 N 
ATOM     48  C   UNL A   1      45.059  28.078  27.416  1.00  0.00     0.074 A 
ATOM     49  C   UNL A   1      45.262  26.703  27.019  1.00  0.00     0.031 C 
ATOM     50  C   UNL A   1      39.110  28.021  29.847  1.00  0.00     0.029 A 
ATOM     51  C   UNL A   1      40.044  29.146  29.800  1.00  0.00     0.049 A 
ATOM     52  H   UNL A   1      41.912  29.190  28.878  1.00  0.00     0.167 HD
ATOM     53  C   UNL A   1      45.986  29.053  27.270  1.00  0.00     0.034 A 
ATOM     54  C   UNL A   1      39.843  30.366  30.340  1.00  0.00     0.034 A 
ATOM     55  C   UNL A   1      45.791  30.419  27.666  1.00  0.00     0.049 A 
ATOM     56  C   UNL A   1      40.905  31.428  30.189  1.00  0.00     0.074 A 
ATOM     57  C   UNL A   1      46.658  31.488  27.526  1.00  0.00     0.029 A 
ATOM     58  N   UNL A   1      44.656  30.904  28.295  1.00  0.00    -0.354 N 
ATOM     59  N   UNL A   1      42.059  31.362  29.569  1.00  0.00    -0.248 NA
ATOM     60  C   UNL A   1      40.620  32.744  30.781  1.00  0.00     0.031 C 
ATOM     61  C   UNL A   1      46.054  32.616  28.089  1.00  0.00     0.029 A 
ATOM     62  C   UNL A   1      44.802  32.255  28.557  1.00  0.00     0.049 A 
ATOM     63  H   UNL A   1      43.862  30.366  28.523  1.00  0.00     0.167 HD
ATOM     64  C   UNL A   1      42.619  32.632  29.666  1.00  0.00     0.074 A 
ATOM     65  C   UNL A   1      41.668  33.455  30.385  1.00  0.00     0.031 C 
ATOM     66  C   UNL A   1      43.819  33.076  29.215  1.00  0.00     0.034 A 
BRANCH  53  67
ATOM     67  C   UNL A   1      47.289  28.678  26.618  1.00  0.00     0.023 A 
ATOM     68  C   UNL A   1      48.473  28.696  27.382  1.00  0.00     0.012 A 
ATOM     69  C   UNL A   1      47.335  28.260  25.275  1.00  0.00     0.148 A 
ATOM     70  C   UNL A   1      49.690  28.328  26.812  1.00  0.00     0.002 A 
ATOM     71  C   UNL A   1      48.546  27.857  24.724  1.00  0.00     0.091 A 
ATOM     72  F   UNL A   1      46.201  28.276  24.560  1.00  0.00    -0.205 F 
ATOM     73  C   UNL A   1      49.724  27.899  25.488  1.00  0.00     0.022 A 
BRANCH  71  74
ATOM     74  S   UNL A   1      48.685  27.223  23.050  1.00  0.00     0.127 S 
ATOM     75  O   UNL A   1      47.833  28.154  22.311  1.00  0.00    -0.237 OA
ATOM     76  O   UNL A   1      50.117  27.367  22.786  1.00  0.00    -0.237 OA
ATOM     77  O   UNL A   1      48.210  25.848  23.100  1.00  0.00    -0.744 OA
ENDBRANCH  71  74
ENDBRANCH  53  67
BRANCH  54  78
ATOM     78  C   UNL A   1      38.569  30.672  31.054  1.00  0.00     0.023 A 
ATOM     79  C   UNL A   1      38.385  30.215  32.373  1.00  0.00     0.012 A 
ATOM     80  C   UNL A   1      37.536  31.397  30.429  1.00  0.00     0.148 A 
ATOM     81  C   UNL A   1      37.184  30.444  33.046  1.00  0.00     0.002 A 
ATOM     82  C   UNL A   1      36.361  31.666  31.123  1.00  0.00     0.091 A 
ATOM     83  F   UNL A   1      37.719  31.802  29.165  1.00  0.00    -0.205 F 
ATOM     84  C   UNL A   1      36.176  31.177  32.425  1.00  0.00     0.022 A 
BRANCH  82  85
ATOM     85  S   UNL A   1      35.057  32.694  30.438  1.00  0.00     0.127 S 
ATOM     86  O   UNL A   1      35.794  33.894  30.051  1.00  0.00    -0.237 OA
ATOM     87  O   UNL A   1      34.583  31.876  29.320  1.00  0.00    -0.237 OA
ATOM     88  O   UNL A   1      34.089  32.861  31.512  1.00  0.00    -0.744 OA
ENDBRANCH  82  85
ENDBRANCH  54  78
BRANCH  66  89
ATOM     89  C   UNL A   1      44.166  34.525  29.439  1.00  0.00     0.023 A 
ATOM     90  C   UNL A   1      43.810  35.489  28.474  1.00  0.00     0.012 A 
ATOM     91  C   UNL A   1      44.764  34.942  30.645  1.00  0.00     0.148 A 
ATOM     92  C   UNL A   1      44.067  36.842  28.696  1.00  0.00     0.002 A 
ATOM     93  C   UNL A   1      44.974  36.297  30.879  1.00  0.00     0.091 A 
ATOM     94  F   UNL A   1      45.111  34.009  31.543  1.00  0.00    -0.205 F 
ATOM     95  C   UNL A   1      44.636  37.246  29.901  1.00  0.00     0.022 A 
BRANCH  93  96
ATOM     96  S   UNL A   1      45.611  36.914  32.442  1.00  0.00     0.127 S 
ATOM     97  O   UNL A   1      44.765  36.214  33.406  1.00  0.00    -0.237 OA
ATOM     98  O   UNL A   1      47.003  36.463  32.411  1.00  0.00    -0.237 OA
ATOM     99  O   UNL A   1      45.445  38.361  32.396  1.00  0.00    -0.744 OA
ENDBRANCH  93  96
ENDBRANCH  66  89
ENDBRANCH  40  41
ENDBRANCH  33  35
ENDBRANCH  32  33
ENDBRANCH  31  32
ENDBRANCH  30  31
ENDBRANCH  29  30
ENDBRANCH  28  29
ENDBRANCH   1  28
TORSDOF 24
ENDMDL
MODEL 2
REMARK VINA RESULT:      -8.3      7.929     16.634
REMARK SMILES Cc1cc(NC(=O)/C=C/c2ccco2)cc(C(=O)OCCOCCOCCOC(=O)c2ccc(-c3c4nc(c(-c5cccc(S(=O)(=O)[O-])c5F)c5ccc([nH]5)c(-c5cccc(S(=O)(=O)[O-])c5F)c5nc(c(-c6cccc(S(=O)(=O)[O-])c6F)c6ccc3[nH]6)C=C5)C=C4)cc2)c1O
REMARK SMILES IDX 23 1 22 2 21 3 20 4 19 5 17 6 18 7 16 8 1 9 2 10 3 11 94 12
REMARK SMILES IDX 4 13 15 14 95 15 5 17 6 18 7 20 8 21 9 22 10 23 11 24 14 25
REMARK SMILES IDX 12 26 13 27 24 28 25 29 26 30 27 31 28 32 29 33 30 34 31 35
REMARK SMILES IDX 32 36 93 37 33 38 92 39 34 40 35 41 36 42 86 43 37 44 91 45
REMARK SMILES IDX 85 46 87 47 38 48 90 49 84 50 83 51 39 53 71 54 51 55 70 56
REMARK SMILES IDX 52 57 55 58 69 59 88 60 53 61 54 62 68 64 89 65 56 66 40 67
REMARK SMILES IDX 41 68 49 69 42 70 44 71 50 72 43 73 45 74 46 75 47 76 48 77
REMARK SMILES IDX 72 78 73 79 81 80 74 81 76 82 82 83 75 84 77 85 78 86 79 87
REMARK SMILES IDX 80 88 57 89 58 90 66 91 59 92 61 93 67 94 60 95 62 96 63 97
REMARK SMILES IDX 64 98 65 99
REMARK H PARENT 95 16 5 19 87 52 55 63
REMARK Flexibility Score: inf
ROOT
ATOM      1  C   UNL A   1      45.957  41.396  25.663  1.00  0.00     0.188 C 
ENDROOT
BRANCH   1   2
ATOM      2  O   UNL A   1      46.170  42.005  24.394  1.00  0.00    -0.376 OA
BRANCH   2   3
ATOM      3  C   UNL A   1      47.117  41.402  23.515  1.00  0.00     0.202 C 
BRANCH   3   4
ATOM      4  C   UNL A   1      47.411  42.144  22.208  1.00  0.00     0.261 C 
BRANCH   4   5
ATOM      5  O   UNL A   1      46.260  42.152  21.350  1.00  0.00    -0.460 OA
BRANCH   5   6
ATOM      6  C   UNL A   1      45.877  43.374  20.903  1.00  0.00     0.342 C 
ATOM      7  O   UNL A   1      46.589  44.341  20.701  1.00  0.00    -0.246 OA
BRANCH   6   8
ATOM      8  C   UNL A   1      44.419  43.329  20.666  1.00  0.00     0.104 A 
ATOM      9  C   UNL A   1      41.148  42.715  22.543  1.00  0.00     0.048 C 
ATOM     10  C   UNL A   1      42.153  43.022  21.469  1.00  0.00    -0.006 A 
ATOM     11  C   UNL A   1      41.696  43.304  20.167  1.00  0.00     0.033 A 
ATOM     12  C   UNL A   1      43.529  43.085  21.719  1.00  0.00     0.133 A 
ATOM     13  C   UNL A   1      42.578  43.619  19.119  1.00  0.00     0.042 A 
ATOM     14  C   UNL A   1      43.946  43.573  19.370  1.00  0.00     0.045 A 
BRANCH  12  15
ATOM     15  O   UNL A   1      44.036  42.956  22.980  1.00  0.00    -0.507 OA
ATOM     16  H   UNL A   1      43.667  42.332  23.572  1.00  0.00     0.293 HD
ENDBRANCH  12  15
BRANCH  13  17
ATOM     17  N   UNL A   1      41.988  43.958  17.884  1.00  0.00    -0.322 N 
ATOM     18  C   UNL A   1      41.868  45.127  17.188  1.00  0.00     0.248 C 
ATOM     19  H   UNL A   1      41.576  43.189  17.426  1.00  0.00     0.170 HD
ATOM     20  O   UNL A   1      41.371  45.128  16.062  1.00  0.00    -0.270 OA
BRANCH  18  21
ATOM     21  C   UNL A   1      42.332  46.393  17.769  1.00  0.00     0.075 C 
ATOM     22  C   UNL A   1      43.449  46.982  17.318  1.00  0.00     0.053 C 
BRANCH  22  23
ATOM     23  C   UNL A   1      43.791  48.278  17.787  1.00  0.00     0.126 A 
ATOM     24  C   UNL A   1      43.849  49.480  17.092  1.00  0.00     0.050 A 
ATOM     25  O   UNL A   1      44.080  48.552  19.108  1.00  0.00    -0.465 OA
ATOM     26  C   UNL A   1      44.162  50.504  18.019  1.00  0.00     0.042 A 
ATOM     27  C   UNL A   1      44.274  49.885  19.237  1.00  0.00     0.195 A 
ENDBRANCH  22  23
ENDBRANCH  18  21
ENDBRANCH  13  17
ENDBRANCH   6   8
ENDBRANCH   5   6
ENDBRANCH   4   5
ENDBRANCH   3   4
ENDBRANCH   2   3
ENDBRANCH   1   2
BRANCH   1  28
ATOM     28  C   UNL A   1      44.686  40.540  25.852  1.00  0.00     0.188 C 
BRANCH  28  29
ATOM     29  O   UNL A   1      44.650  39.799  27.066  1.00  0.00    -0.376 OA
BRANCH  29  30
ATOM     30  C   UNL A   1      44.120  38.484  26.977  1.00  0.00     0.202 C 
BRANCH  30  31
ATOM     31  C   UNL A   1      42.838  38.257  27.783  1.00  0.00     0.261 C 
BRANCH  31  32
ATOM     32  O   UNL A   1      41.961  37.250  27.257  1.00  0.00    -0.460 OA
BRANCH  32  33
ATOM     33  C   UNL A   1      41.852  36.091  27.946  1.00  0.00     0.338 C 
ATOM     34  O   UNL A   1      40.895  35.709  28.594  1.00  0.00    -0.246 OA
BRANCH  33  35
ATOM     35  C   UNL A   1      43.028  35.265  27.599  1.00  0.00     0.060 A 
ATOM     36  C   UNL A   1      43.877  34.835  28.627  1.00  0.00     0.016 A 
ATOM     37  C   UNL A   1      43.255  34.869  26.278  1.00  0.00     0.016 A 
ATOM     38  C   UNL A   1      44.970  34.017  28.328  1.00  0.00     0.010 A 
ATOM     39  C   UNL A   1      44.356  34.064  25.980  1.00  0.00     0.010 A 
ATOM     40  C   UNL A   1      45.231  33.655  26.999  1.00  0.00    -0.014 A 
BRANCH  40  41
ATOM     41  C   UNL A   1      46.513  33.003  26.643  1.00  0.00     0.031 A 
ATOM     42  C   UNL A   1      46.607  31.506  26.770  1.00  0.00     0.074 A 
ATOM     43  C   UNL A   1      47.583  33.718  26.250  1.00  0.00     0.049 A 
ATOM     44  N   UNL A   1      47.624  30.718  26.547  1.00  0.00    -0.248 NA
ATOM     45  C   UNL A   1      45.387  30.808  27.214  1.00  0.00     0.031 C 
ATOM     46  C   UNL A   1      47.626  35.173  26.110  1.00  0.00     0.029 A 
ATOM     47  N   UNL A   1      48.854  33.310  25.929  1.00  0.00    -0.354 N 
ATOM     48  C   UNL A   1      47.176  29.435  26.836  1.00  0.00     0.074 A 
ATOM     49  C   UNL A   1      45.799  29.550  27.264  1.00  0.00     0.031 C 
ATOM     50  C   UNL A   1      48.874  35.539  25.766  1.00  0.00     0.029 A 
ATOM     51  C   UNL A   1      49.720  34.349  25.676  1.00  0.00     0.049 A 
ATOM     52  H   UNL A   1      49.120  32.364  25.883  1.00  0.00     0.167 HD
ATOM     53  C   UNL A   1      47.843  28.261  26.738  1.00  0.00     0.034 A 
ATOM     54  C   UNL A   1      51.046  34.337  25.427  1.00  0.00     0.034 A 
ATOM     55  C   UNL A   1      49.210  28.142  26.318  1.00  0.00     0.049 A 
ATOM     56  C   UNL A   1      51.773  33.016  25.351  1.00  0.00     0.074 A 
ATOM     57  C   UNL A   1      49.962  26.993  26.153  1.00  0.00     0.029 A 
ATOM     58  N   UNL A   1      50.038  29.210  26.012  1.00  0.00    -0.354 N 
ATOM     59  N   UNL A   1      51.297  31.801  25.484  1.00  0.00    -0.248 NA
ATOM     60  C   UNL A   1      53.213  33.064  25.056  1.00  0.00     0.031 C 
ATOM     61  C   UNL A   1      51.252  27.369  25.765  1.00  0.00     0.029 A 
ATOM     62  C   UNL A   1      51.295  28.749  25.665  1.00  0.00     0.049 A 
ATOM     63  H   UNL A   1      49.770  30.158  26.038  1.00  0.00     0.167 HD
ATOM     64  C   UNL A   1      52.369  30.943  25.253  1.00  0.00     0.074 A 
ATOM     65  C   UNL A   1      53.514  31.776  24.951  1.00  0.00     0.031 C 
ATOM     66  C   UNL A   1      52.408  29.588  25.302  1.00  0.00     0.034 A 
BRANCH  53  67
ATOM     67  C   UNL A   1      47.082  27.003  27.060  1.00  0.00     0.023 A 
ATOM     68  C   UNL A   1      47.083  26.516  28.382  1.00  0.00     0.012 A 
ATOM     69  C   UNL A   1      46.330  26.337  26.074  1.00  0.00     0.148 A 
ATOM     70  C   UNL A   1      46.366  25.368  28.714  1.00  0.00     0.002 A 
ATOM     71  C   UNL A   1      45.586  25.216  26.421  1.00  0.00     0.091 A 
ATOM     72  F   UNL A   1      46.366  26.804  24.818  1.00  0.00    -0.205 F 
ATOM     73  C   UNL A   1      45.611  24.725  27.737  1.00  0.00     0.022 A 
BRANCH  71  74
ATOM     74  S   UNL A   1      44.526  24.357  25.254  1.00  0.00     0.127 S 
ATOM     75  O   UNL A   1      45.478  23.998  24.203  1.00  0.00    -0.237 OA
ATOM     76  O   UNL A   1      44.044  23.228  26.051  1.00  0.00    -0.237 OA
ATOM     77  O   UNL A   1      43.499  25.312  24.865  1.00  0.00    -0.744 OA
ENDBRANCH  71  74
ENDBRANCH  53  67
BRANCH  54  78
ATOM     78  C   UNL A   1      51.780  35.614  25.197  1.00  0.00     0.023 A 
ATOM     79  C   UNL A   1      52.177  35.961  23.890  1.00  0.00     0.012 A 
ATOM     80  C   UNL A   1      52.102  36.477  26.262  1.00  0.00     0.148 A 
ATOM     81  C   UNL A   1      52.909  37.126  23.653  1.00  0.00     0.002 A 
ATOM     82  C   UNL A   1      52.787  37.661  26.013  1.00  0.00     0.091 A 
ATOM     83  F   UNL A   1      51.738  36.118  27.501  1.00  0.00    -0.205 F 
ATOM     84  C   UNL A   1      53.206  37.979  24.713  1.00  0.00     0.022 A 
BRANCH  82  85
ATOM     85  S   UNL A   1      53.115  38.868  27.302  1.00  0.00     0.127 S 
ATOM     86  O   UNL A   1      53.857  38.072  28.275  1.00  0.00    -0.237 OA
ATOM     87  O   UNL A   1      53.913  39.865  26.586  1.00  0.00    -0.237 OA
ATOM     88  O   UNL A   1      51.808  39.342  27.732  1.00  0.00    -0.744 OA
ENDBRANCH  82  85
ENDBRANCH  54  78
BRANCH  66  89
ATOM     89  C   UNL A   1      53.712  28.905  24.981  1.00  0.00     0.023 A 
ATOM     90  C   UNL A   1      54.558  28.482  26.026  1.00  0.00     0.012 A 
ATOM     91  C   UNL A   1      54.055  28.602  23.648  1.00  0.00     0.148 A 
ATOM     92  C   UNL A   1      55.737  27.792  25.747  1.00  0.00     0.002 A 
ATOM     93  C   UNL A   1      55.208  27.873  23.381  1.00  0.00     0.091 A 
ATOM     94  F   UNL A   1      53.246  29.029  22.667  1.00  0.00    -0.205 F 
ATOM     95  C   UNL A   1      56.056  27.477  24.428  1.00  0.00     0.022 A 
BRANCH  93  96
ATOM     96  S   UNL A   1      55.644  27.339  21.721  1.00  0.00     0.127 S 
ATOM     97  O   UNL A   1      55.839  28.616  21.039  1.00  0.00    -0.237 OA
ATOM     98  O   UNL A   1      56.871  26.575  21.951  1.00  0.00    -0.237 OA
ATOM     99  O   UNL A   1      54.518  26.542  21.250  1.00  0.00    -0.744 OA
ENDBRANCH  93  96
ENDBRANCH  66  89
ENDBRANCH  40  41
ENDBRANCH  33  35
ENDBRANCH  32  33
ENDBRANCH  31  32
ENDBRANCH  30  31
ENDBRANCH  29  30
ENDBRANCH  28  29
ENDBRANCH   1  28
TORSDOF 24
ENDMDL
MODEL 3
REMARK VINA RESULT:      -7.8      6.900     15.111
REMARK SMILES Cc1cc(NC(=O)/C=C/c2ccco2)cc(C(=O)OCCOCCOCCOC(=O)c2ccc(-c3c4nc(c(-c5cccc(S(=O)(=O)[O-])c5F)c5ccc([nH]5)c(-c5cccc(S(=O)(=O)[O-])c5F)c5nc(c(-c6cccc(S(=O)(=O)[O-])c6F)c6ccc3[nH]6)C=C5)C=C4)cc2)c1O
REMARK SMILES IDX 23 1 22 2 21 3 20 4 19 5 17 6 18 7 16 8 1 9 2 10 3 11 94 12
REMARK SMILES IDX 4 13 15 14 95 15 5 17 6 18 7 20 8 21 9 22 10 23 11 24 14 25
REMARK SMILES IDX 12 26 13 27 24 28 25 29 26 30 27 31 28 32 29 33 30 34 31 35
REMARK SMILES IDX 32 36 93 37 33 38 92 39 34 40 35 41 36 42 86 43 37 44 91 45
REMARK SMILES IDX 85 46 87 47 38 48 90 49 84 50 83 51 39 53 71 54 51 55 70 56
REMARK SMILES IDX 52 57 55 58 69 59 88 60 53 61 54 62 68 64 89 65 56 66 40 67
REMARK SMILES IDX 41 68 49 69 42 70 44 71 50 72 43 73 45 74 46 75 47 76 48 77
REMARK SMILES IDX 72 78 73 79 81 80 74 81 76 82 82 83 75 84 77 85 78 86 79 87
REMARK SMILES IDX 80 88 57 89 58 90 66 91 59 92 61 93 67 94 60 95 62 96 63 97
REMARK SMILES IDX 64 98 65 99
REMARK H PARENT 95 16 5 19 87 52 55 63
REMARK Flexibility Score: inf
ROOT
ATOM      1  C   UNL A   1      41.687  40.016  28.341  1.00  0.00     0.188 C 
ENDROOT
BRANCH   1   2
ATOM      2  O   UNL A   1      41.240  40.458  27.063  1.00  0.00    -0.376 OA
BRANCH   2   3
ATOM      3  C   UNL A   1      42.226  40.824  26.101  1.00  0.00     0.202 C 
BRANCH   3   4
ATOM      4  C   UNL A   1      41.724  41.526  24.836  1.00  0.00     0.261 C 
BRANCH   4   5
ATOM      5  O   UNL A   1      42.765  41.622  23.852  1.00  0.00    -0.460 OA
BRANCH   5   6
ATOM      6  C   UNL A   1      43.323  42.851  23.716  1.00  0.00     0.342 C 
ATOM      7  O   UNL A   1      43.635  43.622  24.606  1.00  0.00    -0.246 OA
BRANCH   6   8
ATOM      8  C   UNL A   1      43.522  43.096  22.273  1.00  0.00     0.104 A 
ATOM      9  C   UNL A   1      46.329  43.433  19.702  1.00  0.00     0.048 C 
ATOM     10  C   UNL A   1      44.975  43.361  20.352  1.00  0.00    -0.006 A 
ATOM     11  C   UNL A   1      43.826  43.512  19.552  1.00  0.00     0.033 A 
ATOM     12  C   UNL A   1      44.807  43.103  21.717  1.00  0.00     0.133 A 
ATOM     13  C   UNL A   1      42.529  43.437  20.089  1.00  0.00     0.042 A 
ATOM     14  C   UNL A   1      42.392  43.283  21.466  1.00  0.00     0.045 A 
BRANCH  12  15
ATOM     15  O   UNL A   1      45.866  42.813  22.529  1.00  0.00    -0.507 OA
ATOM     16  H   UNL A   1      45.723  42.393  23.353  1.00  0.00     0.293 HD
ENDBRANCH  12  15
BRANCH  13  17
ATOM     17  N   UNL A   1      41.464  43.526  19.170  1.00  0.00    -0.322 N 
ATOM     18  C   UNL A   1      41.113  44.447  18.223  1.00  0.00     0.248 C 
ATOM     19  H   UNL A   1      40.843  42.764  19.220  1.00  0.00     0.170 HD
ATOM     20  O   UNL A   1      40.159  44.232  17.476  1.00  0.00    -0.270 OA
BRANCH  18  21
ATOM     21  C   UNL A   1      41.867  45.698  18.082  1.00  0.00     0.075 C 
ATOM     22  C   UNL A   1      42.769  45.844  17.101  1.00  0.00     0.053 C 
BRANCH  22  23
ATOM     23  C   UNL A   1      43.371  47.113  16.891  1.00  0.00     0.126 A 
ATOM     24  C   UNL A   1      42.780  48.368  16.821  1.00  0.00     0.050 A 
ATOM     25  O   UNL A   1      44.734  47.293  16.775  1.00  0.00    -0.465 OA
ATOM     26  C   UNL A   1      43.811  49.328  16.677  1.00  0.00     0.042 A 
ATOM     27  C   UNL A   1      44.984  48.619  16.674  1.00  0.00     0.195 A 
ENDBRANCH  22  23
ENDBRANCH  18  21
ENDBRANCH  13  17
ENDBRANCH   6   8
ENDBRANCH   5   6
ENDBRANCH   4   5
ENDBRANCH   3   4
ENDBRANCH   2   3
ENDBRANCH   1   2
BRANCH   1  28
ATOM     28  C   UNL A   1      41.352  40.888  29.569  1.00  0.00     0.188 C 
BRANCH  28  29
ATOM     29  O   UNL A   1      42.481  41.490  30.191  1.00  0.00    -0.376 OA
BRANCH  29  30
ATOM     30  C   UNL A   1      42.202  42.535  31.112  1.00  0.00     0.202 C 
BRANCH  30  31
ATOM     31  C   UNL A   1      42.446  42.173  32.580  1.00  0.00     0.261 C 
BRANCH  31  32
ATOM     32  O   UNL A   1      42.667  40.777  32.832  1.00  0.00    -0.460 OA
BRANCH  32  33
ATOM     33  C   UNL A   1      43.937  40.375  33.062  1.00  0.00     0.338 C 
ATOM     34  O   UNL A   1      44.811  40.993  33.642  1.00  0.00    -0.246 OA
BRANCH  33  35
ATOM     35  C   UNL A   1      44.022  38.952  32.668  1.00  0.00     0.060 A 
ATOM     36  C   UNL A   1      43.857  38.614  31.319  1.00  0.00     0.016 A 
ATOM     37  C   UNL A   1      44.322  37.968  33.614  1.00  0.00     0.016 A 
ATOM     38  C   UNL A   1      43.976  37.282  30.917  1.00  0.00     0.010 A 
ATOM     39  C   UNL A   1      44.426  36.635  33.213  1.00  0.00     0.010 A 
ATOM     40  C   UNL A   1      44.230  36.284  31.868  1.00  0.00    -0.014 A 
BRANCH  40  41
ATOM     41  C   UNL A   1      44.112  34.853  31.496  1.00  0.00     0.031 A 
ATOM     42  C   UNL A   1      45.307  34.181  30.876  1.00  0.00     0.074 A 
ATOM     43  C   UNL A   1      42.965  34.172  31.669  1.00  0.00     0.049 A 
ATOM     44  N   UNL A   1      45.436  32.956  30.444  1.00  0.00    -0.248 NA
ATOM     45  C   UNL A   1      46.517  35.008  30.720  1.00  0.00     0.031 C 
ATOM     46  C   UNL A   1      41.732  34.717  32.237  1.00  0.00     0.029 A 
ATOM     47  N   UNL A   1      42.645  32.876  31.349  1.00  0.00    -0.354 N 
ATOM     48  C   UNL A   1      46.732  32.865  29.952  1.00  0.00     0.074 A 
ATOM     49  C   UNL A   1      47.346  34.163  30.125  1.00  0.00     0.031 C 
ATOM     50  C   UNL A   1      40.777  33.770  32.190  1.00  0.00     0.029 A 
ATOM     51  C   UNL A   1      41.326  32.560  31.578  1.00  0.00     0.049 A 
ATOM     52  H   UNL A   1      43.298  32.233  30.991  1.00  0.00     0.167 HD
ATOM     53  C   UNL A   1      47.364  31.794  29.418  1.00  0.00     0.034 A 
ATOM     54  C   UNL A   1      40.640  31.432  31.299  1.00  0.00     0.034 A 
ATOM     55  C   UNL A   1      46.758  30.505  29.240  1.00  0.00     0.049 A 
ATOM     56  C   UNL A   1      41.361  30.261  30.677  1.00  0.00     0.074 A 
ATOM     57  C   UNL A   1      47.329  29.348  28.741  1.00  0.00     0.029 A 
ATOM     58  N   UNL A   1      45.439  30.205  29.539  1.00  0.00    -0.354 N 
ATOM     59  N   UNL A   1      42.627  30.146  30.353  1.00  0.00    -0.248 NA
ATOM     60  C   UNL A   1      40.566  29.051  30.416  1.00  0.00     0.031 C 
ATOM     61  C   UNL A   1      46.347  28.352  28.720  1.00  0.00     0.029 A 
ATOM     62  C   UNL A   1      45.173  28.883  29.228  1.00  0.00     0.049 A 
ATOM     63  H   UNL A   1      44.786  30.840  29.915  1.00  0.00     0.167 HD
ATOM     64  C   UNL A   1      42.785  28.844  29.885  1.00  0.00     0.074 A 
ATOM     65  C   UNL A   1      41.491  28.203  29.988  1.00  0.00     0.031 C 
ATOM     66  C   UNL A   1      43.897  28.239  29.398  1.00  0.00     0.034 A 
BRANCH  53  67
ATOM     67  C   UNL A   1      48.805  31.967  29.020  1.00  0.00     0.023 A 
ATOM     68  C   UNL A   1      49.819  31.620  29.936  1.00  0.00     0.012 A 
ATOM     69  C   UNL A   1      49.155  32.419  27.734  1.00  0.00     0.148 A 
ATOM     70  C   UNL A   1      51.162  31.745  29.586  1.00  0.00     0.002 A 
ATOM     71  C   UNL A   1      50.496  32.503  27.378  1.00  0.00     0.091 A 
ATOM     72  F   UNL A   1      48.174  32.767  26.890  1.00  0.00    -0.205 F 
ATOM     73  C   UNL A   1      51.499  32.176  28.306  1.00  0.00     0.022 A 
BRANCH  71  74
ATOM     74  S   UNL A   1      51.034  32.981  25.734  1.00  0.00     0.127 S 
ATOM     75  O   UNL A   1      51.309  31.679  25.125  1.00  0.00    -0.237 OA
ATOM     76  O   UNL A   1      49.849  33.661  25.209  1.00  0.00    -0.237 OA
ATOM     77  O   UNL A   1      52.195  33.838  25.923  1.00  0.00    -0.744 OA
ENDBRANCH  71  74
ENDBRANCH  53  67
BRANCH  54  78
ATOM     78  C   UNL A   1      39.189  31.332  31.633  1.00  0.00     0.023 A 
ATOM     79  C   UNL A   1      38.796  30.732  32.845  1.00  0.00     0.012 A 
ATOM     80  C   UNL A   1      38.201  31.811  30.752  1.00  0.00     0.148 A 
ATOM     81  C   UNL A   1      37.444  30.579  33.159  1.00  0.00     0.002 A 
ATOM     82  C   UNL A   1      36.857  31.702  31.094  1.00  0.00     0.091 A 
ATOM     83  F   UNL A   1      38.594  32.356  29.593  1.00  0.00    -0.205 F 
ATOM     84  C   UNL A   1      36.476  31.073  32.288  1.00  0.00     0.022 A 
BRANCH  82  85
ATOM     85  S   UNL A   1      35.550  32.406  30.082  1.00  0.00     0.127 S 
ATOM     86  O   UNL A   1      36.145  33.674  29.665  1.00  0.00    -0.237 OA
ATOM     87  O   UNL A   1      35.419  31.409  29.019  1.00  0.00    -0.237 OA
ATOM     88  O   UNL A   1      34.392  32.506  30.958  1.00  0.00    -0.744 OA
ENDBRANCH  82  85
ENDBRANCH  54  78
BRANCH  66  89
ATOM     89  C   UNL A   1      43.790  26.795  28.978  1.00  0.00     0.023 A 
ATOM     90  C   UNL A   1      44.065  25.772  29.907  1.00  0.00     0.012 A 
ATOM     91  C   UNL A   1      43.328  26.455  27.691  1.00  0.00     0.148 A 
ATOM     92  C   UNL A   1      43.908  24.433  29.553  1.00  0.00     0.002 A 
ATOM     93  C   UNL A   1      43.128  25.119  27.360  1.00  0.00     0.091 A 
ATOM     94  F   UNL A   1      43.088  27.442  26.816  1.00  0.00    -0.205 F 
ATOM     95  C   UNL A   1      43.428  24.107  28.286  1.00  0.00     0.022 A 
BRANCH  93  96
ATOM     96  S   UNL A   1      42.422  24.614  25.788  1.00  0.00     0.127 S 
ATOM     97  O   UNL A   1      43.593  24.085  25.092  1.00  0.00    -0.237 OA
ATOM     98  O   UNL A   1      41.445  23.603  26.194  1.00  0.00    -0.237 OA
ATOM     99  O   UNL A   1      41.838  25.816  25.208  1.00  0.00    -0.744 OA
ENDBRANCH  93  96
ENDBRANCH  66  89
ENDBRANCH  40  41
ENDBRANCH  33  35
ENDBRANCH  32  33
ENDBRANCH  31  32
ENDBRANCH  30  31
ENDBRANCH  29  30
ENDBRANCH  28  29
ENDBRANCH   1  28
TORSDOF 24
ENDMDL
