MODEL 1
REMARK VINA RESULT:      -9.6      0.000      0.000
REMARK SMILES CCNC(=O)c1ccc(NC(=O)CC2(C(=O)OCCOCCOCCOC(=O)c3ccc(-c4c5nc(c(-c6cccc(S(=O)(=O)[O-])c6F)c6ccc([nH]6)c(-c6cccc(S(=O)(=O)[O-])c6F)c6nc(c(-c7cccc(S(=O)(=O)[O-])c7F)c7ccc4[nH]7)C=C6)C=C5)cc3)CCCC2)cc1
REMARK SMILES IDX 21 1 20 2 19 3 18 4 17 5 15 6 16 7 14 8 92 9 95 10 93 11
REMARK SMILES IDX 94 12 13 13 11 14 10 15 12 17 9 18 6 19 7 20 97 21 8 22
REMARK SMILES IDX 96 23 4 24 3 25 5 27 2 28 1 29 22 30 23 31 24 32 25 33 26 34
REMARK SMILES IDX 27 35 28 36 29 37 30 38 91 39 31 40 90 41 32 42 33 43 34 44
REMARK SMILES IDX 84 45 35 46 89 47 83 48 85 49 36 50 88 51 82 52 81 53 37 55
REMARK SMILES IDX 69 56 49 57 68 58 50 59 53 60 67 61 86 62 51 63 52 64 66 66
REMARK SMILES IDX 87 67 54 68 38 69 39 70 47 71 40 72 42 73 48 74 41 75 43 76
REMARK SMILES IDX 44 77 45 78 46 79 70 80 71 81 79 82 72 83 74 84 80 85 73 86
REMARK SMILES IDX 75 87 76 88 77 89 78 90 55 91 56 92 64 93 57 94 59 95 65 96
REMARK SMILES IDX 58 97 60 98 61 99 62 100 63 101
REMARK H PARENT 10 16 3 26 85 54 53 65
REMARK Flexibility Score: inf
ROOT
ATOM      1  C   UNL A   1      35.402  30.123  28.294  1.00  0.00     0.188 C 
ENDROOT
BRANCH   1   2
ATOM      2  O   UNL A   1      34.490  29.530  27.376  1.00  0.00    -0.376 OA
BRANCH   2   3
ATOM      3  C   UNL A   1      33.623  30.437  26.706  1.00  0.00     0.202 C 
BRANCH   3   4
ATOM      4  C   UNL A   1      32.142  30.224  27.006  1.00  0.00     0.261 C 
BRANCH   4   5
ATOM      5  O   UNL A   1      31.620  29.129  26.232  1.00  0.00    -0.463 OA
BRANCH   5   6
ATOM      6  C   UNL A   1      31.558  27.919  26.829  1.00  0.00     0.312 C 
ATOM      7  O   UNL A   1      31.570  27.773  28.046  1.00  0.00    -0.252 OA
BRANCH   6   8
ATOM      8  C   UNL A   1      31.595  26.758  25.813  1.00  0.00     0.077 C 
ATOM      9  C   UNL A   1      32.778  25.823  26.170  1.00  0.00     0.019 C 
ATOM     10  C   UNL A   1      32.102  27.279  24.442  1.00  0.00     0.019 C 
ATOM     11  C   UNL A   1      34.035  26.583  25.751  1.00  0.00     0.001 C 
ATOM     12  C   UNL A   1      33.613  27.458  24.580  1.00  0.00     0.001 C 
BRANCH   8  13
ATOM     13  C   UNL A   1      30.300  25.914  25.649  1.00  0.00     0.119 C 
BRANCH  13  14
ATOM     14  C   UNL A   1      29.675  25.658  24.287  1.00  0.00     0.225 C 
ATOM     15  N   UNL A   1      30.087  24.667  23.449  1.00  0.00    -0.326 N 
ATOM     16  H   UNL A   1      29.616  24.636  22.585  1.00  0.00     0.169 HD
ATOM     17  O   UNL A   1      28.729  26.362  23.916  1.00  0.00    -0.275 OA
BRANCH  15  18
ATOM     18  C   UNL A   1      31.069  23.688  23.618  1.00  0.00     0.041 A 
ATOM     19  C   UNL A   1      33.183  22.043  24.365  1.00  0.00     0.039 A 
ATOM     20  C   UNL A   1      33.250  22.749  23.165  1.00  0.00     0.016 A 
ATOM     21  C   UNL A   1      32.026  22.081  25.148  1.00  0.00     0.016 A 
ATOM     22  C   UNL A   1      32.178  23.557  22.784  1.00  0.00     0.027 A 
ATOM     23  C   UNL A   1      30.951  22.875  24.751  1.00  0.00     0.027 A 
BRANCH  19  24
ATOM     24  C   UNL A   1      34.383  21.330  24.836  1.00  0.00     0.251 C 
ATOM     25  N   UNL A   1      35.473  22.048  25.250  1.00  0.00    -0.352 N 
ATOM     26  H   UNL A   1      36.310  21.542  25.351  1.00  0.00     0.163 HD
ATOM     27  O   UNL A   1      34.400  20.103  24.867  1.00  0.00    -0.269 OA
BRANCH  25  28
ATOM     28  C   UNL A   1      35.542  23.463  25.559  1.00  0.00     0.112 C 
ATOM     29  C   UNL A   1      36.955  23.855  25.952  1.00  0.00     0.027 C 
ENDBRANCH  25  28
ENDBRANCH  19  24
ENDBRANCH  15  18
ENDBRANCH  13  14
ENDBRANCH   8  13
ENDBRANCH   6   8
ENDBRANCH   5   6
ENDBRANCH   4   5
ENDBRANCH   3   4
ENDBRANCH   2   3
ENDBRANCH   1   2
BRANCH   1  30
ATOM     30  C   UNL A   1      35.724  31.602  28.024  1.00  0.00     0.188 C 
BRANCH  30  31
ATOM     31  O   UNL A   1      35.128  32.636  28.798  1.00  0.00    -0.376 OA
BRANCH  31  32
ATOM     32  C   UNL A   1      34.421  33.666  28.126  1.00  0.00     0.202 C 
BRANCH  32  33
ATOM     33  C   UNL A   1      33.322  34.424  28.884  1.00  0.00     0.261 C 
BRANCH  33  34
ATOM     34  O   UNL A   1      33.797  35.388  29.829  1.00  0.00    -0.460 OA
BRANCH  34  35
ATOM     35  C   UNL A   1      33.432  35.155  31.116  1.00  0.00     0.338 C 
ATOM     36  O   UNL A   1      32.325  35.313  31.606  1.00  0.00    -0.246 OA
BRANCH  35  37
ATOM     37  C   UNL A   1      34.541  34.472  31.817  1.00  0.00     0.060 A 
ATOM     38  C   UNL A   1      35.849  34.923  31.573  1.00  0.00     0.016 A 
ATOM     39  C   UNL A   1      34.310  33.426  32.710  1.00  0.00     0.016 A 
ATOM     40  C   UNL A   1      36.932  34.308  32.195  1.00  0.00     0.010 A 
ATOM     41  C   UNL A   1      35.399  32.782  33.302  1.00  0.00     0.010 A 
ATOM     42  C   UNL A   1      36.712  33.197  33.016  1.00  0.00    -0.014 A 
BRANCH  42  43
ATOM     43  C   UNL A   1      37.840  32.296  33.346  1.00  0.00     0.031 A 
ATOM     44  C   UNL A   1      38.617  32.599  34.598  1.00  0.00     0.074 A 
ATOM     45  C   UNL A   1      38.198  31.277  32.547  1.00  0.00     0.049 A 
ATOM     46  N   UNL A   1      39.712  32.049  35.050  1.00  0.00    -0.248 NA
ATOM     47  C   UNL A   1      38.087  33.678  35.452  1.00  0.00     0.031 C 
ATOM     48  C   UNL A   1      37.502  30.867  31.331  1.00  0.00     0.029 A 
ATOM     49  N   UNL A   1      39.269  30.422  32.632  1.00  0.00    -0.354 N 
ATOM     50  C   UNL A   1      40.017  32.732  36.221  1.00  0.00     0.074 A 
ATOM     51  C   UNL A   1      38.996  33.736  36.413  1.00  0.00     0.031 C 
ATOM     52  C   UNL A   1      38.196  29.869  30.751  1.00  0.00     0.029 A 
ATOM     53  C   UNL A   1      39.392  29.589  31.545  1.00  0.00     0.049 A 
ATOM     54  H   UNL A   1      39.889  30.408  33.396  1.00  0.00     0.167 HD
ATOM     55  C   UNL A   1      41.053  32.540  37.067  1.00  0.00     0.034 A 
ATOM     56  C   UNL A   1      40.375  28.725  31.222  1.00  0.00     0.034 A 
ATOM     57  C   UNL A   1      42.067  31.542  36.878  1.00  0.00     0.049 A 
ATOM     58  C   UNL A   1      41.545  28.556  32.163  1.00  0.00     0.074 A 
ATOM     59  C   UNL A   1      43.149  31.252  37.687  1.00  0.00     0.029 A 
ATOM     60  N   UNL A   1      42.126  30.677  35.797  1.00  0.00    -0.354 N 
ATOM     61  N   UNL A   1      41.768  29.132  33.321  1.00  0.00    -0.248 NA
ATOM     62  C   UNL A   1      42.588  27.595  31.765  1.00  0.00     0.031 C 
ATOM     63  C   UNL A   1      43.875  30.220  37.084  1.00  0.00     0.029 A 
ATOM     64  C   UNL A   1      43.232  29.855  35.912  1.00  0.00     0.049 A 
ATOM     65  H   UNL A   1      41.478  30.652  35.057  1.00  0.00     0.167 HD
ATOM     66  C   UNL A   1      42.945  28.573  33.809  1.00  0.00     0.074 A 
ATOM     67  C   UNL A   1      43.386  27.604  32.826  1.00  0.00     0.031 C 
ATOM     68  C   UNL A   1      43.610  28.844  34.960  1.00  0.00     0.034 A 
BRANCH  55  69
ATOM     69  C   UNL A   1      41.126  33.422  38.281  1.00  0.00     0.023 A 
ATOM     70  C   UNL A   1      40.357  33.102  39.418  1.00  0.00     0.012 A 
ATOM     71  C   UNL A   1      41.969  34.549  38.306  1.00  0.00     0.148 A 
ATOM     72  C   UNL A   1      40.406  33.908  40.554  1.00  0.00     0.002 A 
ATOM     73  C   UNL A   1      42.042  35.324  39.457  1.00  0.00     0.091 A 
ATOM     74  F   UNL A   1      42.664  34.853  37.201  1.00  0.00    -0.205 F 
ATOM     75  C   UNL A   1      41.254  35.012  40.577  1.00  0.00     0.022 A 
BRANCH  73  76
ATOM     76  S   UNL A   1      43.156  36.725  39.604  1.00  0.00     0.127 S 
ATOM     77  O   UNL A   1      44.449  36.105  39.315  1.00  0.00    -0.237 OA
ATOM     78  O   UNL A   1      42.664  37.622  38.559  1.00  0.00    -0.237 OA
ATOM     79  O   UNL A   1      42.990  37.228  40.960  1.00  0.00    -0.744 OA
ENDBRANCH  73  76
ENDBRANCH  55  69
BRANCH  56  80
ATOM     80  C   UNL A   1      40.291  27.925  29.966  1.00  0.00     0.023 A 
ATOM     81  C   UNL A   1      39.382  26.851  29.892  1.00  0.00     0.012 A 
ATOM     82  C   UNL A   1      41.099  28.218  28.850  1.00  0.00     0.148 A 
ATOM     83  C   UNL A   1      39.303  26.063  28.742  1.00  0.00     0.002 A 
ATOM     84  C   UNL A   1      40.977  27.462  27.689  1.00  0.00     0.091 A 
ATOM     85  F   UNL A   1      41.973  29.230  28.946  1.00  0.00    -0.205 F 
ATOM     86  C   UNL A   1      40.093  26.374  27.639  1.00  0.00     0.022 A 
BRANCH  84  87
ATOM     87  S   UNL A   1      41.863  27.866  26.179  1.00  0.00     0.127 S 
ATOM     88  O   UNL A   1      41.464  26.774  25.295  1.00  0.00    -0.237 OA
ATOM     89  O   UNL A   1      41.298  29.172  25.838  1.00  0.00    -0.237 OA
ATOM     90  O   UNL A   1      43.271  27.903  26.548  1.00  0.00    -0.744 OA
ENDBRANCH  84  87
ENDBRANCH  56  80
BRANCH  68  91
ATOM     91  C   UNL A   1      44.857  28.055  35.262  1.00  0.00     0.023 A 
ATOM     92  C   UNL A   1      46.119  28.583  34.929  1.00  0.00     0.012 A 
ATOM     93  C   UNL A   1      44.779  26.844  35.979  1.00  0.00     0.148 A 
ATOM     94  C   UNL A   1      47.285  27.907  35.287  1.00  0.00     0.002 A 
ATOM     95  C   UNL A   1      45.945  26.200  36.373  1.00  0.00     0.091 A 
ATOM     96  F   UNL A   1      43.566  26.351  36.271  1.00  0.00    -0.205 F 
ATOM     97  C   UNL A   1      47.199  26.725  36.020  1.00  0.00     0.022 A 
BRANCH  95  98
ATOM     98  S   UNL A   1      45.928  24.728  37.404  1.00  0.00     0.127 S 
ATOM     99  O   UNL A   1      44.934  25.084  38.415  1.00  0.00    -0.237 OA
ATOM    100  O   UNL A   1      45.499  23.693  36.464  1.00  0.00    -0.237 OA
ATOM    101  O   UNL A   1      47.291  24.568  37.894  1.00  0.00    -0.744 OA
ENDBRANCH  95  98
ENDBRANCH  68  91
ENDBRANCH  42  43
ENDBRANCH  35  37
ENDBRANCH  34  35
ENDBRANCH  33  34
ENDBRANCH  32  33
ENDBRANCH  31  32
ENDBRANCH  30  31
ENDBRANCH   1  30
TORSDOF 25
ENDMDL
MODEL 2
REMARK VINA RESULT:      -9.2      2.922      3.451
REMARK SMILES CCNC(=O)c1ccc(NC(=O)CC2(C(=O)OCCOCCOCCOC(=O)c3ccc(-c4c5nc(c(-c6cccc(S(=O)(=O)[O-])c6F)c6ccc([nH]6)c(-c6cccc(S(=O)(=O)[O-])c6F)c6nc(c(-c7cccc(S(=O)(=O)[O-])c7F)c7ccc4[nH]7)C=C6)C=C5)cc3)CCCC2)cc1
REMARK SMILES IDX 21 1 20 2 19 3 18 4 17 5 15 6 16 7 14 8 92 9 95 10 93 11
REMARK SMILES IDX 94 12 13 13 11 14 10 15 12 17 9 18 6 19 7 20 97 21 8 22
REMARK SMILES IDX 96 23 4 24 3 25 5 27 2 28 1 29 22 30 23 31 24 32 25 33 26 34
REMARK SMILES IDX 27 35 28 36 29 37 30 38 91 39 31 40 90 41 32 42 33 43 34 44
REMARK SMILES IDX 84 45 35 46 89 47 83 48 85 49 36 50 88 51 82 52 81 53 37 55
REMARK SMILES IDX 69 56 49 57 68 58 50 59 53 60 67 61 86 62 51 63 52 64 66 66
REMARK SMILES IDX 87 67 54 68 38 69 39 70 47 71 40 72 42 73 48 74 41 75 43 76
REMARK SMILES IDX 44 77 45 78 46 79 70 80 71 81 79 82 72 83 74 84 80 85 73 86
REMARK SMILES IDX 75 87 76 88 77 89 78 90 55 91 56 92 64 93 57 94 59 95 65 96
REMARK SMILES IDX 58 97 60 98 61 99 62 100 63 101
REMARK H PARENT 10 16 3 26 85 54 53 65
REMARK Flexibility Score: inf
ROOT
ATOM      1  C   UNL A   1      35.751  29.915  28.579  1.00  0.00     0.188 C 
ENDROOT
BRANCH   1   2
ATOM      2  O   UNL A   1      34.645  29.288  27.937  1.00  0.00    -0.376 OA
BRANCH   2   3
ATOM      3  C   UNL A   1      34.036  30.044  26.897  1.00  0.00     0.202 C 
BRANCH   3   4
ATOM      4  C   UNL A   1      32.522  30.183  27.030  1.00  0.00     0.261 C 
BRANCH   4   5
ATOM      5  O   UNL A   1      31.850  29.179  26.250  1.00  0.00    -0.463 OA
BRANCH   5   6
ATOM      6  C   UNL A   1      31.588  27.998  26.849  1.00  0.00     0.312 C 
ATOM      7  O   UNL A   1      31.484  27.873  28.063  1.00  0.00    -0.252 OA
BRANCH   6   8
ATOM      8  C   UNL A   1      31.558  26.823  25.847  1.00  0.00     0.077 C 
ATOM      9  C   UNL A   1      32.682  25.824  26.222  1.00  0.00     0.019 C 
ATOM     10  C   UNL A   1      32.102  27.295  24.472  1.00  0.00     0.019 C 
ATOM     11  C   UNL A   1      33.984  26.502  25.800  1.00  0.00     0.001 C 
ATOM     12  C   UNL A   1      33.620  27.384  24.616  1.00  0.00     0.001 C 
BRANCH   8  13
ATOM     13  C   UNL A   1      30.216  26.056  25.688  1.00  0.00     0.119 C 
BRANCH  13  14
ATOM     14  C   UNL A   1      29.672  25.663  24.325  1.00  0.00     0.225 C 
ATOM     15  N   UNL A   1      30.129  24.593  23.617  1.00  0.00    -0.326 N 
ATOM     16  H   UNL A   1      29.710  24.474  22.734  1.00  0.00     0.169 HD
ATOM     17  O   UNL A   1      28.754  26.325  23.828  1.00  0.00    -0.275 OA
BRANCH  15  18
ATOM     18  C   UNL A   1      31.094  23.636  23.943  1.00  0.00     0.041 A 
ATOM     19  C   UNL A   1      33.143  22.072  24.985  1.00  0.00     0.039 A 
ATOM     20  C   UNL A   1      33.300  22.672  23.736  1.00  0.00     0.016 A 
ATOM     21  C   UNL A   1      31.931  22.173  25.674  1.00  0.00     0.016 A 
ATOM     22  C   UNL A   1      32.261  23.438  23.208  1.00  0.00     0.027 A 
ATOM     23  C   UNL A   1      30.890  22.925  25.130  1.00  0.00     0.027 A 
BRANCH  19  24
ATOM     24  C   UNL A   1      34.304  21.408  25.603  1.00  0.00     0.251 C 
ATOM     25  N   UNL A   1      34.456  20.054  25.465  1.00  0.00    -0.352 N 
ATOM     26  H   UNL A   1      35.115  19.631  26.061  1.00  0.00     0.163 HD
ATOM     27  O   UNL A   1      35.132  22.065  26.225  1.00  0.00    -0.269 OA
BRANCH  25  28
ATOM     28  C   UNL A   1      33.766  19.169  24.546  1.00  0.00     0.112 C 
ATOM     29  C   UNL A   1      32.640  18.439  25.255  1.00  0.00     0.027 C 
ENDBRANCH  25  28
ENDBRANCH  19  24
ENDBRANCH  15  18
ENDBRANCH  13  14
ENDBRANCH   8  13
ENDBRANCH   6   8
ENDBRANCH   5   6
ENDBRANCH   4   5
ENDBRANCH   3   4
ENDBRANCH   2   3
ENDBRANCH   1   2
BRANCH   1  30
ATOM     30  C   UNL A   1      36.122  31.300  28.026  1.00  0.00     0.188 C 
BRANCH  30  31
ATOM     31  O   UNL A   1      35.677  32.490  28.667  1.00  0.00    -0.376 OA
BRANCH  31  32
ATOM     32  C   UNL A   1      34.972  33.452  27.900  1.00  0.00     0.202 C 
BRANCH  32  33
ATOM     33  C   UNL A   1      33.668  34.035  28.464  1.00  0.00     0.261 C 
BRANCH  33  34
ATOM     34  O   UNL A   1      33.838  35.163  29.330  1.00  0.00    -0.460 OA
BRANCH  34  35
ATOM     35  C   UNL A   1      33.306  35.017  30.571  1.00  0.00     0.338 C 
ATOM     36  O   UNL A   1      32.133  35.139  30.886  1.00  0.00    -0.246 OA
BRANCH  35  37
ATOM     37  C   UNL A   1      34.340  34.473  31.479  1.00  0.00     0.060 A 
ATOM     38  C   UNL A   1      35.243  35.377  32.061  1.00  0.00     0.016 A 
ATOM     39  C   UNL A   1      34.414  33.111  31.773  1.00  0.00     0.016 A 
ATOM     40  C   UNL A   1      36.245  34.920  32.913  1.00  0.00     0.010 A 
ATOM     41  C   UNL A   1      35.444  32.648  32.594  1.00  0.00     0.010 A 
ATOM     42  C   UNL A   1      36.383  33.546  33.134  1.00  0.00    -0.014 A 
BRANCH  42  43
ATOM     43  C   UNL A   1      37.653  33.017  33.683  1.00  0.00     0.031 A 
ATOM     44  C   UNL A   1      37.876  33.167  35.162  1.00  0.00     0.074 A 
ATOM     45  C   UNL A   1      38.596  32.467  32.899  1.00  0.00     0.049 A 
ATOM     46  N   UNL A   1      38.940  32.902  35.873  1.00  0.00    -0.248 NA
ATOM     47  C   UNL A   1      36.744  33.695  35.946  1.00  0.00     0.031 C 
ATOM     48  C   UNL A   1      38.478  32.238  31.462  1.00  0.00     0.029 A 
ATOM     49  N   UNL A   1      39.861  32.036  33.211  1.00  0.00    -0.354 N 
ATOM     50  C   UNL A   1      38.617  33.260  37.176  1.00  0.00     0.074 A 
ATOM     51  C   UNL A   1      37.261  33.757  37.163  1.00  0.00     0.031 C 
ATOM     52  C   UNL A   1      39.648  31.754  31.003  1.00  0.00     0.029 A 
ATOM     53  C   UNL A   1      40.598  31.662  32.111  1.00  0.00     0.049 A 
ATOM     54  H   UNL A   1      40.208  31.997  34.131  1.00  0.00     0.167 HD
ATOM     55  C   UNL A   1      39.377  33.176  38.290  1.00  0.00     0.034 A 
ATOM     56  C   UNL A   1      41.898  31.315  32.016  1.00  0.00     0.034 A 
ATOM     57  C   UNL A   1      40.724  32.679  38.305  1.00  0.00     0.049 A 
ATOM     58  C   UNL A   1      42.741  31.268  33.269  1.00  0.00     0.074 A 
ATOM     59  C   UNL A   1      41.575  32.536  39.384  1.00  0.00     0.029 A 
ATOM     60  N   UNL A   1      41.417  32.255  37.182  1.00  0.00    -0.354 N 
ATOM     61  N   UNL A   1      42.393  31.506  34.512  1.00  0.00    -0.248 NA
ATOM     62  C   UNL A   1      44.152  30.878  33.109  1.00  0.00     0.031 C 
ATOM     63  C   UNL A   1      42.794  32.039  38.910  1.00  0.00     0.029 A 
ATOM     64  C   UNL A   1      42.691  31.854  37.540  1.00  0.00     0.049 A 
ATOM     65  H   UNL A   1      41.056  32.241  36.267  1.00  0.00     0.167 HD
ATOM     66  C   UNL A   1      43.523  31.251  35.283  1.00  0.00     0.074 A 
ATOM     67  C   UNL A   1      44.566  30.830  34.369  1.00  0.00     0.031 C 
ATOM     68  C   UNL A   1      43.689  31.366  36.625  1.00  0.00     0.034 A 
BRANCH  55  69
ATOM     69  C   UNL A   1      38.758  33.620  39.584  1.00  0.00     0.023 A 
ATOM     70  C   UNL A   1      38.976  34.934  40.043  1.00  0.00     0.012 A 
ATOM     71  C   UNL A   1      37.942  32.750  40.332  1.00  0.00     0.148 A 
ATOM     72  C   UNL A   1      38.414  35.368  41.242  1.00  0.00     0.002 A 
ATOM     73  C   UNL A   1      37.353  33.202  41.506  1.00  0.00     0.091 A 
ATOM     74  F   UNL A   1      37.777  31.493  39.894  1.00  0.00    -0.205 F 
ATOM     75  C   UNL A   1      37.596  34.506  41.968  1.00  0.00     0.022 A 
BRANCH  73  76
ATOM     76  S   UNL A   1      36.230  32.187  42.473  1.00  0.00     0.127 S 
ATOM     77  O   UNL A   1      35.078  32.088  41.578  1.00  0.00    -0.237 OA
ATOM     78  O   UNL A   1      36.990  30.947  42.626  1.00  0.00    -0.237 OA
ATOM     79  O   UNL A   1      36.001  32.913  43.713  1.00  0.00    -0.744 OA
ENDBRANCH  73  76
ENDBRANCH  55  69
BRANCH  56  80
ATOM     80  C   UNL A   1      42.485  30.953  30.694  1.00  0.00     0.023 A 
ATOM     81  C   UNL A   1      42.352  29.634  30.218  1.00  0.00     0.012 A 
ATOM     82  C   UNL A   1      43.169  31.901  29.907  1.00  0.00     0.148 A 
ATOM     83  C   UNL A   1      42.918  29.256  28.999  1.00  0.00     0.002 A 
ATOM     84  C   UNL A   1      43.685  31.530  28.669  1.00  0.00     0.091 A 
ATOM     85  F   UNL A   1      43.304  33.145  30.385  1.00  0.00    -0.205 F 
ATOM     86  C   UNL A   1      43.576  30.205  28.222  1.00  0.00     0.022 A 
BRANCH  84  87
ATOM     87  S   UNL A   1      44.437  32.714  27.546  1.00  0.00     0.127 S 
ATOM     88  O   UNL A   1      44.442  31.973  26.288  1.00  0.00    -0.237 OA
ATOM     89  O   UNL A   1      43.490  33.828  27.602  1.00  0.00    -0.237 OA
ATOM     90  O   UNL A   1      45.746  33.014  28.112  1.00  0.00    -0.744 OA
ENDBRANCH  84  87
ENDBRANCH  56  80
BRANCH  68  91
ATOM     91  C   UNL A   1      45.023  30.985  37.210  1.00  0.00     0.023 A 
ATOM     92  C   UNL A   1      46.009  31.969  37.409  1.00  0.00     0.012 A 
ATOM     93  C   UNL A   1      45.252  29.671  37.668  1.00  0.00     0.148 A 
ATOM     94  C   UNL A   1      47.212  31.649  38.036  1.00  0.00     0.002 A 
ATOM     95  C   UNL A   1      46.435  29.370  38.333  1.00  0.00     0.091 A 
ATOM     96  F   UNL A   1      44.306  28.745  37.454  1.00  0.00    -0.205 F 
ATOM     97  C   UNL A   1      47.419  30.355  38.510  1.00  0.00     0.022 A 
BRANCH  95  98
ATOM     98  S   UNL A   1      46.741  27.757  39.064  1.00  0.00     0.127 S 
ATOM     99  O   UNL A   1      45.462  27.477  39.715  1.00  0.00    -0.237 OA
ATOM    100  O   UNL A   1      47.022  26.931  37.890  1.00  0.00    -0.237 OA
ATOM    101  O   UNL A   1      47.875  27.934  39.961  1.00  0.00    -0.744 OA
ENDBRANCH  95  98
ENDBRANCH  68  91
ENDBRANCH  42  43
ENDBRANCH  35  37
ENDBRANCH  34  35
ENDBRANCH  33  34
ENDBRANCH  32  33
ENDBRANCH  31  32
ENDBRANCH  30  31
ENDBRANCH   1  30
TORSDOF 25
ENDMDL
MODEL 3
REMARK VINA RESULT:      -9.1      2.804      3.468
REMARK SMILES CCNC(=O)c1ccc(NC(=O)CC2(C(=O)OCCOCCOCCOC(=O)c3ccc(-c4c5nc(c(-c6cccc(S(=O)(=O)[O-])c6F)c6ccc([nH]6)c(-c6cccc(S(=O)(=O)[O-])c6F)c6nc(c(-c7cccc(S(=O)(=O)[O-])c7F)c7ccc4[nH]7)C=C6)C=C5)cc3)CCCC2)cc1
REMARK SMILES IDX 21 1 20 2 19 3 18 4 17 5 15 6 16 7 14 8 92 9 95 10 93 11
REMARK SMILES IDX 94 12 13 13 11 14 10 15 12 17 9 18 6 19 7 20 97 21 8 22
REMARK SMILES IDX 96 23 4 24 3 25 5 27 2 28 1 29 22 30 23 31 24 32 25 33 26 34
REMARK SMILES IDX 27 35 28 36 29 37 30 38 91 39 31 40 90 41 32 42 33 43 34 44
REMARK SMILES IDX 84 45 35 46 89 47 83 48 85 49 36 50 88 51 82 52 81 53 37 55
REMARK SMILES IDX 69 56 49 57 68 58 50 59 53 60 67 61 86 62 51 63 52 64 66 66
REMARK SMILES IDX 87 67 54 68 38 69 39 70 47 71 40 72 42 73 48 74 41 75 43 76
REMARK SMILES IDX 44 77 45 78 46 79 70 80 71 81 79 82 72 83 74 84 80 85 73 86
REMARK SMILES IDX 75 87 76 88 77 89 78 90 55 91 56 92 64 93 57 94 59 95 65 96
REMARK SMILES IDX 58 97 60 98 61 99 62 100 63 101
REMARK H PARENT 10 16 3 26 85 54 53 65
REMARK Flexibility Score: inf
ROOT
ATOM      1  C   UNL A   1      36.294  30.221  29.477  1.00  0.00     0.188 C 
ENDROOT
BRANCH   1   2
ATOM      2  O   UNL A   1      35.361  29.422  28.757  1.00  0.00    -0.376 OA
BRANCH   2   3
ATOM      3  C   UNL A   1      35.459  29.497  27.341  1.00  0.00     0.202 C 
BRANCH   3   4
ATOM      4  C   UNL A   1      34.116  29.622  26.627  1.00  0.00     0.261 C 
BRANCH   4   5
ATOM      5  O   UNL A   1      33.884  28.482  25.781  1.00  0.00    -0.463 OA
BRANCH   5   6
ATOM      6  C   UNL A   1      32.683  28.396  25.169  1.00  0.00     0.312 C 
ATOM      7  O   UNL A   1      31.850  29.294  25.202  1.00  0.00    -0.252 OA
BRANCH   6   8
ATOM      8  C   UNL A   1      32.441  27.008  24.538  1.00  0.00     0.077 C 
ATOM      9  C   UNL A   1      30.937  26.659  24.670  1.00  0.00     0.019 C 
ATOM     10  C   UNL A   1      33.027  25.906  25.460  1.00  0.00     0.019 C 
ATOM     11  C   UNL A   1      30.727  26.322  26.144  1.00  0.00     0.001 C 
ATOM     12  C   UNL A   1      32.054  25.756  26.627  1.00  0.00     0.001 C 
BRANCH   8  13
ATOM     13  C   UNL A   1      32.892  26.807  23.065  1.00  0.00     0.119 C 
BRANCH  13  14
ATOM     14  C   UNL A   1      31.996  26.139  22.034  1.00  0.00     0.225 C 
ATOM     15  N   UNL A   1      31.825  24.791  21.954  1.00  0.00    -0.326 N 
ATOM     16  H   UNL A   1      31.243  24.491  21.218  1.00  0.00     0.169 HD
ATOM     17  O   UNL A   1      31.369  26.842  21.234  1.00  0.00    -0.275 OA
BRANCH  15  18
ATOM     18  C   UNL A   1      32.339  23.763  22.750  1.00  0.00     0.041 A 
ATOM     19  C   UNL A   1      33.314  22.073  24.730  1.00  0.00     0.039 A 
ATOM     20  C   UNL A   1      34.176  22.547  23.743  1.00  0.00     0.016 A 
ATOM     21  C   UNL A   1      31.948  22.363  24.679  1.00  0.00     0.016 A 
ATOM     22  C   UNL A   1      33.679  23.378  22.739  1.00  0.00     0.027 A 
ATOM     23  C   UNL A   1      31.454  23.178  23.661  1.00  0.00     0.027 A 
BRANCH  19  24
ATOM     24  C   UNL A   1      33.883  21.337  25.874  1.00  0.00     0.251 C 
ATOM     25  N   UNL A   1      34.016  19.976  25.798  1.00  0.00    -0.352 N 
ATOM     26  H   UNL A   1      34.197  19.513  26.647  1.00  0.00     0.163 HD
ATOM     27  O   UNL A   1      34.244  21.942  26.878  1.00  0.00    -0.269 OA
BRANCH  25  28
ATOM     28  C   UNL A   1      33.925  19.136  24.620  1.00  0.00     0.112 C 
ATOM     29  C   UNL A   1      32.538  18.528  24.506  1.00  0.00     0.027 C 
ENDBRANCH  25  28
ENDBRANCH  19  24
ENDBRANCH  15  18
ENDBRANCH  13  14
ENDBRANCH   8  13
ENDBRANCH   6   8
ENDBRANCH   5   6
ENDBRANCH   4   5
ENDBRANCH   3   4
ENDBRANCH   2   3
ENDBRANCH   1   2
BRANCH   1  30
ATOM     30  C   UNL A   1      36.933  31.361  28.666  1.00  0.00     0.188 C 
BRANCH  30  31
ATOM     31  O   UNL A   1      36.449  32.695  28.768  1.00  0.00    -0.376 OA
BRANCH  31  32
ATOM     32  C   UNL A   1      35.395  33.101  27.910  1.00  0.00     0.202 C 
BRANCH  32  33
ATOM     33  C   UNL A   1      34.085  33.602  28.536  1.00  0.00     0.261 C 
BRANCH  33  34
ATOM     34  O   UNL A   1      34.200  34.819  29.282  1.00  0.00    -0.460 OA
BRANCH  34  35
ATOM     35  C   UNL A   1      33.647  34.784  30.522  1.00  0.00     0.338 C 
ATOM     36  O   UNL A   1      32.476  34.978  30.810  1.00  0.00    -0.246 OA
BRANCH  35  37
ATOM     37  C   UNL A   1      34.645  34.264  31.482  1.00  0.00     0.060 A 
ATOM     38  C   UNL A   1      35.600  35.162  31.987  1.00  0.00     0.016 A 
ATOM     39  C   UNL A   1      34.637  32.933  31.898  1.00  0.00     0.016 A 
ATOM     40  C   UNL A   1      36.571  34.724  32.884  1.00  0.00     0.010 A 
ATOM     41  C   UNL A   1      35.637  32.485  32.764  1.00  0.00     0.010 A 
ATOM     42  C   UNL A   1      36.627  33.370  33.228  1.00  0.00    -0.014 A 
BRANCH  42  43
ATOM     43  C   UNL A   1      37.862  32.817  33.830  1.00  0.00     0.031 A 
ATOM     44  C   UNL A   1      38.076  33.059  35.299  1.00  0.00     0.074 A 
ATOM     45  C   UNL A   1      38.785  32.169  33.100  1.00  0.00     0.049 A 
ATOM     46  N   UNL A   1      39.117  32.792  36.042  1.00  0.00    -0.248 NA
ATOM     47  C   UNL A   1      36.962  33.695  36.028  1.00  0.00     0.031 C 
ATOM     48  C   UNL A   1      38.672  31.847  31.681  1.00  0.00     0.029 A 
ATOM     49  N   UNL A   1      40.023  31.697  33.460  1.00  0.00    -0.354 N 
ATOM     50  C   UNL A   1      38.797  33.254  37.313  1.00  0.00     0.074 A 
ATOM     51  C   UNL A   1      37.468  33.817  37.245  1.00  0.00     0.031 C 
ATOM     52  C   UNL A   1      39.820  31.274  31.274  1.00  0.00     0.029 A 
ATOM     53  C   UNL A   1      40.752  31.212  32.400  1.00  0.00     0.049 A 
ATOM     54  H   UNL A   1      40.356  31.706  34.386  1.00  0.00     0.167 HD
ATOM     55  C   UNL A   1      39.540  33.210  38.441  1.00  0.00     0.034 A 
ATOM     56  C   UNL A   1      42.034  30.796  32.348  1.00  0.00     0.034 A 
ATOM     57  C   UNL A   1      40.859  32.650  38.510  1.00  0.00     0.049 A 
ATOM     58  C   UNL A   1      42.859  30.794  33.613  1.00  0.00     0.074 A 
ATOM     59  C   UNL A   1      41.690  32.540  39.609  1.00  0.00     0.029 A 
ATOM     60  N   UNL A   1      41.543  32.114  37.429  1.00  0.00    -0.354 N 
ATOM     61  N   UNL A   1      42.510  31.134  34.831  1.00  0.00    -0.248 NA
ATOM     62  C   UNL A   1      44.250  30.324  33.502  1.00  0.00     0.031 C 
ATOM     63  C   UNL A   1      42.887  31.951  39.188  1.00  0.00     0.029 A 
ATOM     64  C   UNL A   1      42.790  31.677  37.833  1.00  0.00     0.049 A 
ATOM     65  H   UNL A   1      41.191  32.055  36.512  1.00  0.00     0.167 HD
ATOM     66  C   UNL A   1      43.616  30.877  35.635  1.00  0.00     0.074 A 
ATOM     67  C   UNL A   1      44.647  30.343  34.768  1.00  0.00     0.031 C 
ATOM     68  C   UNL A   1      43.772  31.077  36.968  1.00  0.00     0.034 A 
BRANCH  55  69
ATOM     69  C   UNL A   1      38.929  33.774  39.692  1.00  0.00     0.023 A 
ATOM     70  C   UNL A   1      39.218  35.100  40.069  1.00  0.00     0.012 A 
ATOM     71  C   UNL A   1      38.052  33.003  40.479  1.00  0.00     0.148 A 
ATOM     72  C   UNL A   1      38.665  35.644  41.227  1.00  0.00     0.002 A 
ATOM     73  C   UNL A   1      37.475  33.565  41.611  1.00  0.00     0.091 A 
ATOM     74  F   UNL A   1      37.819  31.733  40.121  1.00  0.00    -0.205 F 
ATOM     75  C   UNL A   1      37.787  34.880  41.992  1.00  0.00     0.022 A 
BRANCH  73  76
ATOM     76  S   UNL A   1      36.279  32.682  42.620  1.00  0.00     0.127 S 
ATOM     77  O   UNL A   1      35.699  33.769  43.408  1.00  0.00    -0.237 OA
ATOM     78  O   UNL A   1      35.384  32.114  41.613  1.00  0.00    -0.237 OA
ATOM     79  O   UNL A   1      37.042  31.698  43.375  1.00  0.00    -0.744 OA
ENDBRANCH  73  76
ENDBRANCH  55  69
BRANCH  56  80
ATOM     80  C   UNL A   1      42.616  30.313  31.062  1.00  0.00     0.023 A 
ATOM     81  C   UNL A   1      43.308  31.220  30.235  1.00  0.00     0.012 A 
ATOM     82  C   UNL A   1      42.492  28.970  30.656  1.00  0.00     0.148 A 
ATOM     83  C   UNL A   1      43.837  30.806  29.011  1.00  0.00     0.002 A 
ATOM     84  C   UNL A   1      43.067  28.553  29.459  1.00  0.00     0.091 A 
ATOM     85  F   UNL A   1      41.813  28.127  31.444  1.00  0.00    -0.205 F 
ATOM     86  C   UNL A   1      43.724  29.472  28.628  1.00  0.00     0.022 A 
BRANCH  84  87
ATOM     87  S   UNL A   1      43.080  26.832  28.945  1.00  0.00     0.127 S 
ATOM     88  O   UNL A   1      43.888  26.886  27.731  1.00  0.00    -0.237 OA
ATOM     89  O   UNL A   1      43.724  26.180  30.087  1.00  0.00    -0.237 OA
ATOM     90  O   UNL A   1      41.681  26.466  28.763  1.00  0.00    -0.744 OA
ENDBRANCH  84  87
ENDBRANCH  56  80
BRANCH  68  91
ATOM     91  C   UNL A   1      45.079  30.672  37.598  1.00  0.00     0.023 A 
ATOM     92  C   UNL A   1      46.072  31.640  37.839  1.00  0.00     0.012 A 
ATOM     93  C   UNL A   1      45.272  29.352  38.054  1.00  0.00     0.148 A 
ATOM     94  C   UNL A   1      47.247  31.297  38.507  1.00  0.00     0.002 A 
ATOM     95  C   UNL A   1      46.425  29.028  38.758  1.00  0.00     0.091 A 
ATOM     96  F   UNL A   1      44.321  28.441  37.799  1.00  0.00    -0.205 F 
ATOM     97  C   UNL A   1      47.418  29.996  38.978  1.00  0.00     0.022 A 
BRANCH  95  98
ATOM     98  S   UNL A   1      46.681  27.405  39.488  1.00  0.00     0.127 S 
ATOM     99  O   UNL A   1      45.509  27.279  40.352  1.00  0.00    -0.237 OA
ATOM    100  O   UNL A   1      46.672  26.531  38.315  1.00  0.00    -0.237 OA
ATOM    101  O   UNL A   1      47.963  27.475  40.176  1.00  0.00    -0.744 OA
ENDBRANCH  95  98
ENDBRANCH  68  91
ENDBRANCH  42  43
ENDBRANCH  35  37
ENDBRANCH  34  35
ENDBRANCH  33  34
ENDBRANCH  32  33
ENDBRANCH  31  32
ENDBRANCH  30  31
ENDBRANCH   1  30
TORSDOF 25
ENDMDL
