MODEL 1
REMARK VINA RESULT:     -12.0      0.000      0.000
REMARK SMILES O=C(OCCOCCOCCOC(=O)c1ccc(-c2c3nc(c(-c4cccc(S(=O)(=O)[O-])c4F)c4ccc([nH]4)c(-c4cccc(S(=O)(=O)[O-])c4F)c4nc(c(-c5cccc(S(=O)(=O)[O-])c5F)c5ccc2[nH]5)C=C4)C=C3)cc1)C1=Cc2cc(OC(F)(F)F)ccc2O[C@@H]1C(F)(F)F
REMARK SMILES IDX 8 1 7 2 6 3 5 4 4 5 3 6 2 7 1 8 78 9 79 10 92 11 80 12 91 13
REMARK SMILES IDX 81 14 90 15 82 16 89 17 88 18 93 19 94 20 95 21 96 22 83 23
REMARK SMILES IDX 84 24 85 25 86 26 87 27 9 28 10 29 11 30 12 31 13 32 14 33
REMARK SMILES IDX 15 34 16 35 77 36 17 37 76 38 18 39 19 40 20 41 70 42 21 43
REMARK SMILES IDX 75 44 69 45 71 46 22 47 74 48 68 49 67 50 23 52 55 53 35 54
REMARK SMILES IDX 54 55 36 56 39 57 53 58 72 59 37 60 38 61 52 63 73 64 40 65
REMARK SMILES IDX 24 66 25 67 33 68 26 69 28 70 34 71 27 72 29 73 30 74 31 75
REMARK SMILES IDX 32 76 56 77 57 78 65 79 58 80 60 81 66 82 59 83 61 84 62 85
REMARK SMILES IDX 63 86 64 87 41 88 42 89 50 90 43 91 45 92 51 93 44 94 46 95
REMARK SMILES IDX 47 96 48 97 49 98
REMARK H PARENT 71 51 39 62
REMARK Flexibility Score: inf
ROOT
ATOM      1  C   UNL A   1      36.537  21.784  25.274  1.00  0.00     0.188 C 
ENDROOT
BRANCH   1   2
ATOM      2  C   UNL A   1      35.580  22.401  26.306  1.00  0.00     0.188 C 
BRANCH   2   3
ATOM      3  O   UNL A   1      34.212  21.892  26.616  1.00  0.00    -0.376 OA
BRANCH   3   4
ATOM      4  C   UNL A   1      33.025  22.578  27.668  1.00  0.00     0.202 C 
BRANCH   4   5
ATOM      5  C   UNL A   1      31.333  23.773  27.018  1.00  0.00     0.261 C 
BRANCH   5   6
ATOM      6  O   UNL A   1      31.017  24.204  25.602  1.00  0.00    -0.460 OA
BRANCH   6   7
ATOM      7  C   UNL A   1      31.058  23.169  24.752  1.00  0.00     0.338 C 
ATOM      8  O   UNL A   1      31.255  22.009  25.018  1.00  0.00    -0.246 OA
BRANCH   7   9
ATOM      9  C   UNL A   1      31.292  23.934  23.533  1.00  0.00     0.087 C 
ATOM     10  C   UNL A   1      30.408  25.078  23.332  1.00  0.00     0.027 C 
ATOM     11  C   UNL A   1      33.172  24.066  23.866  1.00  0.00     0.316 C 
ATOM     12  C   UNL A   1      30.865  26.781  23.650  1.00  0.00     0.021 A 
ATOM     13  O   UNL A   1      33.667  25.888  24.383  1.00  0.00    -0.475 OA
ATOM     14  C   UNL A   1      29.917  27.755  23.537  1.00  0.00     0.058 A 
ATOM     15  C   UNL A   1      32.424  27.227  24.235  1.00  0.00     0.128 A 
ATOM     16  C   UNL A   1      30.324  29.061  23.880  1.00  0.00     0.130 A 
ATOM     17  C   UNL A   1      32.767  28.518  24.525  1.00  0.00     0.051 A 
ATOM     18  C   UNL A   1      31.674  29.419  24.331  1.00  0.00     0.050 A 
BRANCH  11  19
ATOM     19  C   UNL A   1      33.523  23.127  22.514  1.00  0.00     0.430 C 
ATOM     20  F   UNL A   1      32.893  21.975  22.298  1.00  0.00    -0.167 F 
ATOM     21  F   UNL A   1      33.232  23.890  21.422  1.00  0.00    -0.167 F 
ATOM     22  F   UNL A   1      34.850  22.842  22.386  1.00  0.00    -0.167 F 
ENDBRANCH  11  19
BRANCH  16  23
ATOM     23  O   UNL A   1      29.263  29.925  23.735  1.00  0.00    -0.406 OA
BRANCH  23  24
ATOM     24  C   UNL A   1      28.342  29.747  22.683  1.00  0.00     0.573 C 
ATOM     25  F   UNL A   1      27.339  30.645  22.759  1.00  0.00    -0.132 F 
ATOM     26  F   UNL A   1      28.951  29.839  21.484  1.00  0.00    -0.132 F 
ATOM     27  F   UNL A   1      27.807  28.509  22.791  1.00  0.00    -0.132 F 
ENDBRANCH  23  24
ENDBRANCH  16  23
ENDBRANCH   7   9
ENDBRANCH   6   7
ENDBRANCH   5   6
ENDBRANCH   4   5
ENDBRANCH   3   4
ENDBRANCH   2   3
ENDBRANCH   1   2
BRANCH   1  28
ATOM     28  O   UNL A   1      36.504  20.400  25.047  1.00  0.00    -0.376 OA
BRANCH  28  29
ATOM     29  C   UNL A   1      37.780  19.777  24.982  1.00  0.00     0.202 C 
BRANCH  29  30
ATOM     30  C   UNL A   1      38.975  20.498  25.633  1.00  0.00     0.261 C 
BRANCH  30  31
ATOM     31  O   UNL A   1      39.930  19.616  26.268  1.00  0.00    -0.460 OA
BRANCH  31  32
ATOM     32  C   UNL A   1      41.217  20.043  26.350  1.00  0.00     0.338 C 
ATOM     33  O   UNL A   1      42.213  19.428  26.008  1.00  0.00    -0.246 OA
BRANCH  32  34
ATOM     34  C   UNL A   1      41.258  21.461  26.775  1.00  0.00     0.060 A 
ATOM     35  C   UNL A   1      41.076  22.470  25.816  1.00  0.00     0.016 A 
ATOM     36  C   UNL A   1      41.533  21.796  28.101  1.00  0.00     0.016 A 
ATOM     37  C   UNL A   1      41.140  23.815  26.188  1.00  0.00     0.010 A 
ATOM     38  C   UNL A   1      41.650  23.143  28.460  1.00  0.00     0.010 A 
ATOM     39  C   UNL A   1      41.473  24.159  27.503  1.00  0.00    -0.014 A 
BRANCH  39  40
ATOM     40  C   UNL A   1      41.888  25.552  27.802  1.00  0.00     0.031 A 
ATOM     41  C   UNL A   1      43.289  25.957  27.430  1.00  0.00     0.074 A 
ATOM     42  C   UNL A   1      41.053  26.445  28.364  1.00  0.00     0.049 A 
ATOM     43  N   UNL A   1      43.892  27.105  27.581  1.00  0.00    -0.248 NA
ATOM     44  C   UNL A   1      44.122  24.917  26.800  1.00  0.00     0.031 C 
ATOM     45  C   UNL A   1      39.671  26.181  28.760  1.00  0.00     0.029 A 
ATOM     46  N   UNL A   1      41.261  27.756  28.719  1.00  0.00    -0.354 N 
ATOM     47  C   UNL A   1      45.173  26.926  27.075  1.00  0.00     0.074 A 
ATOM     48  C   UNL A   1      45.272  25.551  26.640  1.00  0.00     0.031 C 
ATOM     49  C   UNL A   1      39.164  27.288  29.333  1.00  0.00     0.029 A 
ATOM     50  C   UNL A   1      40.190  28.330  29.365  1.00  0.00     0.049 A 
ATOM     51  H   UNL A   1      42.097  28.239  28.529  1.00  0.00     0.167 HD
ATOM     52  C   UNL A   1      46.176  27.828  26.966  1.00  0.00     0.034 A 
ATOM     53  C   UNL A   1      40.068  29.545  29.939  1.00  0.00     0.034 A 
ATOM     54  C   UNL A   1      46.086  29.187  27.423  1.00  0.00     0.049 A 
ATOM     55  C   UNL A   1      41.226  30.514  29.864  1.00  0.00     0.074 A 
ATOM     56  C   UNL A   1      47.043  30.184  27.351  1.00  0.00     0.029 A 
ATOM     57  N   UNL A   1      44.985  29.735  28.062  1.00  0.00    -0.354 N 
ATOM     58  N   UNL A   1      42.399  30.362  29.297  1.00  0.00    -0.248 NA
ATOM     59  C   UNL A   1      41.029  31.836  30.478  1.00  0.00     0.031 C 
ATOM     60  C   UNL A   1      46.538  31.319  27.991  1.00  0.00     0.029 A 
ATOM     61  C   UNL A   1      45.242  31.051  28.401  1.00  0.00     0.049 A 
ATOM     62  H   UNL A   1      44.143  29.257  28.247  1.00  0.00     0.167 HD
ATOM     63  C   UNL A   1      43.058  31.579  29.445  1.00  0.00     0.074 A 
ATOM     64  C   UNL A   1      42.145  32.464  30.137  1.00  0.00     0.031 C 
ATOM     65  C   UNL A   1      44.307  31.933  29.052  1.00  0.00     0.034 A 
BRANCH  52  66
ATOM     66  C   UNL A   1      47.459  27.367  26.323  1.00  0.00     0.023 A 
ATOM     67  C   UNL A   1      47.738  27.720  24.987  1.00  0.00     0.012 A 
ATOM     68  C   UNL A   1      48.401  26.617  27.052  1.00  0.00     0.148 A 
ATOM     69  C   UNL A   1      48.918  27.299  24.374  1.00  0.00     0.002 A 
ATOM     70  C   UNL A   1      49.598  26.247  26.452  1.00  0.00     0.091 A 
ATOM     71  F   UNL A   1      48.108  26.277  28.316  1.00  0.00    -0.205 F 
ATOM     72  C   UNL A   1      49.852  26.574  25.109  1.00  0.00     0.022 A 
BRANCH  70  73
ATOM     73  S   UNL A   1      50.898  25.379  27.333  1.00  0.00     0.127 S 
ATOM     74  O   UNL A   1      51.782  24.981  26.238  1.00  0.00    -0.237 OA
ATOM     75  O   UNL A   1      51.434  26.429  28.198  1.00  0.00    -0.237 OA
ATOM     76  O   UNL A   1      50.250  24.280  28.034  1.00  0.00    -0.744 OA
ENDBRANCH  70  73
ENDBRANCH  52  66
BRANCH  53  77
ATOM     77  C   UNL A   1      38.811  29.931  30.645  1.00  0.00     0.023 A 
ATOM     78  C   UNL A   1      38.564  29.474  31.955  1.00  0.00     0.012 A 
ATOM     79  C   UNL A   1      37.834  30.716  30.001  1.00  0.00     0.148 A 
ATOM     80  C   UNL A   1      37.349  29.748  32.589  1.00  0.00     0.002 A 
ATOM     81  C   UNL A   1      36.654  31.038  30.661  1.00  0.00     0.091 A 
ATOM     82  F   UNL A   1      38.076  31.128  28.748  1.00  0.00    -0.205 F 
ATOM     83  C   UNL A   1      36.399  30.536  31.946  1.00  0.00     0.022 A 
BRANCH  81  84
ATOM     84  S   UNL A   1      35.422  32.136  29.952  1.00  0.00     0.127 S 
ATOM     85  O   UNL A   1      34.479  32.282  31.059  1.00  0.00    -0.237 OA
ATOM     86  O   UNL A   1      36.216  33.329  29.659  1.00  0.00    -0.237 OA
ATOM     87  O   UNL A   1      34.908  31.450  28.775  1.00  0.00    -0.744 OA
ENDBRANCH  81  84
ENDBRANCH  53  77
BRANCH  65  88
ATOM     88  C   UNL A   1      44.743  33.358  29.295  1.00  0.00     0.023 A 
ATOM     89  C   UNL A   1      45.422  33.708  30.477  1.00  0.00     0.012 A 
ATOM     90  C   UNL A   1      44.516  34.343  28.312  1.00  0.00     0.148 A 
ATOM     91  C   UNL A   1      45.822  35.027  30.702  1.00  0.00     0.002 A 
ATOM     92  C   UNL A   1      44.971  35.640  28.515  1.00  0.00     0.091 A 
ATOM     93  F   UNL A   1      43.860  33.995  27.196  1.00  0.00    -0.205 F 
ATOM     94  C   UNL A   1      45.606  35.988  29.717  1.00  0.00     0.022 A 
BRANCH  92  95
ATOM     95  S   UNL A   1      44.827  36.920  27.263  1.00  0.00     0.127 S 
ATOM     96  O   UNL A   1      45.864  36.523  26.312  1.00  0.00    -0.237 OA
ATOM     97  O   UNL A   1      43.457  36.729  26.787  1.00  0.00    -0.237 OA
ATOM     98  O   UNL A   1      45.061  38.184  27.947  1.00  0.00    -0.744 OA
ENDBRANCH  92  95
ENDBRANCH  65  88
ENDBRANCH  39  40
ENDBRANCH  32  34
ENDBRANCH  31  32
ENDBRANCH  30  31
ENDBRANCH  29  30
ENDBRANCH  28  29
ENDBRANCH   1  28
TORSDOF 23
ENDMDL
MODEL 2
REMARK VINA RESULT:     -11.8      4.744      6.548
REMARK SMILES O=C(OCCOCCOCCOC(=O)c1ccc(-c2c3nc(c(-c4cccc(S(=O)(=O)[O-])c4F)c4ccc([nH]4)c(-c4cccc(S(=O)(=O)[O-])c4F)c4nc(c(-c5cccc(S(=O)(=O)[O-])c5F)c5ccc2[nH]5)C=C4)C=C3)cc1)C1=Cc2cc(OC(F)(F)F)ccc2O[C@@H]1C(F)(F)F
REMARK SMILES IDX 8 1 7 2 6 3 5 4 4 5 3 6 2 7 1 8 78 9 79 10 92 11 80 12 91 13
REMARK SMILES IDX 81 14 90 15 82 16 89 17 88 18 93 19 94 20 95 21 96 22 83 23
REMARK SMILES IDX 84 24 85 25 86 26 87 27 9 28 10 29 11 30 12 31 13 32 14 33
REMARK SMILES IDX 15 34 16 35 77 36 17 37 76 38 18 39 19 40 20 41 70 42 21 43
REMARK SMILES IDX 75 44 69 45 71 46 22 47 74 48 68 49 67 50 23 52 55 53 35 54
REMARK SMILES IDX 54 55 36 56 39 57 53 58 72 59 37 60 38 61 52 63 73 64 40 65
REMARK SMILES IDX 24 66 25 67 33 68 26 69 28 70 34 71 27 72 29 73 30 74 31 75
REMARK SMILES IDX 32 76 56 77 57 78 65 79 58 80 60 81 66 82 59 83 61 84 62 85
REMARK SMILES IDX 63 86 64 87 41 88 42 89 50 90 43 91 45 92 51 93 44 94 46 95
REMARK SMILES IDX 47 96 48 97 49 98
REMARK H PARENT 71 51 39 62
REMARK Flexibility Score: inf
ROOT
ATOM      1  C   UNL A   1      42.789  19.428  26.458  1.00  0.00     0.188 C 
ENDROOT
BRANCH   1   2
ATOM      2  C   UNL A   1      41.536  20.037  27.107  1.00  0.00     0.188 C 
BRANCH   2   3
ATOM      3  O   UNL A   1      40.231  20.249  26.415  1.00  0.00    -0.376 OA
BRANCH   3   4
ATOM      4  C   UNL A   1      39.349  21.722  26.219  1.00  0.00     0.202 C 
BRANCH   4   5
ATOM      5  C   UNL A   1      37.391  21.882  25.294  1.00  0.00     0.261 C 
BRANCH   5   6
ATOM      6  O   UNL A   1      36.441  23.058  25.379  1.00  0.00    -0.460 OA
BRANCH   6   7
ATOM      7  C   UNL A   1      35.952  23.383  24.174  1.00  0.00     0.338 C 
ATOM      8  O   UNL A   1      36.570  23.752  23.207  1.00  0.00    -0.246 OA
BRANCH   7   9
ATOM      9  C   UNL A   1      34.573  23.616  24.588  1.00  0.00     0.087 C 
ATOM     10  C   UNL A   1      34.319  24.905  25.223  1.00  0.00     0.027 C 
ATOM     11  C   UNL A   1      33.876  23.095  22.882  1.00  0.00     0.316 C 
ATOM     12  C   UNL A   1      33.569  26.310  24.402  1.00  0.00     0.021 A 
ATOM     13  O   UNL A   1      33.204  24.647  21.896  1.00  0.00    -0.475 OA
ATOM     14  C   UNL A   1      33.489  27.501  25.063  1.00  0.00     0.058 A 
ATOM     15  C   UNL A   1      33.071  26.262  22.753  1.00  0.00     0.128 A 
ATOM     16  C   UNL A   1      32.962  28.584  24.331  1.00  0.00     0.130 A 
ATOM     17  C   UNL A   1      32.541  27.341  22.104  1.00  0.00     0.051 A 
ATOM     18  C   UNL A   1      32.501  28.501  22.940  1.00  0.00     0.050 A 
BRANCH  11  19
ATOM     19  C   UNL A   1      33.116  21.752  23.554  1.00  0.00     0.430 C 
ATOM     20  F   UNL A   1      32.120  21.892  24.425  1.00  0.00    -0.167 F 
ATOM     21  F   UNL A   1      32.574  21.049  22.519  1.00  0.00    -0.167 F 
ATOM     22  F   UNL A   1      33.985  20.879  24.139  1.00  0.00    -0.167 F 
ENDBRANCH  11  19
BRANCH  16  23
ATOM     23  O   UNL A   1      32.961  29.713  25.118  1.00  0.00    -0.406 OA
BRANCH  23  24
ATOM     24  C   UNL A   1      31.833  30.030  25.901  1.00  0.00     0.573 C 
ATOM     25  F   UNL A   1      32.195  30.626  27.056  1.00  0.00    -0.132 F 
ATOM     26  F   UNL A   1      30.980  30.823  25.224  1.00  0.00    -0.132 F 
ATOM     27  F   UNL A   1      31.189  28.880  26.207  1.00  0.00    -0.132 F 
ENDBRANCH  23  24
ENDBRANCH  16  23
ENDBRANCH   7   9
ENDBRANCH   6   7
ENDBRANCH   5   6
ENDBRANCH   4   5
ENDBRANCH   3   4
ENDBRANCH   2   3
ENDBRANCH   1   2
BRANCH   1  28
ATOM     28  O   UNL A   1      43.138  19.804  25.151  1.00  0.00    -0.376 OA
BRANCH  28  29
ATOM     29  C   UNL A   1      44.110  20.838  25.068  1.00  0.00     0.202 C 
BRANCH  29  30
ATOM     30  C   UNL A   1      43.616  22.295  25.006  1.00  0.00     0.261 C 
BRANCH  30  31
ATOM     31  O   UNL A   1      44.671  23.285  25.052  1.00  0.00    -0.460 OA
BRANCH  31  32
ATOM     32  C   UNL A   1      45.214  23.564  26.265  1.00  0.00     0.338 C 
ATOM     33  O   UNL A   1      46.322  23.239  26.662  1.00  0.00    -0.246 OA
BRANCH  32  34
ATOM     34  C   UNL A   1      44.330  24.480  27.021  1.00  0.00     0.060 A 
ATOM     35  C   UNL A   1      44.531  25.866  26.922  1.00  0.00     0.016 A 
ATOM     36  C   UNL A   1      43.345  23.974  27.869  1.00  0.00     0.016 A 
ATOM     37  C   UNL A   1      43.729  26.749  27.649  1.00  0.00     0.010 A 
ATOM     38  C   UNL A   1      42.578  24.858  28.637  1.00  0.00     0.010 A 
ATOM     39  C   UNL A   1      42.779  26.247  28.546  1.00  0.00    -0.014 A 
BRANCH  39  40
ATOM     40  C   UNL A   1      42.193  27.159  29.560  1.00  0.00     0.031 A 
ATOM     41  C   UNL A   1      42.892  27.264  30.888  1.00  0.00     0.074 A 
ATOM     42  C   UNL A   1      41.090  27.890  29.317  1.00  0.00     0.049 A 
ATOM     43  N   UNL A   1      42.588  27.983  31.935  1.00  0.00    -0.248 NA
ATOM     44  C   UNL A   1      44.103  26.441  31.054  1.00  0.00     0.031 C 
ATOM     45  C   UNL A   1      40.328  27.886  28.069  1.00  0.00     0.029 A 
ATOM     46  N   UNL A   1      40.407  28.766  30.126  1.00  0.00    -0.354 N 
ATOM     47  C   UNL A   1      43.561  27.695  32.884  1.00  0.00     0.074 A 
ATOM     48  C   UNL A   1      44.448  26.714  32.302  1.00  0.00     0.031 C 
ATOM     49  C   UNL A   1      39.263  28.698  28.208  1.00  0.00     0.029 A 
ATOM     50  C   UNL A   1      39.256  29.259  29.558  1.00  0.00     0.049 A 
ATOM     51  H   UNL A   1      40.714  29.017  31.027  1.00  0.00     0.167 HD
ATOM     52  C   UNL A   1      43.714  28.212  34.126  1.00  0.00     0.034 A 
ATOM     53  C   UNL A   1      38.295  30.050  30.082  1.00  0.00     0.034 A 
ATOM     54  C   UNL A   1      42.817  29.167  34.714  1.00  0.00     0.049 A 
ATOM     55  C   UNL A   1      38.454  30.562  31.495  1.00  0.00     0.074 A 
ATOM     56  C   UNL A   1      42.889  29.760  35.961  1.00  0.00     0.029 A 
ATOM     57  N   UNL A   1      41.669  29.651  34.106  1.00  0.00    -0.354 N 
ATOM     58  N   UNL A   1      39.429  30.356  32.348  1.00  0.00    -0.248 NA
ATOM     59  C   UNL A   1      37.394  31.445  32.006  1.00  0.00     0.031 C 
ATOM     60  C   UNL A   1      41.757  30.563  36.128  1.00  0.00     0.029 A 
ATOM     61  C   UNL A   1      41.017  30.525  34.957  1.00  0.00     0.049 A 
ATOM     62  H   UNL A   1      41.363  29.409  33.201  1.00  0.00     0.167 HD
ATOM     63  C   UNL A   1      39.125  31.119  33.471  1.00  0.00     0.074 A 
ATOM     64  C   UNL A   1      37.884  31.807  33.183  1.00  0.00     0.031 C 
ATOM     65  C   UNL A   1      39.804  31.235  34.640  1.00  0.00     0.034 A 
BRANCH  52  66
ATOM     66  C   UNL A   1      44.903  27.750  34.928  1.00  0.00     0.023 A 
ATOM     67  C   UNL A   1      46.134  28.428  34.810  1.00  0.00     0.012 A 
ATOM     68  C   UNL A   1      44.791  26.670  35.824  1.00  0.00     0.148 A 
ATOM     69  C   UNL A   1      47.246  28.013  35.542  1.00  0.00     0.002 A 
ATOM     70  C   UNL A   1      45.889  26.297  36.590  1.00  0.00     0.091 A 
ATOM     71  F   UNL A   1      43.618  26.027  35.909  1.00  0.00    -0.205 F 
ATOM     72  C   UNL A   1      47.120  26.957  36.439  1.00  0.00     0.022 A 
BRANCH  70  73
ATOM     73  S   UNL A   1      45.812  24.999  37.828  1.00  0.00     0.127 S 
ATOM     74  O   UNL A   1      44.396  24.635  37.786  1.00  0.00    -0.237 OA
ATOM     75  O   UNL A   1      46.717  23.994  37.272  1.00  0.00    -0.237 OA
ATOM     76  O   UNL A   1      46.259  25.602  39.076  1.00  0.00    -0.744 OA
ENDBRANCH  70  73
ENDBRANCH  52  66
BRANCH  53  77
ATOM     77  C   UNL A   1      37.087  30.412  29.283  1.00  0.00     0.023 A 
ATOM     78  C   UNL A   1      36.391  29.422  28.560  1.00  0.00     0.012 A 
ATOM     79  C   UNL A   1      36.651  31.750  29.201  1.00  0.00     0.148 A 
ATOM     80  C   UNL A   1      35.318  29.764  27.733  1.00  0.00     0.002 A 
ATOM     81  C   UNL A   1      35.544  32.074  28.426  1.00  0.00     0.091 A 
ATOM     82  F   UNL A   1      37.334  32.682  29.880  1.00  0.00    -0.205 F 
ATOM     83  C   UNL A   1      34.891  31.087  27.673  1.00  0.00     0.022 A 
BRANCH  81  84
ATOM     84  S   UNL A   1      34.857  33.732  28.374  1.00  0.00     0.127 S 
ATOM     85  O   UNL A   1      35.453  34.341  29.561  1.00  0.00    -0.237 OA
ATOM     86  O   UNL A   1      35.374  34.232  27.100  1.00  0.00    -0.237 OA
ATOM     87  O   UNL A   1      33.411  33.565  28.414  1.00  0.00    -0.744 OA
ENDBRANCH  81  84
ENDBRANCH  53  77
BRANCH  65  88
ATOM     88  C   UNL A   1      39.263  32.192  35.674  1.00  0.00     0.023 A 
ATOM     89  C   UNL A   1      38.233  31.796  36.549  1.00  0.00     0.012 A 
ATOM     90  C   UNL A   1      39.824  33.479  35.807  1.00  0.00     0.148 A 
ATOM     91  C   UNL A   1      37.732  32.684  37.503  1.00  0.00     0.002 A 
ATOM     92  C   UNL A   1      39.362  34.335  36.799  1.00  0.00     0.091 A 
ATOM     93  F   UNL A   1      40.798  33.844  34.961  1.00  0.00    -0.205 F 
ATOM     94  C   UNL A   1      38.303  33.947  37.634  1.00  0.00     0.022 A 
BRANCH  92  95
ATOM     95  S   UNL A   1      40.103  35.942  37.108  1.00  0.00     0.127 S 
ATOM     96  O   UNL A   1      39.717  36.683  35.908  1.00  0.00    -0.237 OA
ATOM     97  O   UNL A   1      39.420  36.364  38.331  1.00  0.00    -0.237 OA
ATOM     98  O   UNL A   1      41.532  35.707  37.261  1.00  0.00    -0.744 OA
ENDBRANCH  92  95
ENDBRANCH  65  88
ENDBRANCH  39  40
ENDBRANCH  32  34
ENDBRANCH  31  32
ENDBRANCH  30  31
ENDBRANCH  29  30
ENDBRANCH  28  29
ENDBRANCH   1  28
TORSDOF 23
ENDMDL
MODEL 3
REMARK VINA RESULT:     -11.7      2.373      7.639
REMARK SMILES O=C(OCCOCCOCCOC(=O)c1ccc(-c2c3nc(c(-c4cccc(S(=O)(=O)[O-])c4F)c4ccc([nH]4)c(-c4cccc(S(=O)(=O)[O-])c4F)c4nc(c(-c5cccc(S(=O)(=O)[O-])c5F)c5ccc2[nH]5)C=C4)C=C3)cc1)C1=Cc2cc(OC(F)(F)F)ccc2O[C@@H]1C(F)(F)F
REMARK SMILES IDX 8 1 7 2 6 3 5 4 4 5 3 6 2 7 1 8 78 9 79 10 92 11 80 12 91 13
REMARK SMILES IDX 81 14 90 15 82 16 89 17 88 18 93 19 94 20 95 21 96 22 83 23
REMARK SMILES IDX 84 24 85 25 86 26 87 27 9 28 10 29 11 30 12 31 13 32 14 33
REMARK SMILES IDX 15 34 16 35 77 36 17 37 76 38 18 39 19 40 20 41 70 42 21 43
REMARK SMILES IDX 75 44 69 45 71 46 22 47 74 48 68 49 67 50 23 52 55 53 35 54
REMARK SMILES IDX 54 55 36 56 39 57 53 58 72 59 37 60 38 61 52 63 73 64 40 65
REMARK SMILES IDX 24 66 25 67 33 68 26 69 28 70 34 71 27 72 29 73 30 74 31 75
REMARK SMILES IDX 32 76 56 77 57 78 65 79 58 80 60 81 66 82 59 83 61 84 62 85
REMARK SMILES IDX 63 86 64 87 41 88 42 89 50 90 43 91 45 92 51 93 44 94 46 95
REMARK SMILES IDX 47 96 48 97 49 98
REMARK H PARENT 71 51 39 62
REMARK Flexibility Score: inf
ROOT
ATOM      1  C   UNL A   1      36.435  21.168  24.845  1.00  0.00     0.188 C 
ENDROOT
BRANCH   1   2
ATOM      2  C   UNL A   1      35.623  21.774  26.000  1.00  0.00     0.188 C 
BRANCH   2   3
ATOM      3  O   UNL A   1      34.295  21.278  26.466  1.00  0.00    -0.376 OA
BRANCH   3   4
ATOM      4  C   UNL A   1      33.361  21.819  27.816  1.00  0.00     0.202 C 
BRANCH   4   5
ATOM      5  C   UNL A   1      31.733  23.251  27.704  1.00  0.00     0.261 C 
BRANCH   5   6
ATOM      6  O   UNL A   1      31.160  23.877  26.451  1.00  0.00    -0.460 OA
BRANCH   6   7
ATOM      7  C   UNL A   1      30.681  22.949  25.611  1.00  0.00     0.338 C 
ATOM      8  O   UNL A   1      30.527  21.774  25.829  1.00  0.00    -0.246 OA
BRANCH   7   9
ATOM      9  C   UNL A   1      30.908  23.681  24.371  1.00  0.00     0.087 C 
ATOM     10  C   UNL A   1      30.563  25.098  24.407  1.00  0.00     0.027 C 
ATOM     11  C   UNL A   1      32.691  23.007  24.192  1.00  0.00     0.316 C 
ATOM     12  C   UNL A   1      31.752  26.428  24.585  1.00  0.00     0.021 A 
ATOM     13  O   UNL A   1      34.011  24.408  24.551  1.00  0.00    -0.475 OA
ATOM     14  C   UNL A   1      31.301  27.707  24.724  1.00  0.00     0.058 A 
ATOM     15  C   UNL A   1      33.445  26.142  24.733  1.00  0.00     0.128 A 
ATOM     16  C   UNL A   1      32.286  28.693  24.940  1.00  0.00     0.130 A 
ATOM     17  C   UNL A   1      34.354  27.145  24.916  1.00  0.00     0.051 A 
ATOM     18  C   UNL A   1      33.726  28.426  25.014  1.00  0.00     0.050 A 
BRANCH  11  19
ATOM     19  C   UNL A   1      32.277  22.157  22.800  1.00  0.00     0.430 C 
ATOM     20  F   UNL A   1      31.018  22.118  22.369  1.00  0.00    -0.167 F 
ATOM     21  F   UNL A   1      32.975  22.722  21.773  1.00  0.00    -0.167 F 
ATOM     22  F   UNL A   1      32.692  20.859  22.818  1.00  0.00    -0.167 F 
ENDBRANCH  11  19
BRANCH  16  23
ATOM     23  O   UNL A   1      31.682  29.922  25.078  1.00  0.00    -0.406 OA
BRANCH  23  24
ATOM     24  C   UNL A   1      31.748  30.611  26.306  1.00  0.00     0.573 C 
ATOM     25  F   UNL A   1      32.997  31.062  26.543  1.00  0.00    -0.132 F 
ATOM     26  F   UNL A   1      30.877  31.638  26.333  1.00  0.00    -0.132 F 
ATOM     27  F   UNL A   1      31.418  29.751  27.296  1.00  0.00    -0.132 F 
ENDBRANCH  23  24
ENDBRANCH  16  23
ENDBRANCH   7   9
ENDBRANCH   6   7
ENDBRANCH   5   6
ENDBRANCH   4   5
ENDBRANCH   3   4
ENDBRANCH   2   3
ENDBRANCH   1   2
BRANCH   1  28
ATOM     28  O   UNL A   1      36.975  19.880  24.986  1.00  0.00    -0.376 OA
BRANCH  28  29
ATOM     29  C   UNL A   1      38.395  19.823  24.952  1.00  0.00     0.202 C 
BRANCH  29  30
ATOM     30  C   UNL A   1      39.181  20.740  25.907  1.00  0.00     0.261 C 
BRANCH  30  31
ATOM     31  O   UNL A   1      40.084  20.041  26.796  1.00  0.00    -0.460 OA
BRANCH  31  32
ATOM     32  C   UNL A   1      41.343  19.798  26.346  1.00  0.00     0.338 C 
ATOM     33  O   UNL A   1      41.721  18.815  25.731  1.00  0.00    -0.246 OA
BRANCH  32  34
ATOM     34  C   UNL A   1      42.199  20.987  26.561  1.00  0.00     0.060 A 
ATOM     35  C   UNL A   1      42.459  21.418  27.872  1.00  0.00     0.016 A 
ATOM     36  C   UNL A   1      42.697  21.707  25.475  1.00  0.00     0.016 A 
ATOM     37  C   UNL A   1      43.240  22.554  28.099  1.00  0.00     0.010 A 
ATOM     38  C   UNL A   1      43.434  22.875  25.704  1.00  0.00     0.010 A 
ATOM     39  C   UNL A   1      43.693  23.314  27.015  1.00  0.00    -0.014 A 
BRANCH  39  40
ATOM     40  C   UNL A   1      44.202  24.687  27.260  1.00  0.00     0.031 A 
ATOM     41  C   UNL A   1      43.219  25.717  27.746  1.00  0.00     0.074 A 
ATOM     42  C   UNL A   1      45.494  25.016  27.080  1.00  0.00     0.049 A 
ATOM     43  N   UNL A   1      43.408  26.977  28.034  1.00  0.00    -0.248 NA
ATOM     44  C   UNL A   1      41.831  25.258  27.932  1.00  0.00     0.031 C 
ATOM     45  C   UNL A   1      46.545  24.109  26.624  1.00  0.00     0.029 A 
ATOM     46  N   UNL A   1      46.136  26.220  27.243  1.00  0.00    -0.354 N 
ATOM     47  C   UNL A   1      42.166  27.463  28.426  1.00  0.00     0.074 A 
ATOM     48  C   UNL A   1      41.225  26.372  28.311  1.00  0.00     0.031 C 
ATOM     49  C   UNL A   1      47.696  24.797  26.514  1.00  0.00     0.029 A 
ATOM     50  C   UNL A   1      47.459  26.196  26.869  1.00  0.00     0.049 A 
ATOM     51  H   UNL A   1      45.690  27.024  27.595  1.00  0.00     0.167 HD
ATOM     52  C   UNL A   1      41.838  28.702  28.859  1.00  0.00     0.034 A 
ATOM     53  C   UNL A   1      48.362  27.196  26.795  1.00  0.00     0.034 A 
ATOM     54  C   UNL A   1      42.768  29.794  28.947  1.00  0.00     0.049 A 
ATOM     55  C   UNL A   1      47.955  28.588  27.221  1.00  0.00     0.074 A 
ATOM     56  C   UNL A   1      42.538  31.086  29.382  1.00  0.00     0.029 A 
ATOM     57  N   UNL A   1      44.100  29.729  28.569  1.00  0.00    -0.354 N 
ATOM     58  N   UNL A   1      46.801  29.011  27.680  1.00  0.00    -0.248 NA
ATOM     59  C   UNL A   1      48.987  29.635  27.150  1.00  0.00     0.031 C 
ATOM     60  C   UNL A   1      43.719  31.817  29.220  1.00  0.00     0.029 A 
ATOM     61  C   UNL A   1      44.702  30.962  28.749  1.00  0.00     0.049 A 
ATOM     62  H   UNL A   1      44.552  28.924  28.225  1.00  0.00     0.167 HD
ATOM     63  C   UNL A   1      46.983  30.354  27.996  1.00  0.00     0.074 A 
ATOM     64  C   UNL A   1      48.363  30.669  27.695  1.00  0.00     0.031 C 
ATOM     65  C   UNL A   1      46.089  31.250  28.485  1.00  0.00     0.034 A 
BRANCH  52  66
ATOM     66  C   UNL A   1      40.408  28.938  29.271  1.00  0.00     0.023 A 
ATOM     67  C   UNL A   1      39.440  29.253  28.295  1.00  0.00     0.012 A 
ATOM     68  C   UNL A   1      40.016  28.810  30.617  1.00  0.00     0.148 A 
ATOM     69  C   UNL A   1      38.113  29.477  28.658  1.00  0.00     0.002 A 
ATOM     70  C   UNL A   1      38.682  28.982  30.964  1.00  0.00     0.091 A 
ATOM     71  F   UNL A   1      40.954  28.527  31.533  1.00  0.00    -0.205 F 
ATOM     72  C   UNL A   1      37.732  29.331  29.988  1.00  0.00     0.022 A 
BRANCH  70  73
ATOM     73  S   UNL A   1      38.074  28.742  32.635  1.00  0.00     0.127 S 
ATOM     74  O   UNL A   1      36.695  29.217  32.519  1.00  0.00    -0.237 OA
ATOM     75  O   UNL A   1      38.208  27.295  32.802  1.00  0.00    -0.237 OA
ATOM     76  O   UNL A   1      38.933  29.540  33.498  1.00  0.00    -0.744 OA
ENDBRANCH  70  73
ENDBRANCH  52  66
BRANCH  53  77
ATOM     77  C   UNL A   1      49.745  26.938  26.295  1.00  0.00     0.023 A 
ATOM     78  C   UNL A   1      50.718  26.383  27.150  1.00  0.00     0.012 A 
ATOM     79  C   UNL A   1      50.112  27.285  24.979  1.00  0.00     0.148 A 
ATOM     80  C   UNL A   1      52.038  26.227  26.722  1.00  0.00     0.002 A 
ATOM     81  C   UNL A   1      51.412  27.068  24.540  1.00  0.00     0.091 A 
ATOM     82  F   UNL A   1      49.180  27.828  24.183  1.00  0.00    -0.205 F 
ATOM     83  C   UNL A   1      52.383  26.561  25.416  1.00  0.00     0.022 A 
BRANCH  81  84
ATOM     84  S   UNL A   1      51.919  27.368  22.843  1.00  0.00     0.127 S 
ATOM     85  O   UNL A   1      50.827  26.753  22.091  1.00  0.00    -0.237 OA
ATOM     86  O   UNL A   1      51.954  28.830  22.793  1.00  0.00    -0.237 OA
ATOM     87  O   UNL A   1      53.219  26.728  22.697  1.00  0.00    -0.744 OA
ENDBRANCH  81  84
ENDBRANCH  53  77
BRANCH  65  88
ATOM     88  C   UNL A   1      46.585  32.642  28.792  1.00  0.00     0.023 A 
ATOM     89  C   UNL A   1      47.005  32.982  30.093  1.00  0.00     0.012 A 
ATOM     90  C   UNL A   1      46.679  33.601  27.764  1.00  0.00     0.148 A 
ATOM     91  C   UNL A   1      47.460  34.271  30.376  1.00  0.00     0.002 A 
ATOM     92  C   UNL A   1      47.191  34.863  28.040  1.00  0.00     0.091 A 
ATOM     93  F   UNL A   1      46.266  33.264  26.534  1.00  0.00    -0.205 F 
ATOM     94  C   UNL A   1      47.563  35.206  29.349  1.00  0.00     0.022 A 
BRANCH  92  95
ATOM     95  S   UNL A   1      47.453  36.099  26.763  1.00  0.00     0.127 S 
ATOM     96  O   UNL A   1      46.096  36.292  26.255  1.00  0.00    -0.237 OA
ATOM     97  O   UNL A   1      47.984  37.225  27.531  1.00  0.00    -0.237 OA
ATOM     98  O   UNL A   1      48.393  35.512  25.818  1.00  0.00    -0.744 OA
ENDBRANCH  92  95
ENDBRANCH  65  88
ENDBRANCH  39  40
ENDBRANCH  32  34
ENDBRANCH  31  32
ENDBRANCH  30  31
ENDBRANCH  29  30
ENDBRANCH  28  29
ENDBRANCH   1  28
TORSDOF 23
ENDMDL
