MODEL 1
REMARK VINA RESULT:     -10.7      0.000      0.000
REMARK SMILES C[C@@H](C(=O)OCCOCCOCCOC(=O)c1ccc(-c2c3nc(c(-c4cccc(S(=O)(=O)[O-])c4F)c4ccc([nH]4)c(-c4cccc(S(=O)(=O)[O-])c4F)c4nc(c(-c5cccc(S(=O)(=O)[O-])c5F)c5ccc2[nH]5)C=C4)C=C3)cc1)c1ccc(C[C@H]2CCC[C@H]2O)cc1
REMARK SMILES IDX 9 1 8 2 7 3 6 4 5 5 3 6 4 7 2 8 1 9 80 10 81 11 92 12 82 13
REMARK SMILES IDX 91 14 83 15 84 16 85 17 86 18 89 19 87 20 88 21 90 22 10 24
REMARK SMILES IDX 11 25 12 26 13 27 14 28 15 29 16 30 17 31 18 32 79 33 19 34
REMARK SMILES IDX 78 35 20 36 21 37 22 38 72 39 23 40 77 41 71 42 73 43 24 44
REMARK SMILES IDX 76 45 70 46 69 47 25 49 57 50 37 51 56 52 38 53 41 54 55 55
REMARK SMILES IDX 74 56 39 57 40 58 54 60 75 61 42 62 26 63 27 64 35 65 28 66
REMARK SMILES IDX 30 67 36 68 29 69 31 70 32 71 33 72 34 73 58 74 59 75 67 76
REMARK SMILES IDX 60 77 62 78 68 79 61 80 63 81 64 82 65 83 66 84 43 85 44 86
REMARK SMILES IDX 52 87 45 88 47 89 53 90 46 91 48 92 49 93 50 94 51 95
REMARK H PARENT 90 23 73 48 41 59
REMARK Flexibility Score: inf
ROOT
ATOM      1  C   UNL A   1      35.126  22.853  23.600  1.00  0.00     0.188 C 
ENDROOT
BRANCH   1   2
ATOM      2  O   UNL A   1      34.694  23.323  22.329  1.00  0.00    -0.376 OA
BRANCH   2   3
ATOM      3  C   UNL A   1      33.349  23.780  22.200  1.00  0.00     0.202 C 
BRANCH   3   4
ATOM      4  C   UNL A   1      32.939  25.106  22.867  1.00  0.00     0.261 C 
BRANCH   4   5
ATOM      5  O   UNL A   1      32.287  24.937  24.142  1.00  0.00    -0.463 OA
BRANCH   5   6
ATOM      6  C   UNL A   1      32.874  25.564  25.195  1.00  0.00     0.313 C 
ATOM      7  O   UNL A   1      33.886  25.150  25.755  1.00  0.00    -0.252 OA
BRANCH   6   8
ATOM      8  C   UNL A   1      32.188  26.879  25.590  1.00  0.00     0.126 C 
ATOM      9  C   UNL A   1      31.724  26.913  27.053  1.00  0.00     0.025 C 
BRANCH   8  10
ATOM     10  C   UNL A   1      31.203  27.394  24.536  1.00  0.00    -0.034 A 
ATOM     11  C   UNL A   1      31.555  28.525  23.779  1.00  0.00     0.005 A 
ATOM     12  C   UNL A   1      29.918  26.864  24.338  1.00  0.00     0.005 A 
ATOM     13  C   UNL A   1      30.649  29.133  22.906  1.00  0.00     0.004 A 
ATOM     14  C   UNL A   1      29.006  27.484  23.470  1.00  0.00     0.004 A 
ATOM     15  C   UNL A   1      29.342  28.657  22.788  1.00  0.00    -0.048 A 
BRANCH  15  16
ATOM     16  C   UNL A   1      28.320  29.444  22.000  1.00  0.00     0.041 C 
BRANCH  16  17
ATOM     17  C   UNL A   1      28.617  30.939  21.756  1.00  0.00     0.022 C 
ATOM     18  C   UNL A   1      27.986  31.552  20.490  1.00  0.00     0.007 C 
ATOM     19  C   UNL A   1      28.325  31.951  22.880  1.00  0.00     0.117 C 
ATOM     20  C   UNL A   1      27.599  32.985  20.850  1.00  0.00     0.003 C 
ATOM     21  C   UNL A   1      28.337  33.290  22.148  1.00  0.00     0.032 C 
BRANCH  19  22
ATOM     22  O   UNL A   1      27.061  31.815  23.510  1.00  0.00    -0.393 OA
ATOM     23  H   UNL A   1      26.365  32.118  22.905  1.00  0.00     0.210 HD
ENDBRANCH  19  22
ENDBRANCH  16  17
ENDBRANCH  15  16
ENDBRANCH   8  10
ENDBRANCH   6   8
ENDBRANCH   5   6
ENDBRANCH   4   5
ENDBRANCH   3   4
ENDBRANCH   2   3
ENDBRANCH   1   2
BRANCH   1  24
ATOM     24  C   UNL A   1      34.259  21.799  24.308  1.00  0.00     0.188 C 
BRANCH  24  25
ATOM     25  O   UNL A   1      34.917  20.602  24.651  1.00  0.00    -0.376 OA
BRANCH  25  26
ATOM     26  C   UNL A   1      36.070  20.643  25.475  1.00  0.00     0.202 C 
BRANCH  26  27
ATOM     27  C   UNL A   1      37.501  20.317  24.996  1.00  0.00     0.261 C 
BRANCH  27  28
ATOM     28  O   UNL A   1      38.519  21.309  25.166  1.00  0.00    -0.460 OA
BRANCH  28  29
ATOM     29  C   UNL A   1      39.456  21.072  26.109  1.00  0.00     0.338 C 
ATOM     30  O   UNL A   1      40.005  20.000  26.349  1.00  0.00    -0.246 OA
BRANCH  29  31
ATOM     31  C   UNL A   1      39.895  22.373  26.652  1.00  0.00     0.060 A 
ATOM     32  C   UNL A   1      39.211  23.531  26.255  1.00  0.00     0.016 A 
ATOM     33  C   UNL A   1      40.960  22.455  27.552  1.00  0.00     0.016 A 
ATOM     34  C   UNL A   1      39.595  24.774  26.751  1.00  0.00     0.010 A 
ATOM     35  C   UNL A   1      41.362  23.709  28.024  1.00  0.00     0.010 A 
ATOM     36  C   UNL A   1      40.695  24.876  27.608  1.00  0.00    -0.014 A 
BRANCH  36  37
ATOM     37  C   UNL A   1      41.253  26.217  27.907  1.00  0.00     0.031 A 
ATOM     38  C   UNL A   1      42.658  26.518  27.466  1.00  0.00     0.074 A 
ATOM     39  C   UNL A   1      40.519  27.166  28.516  1.00  0.00     0.049 A 
ATOM     40  N   UNL A   1      43.381  27.586  27.671  1.00  0.00    -0.248 NA
ATOM     41  C   UNL A   1      43.335  25.472  26.681  1.00  0.00     0.031 C 
ATOM     42  C   UNL A   1      39.128  27.020  28.938  1.00  0.00     0.029 A 
ATOM     43  N   UNL A   1      40.859  28.440  28.900  1.00  0.00    -0.354 N 
ATOM     44  C   UNL A   1      44.611  27.326  27.080  1.00  0.00     0.074 A 
ATOM     45  C   UNL A   1      44.535  26.003  26.501  1.00  0.00     0.031 C 
ATOM     46  C   UNL A   1      38.742  28.152  29.555  1.00  0.00     0.029 A 
ATOM     47  C   UNL A   1      39.868  29.083  29.605  1.00  0.00     0.049 A 
ATOM     48  H   UNL A   1      41.727  28.853  28.691  1.00  0.00     0.167 HD
ATOM     49  C   UNL A   1      45.707  28.119  27.020  1.00  0.00     0.034 A 
ATOM     50  C   UNL A   1      39.885  30.266  30.251  1.00  0.00     0.034 A 
ATOM     51  C   UNL A   1      45.781  29.438  27.586  1.00  0.00     0.049 A 
ATOM     52  C   UNL A   1      41.139  31.106  30.222  1.00  0.00     0.074 A 
ATOM     53  C   UNL A   1      46.845  30.321  27.570  1.00  0.00     0.029 A 
ATOM     54  N   UNL A   1      44.755  30.058  28.282  1.00  0.00    -0.354 N 
ATOM     55  N   UNL A   1      42.273  30.880  29.605  1.00  0.00    -0.248 NA
ATOM     56  C   UNL A   1      41.105  32.378  30.961  1.00  0.00     0.031 C 
ATOM     57  C   UNL A   1      46.474  31.463  28.287  1.00  0.00     0.029 A 
ATOM     58  C   UNL A   1      45.164  31.309  28.712  1.00  0.00     0.049 A 
ATOM     59  H   UNL A   1      43.867  29.667  28.448  1.00  0.00     0.167 HD
ATOM     60  C   UNL A   1      43.075  31.990  29.855  1.00  0.00     0.074 A 
ATOM     61  C   UNL A   1      42.287  32.900  30.659  1.00  0.00     0.031 C 
ATOM     62  C   UNL A   1      44.352  32.229  29.465  1.00  0.00     0.034 A 
BRANCH  49  63
ATOM     63  C   UNL A   1      46.922  27.569  26.325  1.00  0.00     0.023 A 
ATOM     64  C   UNL A   1      47.813  26.726  27.020  1.00  0.00     0.012 A 
ATOM     65  C   UNL A   1      47.163  27.862  24.968  1.00  0.00     0.148 A 
ATOM     66  C   UNL A   1      48.944  26.213  26.387  1.00  0.00     0.002 A 
ATOM     67  C   UNL A   1      48.266  27.308  24.331  1.00  0.00     0.091 A 
ATOM     68  F   UNL A   1      46.317  28.685  24.332  1.00  0.00    -0.205 F 
ATOM     69  C   UNL A   1      49.165  26.496  25.041  1.00  0.00     0.022 A 
BRANCH  67  70
ATOM     70  S   UNL A   1      48.594  27.550  22.582  1.00  0.00     0.127 S 
ATOM     71  O   UNL A   1      49.955  28.084  22.608  1.00  0.00    -0.237 OA
ATOM     72  O   UNL A   1      48.482  26.189  22.059  1.00  0.00    -0.237 OA
ATOM     73  O   UNL A   1      47.573  28.472  22.104  1.00  0.00    -0.744 OA
ENDBRANCH  67  70
ENDBRANCH  49  63
BRANCH  50  74
ATOM     74  C   UNL A   1      38.679  30.734  30.992  1.00  0.00     0.023 A 
ATOM     75  C   UNL A   1      38.604  30.564  32.388  1.00  0.00     0.012 A 
ATOM     76  C   UNL A   1      37.601  31.338  30.315  1.00  0.00     0.148 A 
ATOM     77  C   UNL A   1      37.465  30.958  33.093  1.00  0.00     0.002 A 
ATOM     78  C   UNL A   1      36.494  31.781  31.031  1.00  0.00     0.091 A 
ATOM     79  F   UNL A   1      37.681  31.469  28.985  1.00  0.00    -0.205 F 
ATOM     80  C   UNL A   1      36.416  31.576  32.416  1.00  0.00     0.022 A 
BRANCH  78  81
ATOM     81  S   UNL A   1      35.151  32.690  30.260  1.00  0.00     0.127 S 
ATOM     82  O   UNL A   1      34.750  31.781  29.190  1.00  0.00    -0.237 OA
ATOM     83  O   UNL A   1      34.196  32.805  31.363  1.00  0.00    -0.237 OA
ATOM     84  O   UNL A   1      35.728  33.956  29.828  1.00  0.00    -0.744 OA
ENDBRANCH  78  81
ENDBRANCH  50  74
BRANCH  62  85
ATOM     85  C   UNL A   1      44.974  33.548  29.853  1.00  0.00     0.023 A 
ATOM     86  C   UNL A   1      45.760  33.644  31.019  1.00  0.00     0.012 A 
ATOM     87  C   UNL A   1      44.844  34.672  29.013  1.00  0.00     0.148 A 
ATOM     88  C   UNL A   1      46.379  34.846  31.360  1.00  0.00     0.002 A 
ATOM     89  C   UNL A   1      45.508  35.852  29.331  1.00  0.00     0.091 A 
ATOM     90  F   UNL A   1      44.081  34.566  27.917  1.00  0.00    -0.205 F 
ATOM     91  C   UNL A   1      46.264  35.945  30.511  1.00  0.00     0.022 A 
BRANCH  89  92
ATOM     92  S   UNL A   1      45.499  37.285  28.247  1.00  0.00     0.127 S 
ATOM     93  O   UNL A   1      45.814  36.682  26.954  1.00  0.00    -0.237 OA
ATOM     94  O   UNL A   1      44.121  37.763  28.379  1.00  0.00    -0.237 OA
ATOM     95  O   UNL A   1      46.506  38.195  28.774  1.00  0.00    -0.744 OA
ENDBRANCH  89  92
ENDBRANCH  62  85
ENDBRANCH  36  37
ENDBRANCH  29  31
ENDBRANCH  28  29
ENDBRANCH  27  28
ENDBRANCH  26  27
ENDBRANCH  25  26
ENDBRANCH  24  25
ENDBRANCH   1  24
TORSDOF 24
ENDMDL
MODEL 2
REMARK VINA RESULT:     -10.7      2.532      3.792
REMARK SMILES C[C@@H](C(=O)OCCOCCOCCOC(=O)c1ccc(-c2c3nc(c(-c4cccc(S(=O)(=O)[O-])c4F)c4ccc([nH]4)c(-c4cccc(S(=O)(=O)[O-])c4F)c4nc(c(-c5cccc(S(=O)(=O)[O-])c5F)c5ccc2[nH]5)C=C4)C=C3)cc1)c1ccc(C[C@H]2CCC[C@H]2O)cc1
REMARK SMILES IDX 9 1 8 2 7 3 6 4 5 5 3 6 4 7 2 8 1 9 80 10 81 11 92 12 82 13
REMARK SMILES IDX 91 14 83 15 84 16 85 17 86 18 89 19 87 20 88 21 90 22 10 24
REMARK SMILES IDX 11 25 12 26 13 27 14 28 15 29 16 30 17 31 18 32 79 33 19 34
REMARK SMILES IDX 78 35 20 36 21 37 22 38 72 39 23 40 77 41 71 42 73 43 24 44
REMARK SMILES IDX 76 45 70 46 69 47 25 49 57 50 37 51 56 52 38 53 41 54 55 55
REMARK SMILES IDX 74 56 39 57 40 58 54 60 75 61 42 62 26 63 27 64 35 65 28 66
REMARK SMILES IDX 30 67 36 68 29 69 31 70 32 71 33 72 34 73 58 74 59 75 67 76
REMARK SMILES IDX 60 77 62 78 68 79 61 80 63 81 64 82 65 83 66 84 43 85 44 86
REMARK SMILES IDX 52 87 45 88 47 89 53 90 46 91 48 92 49 93 50 94 51 95
REMARK H PARENT 90 23 73 48 41 59
REMARK Flexibility Score: inf
ROOT
ATOM      1  C   UNL A   1      35.288  23.214  23.716  1.00  0.00     0.188 C 
ENDROOT
BRANCH   1   2
ATOM      2  O   UNL A   1      34.386  23.358  22.625  1.00  0.00    -0.376 OA
BRANCH   2   3
ATOM      3  C   UNL A   1      33.287  24.255  22.772  1.00  0.00     0.202 C 
BRANCH   3   4
ATOM      4  C   UNL A   1      33.565  25.752  23.002  1.00  0.00     0.261 C 
BRANCH   4   5
ATOM      5  O   UNL A   1      32.489  26.613  22.580  1.00  0.00    -0.463 OA
BRANCH   5   6
ATOM      6  C   UNL A   1      32.328  27.755  23.298  1.00  0.00     0.313 C 
ATOM      7  O   UNL A   1      32.417  28.881  22.816  1.00  0.00    -0.252 OA
BRANCH   6   8
ATOM      8  C   UNL A   1      31.962  27.512  24.769  1.00  0.00     0.126 C 
ATOM      9  C   UNL A   1      30.457  27.325  25.004  1.00  0.00     0.025 C 
BRANCH   8  10
ATOM     10  C   UNL A   1      32.710  28.428  25.743  1.00  0.00    -0.034 A 
ATOM     11  C   UNL A   1      32.081  29.607  26.179  1.00  0.00     0.005 A 
ATOM     12  C   UNL A   1      34.034  28.215  26.160  1.00  0.00     0.005 A 
ATOM     13  C   UNL A   1      32.758  30.556  26.950  1.00  0.00     0.004 A 
ATOM     14  C   UNL A   1      34.716  29.176  26.923  1.00  0.00     0.004 A 
ATOM     15  C   UNL A   1      34.103  30.381  27.278  1.00  0.00    -0.048 A 
BRANCH  15  16
ATOM     16  C   UNL A   1      34.873  31.506  27.933  1.00  0.00     0.041 C 
BRANCH  16  17
ATOM     17  C   UNL A   1      34.050  32.623  28.610  1.00  0.00     0.022 C 
ATOM     18  C   UNL A   1      34.443  32.961  30.061  1.00  0.00     0.007 C 
ATOM     19  C   UNL A   1      33.917  33.985  27.901  1.00  0.00     0.117 C 
ATOM     20  C   UNL A   1      34.263  34.470  30.217  1.00  0.00     0.003 C 
ATOM     21  C   UNL A   1      33.430  34.904  29.017  1.00  0.00     0.032 C 
BRANCH  19  22
ATOM     22  O   UNL A   1      35.125  34.528  27.392  1.00  0.00    -0.393 OA
ATOM     23  H   UNL A   1      35.879  34.126  27.852  1.00  0.00     0.210 HD
ENDBRANCH  19  22
ENDBRANCH  16  17
ENDBRANCH  15  16
ENDBRANCH   8  10
ENDBRANCH   6   8
ENDBRANCH   5   6
ENDBRANCH   4   5
ENDBRANCH   3   4
ENDBRANCH   2   3
ENDBRANCH   1   2
BRANCH   1  24
ATOM     24  C   UNL A   1      34.700  22.854  25.090  1.00  0.00     0.188 C 
BRANCH  24  25
ATOM     25  O   UNL A   1      35.191  21.667  25.668  1.00  0.00    -0.376 OA
BRANCH  25  26
ATOM     26  C   UNL A   1      36.086  20.845  24.939  1.00  0.00     0.202 C 
BRANCH  26  27
ATOM     27  C   UNL A   1      37.592  20.696  25.252  1.00  0.00     0.261 C 
BRANCH  27  28
ATOM     28  O   UNL A   1      38.295  21.829  25.772  1.00  0.00    -0.460 OA
BRANCH  28  29
ATOM     29  C   UNL A   1      39.489  21.595  26.357  1.00  0.00     0.338 C 
ATOM     30  O   UNL A   1      40.123  20.544  26.342  1.00  0.00    -0.246 OA
BRANCH  29  31
ATOM     31  C   UNL A   1      40.031  22.889  26.819  1.00  0.00     0.060 A 
ATOM     32  C   UNL A   1      39.491  24.070  26.290  1.00  0.00     0.016 A 
ATOM     33  C   UNL A   1      41.052  22.942  27.770  1.00  0.00     0.016 A 
ATOM     34  C   UNL A   1      39.976  25.307  26.706  1.00  0.00     0.010 A 
ATOM     35  C   UNL A   1      41.556  24.187  28.163  1.00  0.00     0.010 A 
ATOM     36  C   UNL A   1      41.035  25.374  27.616  1.00  0.00    -0.014 A 
BRANCH  36  37
ATOM     37  C   UNL A   1      41.712  26.674  27.839  1.00  0.00     0.031 A 
ATOM     38  C   UNL A   1      43.114  26.844  27.324  1.00  0.00     0.074 A 
ATOM     39  C   UNL A   1      41.087  27.700  28.445  1.00  0.00     0.049 A 
ATOM     40  N   UNL A   1      43.929  27.857  27.456  1.00  0.00    -0.248 NA
ATOM     41  C   UNL A   1      43.666  25.721  26.548  1.00  0.00     0.031 C 
ATOM     42  C   UNL A   1      39.711  27.682  28.935  1.00  0.00     0.029 A 
ATOM     43  N   UNL A   1      41.545  28.954  28.765  1.00  0.00    -0.354 N 
ATOM     44  C   UNL A   1      45.104  27.478  26.819  1.00  0.00     0.074 A 
ATOM     45  C   UNL A   1      44.895  26.147  26.294  1.00  0.00     0.031 C 
ATOM     46  C   UNL A   1      39.446  28.861  29.527  1.00  0.00     0.029 A 
ATOM     47  C   UNL A   1      40.644  29.699  29.490  1.00  0.00     0.049 A 
ATOM     48  H   UNL A   1      42.433  29.288  28.501  1.00  0.00     0.167 HD
ATOM     49  C   UNL A   1      46.255  28.176  26.679  1.00  0.00     0.034 A 
ATOM     50  C   UNL A   1      40.787  30.898  30.090  1.00  0.00     0.034 A 
ATOM     51  C   UNL A   1      46.462  29.503  27.192  1.00  0.00     0.049 A 
ATOM     52  C   UNL A   1      42.101  31.631  29.972  1.00  0.00     0.074 A 
ATOM     53  C   UNL A   1      47.591  30.296  27.094  1.00  0.00     0.029 A 
ATOM     54  N   UNL A   1      45.524  30.228  27.910  1.00  0.00    -0.354 N 
ATOM     55  N   UNL A   1      43.182  31.293  29.313  1.00  0.00    -0.248 NA
ATOM     56  C   UNL A   1      42.204  32.926  30.664  1.00  0.00     0.031 C 
ATOM     57  C   UNL A   1      47.347  31.487  27.784  1.00  0.00     0.029 A 
ATOM     58  C   UNL A   1      46.051  31.455  28.273  1.00  0.00     0.049 A 
ATOM     59  H   UNL A   1      44.616  29.916  28.131  1.00  0.00     0.167 HD
ATOM     60  C   UNL A   1      44.081  32.342  29.484  1.00  0.00     0.074 A 
ATOM     61  C   UNL A   1      43.408  33.339  30.289  1.00  0.00     0.031 C 
ATOM     62  C   UNL A   1      45.352  32.463  29.028  1.00  0.00     0.034 A 
BRANCH  49  63
ATOM     63  C   UNL A   1      47.388  27.506  25.950  1.00  0.00     0.023 A 
ATOM     64  C   UNL A   1      47.453  27.561  24.543  1.00  0.00     0.012 A 
ATOM     65  C   UNL A   1      48.407  26.847  26.666  1.00  0.00     0.148 A 
ATOM     66  C   UNL A   1      48.496  26.939  23.857  1.00  0.00     0.002 A 
ATOM     67  C   UNL A   1      49.468  26.272  25.978  1.00  0.00     0.091 A 
ATOM     68  F   UNL A   1      48.313  26.785  28.002  1.00  0.00    -0.205 F 
ATOM     69  C   UNL A   1      49.507  26.305  24.574  1.00  0.00     0.022 A 
BRANCH  67  70
ATOM     70  S   UNL A   1      50.857  25.500  26.814  1.00  0.00     0.127 S 
ATOM     71  O   UNL A   1      51.723  25.152  25.687  1.00  0.00    -0.237 OA
ATOM     72  O   UNL A   1      51.354  26.591  27.651  1.00  0.00    -0.237 OA
ATOM     73  O   UNL A   1      50.307  24.370  27.548  1.00  0.00    -0.744 OA
ENDBRANCH  67  70
ENDBRANCH  49  63
BRANCH  50  74
ATOM     74  C   UNL A   1      39.659  31.487  30.868  1.00  0.00     0.023 A 
ATOM     75  C   UNL A   1      38.656  32.219  30.204  1.00  0.00     0.012 A 
ATOM     76  C   UNL A   1      39.583  31.329  32.266  1.00  0.00     0.148 A 
ATOM     77  C   UNL A   1      37.616  32.812  30.922  1.00  0.00     0.002 A 
ATOM     78  C   UNL A   1      38.514  31.873  32.967  1.00  0.00     0.091 A 
ATOM     79  F   UNL A   1      40.560  30.649  32.881  1.00  0.00    -0.205 F 
ATOM     80  C   UNL A   1      37.539  32.630  32.300  1.00  0.00     0.022 A 
BRANCH  78  81
ATOM     81  S   UNL A   1      38.271  31.591  34.724  1.00  0.00     0.127 S 
ATOM     82  O   UNL A   1      37.039  32.333  34.978  1.00  0.00    -0.237 OA
ATOM     83  O   UNL A   1      38.137  30.135  34.777  1.00  0.00    -0.237 OA
ATOM     84  O   UNL A   1      39.465  32.110  35.376  1.00  0.00    -0.744 OA
ENDBRANCH  78  81
ENDBRANCH  50  74
BRANCH  62  85
ATOM     85  C   UNL A   1      46.096  33.739  29.338  1.00  0.00     0.023 A 
ATOM     86  C   UNL A   1      46.956  33.804  30.453  1.00  0.00     0.012 A 
ATOM     87  C   UNL A   1      46.003  34.847  28.472  1.00  0.00     0.148 A 
ATOM     88  C   UNL A   1      47.684  34.963  30.719  1.00  0.00     0.002 A 
ATOM     89  C   UNL A   1      46.772  35.979  28.714  1.00  0.00     0.091 A 
ATOM     90  F   UNL A   1      45.168  34.772  27.426  1.00  0.00    -0.205 F 
ATOM     91  C   UNL A   1      47.603  36.044  29.844  1.00  0.00     0.022 A 
BRANCH  89  92
ATOM     92  S   UNL A   1      46.807  37.379  27.588  1.00  0.00     0.127 S 
ATOM     93  O   UNL A   1      47.691  38.306  28.294  1.00  0.00    -0.237 OA
ATOM     94  O   UNL A   1      47.383  36.789  26.378  1.00  0.00    -0.237 OA
ATOM     95  O   UNL A   1      45.426  37.818  27.447  1.00  0.00    -0.744 OA
ENDBRANCH  89  92
ENDBRANCH  62  85
ENDBRANCH  36  37
ENDBRANCH  29  31
ENDBRANCH  28  29
ENDBRANCH  27  28
ENDBRANCH  26  27
ENDBRANCH  25  26
ENDBRANCH  24  25
ENDBRANCH   1  24
TORSDOF 24
ENDMDL
MODEL 3
REMARK VINA RESULT:     -10.5      5.303     11.220
REMARK SMILES C[C@@H](C(=O)OCCOCCOCCOC(=O)c1ccc(-c2c3nc(c(-c4cccc(S(=O)(=O)[O-])c4F)c4ccc([nH]4)c(-c4cccc(S(=O)(=O)[O-])c4F)c4nc(c(-c5cccc(S(=O)(=O)[O-])c5F)c5ccc2[nH]5)C=C4)C=C3)cc1)c1ccc(C[C@H]2CCC[C@H]2O)cc1
REMARK SMILES IDX 9 1 8 2 7 3 6 4 5 5 3 6 4 7 2 8 1 9 80 10 81 11 92 12 82 13
REMARK SMILES IDX 91 14 83 15 84 16 85 17 86 18 89 19 87 20 88 21 90 22 10 24
REMARK SMILES IDX 11 25 12 26 13 27 14 28 15 29 16 30 17 31 18 32 79 33 19 34
REMARK SMILES IDX 78 35 20 36 21 37 22 38 72 39 23 40 77 41 71 42 73 43 24 44
REMARK SMILES IDX 76 45 70 46 69 47 25 49 57 50 37 51 56 52 38 53 41 54 55 55
REMARK SMILES IDX 74 56 39 57 40 58 54 60 75 61 42 62 26 63 27 64 35 65 28 66
REMARK SMILES IDX 30 67 36 68 29 69 31 70 32 71 33 72 34 73 58 74 59 75 67 76
REMARK SMILES IDX 60 77 62 78 68 79 61 80 63 81 64 82 65 83 66 84 43 85 44 86
REMARK SMILES IDX 52 87 45 88 47 89 53 90 46 91 48 92 49 93 50 94 51 95
REMARK H PARENT 90 23 73 48 41 59
REMARK Flexibility Score: inf
ROOT
ATOM      1  C   UNL A   1      30.913  29.845  24.598  1.00  0.00     0.188 C 
ENDROOT
BRANCH   1   2
ATOM      2  O   UNL A   1      31.083  28.738  23.722  1.00  0.00    -0.376 OA
BRANCH   2   3
ATOM      3  C   UNL A   1      32.308  28.629  23.000  1.00  0.00     0.202 C 
BRANCH   3   4
ATOM      4  C   UNL A   1      33.048  27.279  22.974  1.00  0.00     0.261 C 
BRANCH   4   5
ATOM      5  O   UNL A   1      34.112  27.182  23.942  1.00  0.00    -0.463 OA
BRANCH   5   6
ATOM      6  C   UNL A   1      33.740  26.816  25.196  1.00  0.00     0.313 C 
ATOM      7  O   UNL A   1      34.055  27.437  26.209  1.00  0.00    -0.252 OA
BRANCH   6   8
ATOM      8  C   UNL A   1      32.833  25.578  25.234  1.00  0.00     0.126 C 
ATOM      9  C   UNL A   1      31.652  25.712  26.205  1.00  0.00     0.025 C 
BRANCH   8  10
ATOM     10  C   UNL A   1      33.607  24.255  25.257  1.00  0.00    -0.034 A 
ATOM     11  C   UNL A   1      33.981  23.671  24.035  1.00  0.00     0.005 A 
ATOM     12  C   UNL A   1      33.888  23.532  26.427  1.00  0.00     0.005 A 
ATOM     13  C   UNL A   1      34.559  22.399  23.978  1.00  0.00     0.004 A 
ATOM     14  C   UNL A   1      34.456  22.250  26.366  1.00  0.00     0.004 A 
ATOM     15  C   UNL A   1      34.746  21.647  25.138  1.00  0.00    -0.048 A 
BRANCH  15  16
ATOM     16  C   UNL A   1      35.178  20.202  25.041  1.00  0.00     0.041 C 
BRANCH  16  17
ATOM     17  C   UNL A   1      34.126  19.183  24.555  1.00  0.00     0.022 C 
ATOM     18  C   UNL A   1      34.642  17.753  24.303  1.00  0.00     0.007 C 
ATOM     19  C   UNL A   1      32.829  19.004  25.368  1.00  0.00     0.117 C 
ATOM     20  C   UNL A   1      33.520  16.807  24.727  1.00  0.00     0.003 C 
ATOM     21  C   UNL A   1      32.277  17.681  24.846  1.00  0.00     0.032 C 
BRANCH  19  22
ATOM     22  O   UNL A   1      33.001  18.877  26.770  1.00  0.00    -0.393 OA
ATOM     23  H   UNL A   1      32.137  18.741  27.190  1.00  0.00     0.210 HD
ENDBRANCH  19  22
ENDBRANCH  16  17
ENDBRANCH  15  16
ENDBRANCH   8  10
ENDBRANCH   6   8
ENDBRANCH   5   6
ENDBRANCH   4   5
ENDBRANCH   3   4
ENDBRANCH   2   3
ENDBRANCH   1   2
BRANCH   1  24
ATOM     24  C   UNL A   1      31.630  29.800  25.957  1.00  0.00     0.188 C 
BRANCH  24  25
ATOM     25  O   UNL A   1      32.483  30.887  26.231  1.00  0.00    -0.376 OA
BRANCH  25  26
ATOM     26  C   UNL A   1      32.070  31.898  27.134  1.00  0.00     0.202 C 
BRANCH  26  27
ATOM     27  C   UNL A   1      32.878  33.177  27.446  1.00  0.00     0.261 C 
BRANCH  27  28
ATOM     28  O   UNL A   1      32.320  34.129  28.360  1.00  0.00    -0.460 OA
BRANCH  28  29
ATOM     29  C   UNL A   1      33.130  35.126  28.777  1.00  0.00     0.338 C 
ATOM     30  O   UNL A   1      32.916  36.332  28.691  1.00  0.00    -0.246 OA
BRANCH  29  31
ATOM     31  C   UNL A   1      34.215  34.526  29.579  1.00  0.00     0.060 A 
ATOM     32  C   UNL A   1      35.537  34.672  29.135  1.00  0.00     0.016 A 
ATOM     33  C   UNL A   1      33.939  33.837  30.761  1.00  0.00     0.016 A 
ATOM     34  C   UNL A   1      36.585  34.123  29.869  1.00  0.00     0.010 A 
ATOM     35  C   UNL A   1      34.992  33.261  31.480  1.00  0.00     0.010 A 
ATOM     36  C   UNL A   1      36.318  33.383  31.024  1.00  0.00    -0.014 A 
BRANCH  36  37
ATOM     37  C   UNL A   1      37.407  32.585  31.636  1.00  0.00     0.031 A 
ATOM     38  C   UNL A   1      37.903  32.983  32.998  1.00  0.00     0.074 A 
ATOM     39  C   UNL A   1      37.919  31.502  31.022  1.00  0.00     0.049 A 
ATOM     40  N   UNL A   1      38.884  32.484  33.702  1.00  0.00    -0.248 NA
ATOM     41  C   UNL A   1      37.189  34.090  33.656  1.00  0.00     0.031 C 
ATOM     42  C   UNL A   1      37.484  30.978  29.730  1.00  0.00     0.029 A 
ATOM     43  N   UNL A   1      38.935  30.662  31.406  1.00  0.00    -0.354 N 
ATOM     44  C   UNL A   1      38.934  33.243  34.866  1.00  0.00     0.074 A 
ATOM     45  C   UNL A   1      37.881  34.229  34.777  1.00  0.00     0.031 C 
ATOM     46  C   UNL A   1      38.253  29.921  29.410  1.00  0.00     0.029 A 
ATOM     47  C   UNL A   1      39.257  29.722  30.455  1.00  0.00     0.049 A 
ATOM     48  H   UNL A   1      39.389  30.726  32.277  1.00  0.00     0.167 HD
ATOM     49  C   UNL A   1      39.779  33.126  35.917  1.00  0.00     0.034 A 
ATOM     50  C   UNL A   1      40.269  28.832  30.416  1.00  0.00     0.034 A 
ATOM     51  C   UNL A   1      40.820  32.140  36.011  1.00  0.00     0.049 A 
ATOM     52  C   UNL A   1      41.237  28.763  31.572  1.00  0.00     0.074 A 
ATOM     53  C   UNL A   1      41.722  31.938  37.040  1.00  0.00     0.029 A 
ATOM     54  N   UNL A   1      41.107  31.199  35.035  1.00  0.00    -0.354 N 
ATOM     55  N   UNL A   1      41.235  29.439  32.695  1.00  0.00    -0.248 NA
ATOM     56  C   UNL A   1      42.334  27.787  31.465  1.00  0.00     0.031 C 
ATOM     57  C   UNL A   1      42.579  30.897  36.670  1.00  0.00     0.029 A 
ATOM     58  C   UNL A   1      42.182  30.420  35.430  1.00  0.00     0.049 A 
ATOM     59  H   UNL A   1      40.621  31.099  34.185  1.00  0.00     0.167 HD
ATOM     60  C   UNL A   1      42.306  28.953  33.439  1.00  0.00     0.074 A 
ATOM     61  C   UNL A   1      42.920  27.906  32.649  1.00  0.00     0.031 C 
ATOM     62  C   UNL A   1      42.750  29.345  34.659  1.00  0.00     0.034 A 
BRANCH  49  63
ATOM     63  C   UNL A   1      39.616  34.106  37.047  1.00  0.00     0.023 A 
ATOM     64  C   UNL A   1      40.009  35.449  36.880  1.00  0.00     0.012 A 
ATOM     65  C   UNL A   1      39.042  33.699  38.268  1.00  0.00     0.148 A 
ATOM     66  C   UNL A   1      39.865  36.365  37.922  1.00  0.00     0.002 A 
ATOM     67  C   UNL A   1      38.858  34.627  39.284  1.00  0.00     0.091 A 
ATOM     68  F   UNL A   1      38.698  32.411  38.415  1.00  0.00    -0.205 F 
ATOM     69  C   UNL A   1      39.281  35.956  39.119  1.00  0.00     0.022 A 
BRANCH  67  70
ATOM     70  S   UNL A   1      38.046  34.218  40.832  1.00  0.00     0.127 S 
ATOM     71  O   UNL A   1      39.037  33.348  41.464  1.00  0.00    -0.237 OA
ATOM     72  O   UNL A   1      37.900  35.532  41.457  1.00  0.00    -0.237 OA
ATOM     73  O   UNL A   1      36.792  33.572  40.471  1.00  0.00    -0.744 OA
ENDBRANCH  67  70
ENDBRANCH  49  63
BRANCH  50  74
ATOM     74  C   UNL A   1      40.435  27.935  29.236  1.00  0.00     0.023 A 
ATOM     75  C   UNL A   1      39.693  26.742  29.153  1.00  0.00     0.012 A 
ATOM     76  C   UNL A   1      41.335  28.258  28.201  1.00  0.00     0.148 A 
ATOM     77  C   UNL A   1      39.866  25.870  28.077  1.00  0.00     0.002 A 
ATOM     78  C   UNL A   1      41.460  27.414  27.104  1.00  0.00     0.091 A 
ATOM     79  F   UNL A   1      42.049  29.386  28.310  1.00  0.00    -0.205 F 
ATOM     80  C   UNL A   1      40.740  26.211  27.048  1.00  0.00     0.022 A 
BRANCH  78  81
ATOM     81  S   UNL A   1      42.472  27.830  25.680  1.00  0.00     0.127 S 
ATOM     82  O   UNL A   1      43.798  27.948  26.280  1.00  0.00    -0.237 OA
ATOM     83  O   UNL A   1      42.283  26.657  24.825  1.00  0.00    -0.237 OA
ATOM     84  O   UNL A   1      41.912  29.063  25.143  1.00  0.00    -0.744 OA
ENDBRANCH  78  81
ENDBRANCH  50  74
BRANCH  62  85
ATOM     85  C   UNL A   1      43.928  28.612  35.252  1.00  0.00     0.023 A 
ATOM     86  C   UNL A   1      43.720  27.507  36.102  1.00  0.00     0.012 A 
ATOM     87  C   UNL A   1      45.244  28.971  34.897  1.00  0.00     0.148 A 
ATOM     88  C   UNL A   1      44.802  26.794  36.615  1.00  0.00     0.002 A 
ATOM     89  C   UNL A   1      46.316  28.223  35.369  1.00  0.00     0.091 A 
ATOM     90  F   UNL A   1      45.423  30.034  34.099  1.00  0.00    -0.205 F 
ATOM     91  C   UNL A   1      46.098  27.143  36.239  1.00  0.00     0.022 A 
BRANCH  89  92
ATOM     92  S   UNL A   1      48.010  28.536  34.859  1.00  0.00     0.127 S 
ATOM     93  O   UNL A   1      48.736  27.493  35.582  1.00  0.00    -0.237 OA
ATOM     94  O   UNL A   1      47.938  28.338  33.410  1.00  0.00    -0.237 OA
ATOM     95  O   UNL A   1      48.308  29.902  35.268  1.00  0.00    -0.744 OA
ENDBRANCH  89  92
ENDBRANCH  62  85
ENDBRANCH  36  37
ENDBRANCH  29  31
ENDBRANCH  28  29
ENDBRANCH  27  28
ENDBRANCH  26  27
ENDBRANCH  25  26
ENDBRANCH  24  25
ENDBRANCH   1  24
TORSDOF 24
ENDMDL
