MODEL 1
REMARK VINA RESULT:      -9.9      0.000      0.000
REMARK SMILES CC[N@@H+]1CC[C@H](C[NH2+]Cc2cc(C(=O)OCCOCCOCCOC(=O)c3ccc(-c4c5nc(c(-c6cccc(S(=O)(=O)[O-])c6F)c6ccc([nH]6)c(-c6cccc(S(=O)(=O)[O-])c6F)c6nc(c(-c7cccc(S(=O)(=O)[O-])c7F)c7ccc4[nH]7)C=C6)C=C5)cc3)cs2)C1
REMARK SMILES IDX 19 1 18 2 17 3 16 4 15 5 13 6 14 7 12 8 10 9 11 10 91 11
REMARK SMILES IDX 90 12 9 13 8 14 7 17 6 18 3 19 4 20 92 21 5 23 2 24 1 25
REMARK SMILES IDX 20 26 21 27 22 28 23 29 24 30 25 31 26 32 27 33 28 34 89 35
REMARK SMILES IDX 29 36 88 37 30 38 31 39 32 40 82 41 33 42 87 43 81 44 83 45
REMARK SMILES IDX 34 46 86 47 80 48 79 49 35 51 67 52 47 53 66 54 48 55 51 56
REMARK SMILES IDX 65 57 84 58 49 59 50 60 64 62 85 63 52 64 36 65 37 66 45 67
REMARK SMILES IDX 38 68 40 69 46 70 39 71 41 72 42 73 43 74 44 75 68 76 69 77
REMARK SMILES IDX 77 78 70 79 72 80 78 81 71 82 73 83 74 84 75 85 76 86 53 87
REMARK SMILES IDX 54 88 62 89 55 90 57 91 63 92 56 93 58 94 59 95 60 96 61 97
REMARK H PARENT 8 15 8 16 3 22 83 50 51 61
REMARK Flexibility Score: inf
ROOT
ATOM      1  C   UNL A   1      33.230  19.885  25.411  1.00  0.00     0.188 C 
ENDROOT
BRANCH   1   2
ATOM      2  O   UNL A   1      32.100  20.092  24.569  1.00  0.00    -0.376 OA
BRANCH   2   3
ATOM      3  C   UNL A   1      32.238  20.051  23.157  1.00  0.00     0.202 C 
BRANCH   3   4
ATOM      4  C   UNL A   1      31.778  21.277  22.367  1.00  0.00     0.261 C 
BRANCH   4   5
ATOM      5  O   UNL A   1      32.874  22.075  21.892  1.00  0.00    -0.460 OA
BRANCH   5   6
ATOM      6  C   UNL A   1      33.282  23.064  22.738  1.00  0.00     0.339 C 
ATOM      7  O   UNL A   1      34.317  23.043  23.393  1.00  0.00    -0.246 OA
BRANCH   6   8
ATOM      8  C   UNL A   1      32.391  24.219  22.723  1.00  0.00     0.071 A 
ATOM      9  C   UNL A   1      30.800  25.791  23.423  1.00  0.00     0.059 A 
ATOM     10  C   UNL A   1      31.342  24.537  23.650  1.00  0.00     0.037 A 
ATOM     11  S   UNL A   1      31.348  26.443  21.936  1.00  0.00    -0.142 S 
ATOM     12  C   UNL A   1      32.478  25.183  21.736  1.00  0.00     0.081 A 
BRANCH   9  13
ATOM     13  C   UNL A   1      29.929  26.628  24.320  1.00  0.00     0.308 C 
BRANCH  13  14
ATOM     14  N   UNL A   1      30.597  26.945  25.595  1.00  0.00    -0.341 N 
ATOM     15  H   UNL A   1      30.083  27.694  26.058  1.00  0.00     0.346 HD
ATOM     16  H   UNL A   1      30.608  26.095  26.160  1.00  0.00     0.346 HD
BRANCH  14  17
ATOM     17  C   UNL A   1      31.993  27.376  25.409  1.00  0.00     0.270 C 
BRANCH  17  18
ATOM     18  C   UNL A   1      32.165  28.883  25.627  1.00  0.00     0.105 C 
ATOM     19  N   UNL A   1      34.052  30.076  26.600  1.00  0.00    -0.335 N 
ATOM     20  C   UNL A   1      32.804  30.512  27.235  1.00  0.00     0.262 C 
ATOM     21  C   UNL A   1      33.612  29.357  25.377  1.00  0.00     0.271 C 
ATOM     22  H   UNL A   1      34.646  30.886  26.424  1.00  0.00     0.348 HD
ATOM     23  C   UNL A   1      31.869  29.337  27.058  1.00  0.00     0.076 C 
BRANCH  19  24
ATOM     24  C   UNL A   1      34.893  29.188  27.429  1.00  0.00     0.258 C 
ATOM     25  C   UNL A   1      36.338  29.643  27.623  1.00  0.00     0.071 C 
ENDBRANCH  19  24
ENDBRANCH  17  18
ENDBRANCH  14  17
ENDBRANCH  13  14
ENDBRANCH   9  13
ENDBRANCH   6   8
ENDBRANCH   5   6
ENDBRANCH   4   5
ENDBRANCH   3   4
ENDBRANCH   2   3
ENDBRANCH   1   2
BRANCH   1  26
ATOM     26  C   UNL A   1      33.879  21.074  26.146  1.00  0.00     0.188 C 
BRANCH  26  27
ATOM     27  O   UNL A   1      35.279  21.203  25.950  1.00  0.00    -0.376 OA
BRANCH  27  28
ATOM     28  C   UNL A   1      35.867  20.272  25.052  1.00  0.00     0.202 C 
BRANCH  28  29
ATOM     29  C   UNL A   1      37.392  20.390  24.955  1.00  0.00     0.261 C 
BRANCH  29  30
ATOM     30  O   UNL A   1      37.961  21.457  25.729  1.00  0.00    -0.460 OA
BRANCH  30  31
ATOM     31  C   UNL A   1      39.228  21.283  26.167  1.00  0.00     0.338 C 
ATOM     32  O   UNL A   1      39.940  20.311  25.981  1.00  0.00    -0.246 OA
BRANCH  31  33
ATOM     33  C   UNL A   1      39.687  22.547  26.776  1.00  0.00     0.060 A 
ATOM     34  C   UNL A   1      39.027  23.733  26.436  1.00  0.00     0.016 A 
ATOM     35  C   UNL A   1      40.769  22.566  27.661  1.00  0.00     0.016 A 
ATOM     36  C   UNL A   1      39.479  24.950  26.950  1.00  0.00     0.010 A 
ATOM     37  C   UNL A   1      41.225  23.786  28.167  1.00  0.00     0.010 A 
ATOM     38  C   UNL A   1      40.605  24.988  27.787  1.00  0.00    -0.014 A 
BRANCH  38  39
ATOM     39  C   UNL A   1      41.217  26.294  28.136  1.00  0.00     0.031 A 
ATOM     40  C   UNL A   1      42.614  26.593  27.662  1.00  0.00     0.074 A 
ATOM     41  C   UNL A   1      40.545  27.208  28.858  1.00  0.00     0.049 A 
ATOM     42  N   UNL A   1      43.313  27.690  27.787  1.00  0.00    -0.248 NA
ATOM     43  C   UNL A   1      43.317  25.509  26.955  1.00  0.00     0.031 C 
ATOM     44  C   UNL A   1      39.201  27.033  29.407  1.00  0.00     0.029 A 
ATOM     45  N   UNL A   1      40.915  28.465  29.266  1.00  0.00    -0.354 N 
ATOM     46  C   UNL A   1      44.537  27.431  27.183  1.00  0.00     0.074 A 
ATOM     47  C   UNL A   1      44.497  26.063  26.715  1.00  0.00     0.031 C 
ATOM     48  C   UNL A   1      38.866  28.137  30.098  1.00  0.00     0.029 A 
ATOM     49  C   UNL A   1      39.969  29.096  30.040  1.00  0.00     0.049 A 
ATOM     50  H   UNL A   1      41.776  28.877  29.027  1.00  0.00     0.167 HD
ATOM     51  C   UNL A   1      45.591  28.262  27.009  1.00  0.00     0.034 A 
ATOM     52  C   UNL A   1      39.991  30.308  30.629  1.00  0.00     0.034 A 
ATOM     53  C   UNL A   1      45.635  29.626  27.461  1.00  0.00     0.049 A 
ATOM     54  C   UNL A   1      41.176  31.217  30.417  1.00  0.00     0.074 A 
ATOM     55  C   UNL A   1      46.641  30.559  27.285  1.00  0.00     0.029 A 
ATOM     56  N   UNL A   1      44.635  30.249  28.190  1.00  0.00    -0.354 N 
ATOM     57  N   UNL A   1      42.256  31.013  29.701  1.00  0.00    -0.248 NA
ATOM     58  C   UNL A   1      41.125  32.540  31.058  1.00  0.00     0.031 C 
ATOM     59  C   UNL A   1      46.253  31.746  27.919  1.00  0.00     0.029 A 
ATOM     60  C   UNL A   1      45.000  31.553  28.477  1.00  0.00     0.049 A 
ATOM     61  H   UNL A   1      43.788  29.827  28.462  1.00  0.00     0.167 HD
ATOM     62  C   UNL A   1      42.992  32.193  29.776  1.00  0.00     0.074 A 
ATOM     63  C   UNL A   1      42.224  33.113  30.589  1.00  0.00     0.031 C 
ATOM     64  C   UNL A   1      44.202  32.482  29.235  1.00  0.00     0.034 A 
BRANCH  51  65
ATOM     65  C   UNL A   1      46.774  27.728  26.246  1.00  0.00     0.023 A 
ATOM     66  C   UNL A   1      46.867  27.977  24.861  1.00  0.00     0.012 A 
ATOM     67  C   UNL A   1      47.808  27.030  26.896  1.00  0.00     0.148 A 
ATOM     68  C   UNL A   1      47.960  27.517  24.129  1.00  0.00     0.002 A 
ATOM     69  C   UNL A   1      48.914  26.606  26.166  1.00  0.00     0.091 A 
ATOM     70  F   UNL A   1      47.687  26.780  28.207  1.00  0.00    -0.205 F 
ATOM     71  C   UNL A   1      48.987  26.841  24.783  1.00  0.00     0.022 A 
BRANCH  69  72
ATOM     72  S   UNL A   1      50.317  25.787  26.932  1.00  0.00     0.127 S 
ATOM     73  O   UNL A   1      51.248  25.686  25.810  1.00  0.00    -0.237 OA
ATOM     74  O   UNL A   1      50.711  26.746  27.966  1.00  0.00    -0.237 OA
ATOM     75  O   UNL A   1      49.808  24.522  27.444  1.00  0.00    -0.744 OA
ENDBRANCH  69  72
ENDBRANCH  51  65
BRANCH  52  76
ATOM     76  C   UNL A   1      38.818  30.770  31.424  1.00  0.00     0.023 A 
ATOM     77  C   UNL A   1      38.812  30.585  32.821  1.00  0.00     0.012 A 
ATOM     78  C   UNL A   1      37.718  31.397  30.810  1.00  0.00     0.148 A 
ATOM     79  C   UNL A   1      37.718  30.990  33.587  1.00  0.00     0.002 A 
ATOM     80  C   UNL A   1      36.654  31.843  31.585  1.00  0.00     0.091 A 
ATOM     81  F   UNL A   1      37.731  31.542  29.477  1.00  0.00    -0.205 F 
ATOM     82  C   UNL A   1      36.645  31.628  32.972  1.00  0.00     0.022 A 
BRANCH  80  83
ATOM     83  S   UNL A   1      35.287  32.778  30.889  1.00  0.00     0.127 S 
ATOM     84  O   UNL A   1      34.287  32.681  31.949  1.00  0.00    -0.237 OA
ATOM     85  O   UNL A   1      35.879  34.106  30.722  1.00  0.00    -0.237 OA
ATOM     86  O   UNL A   1      34.956  32.109  29.638  1.00  0.00    -0.744 OA
ENDBRANCH  80  83
ENDBRANCH  52  76
BRANCH  64  87
ATOM     87  C   UNL A   1      44.769  33.858  29.473  1.00  0.00     0.023 A 
ATOM     88  C   UNL A   1      45.517  34.111  30.639  1.00  0.00     0.012 A 
ATOM     89  C   UNL A   1      44.623  34.879  28.512  1.00  0.00     0.148 A 
ATOM     90  C   UNL A   1      46.083  35.366  30.861  1.00  0.00     0.002 A 
ATOM     91  C   UNL A   1      45.228  36.114  28.720  1.00  0.00     0.091 A 
ATOM     92  F   UNL A   1      43.890  34.629  27.417  1.00  0.00    -0.205 F 
ATOM     93  C   UNL A   1      45.950  36.363  29.897  1.00  0.00     0.022 A 
BRANCH  91  94
ATOM     94  S   UNL A   1      45.177  37.416  27.482  1.00  0.00     0.127 S 
ATOM     95  O   UNL A   1      46.042  36.872  26.438  1.00  0.00    -0.237 OA
ATOM     96  O   UNL A   1      43.756  37.467  27.132  1.00  0.00    -0.237 OA
ATOM     97  O   UNL A   1      45.669  38.613  28.153  1.00  0.00    -0.744 OA
ENDBRANCH  91  94
ENDBRANCH  64  87
ENDBRANCH  38  39
ENDBRANCH  31  33
ENDBRANCH  30  31
ENDBRANCH  29  30
ENDBRANCH  28  29
ENDBRANCH  27  28
ENDBRANCH  26  27
ENDBRANCH   1  26
TORSDOF 25
ENDMDL
MODEL 2
REMARK VINA RESULT:      -9.6      2.050      7.472
REMARK SMILES CC[N@@H+]1CC[C@H](C[NH2+]Cc2cc(C(=O)OCCOCCOCCOC(=O)c3ccc(-c4c5nc(c(-c6cccc(S(=O)(=O)[O-])c6F)c6ccc([nH]6)c(-c6cccc(S(=O)(=O)[O-])c6F)c6nc(c(-c7cccc(S(=O)(=O)[O-])c7F)c7ccc4[nH]7)C=C6)C=C5)cc3)cs2)C1
REMARK SMILES IDX 19 1 18 2 17 3 16 4 15 5 13 6 14 7 12 8 10 9 11 10 91 11
REMARK SMILES IDX 90 12 9 13 8 14 7 17 6 18 3 19 4 20 92 21 5 23 2 24 1 25
REMARK SMILES IDX 20 26 21 27 22 28 23 29 24 30 25 31 26 32 27 33 28 34 89 35
REMARK SMILES IDX 29 36 88 37 30 38 31 39 32 40 82 41 33 42 87 43 81 44 83 45
REMARK SMILES IDX 34 46 86 47 80 48 79 49 35 51 67 52 47 53 66 54 48 55 51 56
REMARK SMILES IDX 65 57 84 58 49 59 50 60 64 62 85 63 52 64 36 65 37 66 45 67
REMARK SMILES IDX 38 68 40 69 46 70 39 71 41 72 42 73 43 74 44 75 68 76 69 77
REMARK SMILES IDX 77 78 70 79 72 80 78 81 71 82 73 83 74 84 75 85 76 86 53 87
REMARK SMILES IDX 54 88 62 89 55 90 57 91 63 92 56 93 58 94 59 95 60 96 61 97
REMARK H PARENT 8 15 8 16 3 22 83 50 51 61
REMARK Flexibility Score: inf
ROOT
ATOM      1  C   UNL A   1      33.291  19.965  25.672  1.00  0.00     0.188 C 
ENDROOT
BRANCH   1   2
ATOM      2  O   UNL A   1      32.209  20.027  24.749  1.00  0.00    -0.376 OA
BRANCH   2   3
ATOM      3  C   UNL A   1      32.448  20.308  23.378  1.00  0.00     0.202 C 
BRANCH   3   4
ATOM      4  C   UNL A   1      31.831  21.583  22.801  1.00  0.00     0.261 C 
BRANCH   4   5
ATOM      5  O   UNL A   1      32.733  22.299  21.942  1.00  0.00    -0.460 OA
BRANCH   5   6
ATOM      6  C   UNL A   1      33.393  23.337  22.530  1.00  0.00     0.339 C 
ATOM      7  O   UNL A   1      34.606  23.395  22.690  1.00  0.00    -0.246 OA
BRANCH   6   8
ATOM      8  C   UNL A   1      32.506  24.441  22.879  1.00  0.00     0.071 A 
ATOM      9  C   UNL A   1      31.099  25.832  24.134  1.00  0.00     0.059 A 
ATOM     10  C   UNL A   1      31.698  24.586  24.057  1.00  0.00     0.037 A 
ATOM     11  S   UNL A   1      31.275  26.698  22.667  1.00  0.00    -0.142 S 
ATOM     12  C   UNL A   1      32.345  25.529  22.041  1.00  0.00     0.081 A 
BRANCH   9  13
ATOM     13  C   UNL A   1      30.449  26.504  25.314  1.00  0.00     0.308 C 
BRANCH  13  14
ATOM     14  N   UNL A   1      31.231  26.321  26.550  1.00  0.00    -0.341 N 
ATOM     15  H   UNL A   1      30.738  26.773  27.320  1.00  0.00     0.346 HD
ATOM     16  H   UNL A   1      31.333  25.318  26.709  1.00  0.00     0.346 HD
BRANCH  14  17
ATOM     17  C   UNL A   1      32.583  26.898  26.453  1.00  0.00     0.270 C 
BRANCH  17  18
ATOM     18  C   UNL A   1      32.550  28.388  26.096  1.00  0.00     0.105 C 
ATOM     19  N   UNL A   1      34.179  30.118  26.628  1.00  0.00    -0.335 N 
ATOM     20  C   UNL A   1      32.833  30.567  27.000  1.00  0.00     0.262 C 
ATOM     21  C   UNL A   1      33.946  28.945  25.747  1.00  0.00     0.271 C 
ATOM     22  H   UNL A   1      34.684  30.886  26.187  1.00  0.00     0.348 HD
ATOM     23  C   UNL A   1      32.068  29.285  27.237  1.00  0.00     0.076 C 
BRANCH  19  24
ATOM     24  C   UNL A   1      35.040  29.730  27.765  1.00  0.00     0.258 C 
ATOM     25  C   UNL A   1      36.541  29.879  27.535  1.00  0.00     0.071 C 
ENDBRANCH  19  24
ENDBRANCH  17  18
ENDBRANCH  14  17
ENDBRANCH  13  14
ENDBRANCH   9  13
ENDBRANCH   6   8
ENDBRANCH   5   6
ENDBRANCH   4   5
ENDBRANCH   3   4
ENDBRANCH   2   3
ENDBRANCH   1   2
BRANCH   1  26
ATOM     26  C   UNL A   1      33.808  21.251  26.348  1.00  0.00     0.188 C 
BRANCH  26  27
ATOM     27  O   UNL A   1      35.179  21.537  26.113  1.00  0.00    -0.376 OA
BRANCH  27  28
ATOM     28  C   UNL A   1      35.831  20.707  25.161  1.00  0.00     0.202 C 
BRANCH  28  29
ATOM     29  C   UNL A   1      37.295  21.086  24.916  1.00  0.00     0.261 C 
BRANCH  29  30
ATOM     30  O   UNL A   1      37.874  21.929  25.925  1.00  0.00    -0.460 OA
BRANCH  30  31
ATOM     31  C   UNL A   1      39.140  21.643  26.303  1.00  0.00     0.338 C 
ATOM     32  O   UNL A   1      39.711  20.572  26.198  1.00  0.00    -0.246 OA
BRANCH  31  33
ATOM     33  C   UNL A   1      39.794  22.899  26.719  1.00  0.00     0.060 A 
ATOM     34  C   UNL A   1      39.364  24.101  26.146  1.00  0.00     0.016 A 
ATOM     35  C   UNL A   1      40.834  22.891  27.654  1.00  0.00     0.016 A 
ATOM     36  C   UNL A   1      40.007  25.296  26.476  1.00  0.00     0.010 A 
ATOM     37  C   UNL A   1      41.481  24.086  27.976  1.00  0.00     0.010 A 
ATOM     38  C   UNL A   1      41.095  25.290  27.363  1.00  0.00    -0.014 A 
BRANCH  38  39
ATOM     39  C   UNL A   1      41.916  26.516  27.526  1.00  0.00     0.031 A 
ATOM     40  C   UNL A   1      41.340  27.681  28.286  1.00  0.00     0.074 A 
ATOM     41  C   UNL A   1      43.157  26.596  27.014  1.00  0.00     0.049 A 
ATOM     42  N   UNL A   1      41.903  28.815  28.611  1.00  0.00    -0.248 NA
ATOM     43  C   UNL A   1      39.944  27.550  28.737  1.00  0.00     0.031 C 
ATOM     44  C   UNL A   1      43.819  25.556  26.230  1.00  0.00     0.029 A 
ATOM     45  N   UNL A   1      44.076  27.615  27.069  1.00  0.00    -0.354 N 
ATOM     46  C   UNL A   1      40.933  29.536  29.297  1.00  0.00     0.074 A 
ATOM     47  C   UNL A   1      39.738  28.722  29.319  1.00  0.00     0.031 C 
ATOM     48  C   UNL A   1      45.034  25.999  25.859  1.00  0.00     0.029 A 
ATOM     49  C   UNL A   1      45.235  27.350  26.380  1.00  0.00     0.049 A 
ATOM     50  H   UNL A   1      43.919  28.456  27.555  1.00  0.00     0.167 HD
ATOM     51  C   UNL A   1      41.034  30.753  29.881  1.00  0.00     0.034 A 
ATOM     52  C   UNL A   1      46.333  28.111  26.194  1.00  0.00     0.034 A 
ATOM     53  C   UNL A   1      42.221  31.563  29.873  1.00  0.00     0.049 A 
ATOM     54  C   UNL A   1      46.422  29.463  26.857  1.00  0.00     0.074 A 
ATOM     55  C   UNL A   1      42.433  32.787  30.481  1.00  0.00     0.029 A 
ATOM     56  N   UNL A   1      43.396  31.236  29.215  1.00  0.00    -0.354 N 
ATOM     57  N   UNL A   1      45.556  30.057  27.642  1.00  0.00    -0.248 NA
ATOM     58  C   UNL A   1      47.659  30.229  26.644  1.00  0.00     0.031 C 
ATOM     59  C   UNL A   1      43.733  33.208  30.180  1.00  0.00     0.029 A 
ATOM     60  C   UNL A   1      44.335  32.237  29.395  1.00  0.00     0.049 A 
ATOM     61  H   UNL A   1      43.542  30.412  28.696  1.00  0.00     0.167 HD
ATOM     62  C   UNL A   1      46.158  31.246  28.045  1.00  0.00     0.074 A 
ATOM     63  C   UNL A   1      47.471  31.277  27.435  1.00  0.00     0.031 C 
ATOM     64  C   UNL A   1      45.662  32.230  28.834  1.00  0.00     0.034 A 
BRANCH  51  65
ATOM     65  C   UNL A   1      39.830  31.264  30.627  1.00  0.00     0.023 A 
ATOM     66  C   UNL A   1      38.781  31.869  29.906  1.00  0.00     0.012 A 
ATOM     67  C   UNL A   1      39.713  31.105  32.020  1.00  0.00     0.148 A 
ATOM     68  C   UNL A   1      37.642  32.331  30.563  1.00  0.00     0.002 A 
ATOM     69  C   UNL A   1      38.558  31.536  32.665  1.00  0.00     0.091 A 
ATOM     70  F   UNL A   1      40.734  30.553  32.690  1.00  0.00    -0.205 F 
ATOM     71  C   UNL A   1      37.526  32.156  31.939  1.00  0.00     0.022 A 
BRANCH  69  72
ATOM     72  S   UNL A   1      38.289  31.293  34.424  1.00  0.00     0.127 S 
ATOM     73  O   UNL A   1      39.428  32.007  34.997  1.00  0.00    -0.237 OA
ATOM     74  O   UNL A   1      36.994  31.943  34.633  1.00  0.00    -0.237 OA
ATOM     75  O   UNL A   1      38.281  29.851  34.629  1.00  0.00    -0.744 OA
ENDBRANCH  69  72
ENDBRANCH  51  65
BRANCH  52  76
ATOM     76  C   UNL A   1      47.477  27.584  25.397  1.00  0.00     0.023 A 
ATOM     77  C   UNL A   1      48.426  26.747  26.017  1.00  0.00     0.012 A 
ATOM     78  C   UNL A   1      47.625  27.896  24.033  1.00  0.00     0.148 A 
ATOM     79  C   UNL A   1      49.517  26.255  25.299  1.00  0.00     0.002 A 
ATOM     80  C   UNL A   1      48.686  27.361  23.311  1.00  0.00     0.091 A 
ATOM     81  F   UNL A   1      46.725  28.713  23.467  1.00  0.00    -0.205 F 
ATOM     82  C   UNL A   1      49.641  26.553  23.946  1.00  0.00     0.022 A 
BRANCH  80  83
ATOM     83  S   UNL A   1      48.856  27.598  21.538  1.00  0.00     0.127 S 
ATOM     84  O   UNL A   1      49.583  26.395  21.144  1.00  0.00    -0.237 OA
ATOM     85  O   UNL A   1      47.460  27.644  21.102  1.00  0.00    -0.237 OA
ATOM     86  O   UNL A   1      49.573  28.856  21.382  1.00  0.00    -0.744 OA
ENDBRANCH  80  83
ENDBRANCH  52  76
BRANCH  64  87
ATOM     87  C   UNL A   1      46.545  33.419  29.117  1.00  0.00     0.023 A 
ATOM     88  C   UNL A   1      47.408  33.396  30.231  1.00  0.00     0.012 A 
ATOM     89  C   UNL A   1      46.575  34.525  28.244  1.00  0.00     0.148 A 
ATOM     90  C   UNL A   1      48.262  34.467  30.489  1.00  0.00     0.002 A 
ATOM     91  C   UNL A   1      47.461  35.570  28.484  1.00  0.00     0.091 A 
ATOM     92  F   UNL A   1      45.733  34.542  27.201  1.00  0.00    -0.205 F 
ATOM     93  C   UNL A   1      48.297  35.548  29.611  1.00  0.00     0.022 A 
BRANCH  91  94
ATOM     94  S   UNL A   1      47.629  36.952  27.348  1.00  0.00     0.127 S 
ATOM     95  O   UNL A   1      48.695  37.730  27.976  1.00  0.00    -0.237 OA
ATOM     96  O   UNL A   1      48.012  36.292  26.098  1.00  0.00    -0.237 OA
ATOM     97  O   UNL A   1      46.318  37.588  27.309  1.00  0.00    -0.744 OA
ENDBRANCH  91  94
ENDBRANCH  64  87
ENDBRANCH  38  39
ENDBRANCH  31  33
ENDBRANCH  30  31
ENDBRANCH  29  30
ENDBRANCH  28  29
ENDBRANCH  27  28
ENDBRANCH  26  27
ENDBRANCH   1  26
TORSDOF 25
ENDMDL
MODEL 3
REMARK VINA RESULT:      -9.3      5.440      9.323
REMARK SMILES CC[N@@H+]1CC[C@H](C[NH2+]Cc2cc(C(=O)OCCOCCOCCOC(=O)c3ccc(-c4c5nc(c(-c6cccc(S(=O)(=O)[O-])c6F)c6ccc([nH]6)c(-c6cccc(S(=O)(=O)[O-])c6F)c6nc(c(-c7cccc(S(=O)(=O)[O-])c7F)c7ccc4[nH]7)C=C6)C=C5)cc3)cs2)C1
REMARK SMILES IDX 19 1 18 2 17 3 16 4 15 5 13 6 14 7 12 8 10 9 11 10 91 11
REMARK SMILES IDX 90 12 9 13 8 14 7 17 6 18 3 19 4 20 92 21 5 23 2 24 1 25
REMARK SMILES IDX 20 26 21 27 22 28 23 29 24 30 25 31 26 32 27 33 28 34 89 35
REMARK SMILES IDX 29 36 88 37 30 38 31 39 32 40 82 41 33 42 87 43 81 44 83 45
REMARK SMILES IDX 34 46 86 47 80 48 79 49 35 51 67 52 47 53 66 54 48 55 51 56
REMARK SMILES IDX 65 57 84 58 49 59 50 60 64 62 85 63 52 64 36 65 37 66 45 67
REMARK SMILES IDX 38 68 40 69 46 70 39 71 41 72 42 73 43 74 44 75 68 76 69 77
REMARK SMILES IDX 77 78 70 79 72 80 78 81 71 82 73 83 74 84 75 85 76 86 53 87
REMARK SMILES IDX 54 88 62 89 55 90 57 91 63 92 56 93 58 94 59 95 60 96 61 97
REMARK H PARENT 8 15 8 16 3 22 83 50 51 61
REMARK Flexibility Score: inf
ROOT
ATOM      1  C   UNL A   1      33.628  27.824  26.419  1.00  0.00     0.188 C 
ENDROOT
BRANCH   1   2
ATOM      2  O   UNL A   1      33.391  26.804  25.454  1.00  0.00    -0.376 OA
BRANCH   2   3
ATOM      3  C   UNL A   1      32.109  26.206  25.341  1.00  0.00     0.202 C 
BRANCH   3   4
ATOM      4  C   UNL A   1      31.914  24.829  25.979  1.00  0.00     0.261 C 
BRANCH   4   5
ATOM      5  O   UNL A   1      32.353  23.756  25.131  1.00  0.00    -0.460 OA
BRANCH   5   6
ATOM      6  C   UNL A   1      33.184  22.851  25.723  1.00  0.00     0.339 C 
ATOM      7  O   UNL A   1      32.823  21.965  26.488  1.00  0.00    -0.246 OA
BRANCH   6   8
ATOM      8  C   UNL A   1      34.567  22.985  25.279  1.00  0.00     0.071 A 
ATOM      9  C   UNL A   1      36.875  23.384  25.333  1.00  0.00     0.059 A 
ATOM     10  C   UNL A   1      35.670  23.565  25.991  1.00  0.00     0.037 A 
ATOM     11  S   UNL A   1      36.632  22.784  23.746  1.00  0.00    -0.142 S 
ATOM     12  C   UNL A   1      34.971  22.537  24.035  1.00  0.00     0.081 A 
BRANCH   9  13
ATOM     13  C   UNL A   1      38.278  23.543  25.855  1.00  0.00     0.308 C 
BRANCH  13  14
ATOM     14  N   UNL A   1      38.877  22.249  26.226  1.00  0.00    -0.341 N 
ATOM     15  H   UNL A   1      38.155  21.660  26.639  1.00  0.00     0.346 HD
ATOM     16  H   UNL A   1      39.262  21.830  25.378  1.00  0.00     0.346 HD
BRANCH  14  17
ATOM     17  C   UNL A   1      39.979  22.394  27.192  1.00  0.00     0.270 C 
BRANCH  17  18
ATOM     18  C   UNL A   1      40.767  21.091  27.367  1.00  0.00     0.105 C 
ATOM     19  N   UNL A   1      43.024  20.564  26.619  1.00  0.00    -0.335 N 
ATOM     20  C   UNL A   1      42.099  19.503  26.205  1.00  0.00     0.262 C 
ATOM     21  C   UNL A   1      42.267  21.336  27.636  1.00  0.00     0.271 C 
ATOM     22  H   UNL A   1      43.889  20.147  26.961  1.00  0.00     0.348 HD
ATOM     23  C   UNL A   1      40.756  20.193  26.129  1.00  0.00     0.076 C 
BRANCH  19  24
ATOM     24  C   UNL A   1      43.465  21.462  25.531  1.00  0.00     0.258 C 
ATOM     25  C   UNL A   1      44.751  22.239  25.801  1.00  0.00     0.071 C 
ENDBRANCH  19  24
ENDBRANCH  17  18
ENDBRANCH  14  17
ENDBRANCH  13  14
ENDBRANCH   9  13
ENDBRANCH   6   8
ENDBRANCH   5   6
ENDBRANCH   4   5
ENDBRANCH   3   4
ENDBRANCH   2   3
ENDBRANCH   1   2
BRANCH   1  26
ATOM     26  C   UNL A   1      33.270  29.290  26.103  1.00  0.00     0.188 C 
BRANCH  26  27
ATOM     27  O   UNL A   1      32.345  29.885  27.002  1.00  0.00    -0.376 OA
BRANCH  27  28
ATOM     28  C   UNL A   1      32.195  31.294  26.894  1.00  0.00     0.202 C 
BRANCH  28  29
ATOM     29  C   UNL A   1      33.266  32.086  27.651  1.00  0.00     0.261 C 
BRANCH  29  30
ATOM     30  O   UNL A   1      33.312  33.486  27.334  1.00  0.00    -0.460 OA
BRANCH  30  31
ATOM     31  C   UNL A   1      33.322  34.346  28.377  1.00  0.00     0.338 C 
ATOM     32  O   UNL A   1      32.512  35.228  28.606  1.00  0.00    -0.246 OA
BRANCH  31  33
ATOM     33  C   UNL A   1      34.393  33.936  29.307  1.00  0.00     0.060 A 
ATOM     34  C   UNL A   1      35.722  34.194  28.954  1.00  0.00     0.016 A 
ATOM     35  C   UNL A   1      34.090  33.288  30.508  1.00  0.00     0.016 A 
ATOM     36  C   UNL A   1      36.757  33.762  29.786  1.00  0.00     0.010 A 
ATOM     37  C   UNL A   1      35.128  32.849  31.335  1.00  0.00     0.010 A 
ATOM     38  C   UNL A   1      36.467  33.053  30.962  1.00  0.00    -0.014 A 
BRANCH  38  39
ATOM     39  C   UNL A   1      37.566  32.398  31.714  1.00  0.00     0.031 A 
ATOM     40  C   UNL A   1      38.302  31.250  31.075  1.00  0.00     0.074 A 
ATOM     41  C   UNL A   1      37.914  32.815  32.944  1.00  0.00     0.049 A 
ATOM     42  N   UNL A   1      39.335  30.583  31.516  1.00  0.00    -0.248 NA
ATOM     43  C   UNL A   1      37.803  30.794  29.766  1.00  0.00     0.031 C 
ATOM     44  C   UNL A   1      37.263  33.890  33.689  1.00  0.00     0.029 A 
ATOM     45  N   UNL A   1      38.899  32.367  33.788  1.00  0.00    -0.354 N 
ATOM     46  C   UNL A   1      39.610  29.625  30.547  1.00  0.00     0.074 A 
ATOM     47  C   UNL A   1      38.617  29.781  29.506  1.00  0.00     0.031 C 
ATOM     48  C   UNL A   1      37.855  34.006  34.892  1.00  0.00     0.029 A 
ATOM     49  C   UNL A   1      38.926  33.016  35.000  1.00  0.00     0.049 A 
ATOM     50  H   UNL A   1      39.528  31.648  33.549  1.00  0.00     0.167 HD
ATOM     51  C   UNL A   1      40.611  28.716  30.510  1.00  0.00     0.034 A 
ATOM     52  C   UNL A   1      39.725  32.833  36.071  1.00  0.00     0.034 A 
ATOM     53  C   UNL A   1      41.608  28.563  31.534  1.00  0.00     0.049 A 
ATOM     54  C   UNL A   1      40.836  31.815  36.004  1.00  0.00     0.074 A 
ATOM     55  C   UNL A   1      42.692  27.703  31.560  1.00  0.00     0.029 A 
ATOM     56  N   UNL A   1      41.638  29.279  32.721  1.00  0.00    -0.354 N 
ATOM     57  N   UNL A   1      41.182  31.033  35.010  1.00  0.00    -0.248 NA
ATOM     58  C   UNL A   1      41.694  31.687  37.192  1.00  0.00     0.031 C 
ATOM     59  C   UNL A   1      43.370  27.890  32.770  1.00  0.00     0.029 A 
ATOM     60  C   UNL A   1      42.717  28.877  33.490  1.00  0.00     0.049 A 
ATOM     61  H   UNL A   1      40.988  29.972  32.978  1.00  0.00     0.167 HD
ATOM     62  C   UNL A   1      42.317  30.350  35.438  1.00  0.00     0.074 A 
ATOM     63  C   UNL A   1      42.612  30.827  36.774  1.00  0.00     0.031 C 
ATOM     64  C   UNL A   1      43.038  29.401  34.792  1.00  0.00     0.034 A 
BRANCH  51  65
ATOM     65  C   UNL A   1      40.709  27.843  29.288  1.00  0.00     0.023 A 
ATOM     66  C   UNL A   1      39.880  26.707  29.187  1.00  0.00     0.012 A 
ATOM     67  C   UNL A   1      41.573  28.167  28.226  1.00  0.00     0.148 A 
ATOM     68  C   UNL A   1      39.928  25.891  28.059  1.00  0.00     0.002 A 
ATOM     69  C   UNL A   1      41.590  27.368  27.087  1.00  0.00     0.091 A 
ATOM     70  F   UNL A   1      42.373  29.235  28.353  1.00  0.00    -0.205 F 
ATOM     71  C   UNL A   1      40.775  26.226  27.006  1.00  0.00     0.022 A 
BRANCH  69  72
ATOM     72  S   UNL A   1      42.597  27.758  25.652  1.00  0.00     0.127 S 
ATOM     73  O   UNL A   1      42.476  26.532  24.866  1.00  0.00    -0.237 OA
ATOM     74  O   UNL A   1      41.901  28.915  25.088  1.00  0.00    -0.237 OA
ATOM     75  O   UNL A   1      43.928  28.047  26.167  1.00  0.00    -0.744 OA
ENDBRANCH  69  72
ENDBRANCH  51  65
BRANCH  52  76
ATOM     76  C   UNL A   1      39.551  33.684  37.282  1.00  0.00     0.023 A 
ATOM     77  C   UNL A   1      40.080  34.990  37.293  1.00  0.00     0.012 A 
ATOM     78  C   UNL A   1      38.860  33.214  38.415  1.00  0.00     0.148 A 
ATOM     79  C   UNL A   1      39.949  35.801  38.421  1.00  0.00     0.002 A 
ATOM     80  C   UNL A   1      38.689  34.045  39.515  1.00  0.00     0.091 A 
ATOM     81  F   UNL A   1      38.386  31.960  38.394  1.00  0.00    -0.205 F 
ATOM     82  C   UNL A   1      39.246  35.334  39.526  1.00  0.00     0.022 A 
BRANCH  80  83
ATOM     83  S   UNL A   1      37.697  33.566  40.934  1.00  0.00     0.127 S 
ATOM     84  O   UNL A   1      38.494  32.483  41.504  1.00  0.00    -0.237 OA
ATOM     85  O   UNL A   1      37.677  34.797  41.724  1.00  0.00    -0.237 OA
ATOM     86  O   UNL A   1      36.401  33.184  40.389  1.00  0.00    -0.744 OA
ENDBRANCH  80  83
ENDBRANCH  52  76
BRANCH  64  87
ATOM     87  C   UNL A   1      44.241  28.828  35.498  1.00  0.00     0.023 A 
ATOM     88  C   UNL A   1      45.515  29.380  35.261  1.00  0.00     0.012 A 
ATOM     89  C   UNL A   1      44.102  27.795  36.446  1.00  0.00     0.148 A 
ATOM     90  C   UNL A   1      46.636  28.892  35.932  1.00  0.00     0.002 A 
ATOM     91  C   UNL A   1      45.218  27.343  37.143  1.00  0.00     0.091 A 
ATOM     92  F   UNL A   1      42.887  27.265  36.645  1.00  0.00    -0.205 F 
ATOM     93  C   UNL A   1      46.486  27.883  36.881  1.00  0.00     0.022 A 
BRANCH  91  94
ATOM     94  S   UNL A   1      45.089  26.111  38.446  1.00  0.00     0.127 S 
ATOM     95  O   UNL A   1      44.610  24.944  37.709  1.00  0.00    -0.237 OA
ATOM     96  O   UNL A   1      46.470  26.006  38.922  1.00  0.00    -0.237 OA
ATOM     97  O   UNL A   1      44.162  26.669  39.422  1.00  0.00    -0.744 OA
ENDBRANCH  91  94
ENDBRANCH  64  87
ENDBRANCH  38  39
ENDBRANCH  31  33
ENDBRANCH  30  31
ENDBRANCH  29  30
ENDBRANCH  28  29
ENDBRANCH  27  28
ENDBRANCH  26  27
ENDBRANCH   1  26
TORSDOF 25
ENDMDL
