MODEL 1
REMARK VINA RESULT:     -10.0      0.000      0.000
REMARK SMILES COc1ccc(-c2ncn(CC(=O)OCCOCCOCCOC(=O)c3ccc(-c4c5nc(c(-c6cccc(S(=O)(=O)[O-])c6F)c6ccc([nH]6)c(-c6cccc(S(=O)(=O)[O-])c6F)c6nc(c(-c7cccc(S(=O)(=O)[O-])c7F)c7ccc4[nH]7)C=C6)C=C5)cc3)c2-c2ccc(OC)cc2)cc1
REMARK SMILES IDX 18 1 17 2 16 3 15 4 14 5 12 6 13 7 11 8 10 9 7 10 8 11 89 12
REMARK SMILES IDX 9 13 6 14 3 15 4 16 99 17 5 18 98 19 2 20 1 21 90 22 91 23
REMARK SMILES IDX 97 24 92 25 96 26 93 27 94 28 95 29 19 30 20 31 21 32 22 33
REMARK SMILES IDX 23 34 24 35 25 36 26 37 27 38 88 39 28 40 87 41 29 42 30 43
REMARK SMILES IDX 31 44 81 45 32 46 86 47 80 48 82 49 33 50 85 51 79 52 78 53
REMARK SMILES IDX 34 55 66 56 46 57 65 58 47 59 50 60 64 61 83 62 48 63 49 64
REMARK SMILES IDX 63 66 84 67 51 68 35 69 36 70 44 71 37 72 39 73 45 74 38 75
REMARK SMILES IDX 40 76 41 77 42 78 43 79 67 80 68 81 76 82 69 83 71 84 77 85
REMARK SMILES IDX 70 86 72 87 73 88 74 89 75 90 52 91 53 92 61 93 54 94 56 95
REMARK SMILES IDX 62 96 55 97 57 98 58 99 59 100 60 101
REMARK H PARENT 82 54 50 65
REMARK Flexibility Score: inf
ROOT
ATOM      1  C   UNL A   1      39.528  21.066  25.631  1.00  0.00     0.188 C 
ENDROOT
BRANCH   1   2
ATOM      2  O   UNL A   1      38.322  21.672  26.040  1.00  0.00    -0.376 OA
BRANCH   2   3
ATOM      3  C   UNL A   1      37.206  21.418  25.205  1.00  0.00     0.202 C 
BRANCH   3   4
ATOM      4  C   UNL A   1      36.810  22.492  24.158  1.00  0.00     0.261 C 
BRANCH   4   5
ATOM      5  O   UNL A   1      36.012  23.613  24.656  1.00  0.00    -0.462 OA
BRANCH   5   6
ATOM      6  C   UNL A   1      34.699  23.676  24.324  1.00  0.00     0.326 C 
ATOM      7  O   UNL A   1      34.169  22.820  23.616  1.00  0.00    -0.250 OA
BRANCH   6   8
ATOM      8  C   UNL A   1      33.848  24.815  24.898  1.00  0.00     0.246 C 
BRANCH   8   9
ATOM      9  N   UNL A   1      32.745  25.449  24.161  1.00  0.00    -0.319 N 
ATOM     10  C   UNL A   1      31.037  26.667  23.494  1.00  0.00     0.096 A 
ATOM     11  N   UNL A   1      30.948  25.457  22.845  1.00  0.00    -0.236 NA
ATOM     12  C   UNL A   1      32.083  26.670  24.430  1.00  0.00     0.076 A 
ATOM     13  C   UNL A   1      31.953  24.745  23.288  1.00  0.00     0.201 A 
BRANCH  10  14
ATOM     14  C   UNL A   1      30.193  27.788  23.095  1.00  0.00     0.003 A 
ATOM     15  C   UNL A   1      28.444  29.800  22.179  1.00  0.00     0.118 A 
ATOM     16  C   UNL A   1      27.956  28.750  22.950  1.00  0.00     0.047 A 
ATOM     17  C   UNL A   1      29.820  29.908  21.965  1.00  0.00     0.047 A 
ATOM     18  C   UNL A   1      28.832  27.771  23.431  1.00  0.00     0.014 A 
ATOM     19  C   UNL A   1      30.691  28.902  22.416  1.00  0.00     0.014 A 
BRANCH  15  20
ATOM     20  O   UNL A   1      27.516  30.695  21.721  1.00  0.00    -0.497 OA
ATOM     21  C   UNL A   1      27.985  31.526  20.658  1.00  0.00     0.278 C 
ENDBRANCH  15  20
ENDBRANCH  10  14
BRANCH  12  22
ATOM     22  C   UNL A   1      32.557  27.729  25.358  1.00  0.00     0.001 A 
ATOM     23  C   UNL A   1      33.926  27.885  25.559  1.00  0.00     0.014 A 
ATOM     24  C   UNL A   1      31.735  28.628  26.039  1.00  0.00     0.014 A 
ATOM     25  C   UNL A   1      34.505  28.878  26.349  1.00  0.00     0.047 A 
ATOM     26  C   UNL A   1      32.294  29.626  26.873  1.00  0.00     0.047 A 
ATOM     27  C   UNL A   1      33.678  29.767  27.001  1.00  0.00     0.118 A 
BRANCH  27  28
ATOM     28  O   UNL A   1      34.156  30.733  27.837  1.00  0.00    -0.497 OA
ATOM     29  C   UNL A   1      33.384  31.937  27.856  1.00  0.00     0.278 C 
ENDBRANCH  27  28
ENDBRANCH  12  22
ENDBRANCH   8   9
ENDBRANCH   6   8
ENDBRANCH   5   6
ENDBRANCH   4   5
ENDBRANCH   3   4
ENDBRANCH   2   3
ENDBRANCH   1   2
BRANCH   1  30
ATOM     30  C   UNL A   1      40.398  20.321  26.675  1.00  0.00     0.188 C 
BRANCH  30  31
ATOM     31  O   UNL A   1      41.656  20.836  27.049  1.00  0.00    -0.376 OA
BRANCH  31  32
ATOM     32  C   UNL A   1      42.351  21.627  26.106  1.00  0.00     0.202 C 
BRANCH  32  33
ATOM     33  C   UNL A   1      42.865  22.990  26.549  1.00  0.00     0.261 C 
BRANCH  33  34
ATOM     34  O   UNL A   1      42.090  24.087  26.064  1.00  0.00    -0.460 OA
BRANCH  34  35
ATOM     35  C   UNL A   1      41.250  24.566  27.001  1.00  0.00     0.338 C 
ATOM     36  O   UNL A   1      40.185  24.063  27.347  1.00  0.00    -0.246 OA
BRANCH  35  37
ATOM     37  C   UNL A   1      41.585  25.909  27.400  1.00  0.00     0.060 A 
ATOM     38  C   UNL A   1      42.607  26.056  28.348  1.00  0.00     0.016 A 
ATOM     39  C   UNL A   1      40.713  26.939  27.044  1.00  0.00     0.016 A 
ATOM     40  C   UNL A   1      42.693  27.240  29.030  1.00  0.00     0.010 A 
ATOM     41  C   UNL A   1      40.783  28.108  27.742  1.00  0.00     0.010 A 
ATOM     42  C   UNL A   1      41.742  28.223  28.750  1.00  0.00    -0.014 A 
BRANCH  42  43
ATOM     43  C   UNL A   1      41.888  29.510  29.380  1.00  0.00     0.031 A 
ATOM     44  C   UNL A   1      43.075  30.230  28.849  1.00  0.00     0.074 A 
ATOM     45  C   UNL A   1      40.909  30.000  30.160  1.00  0.00     0.049 A 
ATOM     46  N   UNL A   1      44.168  30.520  29.473  1.00  0.00    -0.248 NA
ATOM     47  C   UNL A   1      43.168  30.409  27.385  1.00  0.00     0.031 C 
ATOM     48  C   UNL A   1      39.586  29.423  30.418  1.00  0.00     0.029 A 
ATOM     49  N   UNL A   1      40.821  31.219  30.740  1.00  0.00    -0.354 N 
ATOM     50  C   UNL A   1      44.950  31.191  28.534  1.00  0.00     0.074 A 
ATOM     51  C   UNL A   1      44.429  30.819  27.253  1.00  0.00     0.031 C 
ATOM     52  C   UNL A   1      38.753  30.404  30.832  1.00  0.00     0.029 A 
ATOM     53  C   UNL A   1      39.515  31.632  30.983  1.00  0.00     0.049 A 
ATOM     54  H   UNL A   1      41.608  31.764  30.969  1.00  0.00     0.167 HD
ATOM     55  C   UNL A   1      45.700  32.267  28.904  1.00  0.00     0.034 A 
ATOM     56  C   UNL A   1      39.106  32.912  31.175  1.00  0.00     0.034 A 
ATOM     57  C   UNL A   1      45.892  32.269  30.338  1.00  0.00     0.049 A 
ATOM     58  C   UNL A   1      40.318  33.713  31.494  1.00  0.00     0.074 A 
ATOM     59  C   UNL A   1      46.387  31.358  31.253  1.00  0.00     0.029 A 
ATOM     60  N   UNL A   1      45.122  33.148  31.063  1.00  0.00    -0.354 N 
ATOM     61  N   UNL A   1      41.030  33.528  32.572  1.00  0.00    -0.248 NA
ATOM     62  C   UNL A   1      41.017  34.348  30.385  1.00  0.00     0.031 C 
ATOM     63  C   UNL A   1      45.497  31.442  32.366  1.00  0.00     0.029 A 
ATOM     64  C   UNL A   1      44.583  32.466  32.119  1.00  0.00     0.049 A 
ATOM     65  H   UNL A   1      44.983  34.101  30.858  1.00  0.00     0.167 HD
ATOM     66  C   UNL A   1      42.346  33.570  32.126  1.00  0.00     0.074 A 
ATOM     67  C   UNL A   1      42.278  34.176  30.794  1.00  0.00     0.031 C 
ATOM     68  C   UNL A   1      43.316  32.816  32.724  1.00  0.00     0.034 A 
BRANCH  55  69
ATOM     69  C   UNL A   1      45.827  33.550  28.088  1.00  0.00     0.023 A 
ATOM     70  C   UNL A   1      44.640  34.020  27.480  1.00  0.00     0.012 A 
ATOM     71  C   UNL A   1      47.035  34.135  27.635  1.00  0.00     0.148 A 
ATOM     72  C   UNL A   1      44.665  34.898  26.392  1.00  0.00     0.002 A 
ATOM     73  C   UNL A   1      47.054  35.046  26.586  1.00  0.00     0.091 A 
ATOM     74  F   UNL A   1      48.207  33.771  28.147  1.00  0.00    -0.205 F 
ATOM     75  C   UNL A   1      45.875  35.399  25.933  1.00  0.00     0.022 A 
BRANCH  73  76
ATOM     76  S   UNL A   1      48.592  35.751  25.971  1.00  0.00     0.127 S 
ATOM     77  O   UNL A   1      49.065  34.688  25.088  1.00  0.00    -0.237 OA
ATOM     78  O   UNL A   1      48.110  36.955  25.295  1.00  0.00    -0.237 OA
ATOM     79  O   UNL A   1      49.417  36.010  27.144  1.00  0.00    -0.744 OA
ENDBRANCH  73  76
ENDBRANCH  55  69
BRANCH  56  80
ATOM     80  C   UNL A   1      37.823  33.554  30.787  1.00  0.00     0.023 A 
ATOM     81  C   UNL A   1      37.458  33.622  29.427  1.00  0.00     0.012 A 
ATOM     82  C   UNL A   1      36.838  33.861  31.753  1.00  0.00     0.148 A 
ATOM     83  C   UNL A   1      36.152  33.960  29.045  1.00  0.00     0.002 A 
ATOM     84  C   UNL A   1      35.544  34.205  31.369  1.00  0.00     0.091 A 
ATOM     85  F   UNL A   1      37.140  33.726  33.050  1.00  0.00    -0.205 F 
ATOM     86  C   UNL A   1      35.194  34.245  30.014  1.00  0.00     0.022 A 
BRANCH  84  87
ATOM     87  S   UNL A   1      34.251  34.560  32.568  1.00  0.00     0.127 S 
ATOM     88  O   UNL A   1      33.172  35.055  31.712  1.00  0.00    -0.237 OA
ATOM     89  O   UNL A   1      34.013  33.245  33.155  1.00  0.00    -0.237 OA
ATOM     90  O   UNL A   1      34.808  35.562  33.469  1.00  0.00    -0.744 OA
ENDBRANCH  84  87
ENDBRANCH  56  80
BRANCH  68  91
ATOM     91  C   UNL A   1      42.983  32.109  34.012  1.00  0.00     0.023 A 
ATOM     92  C   UNL A   1      42.877  32.774  35.254  1.00  0.00     0.012 A 
ATOM     93  C   UNL A   1      42.580  30.769  33.927  1.00  0.00     0.148 A 
ATOM     94  C   UNL A   1      42.401  32.107  36.387  1.00  0.00     0.002 A 
ATOM     95  C   UNL A   1      42.063  30.123  35.042  1.00  0.00     0.091 A 
ATOM     96  F   UNL A   1      42.679  30.154  32.739  1.00  0.00    -0.205 F 
ATOM     97  C   UNL A   1      41.981  30.784  36.277  1.00  0.00     0.022 A 
BRANCH  95  98
ATOM     98  S   UNL A   1      41.392  28.467  34.919  1.00  0.00     0.127 S 
ATOM     99  O   UNL A   1      40.278  28.659  33.995  1.00  0.00    -0.237 OA
ATOM    100  O   UNL A   1      42.519  27.709  34.372  1.00  0.00    -0.237 OA
ATOM    101  O   UNL A   1      41.026  28.083  36.277  1.00  0.00    -0.744 OA
ENDBRANCH  95  98
ENDBRANCH  68  91
ENDBRANCH  42  43
ENDBRANCH  35  37
ENDBRANCH  34  35
ENDBRANCH  33  34
ENDBRANCH  32  33
ENDBRANCH  31  32
ENDBRANCH  30  31
ENDBRANCH   1  30
TORSDOF 25
ENDMDL
MODEL 2
REMARK VINA RESULT:      -9.8      4.758      9.672
REMARK SMILES COc1ccc(-c2ncn(CC(=O)OCCOCCOCCOC(=O)c3ccc(-c4c5nc(c(-c6cccc(S(=O)(=O)[O-])c6F)c6ccc([nH]6)c(-c6cccc(S(=O)(=O)[O-])c6F)c6nc(c(-c7cccc(S(=O)(=O)[O-])c7F)c7ccc4[nH]7)C=C6)C=C5)cc3)c2-c2ccc(OC)cc2)cc1
REMARK SMILES IDX 18 1 17 2 16 3 15 4 14 5 12 6 13 7 11 8 10 9 7 10 8 11 89 12
REMARK SMILES IDX 9 13 6 14 3 15 4 16 99 17 5 18 98 19 2 20 1 21 90 22 91 23
REMARK SMILES IDX 97 24 92 25 96 26 93 27 94 28 95 29 19 30 20 31 21 32 22 33
REMARK SMILES IDX 23 34 24 35 25 36 26 37 27 38 88 39 28 40 87 41 29 42 30 43
REMARK SMILES IDX 31 44 81 45 32 46 86 47 80 48 82 49 33 50 85 51 79 52 78 53
REMARK SMILES IDX 34 55 66 56 46 57 65 58 47 59 50 60 64 61 83 62 48 63 49 64
REMARK SMILES IDX 63 66 84 67 51 68 35 69 36 70 44 71 37 72 39 73 45 74 38 75
REMARK SMILES IDX 40 76 41 77 42 78 43 79 67 80 68 81 76 82 69 83 71 84 77 85
REMARK SMILES IDX 70 86 72 87 73 88 74 89 75 90 52 91 53 92 61 93 54 94 56 95
REMARK SMILES IDX 62 96 55 97 57 98 58 99 59 100 60 101
REMARK H PARENT 82 54 50 65
REMARK Flexibility Score: inf
ROOT
ATOM      1  C   UNL A   1      45.294  19.708  25.314  1.00  0.00     0.188 C 
ENDROOT
BRANCH   1   2
ATOM      2  O   UNL A   1      46.090  20.852  25.530  1.00  0.00    -0.376 OA
BRANCH   2   3
ATOM      3  C   UNL A   1      45.378  22.071  25.635  1.00  0.00     0.202 C 
BRANCH   3   4
ATOM      4  C   UNL A   1      45.676  22.997  26.844  1.00  0.00     0.261 C 
BRANCH   4   5
ATOM      5  O   UNL A   1      45.784  24.426  26.550  1.00  0.00    -0.462 OA
BRANCH   5   6
ATOM      6  C   UNL A   1      46.529  25.205  27.371  1.00  0.00     0.326 C 
ATOM      7  O   UNL A   1      46.887  24.817  28.483  1.00  0.00    -0.250 OA
BRANCH   6   8
ATOM      8  C   UNL A   1      46.983  26.581  26.870  1.00  0.00     0.246 C 
BRANCH   8   9
ATOM      9  N   UNL A   1      47.392  26.841  25.482  1.00  0.00    -0.319 N 
ATOM     10  C   UNL A   1      48.428  27.415  23.627  1.00  0.00     0.096 A 
ATOM     11  N   UNL A   1      47.079  27.547  23.392  1.00  0.00    -0.236 NA
ATOM     12  C   UNL A   1      48.685  27.091  24.968  1.00  0.00     0.076 A 
ATOM     13  C   UNL A   1      46.494  27.235  24.521  1.00  0.00     0.201 A 
BRANCH  10  14
ATOM     14  C   UNL A   1      49.384  27.487  22.526  1.00  0.00     0.003 A 
ATOM     15  C   UNL A   1      51.220  27.385  20.390  1.00  0.00     0.118 A 
ATOM     16  C   UNL A   1      49.900  26.997  20.193  1.00  0.00     0.047 A 
ATOM     17  C   UNL A   1      51.594  27.935  21.619  1.00  0.00     0.047 A 
ATOM     18  C   UNL A   1      48.982  27.080  21.247  1.00  0.00     0.014 A 
ATOM     19  C   UNL A   1      50.681  27.979  22.686  1.00  0.00     0.014 A 
BRANCH  15  20
ATOM     20  O   UNL A   1      52.059  27.242  19.319  1.00  0.00    -0.497 OA
ATOM     21  C   UNL A   1      51.595  27.877  18.127  1.00  0.00     0.278 C 
ENDBRANCH  15  20
ENDBRANCH  10  14
BRANCH  12  22
ATOM     22  C   UNL A   1      49.966  26.855  25.685  1.00  0.00     0.001 A 
ATOM     23  C   UNL A   1      50.486  27.871  26.484  1.00  0.00     0.014 A 
ATOM     24  C   UNL A   1      50.696  25.666  25.657  1.00  0.00     0.014 A 
ATOM     25  C   UNL A   1      51.640  27.758  27.259  1.00  0.00     0.047 A 
ATOM     26  C   UNL A   1      51.888  25.536  26.408  1.00  0.00     0.047 A 
ATOM     27  C   UNL A   1      52.340  26.570  27.231  1.00  0.00     0.118 A 
BRANCH  27  28
ATOM     28  O   UNL A   1      53.507  26.393  27.914  1.00  0.00    -0.497 OA
ATOM     29  C   UNL A   1      54.437  25.510  27.281  1.00  0.00     0.278 C 
ENDBRANCH  27  28
ENDBRANCH  12  22
ENDBRANCH   8   9
ENDBRANCH   6   8
ENDBRANCH   5   6
ENDBRANCH   4   5
ENDBRANCH   3   4
ENDBRANCH   2   3
ENDBRANCH   1   2
BRANCH   1  30
ATOM     30  C   UNL A   1      43.751  19.850  25.272  1.00  0.00     0.188 C 
BRANCH  30  31
ATOM     31  O   UNL A   1      42.964  19.378  26.342  1.00  0.00    -0.376 OA
BRANCH  31  32
ATOM     32  C   UNL A   1      42.084  20.293  26.966  1.00  0.00     0.202 C 
BRANCH  32  33
ATOM     33  C   UNL A   1      41.367  21.313  26.092  1.00  0.00     0.261 C 
BRANCH  33  34
ATOM     34  O   UNL A   1      41.735  22.666  26.362  1.00  0.00    -0.460 OA
BRANCH  34  35
ATOM     35  C   UNL A   1      40.751  23.342  26.986  1.00  0.00     0.338 C 
ATOM     36  O   UNL A   1      39.571  23.010  27.052  1.00  0.00    -0.246 OA
BRANCH  35  37
ATOM     37  C   UNL A   1      41.156  24.671  27.364  1.00  0.00     0.060 A 
ATOM     38  C   UNL A   1      42.265  24.782  28.215  1.00  0.00     0.016 A 
ATOM     39  C   UNL A   1      40.282  25.726  27.100  1.00  0.00     0.016 A 
ATOM     40  C   UNL A   1      42.445  25.955  28.897  1.00  0.00     0.010 A 
ATOM     41  C   UNL A   1      40.447  26.885  27.800  1.00  0.00     0.010 A 
ATOM     42  C   UNL A   1      41.497  26.964  28.715  1.00  0.00    -0.014 A 
BRANCH  42  43
ATOM     43  C   UNL A   1      41.734  28.240  29.341  1.00  0.00     0.031 A 
ATOM     44  C   UNL A   1      42.888  28.934  28.711  1.00  0.00     0.074 A 
ATOM     45  C   UNL A   1      40.844  28.747  30.211  1.00  0.00     0.049 A 
ATOM     46  N   UNL A   1      44.040  29.189  29.237  1.00  0.00    -0.248 NA
ATOM     47  C   UNL A   1      42.854  29.128  27.247  1.00  0.00     0.031 C 
ATOM     48  C   UNL A   1      39.535  28.201  30.582  1.00  0.00     0.029 A 
ATOM     49  N   UNL A   1      40.842  29.961  30.807  1.00  0.00    -0.354 N 
ATOM     50  C   UNL A   1      44.753  29.850  28.236  1.00  0.00     0.074 A 
ATOM     51  C   UNL A   1      44.109  29.506  27.005  1.00  0.00     0.031 C 
ATOM     52  C   UNL A   1      38.769  29.200  31.079  1.00  0.00     0.029 A 
ATOM     53  C   UNL A   1      39.574  30.405  31.171  1.00  0.00     0.049 A 
ATOM     54  H   UNL A   1      41.661  30.482  30.969  1.00  0.00     0.167 HD
ATOM     55  C   UNL A   1      45.562  30.902  28.547  1.00  0.00     0.034 A 
ATOM     56  C   UNL A   1      39.219  31.693  31.411  1.00  0.00     0.034 A 
ATOM     57  C   UNL A   1      45.882  30.882  29.958  1.00  0.00     0.049 A 
ATOM     58  C   UNL A   1      40.476  32.458  31.626  1.00  0.00     0.074 A 
ATOM     59  C   UNL A   1      46.433  29.948  30.816  1.00  0.00     0.029 A 
ATOM     60  N   UNL A   1      45.205  31.773  30.758  1.00  0.00    -0.354 N 
ATOM     61  N   UNL A   1      41.278  32.243  32.634  1.00  0.00    -0.248 NA
ATOM     62  C   UNL A   1      41.089  33.088  30.464  1.00  0.00     0.031 C 
ATOM     63  C   UNL A   1      45.650  30.042  32.005  1.00  0.00     0.029 A 
ATOM     64  C   UNL A   1      44.745  31.093  31.852  1.00  0.00     0.049 A 
ATOM     65  H   UNL A   1      45.074  32.731  30.574  1.00  0.00     0.167 HD
ATOM     66  C   UNL A   1      42.548  32.255  32.071  1.00  0.00     0.074 A 
ATOM     67  C   UNL A   1      42.377  32.878  30.756  1.00  0.00     0.031 C 
ATOM     68  C   UNL A   1      43.548  31.470  32.572  1.00  0.00     0.034 A 
BRANCH  55  69
ATOM     69  C   UNL A   1      45.649  32.190  27.734  1.00  0.00     0.023 A 
ATOM     70  C   UNL A   1      46.953  32.657  27.448  1.00  0.00     0.012 A 
ATOM     71  C   UNL A   1      44.593  33.105  27.505  1.00  0.00     0.148 A 
ATOM     72  C   UNL A   1      47.202  33.990  27.105  1.00  0.00     0.002 A 
ATOM     73  C   UNL A   1      44.839  34.417  27.116  1.00  0.00     0.091 A 
ATOM     74  F   UNL A   1      43.329  32.765  27.734  1.00  0.00    -0.205 F 
ATOM     75  C   UNL A   1      46.145  34.876  26.955  1.00  0.00     0.022 A 
BRANCH  73  76
ATOM     76  S   UNL A   1      43.503  35.600  26.876  1.00  0.00     0.127 S 
ATOM     77  O   UNL A   1      44.242  36.856  26.785  1.00  0.00    -0.237 OA
ATOM     78  O   UNL A   1      42.918  35.128  25.622  1.00  0.00    -0.237 OA
ATOM     79  O   UNL A   1      42.629  35.465  28.035  1.00  0.00    -0.744 OA
ENDBRANCH  73  76
ENDBRANCH  55  69
BRANCH  56  80
ATOM     80  C   UNL A   1      37.925  32.373  31.146  1.00  0.00     0.023 A 
ATOM     81  C   UNL A   1      37.271  32.178  29.912  1.00  0.00     0.012 A 
ATOM     82  C   UNL A   1      37.199  32.995  32.188  1.00  0.00     0.148 A 
ATOM     83  C   UNL A   1      35.937  32.568  29.731  1.00  0.00     0.002 A 
ATOM     84  C   UNL A   1      35.876  33.388  32.001  1.00  0.00     0.091 A 
ATOM     85  F   UNL A   1      37.772  33.118  33.392  1.00  0.00    -0.205 F 
ATOM     86  C   UNL A   1      35.238  33.166  30.775  1.00  0.00     0.022 A 
BRANCH  84  87
ATOM     87  S   UNL A   1      34.906  34.143  33.314  1.00  0.00     0.127 S 
ATOM     88  O   UNL A   1      35.228  33.289  34.458  1.00  0.00    -0.237 OA
ATOM     89  O   UNL A   1      35.472  35.488  33.374  1.00  0.00    -0.237 OA
ATOM     90  O   UNL A   1      33.517  34.063  32.879  1.00  0.00    -0.744 OA
ENDBRANCH  84  87
ENDBRANCH  56  80
BRANCH  68  91
ATOM     91  C   UNL A   1      43.313  30.757  33.878  1.00  0.00     0.023 A 
ATOM     92  C   UNL A   1      43.379  31.401  35.133  1.00  0.00     0.012 A 
ATOM     93  C   UNL A   1      42.826  29.443  33.819  1.00  0.00     0.148 A 
ATOM     94  C   UNL A   1      42.988  30.740  36.301  1.00  0.00     0.002 A 
ATOM     95  C   UNL A   1      42.395  28.805  34.973  1.00  0.00     0.091 A 
ATOM     96  F   UNL A   1      42.763  28.847  32.618  1.00  0.00    -0.205 F 
ATOM     97  C   UNL A   1      42.483  29.445  36.219  1.00  0.00     0.022 A 
BRANCH  95  98
ATOM     98  S   UNL A   1      41.619  27.192  34.901  1.00  0.00     0.127 S 
ATOM     99  O   UNL A   1      42.705  26.357  34.393  1.00  0.00    -0.237 OA
ATOM    100  O   UNL A   1      41.262  26.951  36.300  1.00  0.00    -0.237 OA
ATOM    101  O   UNL A   1      40.471  27.341  34.014  1.00  0.00    -0.744 OA
ENDBRANCH  95  98
ENDBRANCH  68  91
ENDBRANCH  42  43
ENDBRANCH  35  37
ENDBRANCH  34  35
ENDBRANCH  33  34
ENDBRANCH  32  33
ENDBRANCH  31  32
ENDBRANCH  30  31
ENDBRANCH   1  30
TORSDOF 25
ENDMDL
MODEL 3
REMARK VINA RESULT:      -9.6      7.766     14.306
REMARK SMILES COc1ccc(-c2ncn(CC(=O)OCCOCCOCCOC(=O)c3ccc(-c4c5nc(c(-c6cccc(S(=O)(=O)[O-])c6F)c6ccc([nH]6)c(-c6cccc(S(=O)(=O)[O-])c6F)c6nc(c(-c7cccc(S(=O)(=O)[O-])c7F)c7ccc4[nH]7)C=C6)C=C5)cc3)c2-c2ccc(OC)cc2)cc1
REMARK SMILES IDX 18 1 17 2 16 3 15 4 14 5 12 6 13 7 11 8 10 9 7 10 8 11 89 12
REMARK SMILES IDX 9 13 6 14 3 15 4 16 99 17 5 18 98 19 2 20 1 21 90 22 91 23
REMARK SMILES IDX 97 24 92 25 96 26 93 27 94 28 95 29 19 30 20 31 21 32 22 33
REMARK SMILES IDX 23 34 24 35 25 36 26 37 27 38 88 39 28 40 87 41 29 42 30 43
REMARK SMILES IDX 31 44 81 45 32 46 86 47 80 48 82 49 33 50 85 51 79 52 78 53
REMARK SMILES IDX 34 55 66 56 46 57 65 58 47 59 50 60 64 61 83 62 48 63 49 64
REMARK SMILES IDX 63 66 84 67 51 68 35 69 36 70 44 71 37 72 39 73 45 74 38 75
REMARK SMILES IDX 40 76 41 77 42 78 43 79 67 80 68 81 76 82 69 83 71 84 77 85
REMARK SMILES IDX 70 86 72 87 73 88 74 89 75 90 52 91 53 92 61 93 54 94 56 95
REMARK SMILES IDX 62 96 55 97 57 98 58 99 59 100 60 101
REMARK H PARENT 82 54 50 65
REMARK Flexibility Score: inf
ROOT
ATOM      1  C   UNL A   1      54.286  22.850  34.004  1.00  0.00     0.188 C 
ENDROOT
BRANCH   1   2
ATOM      2  O   UNL A   1      54.516  21.466  34.147  1.00  0.00    -0.376 OA
BRANCH   2   3
ATOM      3  C   UNL A   1      53.381  20.643  33.953  1.00  0.00     0.202 C 
BRANCH   3   4
ATOM      4  C   UNL A   1      52.994  19.645  35.075  1.00  0.00     0.261 C 
BRANCH   4   5
ATOM      5  O   UNL A   1      51.692  18.992  34.937  1.00  0.00    -0.462 OA
BRANCH   5   6
ATOM      6  C   UNL A   1      50.570  19.731  35.122  1.00  0.00     0.326 C 
ATOM      7  O   UNL A   1      49.716  19.841  34.242  1.00  0.00    -0.250 OA
BRANCH   6   8
ATOM      8  C   UNL A   1      50.340  20.393  36.485  1.00  0.00     0.246 C 
BRANCH   8   9
ATOM      9  N   UNL A   1      49.664  19.722  37.606  1.00  0.00    -0.319 N 
ATOM     10  C   UNL A   1      48.320  19.106  39.236  1.00  0.00     0.096 A 
ATOM     11  N   UNL A   1      49.585  18.684  39.575  1.00  0.00    -0.236 NA
ATOM     12  C   UNL A   1      48.334  19.874  38.061  1.00  0.00     0.076 A 
ATOM     13  C   UNL A   1      50.364  19.096  38.608  1.00  0.00     0.201 A 
BRANCH  10  14
ATOM     14  C   UNL A   1      47.157  18.647  39.989  1.00  0.00     0.003 A 
ATOM     15  C   UNL A   1      45.034  17.812  41.645  1.00  0.00     0.118 A 
ATOM     16  C   UNL A   1      45.405  19.152  41.609  1.00  0.00     0.047 A 
ATOM     17  C   UNL A   1      45.643  16.911  40.768  1.00  0.00     0.047 A 
ATOM     18  C   UNL A   1      46.438  19.569  40.761  1.00  0.00     0.014 A 
ATOM     19  C   UNL A   1      46.706  17.326  39.947  1.00  0.00     0.014 A 
BRANCH  15  20
ATOM     20  O   UNL A   1      44.040  17.484  42.524  1.00  0.00    -0.497 OA
ATOM     21  C   UNL A   1      44.069  18.229  43.742  1.00  0.00     0.278 C 
ENDBRANCH  15  20
ENDBRANCH  10  14
BRANCH  12  22
ATOM     22  C   UNL A   1      47.232  20.538  37.318  1.00  0.00     0.001 A 
ATOM     23  C   UNL A   1      46.739  21.752  37.790  1.00  0.00     0.014 A 
ATOM     24  C   UNL A   1      46.654  20.061  36.141  1.00  0.00     0.014 A 
ATOM     25  C   UNL A   1      45.755  22.509  37.155  1.00  0.00     0.047 A 
ATOM     26  C   UNL A   1      45.631  20.794  35.493  1.00  0.00     0.047 A 
ATOM     27  C   UNL A   1      45.206  22.030  35.985  1.00  0.00     0.118 A 
BRANCH  27  28
ATOM     28  O   UNL A   1      44.202  22.679  35.328  1.00  0.00    -0.497 OA
ATOM     29  C   UNL A   1      44.054  22.309  33.955  1.00  0.00     0.278 C 
ENDBRANCH  27  28
ENDBRANCH  12  22
ENDBRANCH   8   9
ENDBRANCH   6   8
ENDBRANCH   5   6
ENDBRANCH   4   5
ENDBRANCH   3   4
ENDBRANCH   2   3
ENDBRANCH   1   2
BRANCH   1  30
ATOM     30  C   UNL A   1      53.124  23.514  34.786  1.00  0.00     0.188 C 
BRANCH  30  31
ATOM     31  O   UNL A   1      51.929  23.862  34.124  1.00  0.00    -0.376 OA
BRANCH  31  32
ATOM     32  C   UNL A   1      50.722  23.781  34.858  1.00  0.00     0.202 C 
BRANCH  32  33
ATOM     33  C   UNL A   1      49.463  23.338  34.125  1.00  0.00     0.261 C 
BRANCH  33  34
ATOM     34  O   UNL A   1      48.264  23.509  34.881  1.00  0.00    -0.460 OA
BRANCH  34  35
ATOM     35  C   UNL A   1      48.064  24.794  35.228  1.00  0.00     0.338 C 
ATOM     36  O   UNL A   1      48.340  25.306  36.310  1.00  0.00    -0.246 OA
BRANCH  35  37
ATOM     37  C   UNL A   1      47.227  25.490  34.285  1.00  0.00     0.060 A 
ATOM     38  C   UNL A   1      45.842  25.436  34.500  1.00  0.00     0.016 A 
ATOM     39  C   UNL A   1      47.802  25.930  33.092  1.00  0.00     0.016 A 
ATOM     40  C   UNL A   1      45.011  25.737  33.454  1.00  0.00     0.010 A 
ATOM     41  C   UNL A   1      46.974  26.204  32.044  1.00  0.00     0.010 A 
ATOM     42  C   UNL A   1      45.599  26.062  32.230  1.00  0.00    -0.014 A 
BRANCH  42  43
ATOM     43  C   UNL A   1      44.739  26.486  31.155  1.00  0.00     0.031 A 
ATOM     44  C   UNL A   1      44.641  25.436  30.107  1.00  0.00     0.074 A 
ATOM     45  C   UNL A   1      43.993  27.597  31.279  1.00  0.00     0.049 A 
ATOM     46  N   UNL A   1      45.096  25.481  28.899  1.00  0.00    -0.248 NA
ATOM     47  C   UNL A   1      44.230  24.082  30.532  1.00  0.00     0.031 C 
ATOM     48  C   UNL A   1      43.845  28.458  32.456  1.00  0.00     0.029 A 
ATOM     49  N   UNL A   1      43.059  28.087  30.432  1.00  0.00    -0.354 N 
ATOM     50  C   UNL A   1      44.743  24.253  28.338  1.00  0.00     0.074 A 
ATOM     51  C   UNL A   1      44.511  23.371  29.441  1.00  0.00     0.031 C 
ATOM     52  C   UNL A   1      42.688  29.151  32.350  1.00  0.00     0.029 A 
ATOM     53  C   UNL A   1      42.094  28.874  31.054  1.00  0.00     0.049 A 
ATOM     54  H   UNL A   1      43.062  27.904  29.464  1.00  0.00     0.167 HD
ATOM     55  C   UNL A   1      44.315  24.184  27.046  1.00  0.00     0.034 A 
ATOM     56  C   UNL A   1      40.862  29.161  30.562  1.00  0.00     0.034 A 
ATOM     57  C   UNL A   1      44.718  25.373  26.325  1.00  0.00     0.049 A 
ATOM     58  C   UNL A   1      40.890  28.851  29.108  1.00  0.00     0.074 A 
ATOM     59  C   UNL A   1      45.924  26.012  26.101  1.00  0.00     0.029 A 
ATOM     60  N   UNL A   1      43.745  26.320  26.104  1.00  0.00    -0.354 N 
ATOM     61  N   UNL A   1      41.640  29.497  28.257  1.00  0.00    -0.248 NA
ATOM     62  C   UNL A   1      40.487  27.513  28.696  1.00  0.00     0.031 C 
ATOM     63  C   UNL A   1      45.631  27.401  26.252  1.00  0.00     0.029 A 
ATOM     64  C   UNL A   1      44.257  27.541  26.447  1.00  0.00     0.049 A 
ATOM     65  H   UNL A   1      42.839  26.149  25.759  1.00  0.00     0.167 HD
ATOM     66  C   UNL A   1      42.188  28.501  27.458  1.00  0.00     0.074 A 
ATOM     67  C   UNL A   1      41.367  27.314  27.709  1.00  0.00     0.031 C 
ATOM     68  C   UNL A   1      43.442  28.634  26.929  1.00  0.00     0.034 A 
BRANCH  55  69
ATOM     69  C   UNL A   1      43.143  23.331  26.571  1.00  0.00     0.023 A 
ATOM     70  C   UNL A   1      41.858  23.902  26.723  1.00  0.00     0.012 A 
ATOM     71  C   UNL A   1      43.181  21.945  26.287  1.00  0.00     0.148 A 
ATOM     72  C   UNL A   1      40.699  23.119  26.741  1.00  0.00     0.002 A 
ATOM     73  C   UNL A   1      42.024  21.176  26.256  1.00  0.00     0.091 A 
ATOM     74  F   UNL A   1      44.337  21.311  26.117  1.00  0.00    -0.205 F 
ATOM     75  C   UNL A   1      40.783  21.751  26.525  1.00  0.00     0.022 A 
BRANCH  73  76
ATOM     76  S   UNL A   1      42.072  19.402  25.948  1.00  0.00     0.127 S 
ATOM     77  O   UNL A   1      42.548  18.899  27.234  1.00  0.00    -0.237 OA
ATOM     78  O   UNL A   1      40.668  19.121  25.650  1.00  0.00    -0.237 OA
ATOM     79  O   UNL A   1      42.976  19.211  24.821  1.00  0.00    -0.744 OA
ENDBRANCH  73  76
ENDBRANCH  55  69
BRANCH  56  80
ATOM     80  C   UNL A   1      39.586  29.362  31.295  1.00  0.00     0.023 A 
ATOM     81  C   UNL A   1      38.960  28.268  31.927  1.00  0.00     0.012 A 
ATOM     82  C   UNL A   1      39.117  30.660  31.604  1.00  0.00     0.148 A 
ATOM     83  C   UNL A   1      37.922  28.461  32.849  1.00  0.00     0.002 A 
ATOM     84  C   UNL A   1      38.080  30.847  32.514  1.00  0.00     0.091 A 
ATOM     85  F   UNL A   1      39.747  31.717  31.078  1.00  0.00    -0.205 F 
ATOM     86  C   UNL A   1      37.486  29.749  33.148  1.00  0.00     0.022 A 
BRANCH  84  87
ATOM     87  S   UNL A   1      37.484  32.483  32.965  1.00  0.00     0.127 S 
ATOM     88  O   UNL A   1      37.042  33.012  31.674  1.00  0.00    -0.237 OA
ATOM     89  O   UNL A   1      36.406  32.166  33.899  1.00  0.00    -0.237 OA
ATOM     90  O   UNL A   1      38.629  33.180  33.538  1.00  0.00    -0.744 OA
ENDBRANCH  84  87
ENDBRANCH  56  80
BRANCH  68  91
ATOM     91  C   UNL A   1      44.130  29.970  27.043  1.00  0.00     0.023 A 
ATOM     92  C   UNL A   1      43.807  31.078  26.230  1.00  0.00     0.012 A 
ATOM     93  C   UNL A   1      44.994  30.160  28.131  1.00  0.00     0.148 A 
ATOM     94  C   UNL A   1      44.353  32.339  26.485  1.00  0.00     0.002 A 
ATOM     95  C   UNL A   1      45.497  31.422  28.411  1.00  0.00     0.091 A 
ATOM     96  F   UNL A   1      45.286  29.098  28.898  1.00  0.00    -0.205 F 
ATOM     97  C   UNL A   1      45.188  32.514  27.586  1.00  0.00     0.022 A 
BRANCH  95  98
ATOM     98  S   UNL A   1      46.469  31.722  29.885  1.00  0.00     0.127 S 
ATOM     99  O   UNL A   1      47.669  30.931  29.623  1.00  0.00    -0.237 OA
ATOM    100  O   UNL A   1      46.668  33.171  29.844  1.00  0.00    -0.237 OA
ATOM    101  O   UNL A   1      45.648  31.270  31.002  1.00  0.00    -0.744 OA
ENDBRANCH  95  98
ENDBRANCH  68  91
ENDBRANCH  42  43
ENDBRANCH  35  37
ENDBRANCH  34  35
ENDBRANCH  33  34
ENDBRANCH  32  33
ENDBRANCH  31  32
ENDBRANCH  30  31
ENDBRANCH   1  30
TORSDOF 25
ENDMDL
