MODEL 1
REMARK VINA RESULT:      -9.7      0.000      0.000
REMARK SMILES C[C@@H](C(=O)OCCOCCOCCOC(=O)c1ccc(-c2c3nc(c(-c4cccc(S(=O)(=O)[O-])c4F)c4ccc([nH]4)c(-c4cccc(S(=O)(=O)[O-])c4F)c4nc(c(-c5cccc(S(=O)(=O)[O-])c5F)c5ccc2[nH]5)C=C4)C=C3)cc1)c1ccc(C[C@H]2CCCC2=O)cc1
REMARK SMILES IDX 9 1 8 2 7 3 6 4 5 5 3 6 4 7 2 8 1 9 80 10 81 11 92 12 82 13
REMARK SMILES IDX 91 14 83 15 84 16 85 17 86 18 89 19 87 20 88 21 90 22 10 23
REMARK SMILES IDX 11 24 12 25 13 26 14 27 15 28 16 29 17 30 18 31 79 32 19 33
REMARK SMILES IDX 78 34 20 35 21 36 22 37 72 38 23 39 77 40 71 41 73 42 24 43
REMARK SMILES IDX 76 44 70 45 69 46 25 48 57 49 37 50 56 51 38 52 41 53 55 54
REMARK SMILES IDX 74 55 39 56 40 57 54 59 75 60 42 61 26 62 27 63 35 64 28 65
REMARK SMILES IDX 30 66 36 67 29 68 31 69 32 70 33 71 34 72 58 73 59 74 67 75
REMARK SMILES IDX 60 76 62 77 68 78 61 79 63 80 64 81 65 82 66 83 43 84 44 85
REMARK SMILES IDX 52 86 45 87 47 88 53 89 46 90 48 91 49 92 50 93 51 94
REMARK H PARENT 73 47 41 58
REMARK Flexibility Score: inf
ROOT
ATOM      1  C   UNL A   1      34.626  30.942  27.870  1.00  0.00     0.188 C 
ENDROOT
BRANCH   1   2
ATOM      2  O   UNL A   1      33.742  29.873  27.612  1.00  0.00    -0.376 OA
BRANCH   2   3
ATOM      3  C   UNL A   1      33.706  29.291  26.319  1.00  0.00     0.202 C 
BRANCH   3   4
ATOM      4  C   UNL A   1      33.759  27.767  26.115  1.00  0.00     0.261 C 
BRANCH   4   5
ATOM      5  O   UNL A   1      32.478  27.116  25.984  1.00  0.00    -0.463 OA
BRANCH   5   6
ATOM      6  C   UNL A   1      32.483  25.956  25.262  1.00  0.00     0.313 C 
ATOM      7  O   UNL A   1      32.667  24.851  25.766  1.00  0.00    -0.252 OA
BRANCH   6   8
ATOM      8  C   UNL A   1      32.249  26.132  23.748  1.00  0.00     0.126 C 
ATOM      9  C   UNL A   1      33.476  26.346  22.862  1.00  0.00     0.025 C 
BRANCH   8  10
ATOM     10  C   UNL A   1      31.162  27.157  23.448  1.00  0.00    -0.034 A 
ATOM     11  C   UNL A   1      29.836  26.919  23.812  1.00  0.00     0.005 A 
ATOM     12  C   UNL A   1      31.448  28.350  22.770  1.00  0.00     0.005 A 
ATOM     13  C   UNL A   1      28.812  27.764  23.409  1.00  0.00     0.004 A 
ATOM     14  C   UNL A   1      30.413  29.191  22.338  1.00  0.00     0.004 A 
ATOM     15  C   UNL A   1      29.081  28.860  22.595  1.00  0.00    -0.047 A 
BRANCH  15  16
ATOM     16  C   UNL A   1      27.919  29.571  21.950  1.00  0.00     0.047 C 
BRANCH  16  17
ATOM     17  C   UNL A   1      27.647  30.984  22.491  1.00  0.00     0.060 C 
ATOM     18  C   UNL A   1      28.151  31.230  23.925  1.00  0.00     0.012 C 
ATOM     19  C   UNL A   1      28.266  32.163  21.744  1.00  0.00     0.136 C 
ATOM     20  C   UNL A   1      29.210  32.327  23.837  1.00  0.00     0.009 C 
ATOM     21  C   UNL A   1      28.775  33.209  22.686  1.00  0.00     0.076 C 
ATOM     22  O   UNL A   1      28.330  32.295  20.529  1.00  0.00    -0.299 OA
ENDBRANCH  16  17
ENDBRANCH  15  16
ENDBRANCH   8  10
ENDBRANCH   6   8
ENDBRANCH   5   6
ENDBRANCH   4   5
ENDBRANCH   3   4
ENDBRANCH   2   3
ENDBRANCH   1   2
BRANCH   1  23
ATOM     23  C   UNL A   1      34.047  32.329  28.215  1.00  0.00     0.188 C 
BRANCH  23  24
ATOM     24  O   UNL A   1      34.867  33.433  28.545  1.00  0.00    -0.376 OA
BRANCH  24  25
ATOM     25  C   UNL A   1      34.352  34.735  28.367  1.00  0.00     0.202 C 
BRANCH  25  26
ATOM     26  C   UNL A   1      33.142  35.188  29.194  1.00  0.00     0.261 C 
BRANCH  26  27
ATOM     27  O   UNL A   1      33.442  35.967  30.359  1.00  0.00    -0.460 OA
BRANCH  27  28
ATOM     28  C   UNL A   1      33.056  35.408  31.536  1.00  0.00     0.338 C 
ATOM     29  O   UNL A   1      31.923  35.330  31.974  1.00  0.00    -0.246 OA
BRANCH  28  30
ATOM     30  C   UNL A   1      34.216  34.749  32.176  1.00  0.00     0.060 A 
ATOM     31  C   UNL A   1      35.484  35.321  32.010  1.00  0.00     0.016 A 
ATOM     32  C   UNL A   1      34.069  33.550  32.875  1.00  0.00     0.016 A 
ATOM     33  C   UNL A   1      36.613  34.680  32.525  1.00  0.00     0.010 A 
ATOM     34  C   UNL A   1      35.203  32.898  33.370  1.00  0.00     0.010 A 
ATOM     35  C   UNL A   1      36.484  33.445  33.177  1.00  0.00    -0.014 A 
BRANCH  35  36
ATOM     36  C   UNL A   1      37.695  32.661  33.525  1.00  0.00     0.031 A 
ATOM     37  C   UNL A   1      38.403  32.950  34.813  1.00  0.00     0.074 A 
ATOM     38  C   UNL A   1      38.198  31.737  32.689  1.00  0.00     0.049 A 
ATOM     39  N   UNL A   1      39.480  32.396  35.303  1.00  0.00    -0.248 NA
ATOM     40  C   UNL A   1      37.847  34.032  35.639  1.00  0.00     0.031 C 
ATOM     41  C   UNL A   1      37.659  31.441  31.373  1.00  0.00     0.029 A 
ATOM     42  N   UNL A   1      39.275  30.890  32.811  1.00  0.00    -0.354 N 
ATOM     43  C   UNL A   1      39.776  33.107  36.455  1.00  0.00     0.074 A 
ATOM     44  C   UNL A   1      38.744  34.112  36.610  1.00  0.00     0.031 C 
ATOM     45  C   UNL A   1      38.387  30.459  30.816  1.00  0.00     0.029 A 
ATOM     46  C   UNL A   1      39.443  30.054  31.730  1.00  0.00     0.049 A 
ATOM     47  H   UNL A   1      39.869  30.883  33.596  1.00  0.00     0.167 HD
ATOM     48  C   UNL A   1      40.824  32.951  37.297  1.00  0.00     0.034 A 
ATOM     49  C   UNL A   1      40.336  29.067  31.506  1.00  0.00     0.034 A 
ATOM     50  C   UNL A   1      41.851  31.956  37.140  1.00  0.00     0.049 A 
ATOM     51  C   UNL A   1      41.421  28.832  32.522  1.00  0.00     0.074 A 
ATOM     52  C   UNL A   1      42.939  31.710  37.958  1.00  0.00     0.029 A 
ATOM     53  N   UNL A   1      41.928  31.052  36.092  1.00  0.00    -0.354 N 
ATOM     54  N   UNL A   1      41.619  29.433  33.669  1.00  0.00    -0.248 NA
ATOM     55  C   UNL A   1      42.411  27.789  32.213  1.00  0.00     0.031 C 
ATOM     56  C   UNL A   1      43.687  30.671  37.393  1.00  0.00     0.029 A 
ATOM     57  C   UNL A   1      43.044  30.246  36.242  1.00  0.00     0.049 A 
ATOM     58  H   UNL A   1      41.284  30.992  35.350  1.00  0.00     0.167 HD
ATOM     59  C   UNL A   1      42.757  28.853  34.213  1.00  0.00     0.074 A 
ATOM     60  C   UNL A   1      43.172  27.808  33.299  1.00  0.00     0.031 C 
ATOM     61  C   UNL A   1      43.425  29.185  35.345  1.00  0.00     0.034 A 
BRANCH  48  62
ATOM     62  C   UNL A   1      40.915  33.900  38.460  1.00  0.00     0.023 A 
ATOM     63  C   UNL A   1      41.777  35.013  38.390  1.00  0.00     0.012 A 
ATOM     64  C   UNL A   1      40.131  33.700  39.612  1.00  0.00     0.148 A 
ATOM     65  C   UNL A   1      41.883  35.893  39.465  1.00  0.00     0.002 A 
ATOM     66  C   UNL A   1      40.207  34.607  40.660  1.00  0.00     0.091 A 
ATOM     67  F   UNL A   1      39.338  32.619  39.666  1.00  0.00    -0.205 F 
ATOM     68  C   UNL A   1      41.092  35.696  40.594  1.00  0.00     0.022 A 
BRANCH  66  69
ATOM     69  S   UNL A   1      39.175  34.484  42.124  1.00  0.00     0.127 S 
ATOM     70  O   UNL A   1      39.731  35.544  42.966  1.00  0.00    -0.237 OA
ATOM     71  O   UNL A   1      37.845  34.768  41.586  1.00  0.00    -0.237 OA
ATOM     72  O   UNL A   1      39.351  33.130  42.629  1.00  0.00    -0.744 OA
ENDBRANCH  66  69
ENDBRANCH  48  62
BRANCH  49  73
ATOM     73  C   UNL A   1      40.208  28.178  30.310  1.00  0.00     0.023 A 
ATOM     74  C   UNL A   1      39.223  27.167  30.315  1.00  0.00     0.012 A 
ATOM     75  C   UNL A   1      41.014  28.332  29.167  1.00  0.00     0.148 A 
ATOM     76  C   UNL A   1      39.067  26.311  29.224  1.00  0.00     0.002 A 
ATOM     77  C   UNL A   1      40.801  27.527  28.054  1.00  0.00     0.091 A 
ATOM     78  F   UNL A   1      41.972  29.269  29.185  1.00  0.00    -0.205 F 
ATOM     79  C   UNL A   1      39.844  26.502  28.087  1.00  0.00     0.022 A 
BRANCH  77  80
ATOM     80  S   UNL A   1      41.632  27.820  26.489  1.00  0.00     0.127 S 
ATOM     81  O   UNL A   1      41.212  29.183  26.176  1.00  0.00    -0.237 OA
ATOM     82  O   UNL A   1      43.040  27.678  26.865  1.00  0.00    -0.237 OA
ATOM     83  O   UNL A   1      41.146  26.780  25.593  1.00  0.00    -0.744 OA
ENDBRANCH  77  80
ENDBRANCH  49  73
BRANCH  61  84
ATOM     84  C   UNL A   1      44.675  28.408  35.666  1.00  0.00     0.023 A 
ATOM     85  C   UNL A   1      45.913  28.823  35.137  1.00  0.00     0.012 A 
ATOM     86  C   UNL A   1      44.632  27.309  36.547  1.00  0.00     0.148 A 
ATOM     87  C   UNL A   1      47.085  28.136  35.451  1.00  0.00     0.002 A 
ATOM     88  C   UNL A   1      45.811  26.660  36.893  1.00  0.00     0.091 A 
ATOM     89  F   UNL A   1      43.442  26.919  37.025  1.00  0.00    -0.205 F 
ATOM     90  C   UNL A   1      47.036  27.064  36.338  1.00  0.00     0.022 A 
BRANCH  88  91
ATOM     91  S   UNL A   1      45.857  25.325  38.093  1.00  0.00     0.127 S 
ATOM     92  O   UNL A   1      45.180  24.251  37.370  1.00  0.00    -0.237 OA
ATOM     93  O   UNL A   1      47.294  25.124  38.279  1.00  0.00    -0.237 OA
ATOM     94  O   UNL A   1      45.158  25.820  39.272  1.00  0.00    -0.744 OA
ENDBRANCH  88  91
ENDBRANCH  61  84
ENDBRANCH  35  36
ENDBRANCH  28  30
ENDBRANCH  27  28
ENDBRANCH  26  27
ENDBRANCH  25  26
ENDBRANCH  24  25
ENDBRANCH  23  24
ENDBRANCH   1  23
TORSDOF 23
ENDMDL
MODEL 2
REMARK VINA RESULT:      -9.6      1.474      3.426
REMARK SMILES C[C@@H](C(=O)OCCOCCOCCOC(=O)c1ccc(-c2c3nc(c(-c4cccc(S(=O)(=O)[O-])c4F)c4ccc([nH]4)c(-c4cccc(S(=O)(=O)[O-])c4F)c4nc(c(-c5cccc(S(=O)(=O)[O-])c5F)c5ccc2[nH]5)C=C4)C=C3)cc1)c1ccc(C[C@H]2CCCC2=O)cc1
REMARK SMILES IDX 9 1 8 2 7 3 6 4 5 5 3 6 4 7 2 8 1 9 80 10 81 11 92 12 82 13
REMARK SMILES IDX 91 14 83 15 84 16 85 17 86 18 89 19 87 20 88 21 90 22 10 23
REMARK SMILES IDX 11 24 12 25 13 26 14 27 15 28 16 29 17 30 18 31 79 32 19 33
REMARK SMILES IDX 78 34 20 35 21 36 22 37 72 38 23 39 77 40 71 41 73 42 24 43
REMARK SMILES IDX 76 44 70 45 69 46 25 48 57 49 37 50 56 51 38 52 41 53 55 54
REMARK SMILES IDX 74 55 39 56 40 57 54 59 75 60 42 61 26 62 27 63 35 64 28 65
REMARK SMILES IDX 30 66 36 67 29 68 31 69 32 70 33 71 34 72 58 73 59 74 67 75
REMARK SMILES IDX 60 76 62 77 68 78 61 79 63 80 64 81 65 82 66 83 43 84 44 85
REMARK SMILES IDX 52 86 45 87 47 88 53 89 46 90 48 91 49 92 50 93 51 94
REMARK H PARENT 73 47 41 58
REMARK Flexibility Score: inf
ROOT
ATOM      1  C   UNL A   1      34.001  30.873  27.804  1.00  0.00     0.188 C 
ENDROOT
BRANCH   1   2
ATOM      2  O   UNL A   1      33.741  30.333  26.527  1.00  0.00    -0.376 OA
BRANCH   2   3
ATOM      3  C   UNL A   1      33.888  28.937  26.314  1.00  0.00     0.202 C 
BRANCH   3   4
ATOM      4  C   UNL A   1      33.044  28.184  25.270  1.00  0.00     0.261 C 
BRANCH   4   5
ATOM      5  O   UNL A   1      32.319  29.018  24.344  1.00  0.00    -0.463 OA
BRANCH   5   6
ATOM      6  C   UNL A   1      32.396  28.640  23.034  1.00  0.00     0.313 C 
ATOM      7  O   UNL A   1      33.330  28.949  22.299  1.00  0.00    -0.252 OA
BRANCH   6   8
ATOM      8  C   UNL A   1      31.208  27.795  22.530  1.00  0.00     0.126 C 
ATOM      9  C   UNL A   1      29.842  28.042  23.169  1.00  0.00     0.025 C 
BRANCH   8  10
ATOM     10  C   UNL A   1      31.538  26.308  22.482  1.00  0.00    -0.034 A 
ATOM     11  C   UNL A   1      30.965  25.420  23.393  1.00  0.00     0.005 A 
ATOM     12  C   UNL A   1      32.448  25.790  21.551  1.00  0.00     0.005 A 
ATOM     13  C   UNL A   1      31.371  24.096  23.466  1.00  0.00     0.004 A 
ATOM     14  C   UNL A   1      32.882  24.460  21.640  1.00  0.00     0.004 A 
ATOM     15  C   UNL A   1      32.396  23.625  22.649  1.00  0.00    -0.047 A 
BRANCH  15  16
ATOM     16  C   UNL A   1      32.996  22.279  22.963  1.00  0.00     0.047 C 
BRANCH  16  17
ATOM     17  C   UNL A   1      34.127  22.304  24.004  1.00  0.00     0.060 C 
ATOM     18  C   UNL A   1      35.168  23.419  23.793  1.00  0.00     0.012 C 
ATOM     19  C   UNL A   1      33.742  22.518  25.466  1.00  0.00     0.136 C 
ATOM     20  C   UNL A   1      35.094  24.328  25.018  1.00  0.00     0.009 C 
ATOM     21  C   UNL A   1      34.712  23.417  26.167  1.00  0.00     0.076 C 
ATOM     22  O   UNL A   1      32.791  22.012  26.044  1.00  0.00    -0.299 OA
ENDBRANCH  16  17
ENDBRANCH  15  16
ENDBRANCH   8  10
ENDBRANCH   6   8
ENDBRANCH   5   6
ENDBRANCH   4   5
ENDBRANCH   3   4
ENDBRANCH   2   3
ENDBRANCH   1   2
BRANCH   1  23
ATOM     23  C   UNL A   1      35.033  32.011  27.941  1.00  0.00     0.188 C 
BRANCH  23  24
ATOM     24  O   UNL A   1      34.732  33.352  27.606  1.00  0.00    -0.376 OA
BRANCH  24  25
ATOM     25  C   UNL A   1      33.458  33.863  27.939  1.00  0.00     0.202 C 
BRANCH  25  26
ATOM     26  C   UNL A   1      33.352  35.076  28.871  1.00  0.00     0.261 C 
BRANCH  26  27
ATOM     27  O   UNL A   1      32.606  34.870  30.076  1.00  0.00    -0.460 OA
BRANCH  27  28
ATOM     28  C   UNL A   1      33.031  35.596  31.144  1.00  0.00     0.338 C 
ATOM     29  O   UNL A   1      32.551  36.632  31.565  1.00  0.00    -0.246 OA
BRANCH  28  30
ATOM     30  C   UNL A   1      34.105  34.859  31.848  1.00  0.00     0.060 A 
ATOM     31  C   UNL A   1      35.274  35.550  32.192  1.00  0.00     0.016 A 
ATOM     32  C   UNL A   1      33.990  33.493  32.109  1.00  0.00     0.016 A 
ATOM     33  C   UNL A   1      36.342  34.868  32.778  1.00  0.00     0.010 A 
ATOM     34  C   UNL A   1      35.070  32.807  32.675  1.00  0.00     0.010 A 
ATOM     35  C   UNL A   1      36.261  33.485  32.990  1.00  0.00    -0.014 A 
BRANCH  35  36
ATOM     36  C   UNL A   1      37.469  32.727  33.403  1.00  0.00     0.031 A 
ATOM     37  C   UNL A   1      38.106  33.037  34.722  1.00  0.00     0.074 A 
ATOM     38  C   UNL A   1      38.031  31.808  32.599  1.00  0.00     0.049 A 
ATOM     39  N   UNL A   1      39.168  32.507  35.268  1.00  0.00    -0.248 NA
ATOM     40  C   UNL A   1      37.488  34.112  35.513  1.00  0.00     0.031 C 
ATOM     41  C   UNL A   1      37.564  31.495  31.259  1.00  0.00     0.029 A 
ATOM     42  N   UNL A   1      39.116  30.984  32.779  1.00  0.00    -0.354 N 
ATOM     43  C   UNL A   1      39.392  33.229  36.430  1.00  0.00     0.074 A 
ATOM     44  C   UNL A   1      38.335  34.215  36.527  1.00  0.00     0.031 C 
ATOM     45  C   UNL A   1      38.338  30.524  30.745  1.00  0.00     0.029 A 
ATOM     46  C   UNL A   1      39.355  30.145  31.713  1.00  0.00     0.049 A 
ATOM     47  H   UNL A   1      39.671  30.993  33.593  1.00  0.00     0.167 HD
ATOM     48  C   UNL A   1      40.400  33.099  37.323  1.00  0.00     0.034 A 
ATOM     49  C   UNL A   1      40.277  29.175  31.540  1.00  0.00     0.034 A 
ATOM     50  C   UNL A   1      41.453  32.124  37.223  1.00  0.00     0.049 A 
ATOM     51  C   UNL A   1      41.314  28.968  32.610  1.00  0.00     0.074 A 
ATOM     52  C   UNL A   1      42.504  31.904  38.096  1.00  0.00     0.029 A 
ATOM     53  N   UNL A   1      41.600  31.216  36.186  1.00  0.00    -0.354 N 
ATOM     54  N   UNL A   1      41.443  29.578  33.762  1.00  0.00    -0.248 NA
ATOM     55  C   UNL A   1      42.339  27.943  32.357  1.00  0.00     0.031 C 
ATOM     56  C   UNL A   1      43.299  30.877  37.576  1.00  0.00     0.029 A 
ATOM     57  C   UNL A   1      42.723  30.433  36.396  1.00  0.00     0.049 A 
ATOM     58  H   UNL A   1      40.995  31.140  35.414  1.00  0.00     0.167 HD
ATOM     59  C   UNL A   1      42.565  29.024  34.364  1.00  0.00     0.074 A 
ATOM     60  C   UNL A   1      43.044  27.983  33.479  1.00  0.00     0.031 C 
ATOM     61  C   UNL A   1      43.168  29.375  35.526  1.00  0.00     0.034 A 
BRANCH  48  62
ATOM     62  C   UNL A   1      40.415  34.056  38.483  1.00  0.00     0.023 A 
ATOM     63  C   UNL A   1      41.271  35.176  38.457  1.00  0.00     0.012 A 
ATOM     64  C   UNL A   1      39.565  33.857  39.588  1.00  0.00     0.148 A 
ATOM     65  C   UNL A   1      41.306  36.063  39.530  1.00  0.00     0.002 A 
ATOM     66  C   UNL A   1      39.572  34.771  40.633  1.00  0.00     0.091 A 
ATOM     67  F   UNL A   1      38.780  32.770  39.602  1.00  0.00    -0.205 F 
ATOM     68  C   UNL A   1      40.451  35.867  40.612  1.00  0.00     0.022 A 
BRANCH  66  69
ATOM     69  S   UNL A   1      38.457  34.648  42.034  1.00  0.00     0.127 S 
ATOM     70  O   UNL A   1      37.151  34.681  41.374  1.00  0.00    -0.237 OA
ATOM     71  O   UNL A   1      38.820  33.350  42.602  1.00  0.00    -0.237 OA
ATOM     72  O   UNL A   1      38.752  35.790  42.887  1.00  0.00    -0.744 OA
ENDBRANCH  66  69
ENDBRANCH  48  62
BRANCH  49  73
ATOM     73  C   UNL A   1      40.226  28.278  30.344  1.00  0.00     0.023 A 
ATOM     74  C   UNL A   1      39.269  27.241  30.312  1.00  0.00     0.012 A 
ATOM     75  C   UNL A   1      41.078  28.448  29.238  1.00  0.00     0.148 A 
ATOM     76  C   UNL A   1      39.184  26.376  29.220  1.00  0.00     0.002 A 
ATOM     77  C   UNL A   1      40.936  27.632  28.121  1.00  0.00     0.091 A 
ATOM     78  F   UNL A   1      42.010  29.410  29.293  1.00  0.00    -0.205 F 
ATOM     79  C   UNL A   1      40.006  26.582  28.117  1.00  0.00     0.022 A 
BRANCH  77  80
ATOM     80  S   UNL A   1      41.829  27.940  26.593  1.00  0.00     0.127 S 
ATOM     81  O   UNL A   1      43.197  27.595  26.968  1.00  0.00    -0.237 OA
ATOM     82  O   UNL A   1      41.184  26.999  25.675  1.00  0.00    -0.237 OA
ATOM     83  O   UNL A   1      41.585  29.341  26.279  1.00  0.00    -0.744 OA
ENDBRANCH  77  80
ENDBRANCH  49  73
BRANCH  61  84
ATOM     84  C   UNL A   1      44.416  28.625  35.914  1.00  0.00     0.023 A 
ATOM     85  C   UNL A   1      45.674  29.081  35.469  1.00  0.00     0.012 A 
ATOM     86  C   UNL A   1      44.347  27.511  36.774  1.00  0.00     0.148 A 
ATOM     87  C   UNL A   1      46.841  28.419  35.847  1.00  0.00     0.002 A 
ATOM     88  C   UNL A   1      45.519  26.886  37.184  1.00  0.00     0.091 A 
ATOM     89  F   UNL A   1      43.140  27.084  37.171  1.00  0.00    -0.205 F 
ATOM     90  C   UNL A   1      46.765  27.330  36.713  1.00  0.00     0.022 A 
BRANCH  88  91
ATOM     91  S   UNL A   1      45.525  25.534  38.365  1.00  0.00     0.127 S 
ATOM     92  O   UNL A   1      44.830  24.486  37.621  1.00  0.00    -0.237 OA
ATOM     93  O   UNL A   1      46.956  25.298  38.559  1.00  0.00    -0.237 OA
ATOM     94  O   UNL A   1      44.828  26.027  39.545  1.00  0.00    -0.744 OA
ENDBRANCH  88  91
ENDBRANCH  61  84
ENDBRANCH  35  36
ENDBRANCH  28  30
ENDBRANCH  27  28
ENDBRANCH  26  27
ENDBRANCH  25  26
ENDBRANCH  24  25
ENDBRANCH  23  24
ENDBRANCH   1  23
TORSDOF 23
ENDMDL
MODEL 3
REMARK VINA RESULT:      -9.3      6.720     12.517
REMARK SMILES C[C@@H](C(=O)OCCOCCOCCOC(=O)c1ccc(-c2c3nc(c(-c4cccc(S(=O)(=O)[O-])c4F)c4ccc([nH]4)c(-c4cccc(S(=O)(=O)[O-])c4F)c4nc(c(-c5cccc(S(=O)(=O)[O-])c5F)c5ccc2[nH]5)C=C4)C=C3)cc1)c1ccc(C[C@H]2CCCC2=O)cc1
REMARK SMILES IDX 9 1 8 2 7 3 6 4 5 5 3 6 4 7 2 8 1 9 80 10 81 11 92 12 82 13
REMARK SMILES IDX 91 14 83 15 84 16 85 17 86 18 89 19 87 20 88 21 90 22 10 23
REMARK SMILES IDX 11 24 12 25 13 26 14 27 15 28 16 29 17 30 18 31 79 32 19 33
REMARK SMILES IDX 78 34 20 35 21 36 22 37 72 38 23 39 77 40 71 41 73 42 24 43
REMARK SMILES IDX 76 44 70 45 69 46 25 48 57 49 37 50 56 51 38 52 41 53 55 54
REMARK SMILES IDX 74 55 39 56 40 57 54 59 75 60 42 61 26 62 27 63 35 64 28 65
REMARK SMILES IDX 30 66 36 67 29 68 31 69 32 70 33 71 34 72 58 73 59 74 67 75
REMARK SMILES IDX 60 76 62 77 68 78 61 79 63 80 64 81 65 82 66 83 43 84 44 85
REMARK SMILES IDX 52 86 45 87 47 88 53 89 46 90 48 91 49 92 50 93 51 94
REMARK H PARENT 73 47 41 58
REMARK Flexibility Score: inf
ROOT
ATOM      1  C   UNL A   1      39.147  23.348  26.579  1.00  0.00     0.188 C 
ENDROOT
BRANCH   1   2
ATOM      2  O   UNL A   1      37.855  23.714  26.146  1.00  0.00    -0.376 OA
BRANCH   2   3
ATOM      3  C   UNL A   1      37.163  22.883  25.226  1.00  0.00     0.202 C 
BRANCH   3   4
ATOM      4  C   UNL A   1      35.679  22.525  25.416  1.00  0.00     0.261 C 
BRANCH   4   5
ATOM      5  O   UNL A   1      34.878  22.550  24.217  1.00  0.00    -0.463 OA
BRANCH   5   6
ATOM      6  C   UNL A   1      33.607  22.068  24.352  1.00  0.00     0.313 C 
ATOM      7  O   UNL A   1      33.191  21.089  23.738  1.00  0.00    -0.252 OA
BRANCH   6   8
ATOM      8  C   UNL A   1      32.715  22.854  25.335  1.00  0.00     0.126 C 
ATOM      9  C   UNL A   1      31.472  22.151  25.879  1.00  0.00     0.025 C 
BRANCH   8  10
ATOM     10  C   UNL A   1      32.384  24.250  24.822  1.00  0.00    -0.034 A 
ATOM     11  C   UNL A   1      32.693  25.381  25.578  1.00  0.00     0.005 A 
ATOM     12  C   UNL A   1      31.730  24.444  23.598  1.00  0.00     0.005 A 
ATOM     13  C   UNL A   1      32.260  26.644  25.203  1.00  0.00     0.004 A 
ATOM     14  C   UNL A   1      31.266  25.714  23.229  1.00  0.00     0.004 A 
ATOM     15  C   UNL A   1      31.468  26.811  24.071  1.00  0.00    -0.047 A 
BRANCH  15  16
ATOM     16  C   UNL A   1      30.786  28.139  23.867  1.00  0.00     0.047 C 
BRANCH  16  17
ATOM     17  C   UNL A   1      29.624  28.120  22.860  1.00  0.00     0.060 C 
ATOM     18  C   UNL A   1      28.282  27.633  23.439  1.00  0.00     0.012 C 
ATOM     19  C   UNL A   1      29.218  29.445  22.219  1.00  0.00     0.136 C 
ATOM     20  C   UNL A   1      27.308  28.805  23.335  1.00  0.00     0.009 C 
ATOM     21  C   UNL A   1      27.731  29.566  22.095  1.00  0.00     0.076 C 
ATOM     22  O   UNL A   1      29.977  30.312  21.810  1.00  0.00    -0.299 OA
ENDBRANCH  16  17
ENDBRANCH  15  16
ENDBRANCH   8  10
ENDBRANCH   6   8
ENDBRANCH   5   6
ENDBRANCH   4   5
ENDBRANCH   3   4
ENDBRANCH   2   3
ENDBRANCH   1   2
BRANCH   1  23
ATOM     23  C   UNL A   1      39.604  21.884  26.424  1.00  0.00     0.188 C 
BRANCH  23  24
ATOM     24  O   UNL A   1      40.968  21.512  26.418  1.00  0.00    -0.376 OA
BRANCH  24  25
ATOM     25  C   UNL A   1      41.354  20.343  27.109  1.00  0.00     0.202 C 
BRANCH  25  26
ATOM     26  C   UNL A   1      42.132  19.249  26.368  1.00  0.00     0.261 C 
BRANCH  26  27
ATOM     27  O   UNL A   1      42.554  19.579  25.039  1.00  0.00    -0.460 OA
BRANCH  27  28
ATOM     28  C   UNL A   1      43.899  19.676  24.872  1.00  0.00     0.338 C 
ATOM     29  O   UNL A   1      44.655  18.806  24.479  1.00  0.00    -0.246 OA
BRANCH  28  30
ATOM     30  C   UNL A   1      44.327  21.075  25.098  1.00  0.00     0.060 A 
ATOM     31  C   UNL A   1      45.179  21.347  26.176  1.00  0.00     0.016 A 
ATOM     32  C   UNL A   1      43.847  22.113  24.299  1.00  0.00     0.016 A 
ATOM     33  C   UNL A   1      45.534  22.665  26.472  1.00  0.00     0.010 A 
ATOM     34  C   UNL A   1      44.184  23.435  24.611  1.00  0.00     0.010 A 
ATOM     35  C   UNL A   1      45.009  23.721  25.713  1.00  0.00    -0.014 A 
BRANCH  35  36
ATOM     36  C   UNL A   1      45.204  25.123  26.160  1.00  0.00     0.031 A 
ATOM     37  C   UNL A   1      46.560  25.746  26.027  1.00  0.00     0.074 A 
ATOM     38  C   UNL A   1      44.208  25.825  26.727  1.00  0.00     0.049 A 
ATOM     39  N   UNL A   1      46.951  26.946  26.365  1.00  0.00    -0.248 NA
ATOM     40  C   UNL A   1      47.624  24.892  25.477  1.00  0.00     0.031 C 
ATOM     41  C   UNL A   1      42.883  25.295  27.000  1.00  0.00     0.029 A 
ATOM     42  N   UNL A   1      44.155  27.119  27.186  1.00  0.00    -0.354 N 
ATOM     43  C   UNL A   1      48.318  26.971  26.140  1.00  0.00     0.074 A 
ATOM     44  C   UNL A   1      48.684  25.676  25.603  1.00  0.00     0.031 C 
ATOM     45  C   UNL A   1      42.134  26.263  27.553  1.00  0.00     0.029 A 
ATOM     46  C   UNL A   1      42.920  27.481  27.675  1.00  0.00     0.049 A 
ATOM     47  H   UNL A   1      44.927  27.730  27.167  1.00  0.00     0.167 HD
ATOM     48  C   UNL A   1      49.194  27.975  26.378  1.00  0.00     0.034 A 
ATOM     49  C   UNL A   1      42.468  28.658  28.155  1.00  0.00     0.034 A 
ATOM     50  C   UNL A   1      48.831  29.259  26.916  1.00  0.00     0.049 A 
ATOM     51  C   UNL A   1      43.438  29.800  28.293  1.00  0.00     0.074 A 
ATOM     52  C   UNL A   1      49.650  30.345  27.169  1.00  0.00     0.029 A 
ATOM     53  N   UNL A   1      47.550  29.628  27.296  1.00  0.00    -0.354 N 
ATOM     54  N   UNL A   1      44.706  29.849  27.963  1.00  0.00    -0.248 NA
ATOM     55  C   UNL A   1      42.923  31.047  28.877  1.00  0.00     0.031 C 
ATOM     56  C   UNL A   1      48.867  31.364  27.723  1.00  0.00     0.029 A 
ATOM     57  C   UNL A   1      47.555  30.925  27.781  1.00  0.00     0.049 A 
ATOM     58  H   UNL A   1      46.755  29.053  27.231  1.00  0.00     0.167 HD
ATOM     59  C   UNL A   1      45.141  31.121  28.307  1.00  0.00     0.074 A 
ATOM     60  C   UNL A   1      43.988  31.836  28.815  1.00  0.00     0.031 C 
ATOM     61  C   UNL A   1      46.393  31.638  28.249  1.00  0.00     0.034 A 
BRANCH  48  62
ATOM     62  C   UNL A   1      50.641  27.708  26.071  1.00  0.00     0.023 A 
ATOM     63  C   UNL A   1      51.528  27.369  27.113  1.00  0.00     0.012 A 
ATOM     64  C   UNL A   1      51.117  27.772  24.747  1.00  0.00     0.148 A 
ATOM     65  C   UNL A   1      52.875  27.133  26.845  1.00  0.00     0.002 A 
ATOM     66  C   UNL A   1      52.450  27.490  24.483  1.00  0.00     0.091 A 
ATOM     67  F   UNL A   1      50.261  28.123  23.776  1.00  0.00    -0.205 F 
ATOM     68  C   UNL A   1      53.333  27.183  25.531  1.00  0.00     0.022 A 
BRANCH  66  69
ATOM     69  S   UNL A   1      53.120  27.454  22.817  1.00  0.00     0.127 S 
ATOM     70  O   UNL A   1      52.043  26.793  22.081  1.00  0.00    -0.237 OA
ATOM     71  O   UNL A   1      53.278  28.877  22.520  1.00  0.00    -0.237 OA
ATOM     72  O   UNL A   1      54.367  26.708  22.900  1.00  0.00    -0.744 OA
ENDBRANCH  66  69
ENDBRANCH  48  62
BRANCH  49  73
ATOM     73  C   UNL A   1      41.019  28.848  28.474  1.00  0.00     0.023 A 
ATOM     74  C   UNL A   1      40.113  29.075  27.415  1.00  0.00     0.012 A 
ATOM     75  C   UNL A   1      40.522  28.780  29.788  1.00  0.00     0.148 A 
ATOM     76  C   UNL A   1      38.752  29.261  27.663  1.00  0.00     0.002 A 
ATOM     77  C   UNL A   1      39.155  28.888  30.019  1.00  0.00     0.091 A 
ATOM     78  F   UNL A   1      41.394  28.603  30.790  1.00  0.00    -0.205 F 
ATOM     79  C   UNL A   1      38.271  29.150  28.963  1.00  0.00     0.022 A 
BRANCH  77  80
ATOM     80  S   UNL A   1      38.432  28.581  31.634  1.00  0.00     0.127 S 
ATOM     81  O   UNL A   1      37.043  28.980  31.423  1.00  0.00    -0.237 OA
ATOM     82  O   UNL A   1      38.644  27.141  31.790  1.00  0.00    -0.237 OA
ATOM     83  O   UNL A   1      39.198  29.400  32.563  1.00  0.00    -0.744 OA
ENDBRANCH  77  80
ENDBRANCH  49  73
BRANCH  61  84
ATOM     84  C   UNL A   1      46.586  33.048  28.742  1.00  0.00     0.023 A 
ATOM     85  C   UNL A   1      47.022  33.274  30.064  1.00  0.00     0.012 A 
ATOM     86  C   UNL A   1      46.402  34.144  27.877  1.00  0.00     0.148 A 
ATOM     87  C   UNL A   1      47.238  34.571  30.527  1.00  0.00     0.002 A 
ATOM     88  C   UNL A   1      46.666  35.431  28.332  1.00  0.00     0.091 A 
ATOM     89  F   UNL A   1      45.970  33.909  26.630  1.00  0.00    -0.205 F 
ATOM     90  C   UNL A   1      47.072  35.647  29.659  1.00  0.00     0.022 A 
BRANCH  88  91
ATOM     91  S   UNL A   1      46.564  36.869  27.262  1.00  0.00     0.127 S 
ATOM     92  O   UNL A   1      46.845  37.956  28.198  1.00  0.00    -0.237 OA
ATOM     93  O   UNL A   1      47.627  36.609  26.291  1.00  0.00    -0.237 OA
ATOM     94  O   UNL A   1      45.219  36.860  26.703  1.00  0.00    -0.744 OA
ENDBRANCH  88  91
ENDBRANCH  61  84
ENDBRANCH  35  36
ENDBRANCH  28  30
ENDBRANCH  27  28
ENDBRANCH  26  27
ENDBRANCH  25  26
ENDBRANCH  24  25
ENDBRANCH  23  24
ENDBRANCH   1  23
TORSDOF 23
ENDMDL
