MODEL 1
REMARK VINA RESULT:      -7.0      0.000      0.000
REMARK SMILES CCCCC(=O)Nc1ccc(C(=O)N2CCC[C@H](C(=O)OCCOCCOCCOC(=O)c3ccc(-c4c5nc(c(-c6cccc(S(=O)(=O)[O-])c6F)c6ccc([nH]6)c(-c6cccc(S(=O)(=O)[O-])c6F)c6nc(c(-c7cccc(S(=O)(=O)[O-])c7F)c7ccc4[nH]7)C=C6)C=C5)cc3)C2)cc1
REMARK SMILES IDX 24 1 23 2 22 3 21 4 19 5 20 6 18 7 14 8 15 9 96 10 16 11
REMARK SMILES IDX 17 12 12 13 13 14 11 15 8 16 9 17 98 18 10 19 97 20 7 21
REMARK SMILES IDX 5 22 6 23 4 25 3 26 2 27 1 28 25 29 26 30 27 31 28 32 29 33
REMARK SMILES IDX 30 34 31 35 32 36 33 37 34 38 95 39 35 40 94 41 36 42 37 43
REMARK SMILES IDX 38 44 88 45 39 46 93 47 87 48 89 49 40 50 92 51 86 52 85 53
REMARK SMILES IDX 41 55 73 56 53 57 72 58 54 59 57 60 71 61 90 62 55 63 56 64
REMARK SMILES IDX 70 66 91 67 58 68 42 69 43 70 51 71 44 72 46 73 52 74 45 75
REMARK SMILES IDX 47 76 48 77 49 78 50 79 74 80 75 81 83 82 76 83 78 84 84 85
REMARK SMILES IDX 77 86 79 87 80 88 81 89 82 90 59 91 60 92 68 93 61 94 63 95
REMARK SMILES IDX 69 96 62 97 64 98 65 99 66 100 67 101
REMARK H PARENT 7 24 89 54 57 65
REMARK Flexibility Score: inf
ROOT
ATOM      1  O   UNL A   1      40.863  35.562  36.160  1.00  0.00    -0.376 OA
ENDROOT
BRANCH   1   2
ATOM      2  C   UNL A   1      40.379  34.299  35.713  1.00  0.00     0.202 C 
BRANCH   2   3
ATOM      3  C   UNL A   1      38.863  34.074  35.549  1.00  0.00     0.261 C 
BRANCH   3   4
ATOM      4  O   UNL A   1      38.461  33.400  34.334  1.00  0.00    -0.463 OA
BRANCH   4   5
ATOM      5  C   UNL A   1      37.835  34.149  33.399  1.00  0.00     0.310 C 
ATOM      6  O   UNL A   1      38.378  34.576  32.383  1.00  0.00    -0.252 OA
BRANCH   5   7
ATOM      7  C   UNL A   1      36.383  34.514  33.718  1.00  0.00     0.119 C 
ATOM      8  N   UNL A   1      35.562  32.345  32.957  1.00  0.00    -0.338 N 
ATOM      9  C   UNL A   1      34.670  32.918  31.948  1.00  0.00     0.120 C 
ATOM     10  C   UNL A   1      35.729  33.200  34.137  1.00  0.00     0.135 C 
ATOM     11  C   UNL A   1      35.118  34.308  31.505  1.00  0.00     0.022 C 
ATOM     12  C   UNL A   1      35.450  35.190  32.703  1.00  0.00     0.019 C 
BRANCH   8  13
ATOM     13  C   UNL A   1      36.487  31.378  32.537  1.00  0.00     0.253 C 
ATOM     14  O   UNL A   1      37.235  30.815  33.340  1.00  0.00    -0.269 OA
BRANCH  13  15
ATOM     15  C   UNL A   1      36.800  31.236  31.077  1.00  0.00     0.040 A 
ATOM     16  C   UNL A   1      37.758  30.187  28.673  1.00  0.00     0.041 A 
ATOM     17  C   UNL A   1      36.530  29.754  29.155  1.00  0.00     0.027 A 
ATOM     18  C   UNL A   1      38.360  31.301  29.237  1.00  0.00     0.027 A 
ATOM     19  C   UNL A   1      36.068  30.260  30.377  1.00  0.00     0.016 A 
ATOM     20  C   UNL A   1      37.862  31.844  30.418  1.00  0.00     0.016 A 
BRANCH  16  21
ATOM     21  N   UNL A   1      38.382  29.536  27.610  1.00  0.00    -0.326 N 
ATOM     22  C   UNL A   1      39.647  28.993  27.638  1.00  0.00     0.224 C 
ATOM     23  O   UNL A   1      40.326  28.962  26.610  1.00  0.00    -0.275 OA
ATOM     24  H   UNL A   1      37.876  29.457  26.770  1.00  0.00     0.169 HD
BRANCH  22  25
ATOM     25  C   UNL A   1      40.063  28.206  28.887  1.00  0.00     0.100 C 
BRANCH  25  26
ATOM     26  C   UNL A   1      39.010  27.431  29.684  1.00  0.00     0.010 C 
BRANCH  26  27
ATOM     27  C   UNL A   1      38.860  27.715  31.189  1.00  0.00    -0.003 C 
ATOM     28  C   UNL A   1      39.752  28.797  31.780  1.00  0.00     0.004 C 
ENDBRANCH  26  27
ENDBRANCH  25  26
ENDBRANCH  22  25
ENDBRANCH  16  21
ENDBRANCH  13  15
ENDBRANCH   8  13
ENDBRANCH   5   7
ENDBRANCH   4   5
ENDBRANCH   3   4
ENDBRANCH   2   3
ENDBRANCH   1   2
BRANCH   1  29
ATOM     29  C   UNL A   1      40.047  36.339  37.020  1.00  0.00     0.188 C 
BRANCH  29  30
ATOM     30  C   UNL A   1      39.845  35.856  38.459  1.00  0.00     0.188 C 
BRANCH  30  31
ATOM     31  O   UNL A   1      40.637  36.492  39.433  1.00  0.00    -0.376 OA
BRANCH  31  32
ATOM     32  C   UNL A   1      40.839  35.879  40.695  1.00  0.00     0.202 C 
BRANCH  32  33
ATOM     33  C   UNL A   1      42.170  35.180  41.035  1.00  0.00     0.261 C 
BRANCH  33  34
ATOM     34  O   UNL A   1      42.928  34.641  39.941  1.00  0.00    -0.460 OA
BRANCH  34  35
ATOM     35  C   UNL A   1      43.729  33.580  40.199  1.00  0.00     0.338 C 
ATOM     36  O   UNL A   1      44.168  33.250  41.293  1.00  0.00    -0.246 OA
BRANCH  35  37
ATOM     37  C   UNL A   1      43.728  32.714  38.990  1.00  0.00     0.060 A 
ATOM     38  C   UNL A   1      44.958  32.427  38.374  1.00  0.00     0.016 A 
ATOM     39  C   UNL A   1      42.556  32.121  38.517  1.00  0.00     0.016 A 
ATOM     40  C   UNL A   1      45.011  31.583  37.263  1.00  0.00     0.010 A 
ATOM     41  C   UNL A   1      42.608  31.294  37.386  1.00  0.00     0.010 A 
ATOM     42  C   UNL A   1      43.830  31.055  36.730  1.00  0.00    -0.014 A 
BRANCH  42  43
ATOM     43  C   UNL A   1      43.849  30.459  35.368  1.00  0.00     0.031 A 
ATOM     44  C   UNL A   1      44.230  29.006  35.238  1.00  0.00     0.074 A 
ATOM     45  C   UNL A   1      43.509  31.159  34.271  1.00  0.00     0.049 A 
ATOM     46  N   UNL A   1      44.308  28.257  34.170  1.00  0.00    -0.248 NA
ATOM     47  C   UNL A   1      44.569  28.305  36.489  1.00  0.00     0.031 C 
ATOM     48  C   UNL A   1      43.108  32.565  34.249  1.00  0.00     0.029 A 
ATOM     49  N   UNL A   1      43.466  30.775  32.952  1.00  0.00    -0.354 N 
ATOM     50  C   UNL A   1      44.729  27.009  34.613  1.00  0.00     0.074 A 
ATOM     51  C   UNL A   1      44.909  27.106  36.045  1.00  0.00     0.031 C 
ATOM     52  C   UNL A   1      42.877  32.930  32.974  1.00  0.00     0.029 A 
ATOM     53  C   UNL A   1      43.134  31.794  32.090  1.00  0.00     0.049 A 
ATOM     54  H   UNL A   1      43.654  29.857  32.652  1.00  0.00     0.167 HD
ATOM     55  C   UNL A   1      44.931  25.874  33.903  1.00  0.00     0.034 A 
ATOM     56  C   UNL A   1      43.062  31.810  30.743  1.00  0.00     0.034 A 
ATOM     57  C   UNL A   1      44.749  25.766  32.481  1.00  0.00     0.049 A 
ATOM     58  C   UNL A   1      43.329  30.543  29.968  1.00  0.00     0.074 A 
ATOM     59  C   UNL A   1      44.902  24.651  31.676  1.00  0.00     0.029 A 
ATOM     60  N   UNL A   1      44.394  26.815  31.646  1.00  0.00    -0.354 N 
ATOM     61  N   UNL A   1      43.622  29.344  30.412  1.00  0.00    -0.248 NA
ATOM     62  C   UNL A   1      43.217  30.625  28.503  1.00  0.00     0.031 C 
ATOM     63  C   UNL A   1      44.674  25.033  30.350  1.00  0.00     0.029 A 
ATOM     64  C   UNL A   1      44.332  26.376  30.334  1.00  0.00     0.049 A 
ATOM     65  H   UNL A   1      44.212  27.735  31.943  1.00  0.00     0.167 HD
ATOM     66  C   UNL A   1      43.685  28.523  29.288  1.00  0.00     0.074 A 
ATOM     67  C   UNL A   1      43.377  29.359  28.146  1.00  0.00     0.031 C 
ATOM     68  C   UNL A   1      43.980  27.201  29.206  1.00  0.00     0.034 A 
BRANCH  55  69
ATOM     69  C   UNL A   1      45.366  24.649  34.665  1.00  0.00     0.023 A 
ATOM     70  C   UNL A   1      44.398  23.756  35.170  1.00  0.00     0.012 A 
ATOM     71  C   UNL A   1      46.732  24.367  34.856  1.00  0.00     0.148 A 
ATOM     72  C   UNL A   1      44.782  22.623  35.887  1.00  0.00     0.002 A 
ATOM     73  C   UNL A   1      47.108  23.210  35.527  1.00  0.00     0.091 A 
ATOM     74  F   UNL A   1      47.636  25.240  34.390  1.00  0.00    -0.205 F 
ATOM     75  C   UNL A   1      46.136  22.345  36.056  1.00  0.00     0.022 A 
BRANCH  73  76
ATOM     76  S   UNL A   1      48.824  22.720  35.726  1.00  0.00     0.127 S 
ATOM     77  O   UNL A   1      48.690  21.467  36.468  1.00  0.00    -0.237 OA
ATOM     78  O   UNL A   1      49.260  22.564  34.338  1.00  0.00    -0.237 OA
ATOM     79  O   UNL A   1      49.471  23.807  36.448  1.00  0.00    -0.744 OA
ENDBRANCH  73  76
ENDBRANCH  55  69
BRANCH  56  80
ATOM     80  C   UNL A   1      42.685  33.062  30.023  1.00  0.00     0.023 A 
ATOM     81  C   UNL A   1      41.344  33.496  30.032  1.00  0.00     0.012 A 
ATOM     82  C   UNL A   1      43.644  33.813  29.316  1.00  0.00     0.148 A 
ATOM     83  C   UNL A   1      40.958  34.632  29.320  1.00  0.00     0.002 A 
ATOM     84  C   UNL A   1      43.263  34.976  28.656  1.00  0.00     0.091 A 
ATOM     85  F   UNL A   1      44.910  33.374  29.305  1.00  0.00    -0.205 F 
ATOM     86  C   UNL A   1      41.918  35.376  28.640  1.00  0.00     0.022 A 
BRANCH  84  87
ATOM     87  S   UNL A   1      44.445  36.062  27.851  1.00  0.00     0.127 S 
ATOM     88  O   UNL A   1      44.687  35.360  26.593  1.00  0.00    -0.237 OA
ATOM     89  O   UNL A   1      43.674  37.300  27.730  1.00  0.00    -0.237 OA
ATOM     90  O   UNL A   1      45.585  36.145  28.755  1.00  0.00    -0.744 OA
ENDBRANCH  84  87
ENDBRANCH  56  80
BRANCH  68  91
ATOM     91  C   UNL A   1      43.928  26.553  27.843  1.00  0.00     0.023 A 
ATOM     92  C   UNL A   1      42.691  26.327  27.208  1.00  0.00     0.012 A 
ATOM     93  C   UNL A   1      45.118  26.201  27.173  1.00  0.00     0.148 A 
ATOM     94  C   UNL A   1      42.635  25.713  25.957  1.00  0.00     0.002 A 
ATOM     95  C   UNL A   1      45.057  25.641  25.901  1.00  0.00     0.091 A 
ATOM     96  F   UNL A   1      46.289  26.408  27.793  1.00  0.00    -0.205 F 
ATOM     97  C   UNL A   1      43.816  25.379  25.300  1.00  0.00     0.022 A 
BRANCH  95  98
ATOM     98  S   UNL A   1      46.530  25.274  24.941  1.00  0.00     0.127 S 
ATOM     99  O   UNL A   1      47.480  24.894  25.986  1.00  0.00    -0.237 OA
ATOM    100  O   UNL A   1      46.082  24.168  24.094  1.00  0.00    -0.237 OA
ATOM    101  O   UNL A   1      46.851  26.496  24.216  1.00  0.00    -0.744 OA
ENDBRANCH  95  98
ENDBRANCH  68  91
ENDBRANCH  42  43
ENDBRANCH  35  37
ENDBRANCH  34  35
ENDBRANCH  33  34
ENDBRANCH  32  33
ENDBRANCH  31  32
ENDBRANCH  30  31
ENDBRANCH  29  30
ENDBRANCH   1  29
TORSDOF 26
ENDMDL
MODEL 2
REMARK VINA RESULT:      -6.9      2.037      7.683
REMARK SMILES CCCCC(=O)Nc1ccc(C(=O)N2CCC[C@H](C(=O)OCCOCCOCCOC(=O)c3ccc(-c4c5nc(c(-c6cccc(S(=O)(=O)[O-])c6F)c6ccc([nH]6)c(-c6cccc(S(=O)(=O)[O-])c6F)c6nc(c(-c7cccc(S(=O)(=O)[O-])c7F)c7ccc4[nH]7)C=C6)C=C5)cc3)C2)cc1
REMARK SMILES IDX 24 1 23 2 22 3 21 4 19 5 20 6 18 7 14 8 15 9 96 10 16 11
REMARK SMILES IDX 17 12 12 13 13 14 11 15 8 16 9 17 98 18 10 19 97 20 7 21
REMARK SMILES IDX 5 22 6 23 4 25 3 26 2 27 1 28 25 29 26 30 27 31 28 32 29 33
REMARK SMILES IDX 30 34 31 35 32 36 33 37 34 38 95 39 35 40 94 41 36 42 37 43
REMARK SMILES IDX 38 44 88 45 39 46 93 47 87 48 89 49 40 50 92 51 86 52 85 53
REMARK SMILES IDX 41 55 73 56 53 57 72 58 54 59 57 60 71 61 90 62 55 63 56 64
REMARK SMILES IDX 70 66 91 67 58 68 42 69 43 70 51 71 44 72 46 73 52 74 45 75
REMARK SMILES IDX 47 76 48 77 49 78 50 79 74 80 75 81 83 82 76 83 78 84 84 85
REMARK SMILES IDX 77 86 79 87 80 88 81 89 82 90 59 91 60 92 68 93 61 94 63 95
REMARK SMILES IDX 69 96 62 97 64 98 65 99 66 100 67 101
REMARK H PARENT 7 24 89 54 57 65
REMARK Flexibility Score: inf
ROOT
ATOM      1  O   UNL A   1      42.402  36.279  35.654  1.00  0.00    -0.376 OA
ENDROOT
BRANCH   1   2
ATOM      2  C   UNL A   1      41.244  35.877  34.927  1.00  0.00     0.202 C 
BRANCH   2   3
ATOM      3  C   UNL A   1      39.953  35.515  35.686  1.00  0.00     0.261 C 
BRANCH   3   4
ATOM      4  O   UNL A   1      39.373  34.232  35.353  1.00  0.00    -0.463 OA
BRANCH   4   5
ATOM      5  C   UNL A   1      38.238  34.247  34.619  1.00  0.00     0.310 C 
ATOM      6  O   UNL A   1      37.909  35.172  33.881  1.00  0.00    -0.252 OA
BRANCH   5   7
ATOM      7  C   UNL A   1      37.315  33.043  34.818  1.00  0.00     0.119 C 
ATOM      8  N   UNL A   1      38.474  31.740  33.111  1.00  0.00    -0.338 N 
ATOM      9  C   UNL A   1      37.276  31.543  32.296  1.00  0.00     0.120 C 
ATOM     10  C   UNL A   1      38.193  31.823  34.548  1.00  0.00     0.135 C 
ATOM     11  C   UNL A   1      36.227  32.624  32.542  1.00  0.00     0.022 C 
ATOM     12  C   UNL A   1      36.008  32.854  34.033  1.00  0.00     0.019 C 
BRANCH   8  13
ATOM     13  C   UNL A   1      39.605  32.289  32.488  1.00  0.00     0.253 C 
ATOM     14  O   UNL A   1      39.621  33.462  32.108  1.00  0.00    -0.269 OA
BRANCH  13  15
ATOM     15  C   UNL A   1      40.691  31.383  31.991  1.00  0.00     0.040 A 
ATOM     16  C   UNL A   1      42.007  29.375  30.563  1.00  0.00     0.041 A 
ATOM     17  C   UNL A   1      41.825  30.617  29.969  1.00  0.00     0.027 A 
ATOM     18  C   UNL A   1      41.775  29.227  31.922  1.00  0.00     0.027 A 
ATOM     19  C   UNL A   1      41.138  31.610  30.676  1.00  0.00     0.016 A 
ATOM     20  C   UNL A   1      41.149  30.242  32.641  1.00  0.00     0.016 A 
BRANCH  16  21
ATOM     21  N   UNL A   1      42.447  28.280  29.822  1.00  0.00    -0.326 N 
ATOM     22  C   UNL A   1      41.635  27.369  29.184  1.00  0.00     0.224 C 
ATOM     23  O   UNL A   1      42.005  26.200  29.056  1.00  0.00    -0.275 OA
ATOM     24  H   UNL A   1      43.419  28.148  29.746  1.00  0.00     0.169 HD
BRANCH  22  25
ATOM     25  C   UNL A   1      40.416  27.903  28.421  1.00  0.00     0.100 C 
BRANCH  25  26
ATOM     26  C   UNL A   1      40.510  28.150  26.913  1.00  0.00     0.010 C 
BRANCH  26  27
ATOM     27  C   UNL A   1      41.899  28.176  26.251  1.00  0.00    -0.003 C 
ATOM     28  C   UNL A   1      42.713  29.453  26.403  1.00  0.00     0.004 C 
ENDBRANCH  26  27
ENDBRANCH  25  26
ENDBRANCH  22  25
ENDBRANCH  16  21
ENDBRANCH  13  15
ENDBRANCH   8  13
ENDBRANCH   5   7
ENDBRANCH   4   5
ENDBRANCH   3   4
ENDBRANCH   2   3
ENDBRANCH   1   2
BRANCH   1  29
ATOM     29  C   UNL A   1      43.091  35.312  36.428  1.00  0.00     0.188 C 
BRANCH  29  30
ATOM     30  C   UNL A   1      43.927  35.795  37.616  1.00  0.00     0.188 C 
BRANCH  30  31
ATOM     31  O   UNL A   1      43.206  36.374  38.676  1.00  0.00    -0.376 OA
BRANCH  31  32
ATOM     32  C   UNL A   1      41.936  35.857  39.037  1.00  0.00     0.202 C 
BRANCH  32  33
ATOM     33  C   UNL A   1      41.806  34.714  40.062  1.00  0.00     0.261 C 
BRANCH  33  34
ATOM     34  O   UNL A   1      42.846  33.723  40.078  1.00  0.00    -0.460 OA
BRANCH  34  35
ATOM     35  C   UNL A   1      42.485  32.436  39.863  1.00  0.00     0.338 C 
ATOM     36  O   UNL A   1      41.706  31.777  40.540  1.00  0.00    -0.246 OA
BRANCH  35  37
ATOM     37  C   UNL A   1      42.951  32.062  38.501  1.00  0.00     0.060 A 
ATOM     38  C   UNL A   1      41.989  31.865  37.497  1.00  0.00     0.016 A 
ATOM     39  C   UNL A   1      44.310  31.990  38.189  1.00  0.00     0.016 A 
ATOM     40  C   UNL A   1      42.381  31.556  36.194  1.00  0.00     0.010 A 
ATOM     41  C   UNL A   1      44.702  31.655  36.886  1.00  0.00     0.010 A 
ATOM     42  C   UNL A   1      43.739  31.396  35.892  1.00  0.00    -0.014 A 
BRANCH  42  43
ATOM     43  C   UNL A   1      44.129  30.734  34.620  1.00  0.00     0.031 A 
ATOM     44  C   UNL A   1      44.334  31.604  33.405  1.00  0.00     0.074 A 
ATOM     45  C   UNL A   1      44.332  29.407  34.532  1.00  0.00     0.049 A 
ATOM     46  N   UNL A   1      44.686  31.270  32.192  1.00  0.00    -0.248 NA
ATOM     47  C   UNL A   1      44.110  33.048  33.590  1.00  0.00     0.031 C 
ATOM     48  C   UNL A   1      44.185  28.449  35.625  1.00  0.00     0.029 A 
ATOM     49  N   UNL A   1      44.696  28.635  33.453  1.00  0.00    -0.354 N 
ATOM     50  C   UNL A   1      44.701  32.454  31.463  1.00  0.00     0.074 A 
ATOM     51  C   UNL A   1      44.302  33.511  32.366  1.00  0.00     0.031 C 
ATOM     52  C   UNL A   1      44.436  27.212  35.156  1.00  0.00     0.029 A 
ATOM     53  C   UNL A   1      44.742  27.289  33.728  1.00  0.00     0.049 A 
ATOM     54  H   UNL A   1      44.904  29.012  32.568  1.00  0.00     0.167 HD
ATOM     55  C   UNL A   1      45.032  32.655  30.167  1.00  0.00     0.034 A 
ATOM     56  C   UNL A   1      44.987  26.240  32.916  1.00  0.00     0.034 A 
ATOM     57  C   UNL A   1      45.434  31.611  29.263  1.00  0.00     0.049 A 
ATOM     58  C   UNL A   1      45.317  26.484  31.463  1.00  0.00     0.074 A 
ATOM     59  C   UNL A   1      45.817  31.720  27.938  1.00  0.00     0.029 A 
ATOM     60  N   UNL A   1      45.487  30.263  29.584  1.00  0.00    -0.354 N 
ATOM     61  N   UNL A   1      45.430  27.619  30.817  1.00  0.00    -0.248 NA
ATOM     62  C   UNL A   1      45.590  25.297  30.637  1.00  0.00     0.031 C 
ATOM     63  C   UNL A   1      46.066  30.434  27.446  1.00  0.00     0.029 A 
ATOM     64  C   UNL A   1      45.886  29.529  28.479  1.00  0.00     0.049 A 
ATOM     65  H   UNL A   1      45.273  29.884  30.466  1.00  0.00     0.167 HD
ATOM     66  C   UNL A   1      45.830  27.286  29.525  1.00  0.00     0.074 A 
ATOM     67  C   UNL A   1      45.961  25.845  29.488  1.00  0.00     0.031 C 
ATOM     68  C   UNL A   1      46.060  28.098  28.461  1.00  0.00     0.034 A 
BRANCH  55  69
ATOM     69  C   UNL A   1      44.981  34.069  29.650  1.00  0.00     0.023 A 
ATOM     70  C   UNL A   1      46.068  34.939  29.875  1.00  0.00     0.012 A 
ATOM     71  C   UNL A   1      43.870  34.529  28.917  1.00  0.00     0.148 A 
ATOM     72  C   UNL A   1      46.033  36.255  29.414  1.00  0.00     0.002 A 
ATOM     73  C   UNL A   1      43.864  35.825  28.418  1.00  0.00     0.091 A 
ATOM     74  F   UNL A   1      42.835  33.696  28.735  1.00  0.00    -0.205 F 
ATOM     75  C   UNL A   1      44.937  36.694  28.677  1.00  0.00     0.022 A 
BRANCH  73  76
ATOM     76  S   UNL A   1      42.537  36.460  27.388  1.00  0.00     0.127 S 
ATOM     77  O   UNL A   1      41.394  36.379  28.297  1.00  0.00    -0.237 OA
ATOM     78  O   UNL A   1      42.994  37.820  27.104  1.00  0.00    -0.237 OA
ATOM     79  O   UNL A   1      42.474  35.584  26.227  1.00  0.00    -0.744 OA
ENDBRANCH  73  76
ENDBRANCH  55  69
BRANCH  56  80
ATOM     80  C   UNL A   1      44.969  24.849  33.456  1.00  0.00     0.023 A 
ATOM     81  C   UNL A   1      43.764  24.118  33.465  1.00  0.00     0.012 A 
ATOM     82  C   UNL A   1      46.135  24.253  33.976  1.00  0.00     0.148 A 
ATOM     83  C   UNL A   1      43.711  22.838  34.016  1.00  0.00     0.002 A 
ATOM     84  C   UNL A   1      46.087  22.956  34.472  1.00  0.00     0.091 A 
ATOM     85  F   UNL A   1      47.267  24.971  33.976  1.00  0.00    -0.205 F 
ATOM     86  C   UNL A   1      44.873  22.253  34.511  1.00  0.00     0.022 A 
BRANCH  84  87
ATOM     87  S   UNL A   1      47.553  22.077  35.023  1.00  0.00     0.127 S 
ATOM     88  O   UNL A   1      47.324  20.741  34.478  1.00  0.00    -0.237 OA
ATOM     89  O   UNL A   1      48.618  22.837  34.368  1.00  0.00    -0.237 OA
ATOM     90  O   UNL A   1      47.548  22.173  36.477  1.00  0.00    -0.744 OA
ENDBRANCH  84  87
ENDBRANCH  56  80
BRANCH  68  91
ATOM     91  C   UNL A   1      46.534  27.458  27.178  1.00  0.00     0.023 A 
ATOM     92  C   UNL A   1      45.602  26.974  26.237  1.00  0.00     0.012 A 
ATOM     93  C   UNL A   1      47.911  27.371  26.888  1.00  0.00     0.148 A 
ATOM     94  C   UNL A   1      46.033  26.366  25.058  1.00  0.00     0.002 A 
ATOM     95  C   UNL A   1      48.331  26.815  25.685  1.00  0.00     0.091 A 
ATOM     96  F   UNL A   1      48.787  27.822  27.797  1.00  0.00    -0.205 F 
ATOM     97  C   UNL A   1      47.396  26.295  24.778  1.00  0.00     0.022 A 
BRANCH  95  98
ATOM     98  S   UNL A   1      50.060  26.774  25.198  1.00  0.00     0.127 S 
ATOM     99  O   UNL A   1      49.959  26.531  23.760  1.00  0.00    -0.237 OA
ATOM    100  O   UNL A   1      50.517  28.116  25.559  1.00  0.00    -0.237 OA
ATOM    101  O   UNL A   1      50.669  25.701  25.973  1.00  0.00    -0.744 OA
ENDBRANCH  95  98
ENDBRANCH  68  91
ENDBRANCH  42  43
ENDBRANCH  35  37
ENDBRANCH  34  35
ENDBRANCH  33  34
ENDBRANCH  32  33
ENDBRANCH  31  32
ENDBRANCH  30  31
ENDBRANCH  29  30
ENDBRANCH   1  29
TORSDOF 26
ENDMDL
MODEL 3
REMARK VINA RESULT:      -6.7      4.153     10.542
REMARK SMILES CCCCC(=O)Nc1ccc(C(=O)N2CCC[C@H](C(=O)OCCOCCOCCOC(=O)c3ccc(-c4c5nc(c(-c6cccc(S(=O)(=O)[O-])c6F)c6ccc([nH]6)c(-c6cccc(S(=O)(=O)[O-])c6F)c6nc(c(-c7cccc(S(=O)(=O)[O-])c7F)c7ccc4[nH]7)C=C6)C=C5)cc3)C2)cc1
REMARK SMILES IDX 24 1 23 2 22 3 21 4 19 5 20 6 18 7 14 8 15 9 96 10 16 11
REMARK SMILES IDX 17 12 12 13 13 14 11 15 8 16 9 17 98 18 10 19 97 20 7 21
REMARK SMILES IDX 5 22 6 23 4 25 3 26 2 27 1 28 25 29 26 30 27 31 28 32 29 33
REMARK SMILES IDX 30 34 31 35 32 36 33 37 34 38 95 39 35 40 94 41 36 42 37 43
REMARK SMILES IDX 38 44 88 45 39 46 93 47 87 48 89 49 40 50 92 51 86 52 85 53
REMARK SMILES IDX 41 55 73 56 53 57 72 58 54 59 57 60 71 61 90 62 55 63 56 64
REMARK SMILES IDX 70 66 91 67 58 68 42 69 43 70 51 71 44 72 46 73 52 74 45 75
REMARK SMILES IDX 47 76 48 77 49 78 50 79 74 80 75 81 83 82 76 83 78 84 84 85
REMARK SMILES IDX 77 86 79 87 80 88 81 89 82 90 59 91 60 92 68 93 61 94 63 95
REMARK SMILES IDX 69 96 62 97 64 98 65 99 66 100 67 101
REMARK H PARENT 7 24 89 54 57 65
REMARK Flexibility Score: inf
ROOT
ATOM      1  O   UNL A   1      42.904  26.638  26.955  1.00  0.00    -0.376 OA
ENDROOT
BRANCH   1   2
ATOM      2  C   UNL A   1      41.915  27.609  27.282  1.00  0.00     0.202 C 
BRANCH   2   3
ATOM      3  C   UNL A   1      41.073  27.442  28.562  1.00  0.00     0.261 C 
BRANCH   3   4
ATOM      4  O   UNL A   1      40.390  28.633  29.019  1.00  0.00    -0.463 OA
BRANCH   4   5
ATOM      5  C   UNL A   1      39.039  28.617  28.978  1.00  0.00     0.310 C 
ATOM      6  O   UNL A   1      38.375  29.058  28.043  1.00  0.00    -0.252 OA
BRANCH   5   7
ATOM      7  C   UNL A   1      38.353  28.071  30.232  1.00  0.00     0.119 C 
ATOM      8  N   UNL A   1      38.011  30.309  31.143  1.00  0.00    -0.338 N 
ATOM      9  C   UNL A   1      38.755  30.037  32.373  1.00  0.00     0.120 C 
ATOM     10  C   UNL A   1      37.321  29.131  30.610  1.00  0.00     0.135 C 
ATOM     11  C   UNL A   1      39.758  28.901  32.202  1.00  0.00     0.022 C 
ATOM     12  C   UNL A   1      39.122  27.701  31.509  1.00  0.00     0.019 C 
BRANCH   8  13
ATOM     13  C   UNL A   1      38.397  31.421  30.379  1.00  0.00     0.253 C 
ATOM     14  O   UNL A   1      37.829  31.699  29.321  1.00  0.00    -0.269 OA
BRANCH  13  15
ATOM     15  C   UNL A   1      39.700  32.103  30.670  1.00  0.00     0.040 A 
ATOM     16  C   UNL A   1      41.804  33.936  30.551  1.00  0.00     0.041 A 
ATOM     17  C   UNL A   1      40.685  34.244  31.313  1.00  0.00     0.027 A 
ATOM     18  C   UNL A   1      41.978  32.644  30.082  1.00  0.00     0.027 A 
ATOM     19  C   UNL A   1      39.619  33.336  31.345  1.00  0.00     0.016 A 
ATOM     20  C   UNL A   1      40.940  31.720  30.172  1.00  0.00     0.016 A 
BRANCH  16  21
ATOM     21  N   UNL A   1      42.772  34.900  30.274  1.00  0.00    -0.326 N 
ATOM     22  C   UNL A   1      43.088  35.380  29.023  1.00  0.00     0.224 C 
ATOM     23  O   UNL A   1      44.237  35.749  28.778  1.00  0.00    -0.275 OA
ATOM     24  H   UNL A   1      43.271  35.270  31.038  1.00  0.00     0.169 HD
BRANCH  22  25
ATOM     25  C   UNL A   1      41.933  35.685  28.059  1.00  0.00     0.100 C 
BRANCH  25  26
ATOM     26  C   UNL A   1      41.809  37.080  27.439  1.00  0.00     0.010 C 
BRANCH  26  27
ATOM     27  C   UNL A   1      42.629  38.235  28.040  1.00  0.00    -0.003 C 
ATOM     28  C   UNL A   1      41.957  39.598  28.106  1.00  0.00     0.004 C 
ENDBRANCH  26  27
ENDBRANCH  25  26
ENDBRANCH  22  25
ENDBRANCH  16  21
ENDBRANCH  13  15
ENDBRANCH   8  13
ENDBRANCH   5   7
ENDBRANCH   4   5
ENDBRANCH   3   4
ENDBRANCH   2   3
ENDBRANCH   1   2
BRANCH   1  29
ATOM     29  C   UNL A   1      42.488  25.404  26.394  1.00  0.00     0.188 C 
BRANCH  29  30
ATOM     30  C   UNL A   1      42.497  24.161  27.288  1.00  0.00     0.188 C 
BRANCH  30  31
ATOM     31  O   UNL A   1      43.651  23.359  27.208  1.00  0.00    -0.376 OA
BRANCH  31  32
ATOM     32  C   UNL A   1      44.565  23.319  28.290  1.00  0.00     0.202 C 
BRANCH  32  33
ATOM     33  C   UNL A   1      44.102  23.604  29.732  1.00  0.00     0.261 C 
BRANCH  33  34
ATOM     34  O   UNL A   1      44.278  24.941  30.228  1.00  0.00    -0.460 OA
BRANCH  34  35
ATOM     35  C   UNL A   1      44.460  25.094  31.561  1.00  0.00     0.338 C 
ATOM     36  O   UNL A   1      44.881  24.247  32.338  1.00  0.00    -0.246 OA
BRANCH  35  37
ATOM     37  C   UNL A   1      44.357  26.546  31.863  1.00  0.00     0.060 A 
ATOM     38  C   UNL A   1      43.579  27.351  31.014  1.00  0.00     0.016 A 
ATOM     39  C   UNL A   1      44.940  27.097  33.006  1.00  0.00     0.016 A 
ATOM     40  C   UNL A   1      43.418  28.711  31.284  1.00  0.00     0.010 A 
ATOM     41  C   UNL A   1      44.798  28.467  33.261  1.00  0.00     0.010 A 
ATOM     42  C   UNL A   1      44.071  29.289  32.379  1.00  0.00    -0.014 A 
BRANCH  42  43
ATOM     43  C   UNL A   1      44.186  30.769  32.461  1.00  0.00     0.031 A 
ATOM     44  C   UNL A   1      43.196  31.507  33.327  1.00  0.00     0.074 A 
ATOM     45  C   UNL A   1      45.151  31.452  31.821  1.00  0.00     0.049 A 
ATOM     46  N   UNL A   1      43.096  32.787  33.571  1.00  0.00    -0.248 NA
ATOM     47  C   UNL A   1      42.183  30.684  34.009  1.00  0.00     0.031 C 
ATOM     48  C   UNL A   1      46.181  30.869  30.962  1.00  0.00     0.029 A 
ATOM     49  N   UNL A   1      45.408  32.802  31.787  1.00  0.00    -0.354 N 
ATOM     50  C   UNL A   1      41.997  32.926  34.411  1.00  0.00     0.074 A 
ATOM     51  C   UNL A   1      41.451  31.603  34.617  1.00  0.00     0.031 C 
ATOM     52  C   UNL A   1      46.948  31.860  30.470  1.00  0.00     0.029 A 
ATOM     53  C   UNL A   1      46.453  33.146  30.960  1.00  0.00     0.049 A 
ATOM     54  H   UNL A   1      44.894  33.462  32.306  1.00  0.00     0.167 HD
ATOM     55  C   UNL A   1      41.492  34.047  34.978  1.00  0.00     0.034 A 
ATOM     56  C   UNL A   1      46.940  34.359  30.626  1.00  0.00     0.034 A 
ATOM     57  C   UNL A   1      42.030  35.366  34.782  1.00  0.00     0.049 A 
ATOM     58  C   UNL A   1      46.336  35.598  31.240  1.00  0.00     0.074 A 
ATOM     59  C   UNL A   1      41.605  36.559  35.337  1.00  0.00     0.029 A 
ATOM     60  N   UNL A   1      43.099  35.669  33.954  1.00  0.00    -0.354 N 
ATOM     61  N   UNL A   1      45.365  35.703  32.116  1.00  0.00    -0.248 NA
ATOM     62  C   UNL A   1      46.926  36.888  30.847  1.00  0.00     0.031 C 
ATOM     63  C   UNL A   1      42.393  37.591  34.817  1.00  0.00     0.029 A 
ATOM     64  C   UNL A   1      43.342  37.033  33.974  1.00  0.00     0.049 A 
ATOM     65  H   UNL A   1      43.611  35.013  33.429  1.00  0.00     0.167 HD
ATOM     66  C   UNL A   1      45.259  37.061  32.410  1.00  0.00     0.074 A 
ATOM     67  C   UNL A   1      46.280  37.735  31.635  1.00  0.00     0.031 C 
ATOM     68  C   UNL A   1      44.389  37.694  33.237  1.00  0.00     0.034 A 
BRANCH  55  69
ATOM     69  C   UNL A   1      40.293  33.888  35.877  1.00  0.00     0.023 A 
ATOM     70  C   UNL A   1      38.996  33.881  35.324  1.00  0.00     0.012 A 
ATOM     71  C   UNL A   1      40.452  33.716  37.265  1.00  0.00     0.148 A 
ATOM     72  C   UNL A   1      37.875  33.746  36.143  1.00  0.00     0.002 A 
ATOM     73  C   UNL A   1      39.333  33.531  38.068  1.00  0.00     0.091 A 
ATOM     74  F   UNL A   1      41.692  33.750  37.776  1.00  0.00    -0.205 F 
ATOM     75  C   UNL A   1      38.044  33.561  37.512  1.00  0.00     0.022 A 
BRANCH  73  76
ATOM     76  S   UNL A   1      39.450  33.203  39.830  1.00  0.00     0.127 S 
ATOM     77  O   UNL A   1      39.647  34.548  40.368  1.00  0.00    -0.237 OA
ATOM     78  O   UNL A   1      38.141  32.617  40.119  1.00  0.00    -0.237 OA
ATOM     79  O   UNL A   1      40.573  32.293  39.997  1.00  0.00    -0.744 OA
ENDBRANCH  73  76
ENDBRANCH  55  69
BRANCH  56  80
ATOM     80  C   UNL A   1      48.091  34.475  29.684  1.00  0.00     0.023 A 
ATOM     81  C   UNL A   1      49.405  34.546  30.191  1.00  0.00     0.012 A 
ATOM     82  C   UNL A   1      47.891  34.532  28.291  1.00  0.00     0.148 A 
ATOM     83  C   UNL A   1      50.492  34.711  29.333  1.00  0.00     0.002 A 
ATOM     84  C   UNL A   1      48.984  34.639  27.439  1.00  0.00     0.091 A 
ATOM     85  F   UNL A   1      46.634  34.481  27.829  1.00  0.00    -0.205 F 
ATOM     86  C   UNL A   1      50.283  34.749  27.958  1.00  0.00     0.022 A 
BRANCH  84  87
ATOM     87  S   UNL A   1      48.824  34.579  25.651  1.00  0.00     0.127 S 
ATOM     88  O   UNL A   1      49.940  33.712  25.280  1.00  0.00    -0.237 OA
ATOM     89  O   UNL A   1      47.498  33.981  25.492  1.00  0.00    -0.237 OA
ATOM     90  O   UNL A   1      48.924  35.960  25.198  1.00  0.00    -0.744 OA
ENDBRANCH  84  87
ENDBRANCH  56  80
BRANCH  68  91
ATOM     91  C   UNL A   1      44.535  39.188  33.399  1.00  0.00     0.023 A 
ATOM     92  C   UNL A   1      45.363  39.717  34.410  1.00  0.00     0.012 A 
ATOM     93  C   UNL A   1      43.877  40.071  32.519  1.00  0.00     0.148 A 
ATOM     94  C   UNL A   1      45.488  41.096  34.577  1.00  0.00     0.002 A 
ATOM     95  C   UNL A   1      44.052  41.444  32.655  1.00  0.00     0.091 A 
ATOM     96  F   UNL A   1      43.082  39.556  31.570  1.00  0.00    -0.205 F 
ATOM     97  C   UNL A   1      44.842  41.959  33.695  1.00  0.00     0.022 A 
BRANCH  95  98
ATOM     98  S   UNL A   1      43.339  42.623  31.503  1.00  0.00     0.127 S 
ATOM     99  O   UNL A   1      44.522  43.357  31.057  1.00  0.00    -0.237 OA
ATOM    100  O   UNL A   1      42.746  41.749  30.491  1.00  0.00    -0.237 OA
ATOM    101  O   UNL A   1      42.372  43.398  32.271  1.00  0.00    -0.744 OA
ENDBRANCH  95  98
ENDBRANCH  68  91
ENDBRANCH  42  43
ENDBRANCH  35  37
ENDBRANCH  34  35
ENDBRANCH  33  34
ENDBRANCH  32  33
ENDBRANCH  31  32
ENDBRANCH  30  31
ENDBRANCH  29  30
ENDBRANCH   1  29
TORSDOF 26
ENDMDL
