MODEL 1
REMARK VINA RESULT:      -8.0      0.000      0.000
REMARK SMILES O=C(OCCOCCOCCOC(=O)[C@H]1C[C@](O)(c2ccccc2Cl)[C@@H](c2ccccc2Cl)O1)c1ccc(-c2c3nc(c(-c4cccc(S(=O)(=O)[O-])c4F)c4ccc([nH]4)c(-c4cccc(S(=O)(=O)[O-])c4F)c4nc(c(-c5cccc(S(=O)(=O)[O-])c5F)c5ccc2[nH]5)C=C4)C=C3)cc1
REMARK SMILES IDX 7 1 6 2 5 3 4 4 3 5 2 6 1 7 35 8 36 9 97 10 37 11 96 12
REMARK SMILES IDX 38 13 39 14 40 15 90 16 41 17 95 18 89 19 91 20 42 21 94 22
REMARK SMILES IDX 88 23 87 24 43 26 75 27 55 28 74 29 56 30 59 31 73 32 92 33
REMARK SMILES IDX 57 34 58 35 72 37 93 38 60 39 44 40 45 41 53 42 46 43 48 44
REMARK SMILES IDX 54 45 47 46 49 47 50 48 51 49 52 50 76 51 77 52 85 53 78 54
REMARK SMILES IDX 80 55 86 56 79 57 81 58 82 59 83 60 84 61 61 62 62 63 70 64
REMARK SMILES IDX 63 65 65 66 71 67 64 68 66 69 67 70 68 71 69 72 8 73 9 74
REMARK SMILES IDX 10 75 11 76 12 77 13 78 14 79 15 80 16 81 34 82 17 83 26 84
REMARK SMILES IDX 19 85 20 86 24 87 21 88 23 89 25 90 22 91 18 92 27 94 28 95
REMARK SMILES IDX 32 96 29 97 31 98 33 99 30 100
REMARK H PARENT 91 25 59 36 18 93
REMARK Flexibility Score: inf
ROOT
ATOM      1  C   UNL A   1      38.409  32.809  39.710  1.00  0.00     0.188 C 
ENDROOT
BRANCH   1   2
ATOM      2  O   UNL A   1      38.202  34.221  39.877  1.00  0.00    -0.376 OA
BRANCH   2   3
ATOM      3  C   UNL A   1      39.115  34.820  40.811  1.00  0.00     0.202 C 
BRANCH   3   4
ATOM      4  C   UNL A   1      40.621  34.631  40.542  1.00  0.00     0.261 C 
BRANCH   4   5
ATOM      5  O   UNL A   1      41.293  35.812  40.093  1.00  0.00    -0.460 OA
BRANCH   5   6
ATOM      6  C   UNL A   1      41.416  36.285  38.831  1.00  0.00     0.338 C 
ATOM      7  O   UNL A   1      41.296  37.499  38.668  1.00  0.00    -0.246 OA
BRANCH   6   8
ATOM      8  C   UNL A   1      41.668  35.428  37.624  1.00  0.00     0.060 A 
ATOM      9  C   UNL A   1      40.714  34.727  36.873  1.00  0.00     0.016 A 
ATOM     10  C   UNL A   1      42.994  35.366  37.188  1.00  0.00     0.016 A 
ATOM     11  C   UNL A   1      41.042  33.969  35.745  1.00  0.00     0.010 A 
ATOM     12  C   UNL A   1      43.327  34.626  36.051  1.00  0.00     0.010 A 
ATOM     13  C   UNL A   1      42.348  33.926  35.303  1.00  0.00    -0.014 A 
BRANCH  13  14
ATOM     14  C   UNL A   1      42.787  33.097  34.148  1.00  0.00     0.031 A 
ATOM     15  C   UNL A   1      42.699  33.776  32.823  1.00  0.00     0.074 A 
ATOM     16  C   UNL A   1      43.189  31.804  34.229  1.00  0.00     0.049 A 
ATOM     17  N   UNL A   1      42.823  33.260  31.641  1.00  0.00    -0.248 NA
ATOM     18  C   UNL A   1      42.522  35.246  32.828  1.00  0.00     0.031 C 
ATOM     19  C   UNL A   1      43.661  31.102  35.417  1.00  0.00     0.029 A 
ATOM     20  N   UNL A   1      43.158  30.792  33.291  1.00  0.00    -0.354 N 
ATOM     21  C   UNL A   1      42.819  34.337  30.776  1.00  0.00     0.074 A 
ATOM     22  C   UNL A   1      42.540  35.527  31.537  1.00  0.00     0.031 C 
ATOM     23  C   UNL A   1      43.624  29.771  35.219  1.00  0.00     0.029 A 
ATOM     24  C   UNL A   1      43.190  29.521  33.861  1.00  0.00     0.049 A 
ATOM     25  H   UNL A   1      43.117  30.951  32.320  1.00  0.00     0.167 HD
ATOM     26  C   UNL A   1      43.131  34.317  29.467  1.00  0.00     0.034 A 
ATOM     27  C   UNL A   1      42.884  28.315  33.330  1.00  0.00     0.034 A 
ATOM     28  C   UNL A   1      43.405  33.096  28.773  1.00  0.00     0.049 A 
ATOM     29  C   UNL A   1      42.842  28.306  31.833  1.00  0.00     0.074 A 
ATOM     30  C   UNL A   1      43.791  32.913  27.464  1.00  0.00     0.029 A 
ATOM     31  N   UNL A   1      43.279  31.834  29.346  1.00  0.00    -0.354 N 
ATOM     32  N   UNL A   1      42.902  29.331  31.017  1.00  0.00    -0.248 NA
ATOM     33  C   UNL A   1      42.892  26.995  31.182  1.00  0.00     0.031 C 
ATOM     34  C   UNL A   1      43.825  31.537  27.224  1.00  0.00     0.029 A 
ATOM     35  C   UNL A   1      43.510  30.862  28.398  1.00  0.00     0.049 A 
ATOM     36  H   UNL A   1      43.057  31.661  30.289  1.00  0.00     0.167 HD
ATOM     37  C   UNL A   1      43.142  28.797  29.769  1.00  0.00     0.074 A 
ATOM     38  C   UNL A   1      43.123  27.352  29.927  1.00  0.00     0.031 C 
ATOM     39  C   UNL A   1      43.437  29.438  28.613  1.00  0.00     0.034 A 
BRANCH  26  40
ATOM     40  C   UNL A   1      43.195  35.636  28.764  1.00  0.00     0.023 A 
ATOM     41  C   UNL A   1      42.028  36.202  28.207  1.00  0.00     0.012 A 
ATOM     42  C   UNL A   1      44.424  36.297  28.627  1.00  0.00     0.148 A 
ATOM     43  C   UNL A   1      42.093  37.402  27.500  1.00  0.00     0.002 A 
ATOM     44  C   UNL A   1      44.475  37.511  27.956  1.00  0.00     0.091 A 
ATOM     45  F   UNL A   1      45.520  35.712  29.130  1.00  0.00    -0.205 F 
ATOM     46  C   UNL A   1      43.315  38.060  27.383  1.00  0.00     0.022 A 
BRANCH  44  47
ATOM     47  S   UNL A   1      45.993  38.449  27.782  1.00  0.00     0.127 S 
ATOM     48  O   UNL A   1      46.233  38.880  29.160  1.00  0.00    -0.237 OA
ATOM     49  O   UNL A   1      46.918  37.431  27.291  1.00  0.00    -0.237 OA
ATOM     50  O   UNL A   1      45.700  39.526  26.848  1.00  0.00    -0.744 OA
ENDBRANCH  44  47
ENDBRANCH  26  40
BRANCH  27  51
ATOM     51  C   UNL A   1      42.769  27.028  34.098  1.00  0.00     0.023 A 
ATOM     52  C   UNL A   1      41.569  26.680  34.744  1.00  0.00     0.012 A 
ATOM     53  C   UNL A   1      43.888  26.181  34.288  1.00  0.00     0.148 A 
ATOM     54  C   UNL A   1      41.475  25.510  35.511  1.00  0.00     0.002 A 
ATOM     55  C   UNL A   1      43.768  24.973  34.981  1.00  0.00     0.091 A 
ATOM     56  F   UNL A   1      45.086  26.621  33.881  1.00  0.00    -0.205 F 
ATOM     57  C   UNL A   1      42.559  24.640  35.600  1.00  0.00     0.022 A 
BRANCH  55  58
ATOM     58  S   UNL A   1      45.097  23.754  35.084  1.00  0.00     0.127 S 
ATOM     59  O   UNL A   1      45.943  24.312  36.137  1.00  0.00    -0.237 OA
ATOM     60  O   UNL A   1      44.380  22.536  35.462  1.00  0.00    -0.237 OA
ATOM     61  O   UNL A   1      45.699  23.716  33.758  1.00  0.00    -0.744 OA
ENDBRANCH  55  58
ENDBRANCH  27  51
BRANCH  39  62
ATOM     62  C   UNL A   1      43.759  28.566  27.445  1.00  0.00     0.023 A 
ATOM     63  C   UNL A   1      42.729  28.146  26.586  1.00  0.00     0.012 A 
ATOM     64  C   UNL A   1      45.098  28.238  27.168  1.00  0.00     0.148 A 
ATOM     65  C   UNL A   1      43.030  27.380  25.466  1.00  0.00     0.002 A 
ATOM     66  C   UNL A   1      45.395  27.536  26.013  1.00  0.00     0.091 A 
ATOM     67  F   UNL A   1      46.048  28.633  28.028  1.00  0.00    -0.205 F 
ATOM     68  C   UNL A   1      44.363  27.093  25.170  1.00  0.00     0.022 A 
BRANCH  66  69
ATOM     69  S   UNL A   1      47.083  27.241  25.486  1.00  0.00     0.127 S 
ATOM     70  O   UNL A   1      46.882  26.505  24.240  1.00  0.00    -0.237 OA
ATOM     71  O   UNL A   1      47.591  28.603  25.317  1.00  0.00    -0.237 OA
ATOM     72  O   UNL A   1      47.719  26.487  26.558  1.00  0.00    -0.744 OA
ENDBRANCH  66  69
ENDBRANCH  39  62
ENDBRANCH  13  14
ENDBRANCH   6   8
ENDBRANCH   5   6
ENDBRANCH   4   5
ENDBRANCH   3   4
ENDBRANCH   2   3
ENDBRANCH   1   2
BRANCH   1  73
ATOM     73  C   UNL A   1      37.260  32.064  39.023  1.00  0.00     0.188 C 
BRANCH  73  74
ATOM     74  O   UNL A   1      36.789  32.584  37.784  1.00  0.00    -0.376 OA
BRANCH  74  75
ATOM     75  C   UNL A   1      37.713  32.655  36.712  1.00  0.00     0.202 C 
BRANCH  75  76
ATOM     76  C   UNL A   1      37.363  33.505  35.485  1.00  0.00     0.261 C 
BRANCH  76  77
ATOM     77  O   UNL A   1      37.603  32.896  34.207  1.00  0.00    -0.461 OA
BRANCH  77  78
ATOM     78  C   UNL A   1      38.331  33.657  33.332  1.00  0.00     0.335 C 
ATOM     79  O   UNL A   1      38.513  34.857  33.460  1.00  0.00    -0.249 OA
BRANCH  78  80
ATOM     80  C   UNL A   1      38.853  32.851  32.128  1.00  0.00     0.232 C 
ATOM     81  C   UNL A   1      38.670  31.348  32.183  1.00  0.00     0.087 C 
ATOM     82  O   UNL A   1      38.269  33.337  30.923  1.00  0.00    -0.355 OA
ATOM     83  C   UNL A   1      37.636  31.034  31.111  1.00  0.00     0.124 C 
ATOM     84  C   UNL A   1      37.250  32.418  30.470  1.00  0.00     0.187 C 
BRANCH  83  85
ATOM     85  C   UNL A   1      38.224  29.966  30.151  1.00  0.00     0.005 A 
ATOM     86  C   UNL A   1      38.066  30.162  28.767  1.00  0.00     0.008 A 
ATOM     87  C   UNL A   1      38.882  28.780  30.502  1.00  0.00     0.047 A 
ATOM     88  C   UNL A   1      38.730  29.408  27.793  1.00  0.00     0.001 A 
ATOM     89  C   UNL A   1      39.514  27.988  29.523  1.00  0.00     0.021 A 
ATOM     90  Cl  UNL A   1      38.865  28.134  32.099  1.00  0.00    -0.084 Cl
ATOM     91  C   UNL A   1      39.508  28.341  28.180  1.00  0.00     0.002 A 
ENDBRANCH  83  85
BRANCH  83  92
ATOM     92  O   UNL A   1      36.497  30.456  31.766  1.00  0.00    -0.382 OA
ATOM     93  H   UNL A   1      35.740  30.456  31.158  1.00  0.00     0.212 HD
ENDBRANCH  83  92
BRANCH  84  94
ATOM     94  C   UNL A   1      35.938  33.185  30.691  1.00  0.00     0.003 A 
ATOM     95  C   UNL A   1      35.571  33.738  31.928  1.00  0.00     0.008 A 
ATOM     96  C   UNL A   1      35.101  33.502  29.595  1.00  0.00     0.046 A 
ATOM     97  C   UNL A   1      34.490  34.621  32.060  1.00  0.00     0.000 A 
ATOM     98  C   UNL A   1      34.005  34.369  29.733  1.00  0.00     0.021 A 
ATOM     99  Cl  UNL A   1      35.359  32.874  28.002  1.00  0.00    -0.084 Cl
ATOM    100  C   UNL A   1      33.715  34.951  30.960  1.00  0.00     0.002 A 
ENDBRANCH  84  94
ENDBRANCH  78  80
ENDBRANCH  77  78
ENDBRANCH  76  77
ENDBRANCH  75  76
ENDBRANCH  74  75
ENDBRANCH  73  74
ENDBRANCH   1  73
TORSDOF 23
ENDMDL
MODEL 2
REMARK VINA RESULT:      -7.9      1.401      2.154
REMARK SMILES O=C(OCCOCCOCCOC(=O)[C@H]1C[C@](O)(c2ccccc2Cl)[C@@H](c2ccccc2Cl)O1)c1ccc(-c2c3nc(c(-c4cccc(S(=O)(=O)[O-])c4F)c4ccc([nH]4)c(-c4cccc(S(=O)(=O)[O-])c4F)c4nc(c(-c5cccc(S(=O)(=O)[O-])c5F)c5ccc2[nH]5)C=C4)C=C3)cc1
REMARK SMILES IDX 7 1 6 2 5 3 4 4 3 5 2 6 1 7 35 8 36 9 97 10 37 11 96 12
REMARK SMILES IDX 38 13 39 14 40 15 90 16 41 17 95 18 89 19 91 20 42 21 94 22
REMARK SMILES IDX 88 23 87 24 43 26 75 27 55 28 74 29 56 30 59 31 73 32 92 33
REMARK SMILES IDX 57 34 58 35 72 37 93 38 60 39 44 40 45 41 53 42 46 43 48 44
REMARK SMILES IDX 54 45 47 46 49 47 50 48 51 49 52 50 76 51 77 52 85 53 78 54
REMARK SMILES IDX 80 55 86 56 79 57 81 58 82 59 83 60 84 61 61 62 62 63 70 64
REMARK SMILES IDX 63 65 65 66 71 67 64 68 66 69 67 70 68 71 69 72 8 73 9 74
REMARK SMILES IDX 10 75 11 76 12 77 13 78 14 79 15 80 16 81 34 82 17 83 26 84
REMARK SMILES IDX 19 85 20 86 24 87 21 88 23 89 25 90 22 91 18 92 27 94 28 95
REMARK SMILES IDX 32 96 29 97 31 98 33 99 30 100
REMARK H PARENT 91 25 59 36 18 93
REMARK Flexibility Score: inf
ROOT
ATOM      1  C   UNL A   1      43.157  34.167  40.615  1.00  0.00     0.188 C 
ENDROOT
BRANCH   1   2
ATOM      2  O   UNL A   1      43.069  35.330  41.455  1.00  0.00    -0.376 OA
BRANCH   2   3
ATOM      3  C   UNL A   1      41.877  36.101  41.231  1.00  0.00     0.202 C 
BRANCH   3   4
ATOM      4  C   UNL A   1      42.033  37.433  40.470  1.00  0.00     0.261 C 
BRANCH   4   5
ATOM      5  O   UNL A   1      42.096  37.295  39.048  1.00  0.00    -0.460 OA
BRANCH   5   6
ATOM      6  C   UNL A   1      41.161  36.799  38.204  1.00  0.00     0.338 C 
ATOM      7  O   UNL A   1      39.984  37.066  38.445  1.00  0.00    -0.246 OA
BRANCH   6   8
ATOM      8  C   UNL A   1      41.464  35.933  37.016  1.00  0.00     0.060 A 
ATOM      9  C   UNL A   1      40.556  35.481  36.047  1.00  0.00     0.016 A 
ATOM     10  C   UNL A   1      42.805  35.582  36.846  1.00  0.00     0.016 A 
ATOM     11  C   UNL A   1      40.937  34.693  34.957  1.00  0.00     0.010 A 
ATOM     12  C   UNL A   1      43.197  34.810  35.749  1.00  0.00     0.010 A 
ATOM     13  C   UNL A   1      42.266  34.366  34.778  1.00  0.00    -0.014 A 
BRANCH  13  14
ATOM     14  C   UNL A   1      42.742  33.484  33.679  1.00  0.00     0.031 A 
ATOM     15  C   UNL A   1      42.719  34.107  32.324  1.00  0.00     0.074 A 
ATOM     16  C   UNL A   1      43.125  32.191  33.832  1.00  0.00     0.049 A 
ATOM     17  N   UNL A   1      42.886  33.539  31.171  1.00  0.00    -0.248 NA
ATOM     18  C   UNL A   1      42.559  35.577  32.260  1.00  0.00     0.031 C 
ATOM     19  C   UNL A   1      43.538  31.536  35.067  1.00  0.00     0.029 A 
ATOM     20  N   UNL A   1      43.122  31.140  32.936  1.00  0.00    -0.354 N 
ATOM     21  C   UNL A   1      42.931  34.578  30.262  1.00  0.00     0.074 A 
ATOM     22  C   UNL A   1      42.635  35.803  30.960  1.00  0.00     0.031 C 
ATOM     23  C   UNL A   1      43.493  30.198  34.925  1.00  0.00     0.029 A 
ATOM     24  C   UNL A   1      43.114  29.895  33.561  1.00  0.00     0.049 A 
ATOM     25  H   UNL A   1      43.123  31.258  31.959  1.00  0.00     0.167 HD
ATOM     26  C   UNL A   1      43.298  34.499  28.969  1.00  0.00     0.034 A 
ATOM     27  C   UNL A   1      42.816  28.670  33.068  1.00  0.00     0.034 A 
ATOM     28  C   UNL A   1      43.586  33.247  28.340  1.00  0.00     0.049 A 
ATOM     29  C   UNL A   1      42.837  28.598  31.573  1.00  0.00     0.074 A 
ATOM     30  C   UNL A   1      44.024  33.004  27.057  1.00  0.00     0.029 A 
ATOM     31  N   UNL A   1      43.421  32.012  28.960  1.00  0.00    -0.354 N 
ATOM     32  N   UNL A   1      42.943  29.587  30.718  1.00  0.00    -0.248 NA
ATOM     33  C   UNL A   1      42.899  27.260  30.981  1.00  0.00     0.031 C 
ATOM     34  C   UNL A   1      44.052  31.619  26.878  1.00  0.00     0.029 A 
ATOM     35  C   UNL A   1      43.680  30.998  28.064  1.00  0.00     0.049 A 
ATOM     36  H   UNL A   1      43.157  31.882  29.899  1.00  0.00     0.167 HD
ATOM     37  C   UNL A   1      43.230  28.997  29.505  1.00  0.00     0.074 A 
ATOM     38  C   UNL A   1      43.186  27.560  29.722  1.00  0.00     0.031 C 
ATOM     39  C   UNL A   1      43.580  29.586  28.337  1.00  0.00     0.034 A 
BRANCH  26  40
ATOM     40  C   UNL A   1      43.407  35.786  28.215  1.00  0.00     0.023 A 
ATOM     41  C   UNL A   1      42.261  36.369  27.633  1.00  0.00     0.012 A 
ATOM     42  C   UNL A   1      44.658  36.400  28.055  1.00  0.00     0.148 A 
ATOM     43  C   UNL A   1      42.368  37.537  26.879  1.00  0.00     0.002 A 
ATOM     44  C   UNL A   1      44.752  37.583  27.337  1.00  0.00     0.091 A 
ATOM     45  F   UNL A   1      45.733  35.799  28.584  1.00  0.00    -0.205 F 
ATOM     46  C   UNL A   1      43.612  38.148  26.739  1.00  0.00     0.022 A 
BRANCH  44  47
ATOM     47  S   UNL A   1      46.300  38.462  27.129  1.00  0.00     0.127 S 
ATOM     48  O   UNL A   1      47.015  37.586  26.200  1.00  0.00    -0.237 OA
ATOM     49  O   UNL A   1      45.850  39.727  26.554  1.00  0.00    -0.237 OA
ATOM     50  O   UNL A   1      46.893  38.558  28.455  1.00  0.00    -0.744 OA
ENDBRANCH  44  47
ENDBRANCH  26  40
BRANCH  27  51
ATOM     51  C   UNL A   1      42.653  27.419  33.885  1.00  0.00     0.023 A 
ATOM     52  C   UNL A   1      41.449  27.153  34.562  1.00  0.00     0.012 A 
ATOM     53  C   UNL A   1      43.734  26.526  34.088  1.00  0.00     0.148 A 
ATOM     54  C   UNL A   1      41.313  26.016  35.372  1.00  0.00     0.002 A 
ATOM     55  C   UNL A   1      43.568  25.350  34.825  1.00  0.00     0.091 A 
ATOM     56  F   UNL A   1      44.943  26.892  33.646  1.00  0.00    -0.205 F 
ATOM     57  C   UNL A   1      42.356  25.098  35.475  1.00  0.00     0.022 A 
BRANCH  55  58
ATOM     58  S   UNL A   1      44.839  24.073  34.951  1.00  0.00     0.127 S 
ATOM     59  O   UNL A   1      44.086  22.942  35.488  1.00  0.00    -0.237 OA
ATOM     60  O   UNL A   1      45.265  23.914  33.561  1.00  0.00    -0.237 OA
ATOM     61  O   UNL A   1      45.858  24.619  35.838  1.00  0.00    -0.744 OA
ENDBRANCH  55  58
ENDBRANCH  27  51
BRANCH  39  62
ATOM     62  C   UNL A   1      43.941  28.661  27.221  1.00  0.00     0.023 A 
ATOM     63  C   UNL A   1      42.924  28.075  26.447  1.00  0.00     0.012 A 
ATOM     64  C   UNL A   1      45.293  28.446  26.903  1.00  0.00     0.148 A 
ATOM     65  C   UNL A   1      43.255  27.258  25.373  1.00  0.00     0.002 A 
ATOM     66  C   UNL A   1      45.612  27.690  25.789  1.00  0.00     0.091 A 
ATOM     67  F   UNL A   1      46.233  28.999  27.683  1.00  0.00    -0.205 F 
ATOM     68  C   UNL A   1      44.596  27.082  25.033  1.00  0.00     0.022 A 
BRANCH  66  69
ATOM     69  S   UNL A   1      47.298  27.522  25.201  1.00  0.00     0.127 S 
ATOM     70  O   UNL A   1      47.917  28.741  25.719  1.00  0.00    -0.237 OA
ATOM     71  O   UNL A   1      47.728  26.289  25.860  1.00  0.00    -0.237 OA
ATOM     72  O   UNL A   1      47.216  27.435  23.750  1.00  0.00    -0.744 OA
ENDBRANCH  66  69
ENDBRANCH  39  62
ENDBRANCH  13  14
ENDBRANCH   6   8
ENDBRANCH   5   6
ENDBRANCH   4   5
ENDBRANCH   3   4
ENDBRANCH   2   3
ENDBRANCH   1   2
BRANCH   1  73
ATOM     73  C   UNL A   1      41.845  33.396  40.436  1.00  0.00     0.188 C 
BRANCH  73  74
ATOM     74  O   UNL A   1      41.265  33.383  39.136  1.00  0.00    -0.376 OA
BRANCH  74  75
ATOM     75  C   UNL A   1      39.927  32.932  39.023  1.00  0.00     0.202 C 
BRANCH  75  76
ATOM     76  C   UNL A   1      39.348  32.670  37.627  1.00  0.00     0.261 C 
BRANCH  76  77
ATOM     77  O   UNL A   1      39.914  31.564  36.907  1.00  0.00    -0.461 OA
BRANCH  77  78
ATOM     78  C   UNL A   1      39.053  30.926  36.056  1.00  0.00     0.335 C 
ATOM     79  O   UNL A   1      37.961  30.495  36.388  1.00  0.00    -0.249 OA
BRANCH  78  80
ATOM     80  C   UNL A   1      39.630  30.753  34.639  1.00  0.00     0.232 C 
ATOM     81  C   UNL A   1      39.223  29.504  33.885  1.00  0.00     0.087 C 
ATOM     82  O   UNL A   1      39.315  31.890  33.839  1.00  0.00    -0.355 OA
ATOM     83  C   UNL A   1      38.331  29.995  32.753  1.00  0.00     0.124 C 
ATOM     84  C   UNL A   1      38.255  31.558  32.916  1.00  0.00     0.187 C 
BRANCH  83  85
ATOM     85  C   UNL A   1      38.896  29.466  31.409  1.00  0.00     0.005 A 
ATOM     86  C   UNL A   1      38.990  28.073  31.233  1.00  0.00     0.008 A 
ATOM     87  C   UNL A   1      39.369  30.225  30.329  1.00  0.00     0.047 A 
ATOM     88  C   UNL A   1      39.266  27.460  30.005  1.00  0.00     0.001 A 
ATOM     89  C   UNL A   1      39.695  29.612  29.104  1.00  0.00     0.021 A 
ATOM     90  Cl  UNL A   1      39.710  31.909  30.444  1.00  0.00    -0.084 Cl
ATOM     91  C   UNL A   1      39.568  28.241  28.914  1.00  0.00     0.002 A 
ENDBRANCH  83  85
BRANCH  83  92
ATOM     92  O   UNL A   1      37.032  29.413  32.942  1.00  0.00    -0.382 OA
ATOM     93  H   UNL A   1      36.504  29.984  33.523  1.00  0.00     0.212 HD
ENDBRANCH  83  92
BRANCH  84  94
ATOM     94  C   UNL A   1      37.050  32.358  33.436  1.00  0.00     0.003 A 
ATOM     95  C   UNL A   1      37.046  33.023  34.672  1.00  0.00     0.008 A 
ATOM     96  C   UNL A   1      35.929  32.585  32.604  1.00  0.00     0.046 A 
ATOM     97  C   UNL A   1      36.036  33.927  35.031  1.00  0.00     0.000 A 
ATOM     98  C   UNL A   1      34.906  33.473  32.974  1.00  0.00     0.021 A 
ATOM     99  Cl  UNL A   1      35.726  31.813  31.067  1.00  0.00    -0.084 Cl
ATOM    100  C   UNL A   1      34.973  34.166  34.175  1.00  0.00     0.002 A 
ENDBRANCH  84  94
ENDBRANCH  78  80
ENDBRANCH  77  78
ENDBRANCH  76  77
ENDBRANCH  75  76
ENDBRANCH  74  75
ENDBRANCH  73  74
ENDBRANCH   1  73
TORSDOF 23
ENDMDL
MODEL 3
REMARK VINA RESULT:      -7.7      5.658     11.252
REMARK SMILES O=C(OCCOCCOCCOC(=O)[C@H]1C[C@](O)(c2ccccc2Cl)[C@@H](c2ccccc2Cl)O1)c1ccc(-c2c3nc(c(-c4cccc(S(=O)(=O)[O-])c4F)c4ccc([nH]4)c(-c4cccc(S(=O)(=O)[O-])c4F)c4nc(c(-c5cccc(S(=O)(=O)[O-])c5F)c5ccc2[nH]5)C=C4)C=C3)cc1
REMARK SMILES IDX 7 1 6 2 5 3 4 4 3 5 2 6 1 7 35 8 36 9 97 10 37 11 96 12
REMARK SMILES IDX 38 13 39 14 40 15 90 16 41 17 95 18 89 19 91 20 42 21 94 22
REMARK SMILES IDX 88 23 87 24 43 26 75 27 55 28 74 29 56 30 59 31 73 32 92 33
REMARK SMILES IDX 57 34 58 35 72 37 93 38 60 39 44 40 45 41 53 42 46 43 48 44
REMARK SMILES IDX 54 45 47 46 49 47 50 48 51 49 52 50 76 51 77 52 85 53 78 54
REMARK SMILES IDX 80 55 86 56 79 57 81 58 82 59 83 60 84 61 61 62 62 63 70 64
REMARK SMILES IDX 63 65 65 66 71 67 64 68 66 69 67 70 68 71 69 72 8 73 9 74
REMARK SMILES IDX 10 75 11 76 12 77 13 78 14 79 15 80 16 81 34 82 17 83 26 84
REMARK SMILES IDX 19 85 20 86 24 87 21 88 23 89 25 90 22 91 18 92 27 94 28 95
REMARK SMILES IDX 32 96 29 97 31 98 33 99 30 100
REMARK H PARENT 91 25 59 36 18 93
REMARK Flexibility Score: inf
ROOT
ATOM      1  C   UNL A   1      33.956  32.056  27.962  1.00  0.00     0.188 C 
ENDROOT
BRANCH   1   2
ATOM      2  O   UNL A   1      35.215  32.346  28.593  1.00  0.00    -0.376 OA
BRANCH   2   3
ATOM      3  C   UNL A   1      35.175  32.213  30.023  1.00  0.00     0.202 C 
BRANCH   3   4
ATOM      4  C   UNL A   1      35.452  33.482  30.854  1.00  0.00     0.261 C 
BRANCH   4   5
ATOM      5  O   UNL A   1      36.554  33.364  31.759  1.00  0.00    -0.460 OA
BRANCH   5   6
ATOM      6  C   UNL A   1      37.475  34.297  32.096  1.00  0.00     0.338 C 
ATOM      7  O   UNL A   1      37.171  35.096  32.982  1.00  0.00    -0.246 OA
BRANCH   6   8
ATOM      8  C   UNL A   1      38.822  34.432  31.449  1.00  0.00     0.060 A 
ATOM      9  C   UNL A   1      40.070  34.420  32.088  1.00  0.00     0.016 A 
ATOM     10  C   UNL A   1      38.820  34.537  30.056  1.00  0.00     0.016 A 
ATOM     11  C   UNL A   1      41.280  34.529  31.396  1.00  0.00     0.010 A 
ATOM     12  C   UNL A   1      40.026  34.627  29.356  1.00  0.00     0.010 A 
ATOM     13  C   UNL A   1      41.278  34.611  30.019  1.00  0.00    -0.014 A 
BRANCH  13  14
ATOM     14  C   UNL A   1      42.516  34.789  29.214  1.00  0.00     0.031 A 
ATOM     15  C   UNL A   1      43.420  33.601  29.188  1.00  0.00     0.074 A 
ATOM     16  C   UNL A   1      42.874  35.935  28.582  1.00  0.00     0.049 A 
ATOM     17  N   UNL A   1      44.635  33.520  28.745  1.00  0.00    -0.248 NA
ATOM     18  C   UNL A   1      42.857  32.315  29.656  1.00  0.00     0.031 C 
ATOM     19  C   UNL A   1      42.002  37.042  28.209  1.00  0.00     0.029 A 
ATOM     20  N   UNL A   1      44.119  36.418  28.233  1.00  0.00    -0.354 N 
ATOM     21  C   UNL A   1      44.950  32.176  28.805  1.00  0.00     0.074 A 
ATOM     22  C   UNL A   1      43.866  31.486  29.454  1.00  0.00     0.031 C 
ATOM     23  C   UNL A   1      42.731  38.141  27.940  1.00  0.00     0.029 A 
ATOM     24  C   UNL A   1      44.134  37.800  28.053  1.00  0.00     0.049 A 
ATOM     25  H   UNL A   1      44.914  35.848  28.124  1.00  0.00     0.167 HD
ATOM     26  C   UNL A   1      46.024  31.579  28.256  1.00  0.00     0.034 A 
ATOM     27  C   UNL A   1      45.173  38.666  28.006  1.00  0.00     0.034 A 
ATOM     28  C   UNL A   1      47.063  32.328  27.618  1.00  0.00     0.049 A 
ATOM     29  C   UNL A   1      46.496  38.010  27.765  1.00  0.00     0.074 A 
ATOM     30  C   UNL A   1      48.185  31.867  26.965  1.00  0.00     0.029 A 
ATOM     31  N   UNL A   1      47.112  33.718  27.591  1.00  0.00    -0.354 N 
ATOM     32  N   UNL A   1      46.774  36.727  27.762  1.00  0.00    -0.248 NA
ATOM     33  C   UNL A   1      47.592  38.880  27.331  1.00  0.00     0.031 C 
ATOM     34  C   UNL A   1      48.951  32.981  26.611  1.00  0.00     0.029 A 
ATOM     35  C   UNL A   1      48.282  34.136  26.996  1.00  0.00     0.049 A 
ATOM     36  H   UNL A   1      46.414  34.315  27.946  1.00  0.00     0.167 HD
ATOM     37  C   UNL A   1      48.024  36.621  27.190  1.00  0.00     0.074 A 
ATOM     38  C   UNL A   1      48.485  37.979  26.948  1.00  0.00     0.031 C 
ATOM     39  C   UNL A   1      48.697  35.506  26.821  1.00  0.00     0.034 A 
BRANCH  26  40
ATOM     40  C   UNL A   1      46.081  30.086  28.329  1.00  0.00     0.023 A 
ATOM     41  C   UNL A   1      46.728  29.451  29.411  1.00  0.00     0.012 A 
ATOM     42  C   UNL A   1      45.519  29.313  27.303  1.00  0.00     0.148 A 
ATOM     43  C   UNL A   1      46.835  28.061  29.453  1.00  0.00     0.002 A 
ATOM     44  C   UNL A   1      45.594  27.929  27.370  1.00  0.00     0.091 A 
ATOM     45  F   UNL A   1      44.949  29.947  26.269  1.00  0.00    -0.205 F 
ATOM     46  C   UNL A   1      46.261  27.301  28.437  1.00  0.00     0.022 A 
BRANCH  44  47
ATOM     47  S   UNL A   1      44.857  26.865  26.131  1.00  0.00     0.127 S 
ATOM     48  O   UNL A   1      45.663  27.182  24.951  1.00  0.00    -0.237 OA
ATOM     49  O   UNL A   1      45.096  25.539  26.696  1.00  0.00    -0.237 OA
ATOM     50  O   UNL A   1      43.459  27.258  26.038  1.00  0.00    -0.744 OA
ENDBRANCH  44  47
ENDBRANCH  26  40
BRANCH  27  51
ATOM     51  C   UNL A   1      45.058  40.164  28.001  1.00  0.00     0.023 A 
ATOM     52  C   UNL A   1      45.041  40.889  29.206  1.00  0.00     0.012 A 
ATOM     53  C   UNL A   1      44.855  40.884  26.797  1.00  0.00     0.148 A 
ATOM     54  C   UNL A   1      44.875  42.282  29.208  1.00  0.00     0.002 A 
ATOM     55  C   UNL A   1      44.777  42.279  26.797  1.00  0.00     0.091 A 
ATOM     56  F   UNL A   1      44.633  40.184  25.677  1.00  0.00    -0.205 F 
ATOM     57  C   UNL A   1      44.780  42.980  28.006  1.00  0.00     0.022 A 
BRANCH  55  58
ATOM     58  S   UNL A   1      44.725  43.267  25.285  1.00  0.00     0.127 S 
ATOM     59  O   UNL A   1      44.972  44.615  25.791  1.00  0.00    -0.237 OA
ATOM     60  O   UNL A   1      45.823  42.702  24.501  1.00  0.00    -0.237 OA
ATOM     61  O   UNL A   1      43.401  43.048  24.718  1.00  0.00    -0.744 OA
ENDBRANCH  55  58
ENDBRANCH  27  51
BRANCH  39  62
ATOM     62  C   UNL A   1      49.995  35.727  26.117  1.00  0.00     0.023 A 
ATOM     63  C   UNL A   1      50.004  35.966  24.732  1.00  0.00     0.012 A 
ATOM     64  C   UNL A   1      51.190  35.775  26.857  1.00  0.00     0.148 A 
ATOM     65  C   UNL A   1      51.203  36.227  24.082  1.00  0.00     0.002 A 
ATOM     66  C   UNL A   1      52.369  36.107  26.213  1.00  0.00     0.091 A 
ATOM     67  F   UNL A   1      51.144  35.514  28.171  1.00  0.00    -0.205 F 
ATOM     68  C   UNL A   1      52.380  36.318  24.824  1.00  0.00     0.022 A 
BRANCH  66  69
ATOM     69  S   UNL A   1      53.899  36.376  27.107  1.00  0.00     0.127 S 
ATOM     70  O   UNL A   1      54.136  35.061  27.697  1.00  0.00    -0.237 OA
ATOM     71  O   UNL A   1      54.820  36.739  26.029  1.00  0.00    -0.237 OA
ATOM     72  O   UNL A   1      53.632  37.447  28.059  1.00  0.00    -0.744 OA
ENDBRANCH  66  69
ENDBRANCH  39  62
ENDBRANCH  13  14
ENDBRANCH   6   8
ENDBRANCH   5   6
ENDBRANCH   4   5
ENDBRANCH   3   4
ENDBRANCH   2   3
ENDBRANCH   1   2
BRANCH   1  73
ATOM     73  C   UNL A   1      33.863  30.673  27.310  1.00  0.00     0.188 C 
BRANCH  73  74
ATOM     74  O   UNL A   1      32.641  29.957  27.465  1.00  0.00    -0.376 OA
BRANCH  74  75
ATOM     75  C   UNL A   1      32.704  28.542  27.424  1.00  0.00     0.202 C 
BRANCH  75  76
ATOM     76  C   UNL A   1      31.396  27.742  27.389  1.00  0.00     0.261 C 
BRANCH  76  77
ATOM     77  O   UNL A   1      31.202  26.901  26.241  1.00  0.00    -0.461 OA
BRANCH  77  78
ATOM     78  C   UNL A   1      31.204  25.557  26.502  1.00  0.00     0.335 C 
ATOM     79  O   UNL A   1      30.212  24.924  26.823  1.00  0.00    -0.249 OA
BRANCH  78  80
ATOM     80  C   UNL A   1      32.607  24.930  26.405  1.00  0.00     0.232 C 
ATOM     81  C   UNL A   1      32.689  23.525  25.847  1.00  0.00     0.087 C 
ATOM     82  O   UNL A   1      33.469  25.773  25.644  1.00  0.00    -0.355 OA
ATOM     83  C   UNL A   1      33.377  23.672  24.497  1.00  0.00     0.124 C 
ATOM     84  C   UNL A   1      33.664  25.209  24.328  1.00  0.00     0.187 C 
BRANCH  83  85
ATOM     85  C   UNL A   1      34.609  22.730  24.462  1.00  0.00     0.005 A 
ATOM     86  C   UNL A   1      35.822  23.245  23.968  1.00  0.00     0.008 A 
ATOM     87  C   UNL A   1      34.658  21.381  24.840  1.00  0.00     0.047 A 
ATOM     88  C   UNL A   1      37.052  22.588  24.085  1.00  0.00     0.001 A 
ATOM     89  C   UNL A   1      35.887  20.697  24.916  1.00  0.00     0.021 A 
ATOM     90  Cl  UNL A   1      33.248  20.430  25.112  1.00  0.00    -0.084 Cl
ATOM     91  C   UNL A   1      37.092  21.320  24.616  1.00  0.00     0.002 A 
ENDBRANCH  83  85
BRANCH  83  92
ATOM     92  O   UNL A   1      32.455  23.226  23.491  1.00  0.00    -0.382 OA
ATOM     93  H   UNL A   1      32.314  22.270  23.583  1.00  0.00     0.212 HD
ENDBRANCH  83  92
BRANCH  84  94
ATOM     94  C   UNL A   1      32.912  26.175  23.400  1.00  0.00     0.003 A 
ATOM     95  C   UNL A   1      31.850  25.776  22.573  1.00  0.00     0.008 A 
ATOM     96  C   UNL A   1      33.168  27.566  23.456  1.00  0.00     0.046 A 
ATOM     97  C   UNL A   1      31.033  26.701  21.907  1.00  0.00     0.000 A 
ATOM     98  C   UNL A   1      32.363  28.490  22.770  1.00  0.00     0.021 A 
ATOM     99  Cl  UNL A   1      34.466  28.247  24.376  1.00  0.00    -0.084 Cl
ATOM    100  C   UNL A   1      31.278  28.060  22.018  1.00  0.00     0.002 A 
ENDBRANCH  84  94
ENDBRANCH  78  80
ENDBRANCH  77  78
ENDBRANCH  76  77
ENDBRANCH  75  76
ENDBRANCH  74  75
ENDBRANCH  73  74
ENDBRANCH   1  73
TORSDOF 23
ENDMDL
