MODEL 1
REMARK VINA RESULT:      -9.7      0.000      0.000
REMARK SMILES C[C@@H]1CN(C(=O)NC[C@@H]2CC[C@H](C(=O)OCCOCCOCCOC(=O)c3ccc(-c4c5nc(c(-c6cccc(S(=O)(=O)[O-])c6F)c6ccc([nH]6)c(-c6cccc(S(=O)(=O)[O-])c6F)c6nc(c(-c7cccc(S(=O)(=O)[O-])c7F)c7ccc4[nH]7)C=C6)C=C5)cc3)O2)CC(C)(C)O1
REMARK SMILES IDX 19 1 18 2 17 3 16 4 15 5 13 6 14 7 12 8 9 9 10 10 90 11
REMARK SMILES IDX 11 12 8 13 7 14 5 15 6 16 4 18 1 19 2 20 3 21 95 22 92 23
REMARK SMILES IDX 91 24 93 25 94 26 20 27 21 28 22 29 23 30 24 31 25 32 26 33
REMARK SMILES IDX 27 34 28 35 89 36 29 37 88 38 30 39 31 40 32 41 82 42 33 43
REMARK SMILES IDX 87 44 81 45 83 46 34 47 86 48 80 49 79 50 35 52 67 53 47 54
REMARK SMILES IDX 66 55 48 56 51 57 65 58 84 59 49 60 50 61 64 63 85 64 52 65
REMARK SMILES IDX 36 66 37 67 45 68 38 69 40 70 46 71 39 72 41 73 42 74 43 75
REMARK SMILES IDX 44 76 68 77 69 78 77 79 70 80 72 81 78 82 71 83 73 84 74 85
REMARK SMILES IDX 75 86 76 87 53 88 54 89 62 90 55 91 57 92 63 93 56 94 58 95
REMARK SMILES IDX 59 96 60 97 61 98
REMARK H PARENT 7 17 83 51 51 62
REMARK Flexibility Score: inf
ROOT
ATOM      1  C   UNL A   1      34.796  34.062  28.532  1.00  0.00     0.188 C 
ENDROOT
BRANCH   1   2
ATOM      2  O   UNL A   1      35.711  33.453  27.631  1.00  0.00    -0.376 OA
BRANCH   2   3
ATOM      3  C   UNL A   1      36.223  32.173  28.004  1.00  0.00     0.202 C 
BRANCH   3   4
ATOM      4  C   UNL A   1      35.208  31.049  28.274  1.00  0.00     0.261 C 
BRANCH   4   5
ATOM      5  O   UNL A   1      34.182  30.897  27.257  1.00  0.00    -0.461 OA
BRANCH   5   6
ATOM      6  C   UNL A   1      33.607  29.664  27.169  1.00  0.00     0.335 C 
ATOM      7  O   UNL A   1      34.211  28.607  27.336  1.00  0.00    -0.249 OA
BRANCH   6   8
ATOM      8  C   UNL A   1      32.100  29.685  26.854  1.00  0.00     0.228 C 
ATOM      9  C   UNL A   1      31.263  27.676  26.019  1.00  0.00     0.138 C 
ATOM     10  C   UNL A   1      31.509  28.589  24.829  1.00  0.00     0.037 C 
ATOM     11  O   UNL A   1      31.497  28.431  27.216  1.00  0.00    -0.361 OA
ATOM     12  C   UNL A   1      31.617  29.956  25.443  1.00  0.00     0.047 C 
BRANCH   9  13
ATOM     13  C   UNL A   1      32.129  26.411  25.962  1.00  0.00     0.149 C 
BRANCH  13  14
ATOM     14  N   UNL A   1      31.606  25.294  26.735  1.00  0.00    -0.335 N 
ATOM     15  C   UNL A   1      31.481  23.965  26.572  1.00  0.00     0.317 C 
ATOM     16  O   UNL A   1      31.117  23.360  27.587  1.00  0.00    -0.249 OA
ATOM     17  H   UNL A   1      31.251  25.587  27.604  1.00  0.00     0.165 HD
BRANCH  15  18
ATOM     18  N   UNL A   1      31.771  23.309  25.421  1.00  0.00    -0.319 N 
ATOM     19  C   UNL A   1      34.742  24.138  24.991  1.00  0.00     0.040 C 
ATOM     20  C   UNL A   1      33.797  23.365  24.072  1.00  0.00     0.135 C 
ATOM     21  C   UNL A   1      32.322  23.796  24.167  1.00  0.00     0.153 C 
ATOM     22  O   UNL A   1      33.959  21.943  24.249  1.00  0.00    -0.369 OA
ATOM     23  C   UNL A   1      33.214  21.316  25.323  1.00  0.00     0.081 C 
ATOM     24  C   UNL A   1      31.762  21.845  25.436  1.00  0.00     0.156 C 
ATOM     25  C   UNL A   1      33.958  21.452  26.659  1.00  0.00     0.044 C 
ATOM     26  C   UNL A   1      33.183  19.828  24.949  1.00  0.00     0.044 C 
ENDBRANCH  15  18
ENDBRANCH  13  14
ENDBRANCH   9  13
ENDBRANCH   6   8
ENDBRANCH   5   6
ENDBRANCH   4   5
ENDBRANCH   3   4
ENDBRANCH   2   3
ENDBRANCH   1   2
BRANCH   1  27
ATOM     27  C   UNL A   1      33.362  34.198  28.013  1.00  0.00     0.188 C 
BRANCH  27  28
ATOM     28  O   UNL A   1      32.499  34.897  28.890  1.00  0.00    -0.376 OA
BRANCH  28  29
ATOM     29  C   UNL A   1      32.907  36.114  29.504  1.00  0.00     0.202 C 
BRANCH  29  30
ATOM     30  C   UNL A   1      32.683  36.373  31.011  1.00  0.00     0.261 C 
BRANCH  30  31
ATOM     31  O   UNL A   1      33.356  35.506  31.940  1.00  0.00    -0.460 OA
BRANCH  31  32
ATOM     32  C   UNL A   1      33.973  36.074  33.002  1.00  0.00     0.338 C 
ATOM     33  O   UNL A   1      33.533  36.975  33.696  1.00  0.00    -0.246 OA
BRANCH  32  34
ATOM     34  C   UNL A   1      35.136  35.215  33.363  1.00  0.00     0.060 A 
ATOM     35  C   UNL A   1      36.292  35.311  32.573  1.00  0.00     0.016 A 
ATOM     36  C   UNL A   1      35.149  34.422  34.517  1.00  0.00     0.016 A 
ATOM     37  C   UNL A   1      37.441  34.586  32.907  1.00  0.00     0.010 A 
ATOM     38  C   UNL A   1      36.295  33.685  34.842  1.00  0.00     0.010 A 
ATOM     39  C   UNL A   1      37.435  33.735  34.020  1.00  0.00    -0.014 A 
BRANCH  39  40
ATOM     40  C   UNL A   1      38.525  32.740  34.200  1.00  0.00     0.031 A 
ATOM     41  C   UNL A   1      39.457  32.919  35.370  1.00  0.00     0.074 A 
ATOM     42  C   UNL A   1      38.702  31.704  33.359  1.00  0.00     0.049 A 
ATOM     43  N   UNL A   1      40.501  32.215  35.720  1.00  0.00    -0.248 NA
ATOM     44  C   UNL A   1      39.168  34.052  36.267  1.00  0.00     0.031 C 
ATOM     45  C   UNL A   1      37.875  31.403  32.194  1.00  0.00     0.029 A 
ATOM     46  N   UNL A   1      39.666  30.723  33.349  1.00  0.00    -0.354 N 
ATOM     47  C   UNL A   1      41.012  32.835  36.854  1.00  0.00     0.074 A 
ATOM     48  C   UNL A   1      40.171  33.978  37.129  1.00  0.00     0.031 C 
ATOM     49  C   UNL A   1      38.384  30.329  31.564  1.00  0.00     0.029 A 
ATOM     50  C   UNL A   1      39.588  29.881  32.264  1.00  0.00     0.049 A 
ATOM     51  H   UNL A   1      40.349  30.632  34.053  1.00  0.00     0.167 HD
ATOM     52  C   UNL A   1      42.076  32.481  37.611  1.00  0.00     0.034 A 
ATOM     53  C   UNL A   1      40.407  28.883  31.871  1.00  0.00     0.034 A 
ATOM     54  C   UNL A   1      42.910  31.340  37.353  1.00  0.00     0.049 A 
ATOM     55  C   UNL A   1      41.610  28.528  32.712  1.00  0.00     0.074 A 
ATOM     56  C   UNL A   1      43.985  30.877  38.091  1.00  0.00     0.029 A 
ATOM     57  N   UNL A   1      42.777  30.492  36.265  1.00  0.00    -0.354 N 
ATOM     58  N   UNL A   1      42.009  29.049  33.846  1.00  0.00    -0.248 NA
ATOM     59  C   UNL A   1      42.458  27.425  32.232  1.00  0.00     0.031 C 
ATOM     60  C   UNL A   1      44.524  29.769  37.430  1.00  0.00     0.029 A 
ATOM     61  C   UNL A   1      43.760  29.518  36.303  1.00  0.00     0.049 A 
ATOM     62  H   UNL A   1      42.086  30.571  35.568  1.00  0.00     0.167 HD
ATOM     63  C   UNL A   1      43.129  28.316  34.234  1.00  0.00     0.074 A 
ATOM     64  C   UNL A   1      43.332  27.300  33.222  1.00  0.00     0.031 C 
ATOM     65  C   UNL A   1      43.923  28.476  35.321  1.00  0.00     0.034 A 
BRANCH  52  66
ATOM     66  C   UNL A   1      42.391  33.336  38.809  1.00  0.00     0.023 A 
ATOM     67  C   UNL A   1      41.855  32.999  40.070  1.00  0.00     0.012 A 
ATOM     68  C   UNL A   1      43.252  34.444  38.696  1.00  0.00     0.148 A 
ATOM     69  C   UNL A   1      42.145  33.772  41.192  1.00  0.00     0.002 A 
ATOM     70  C   UNL A   1      43.574  35.182  39.828  1.00  0.00     0.091 A 
ATOM     71  F   UNL A   1      43.729  34.762  37.485  1.00  0.00    -0.205 F 
ATOM     72  C   UNL A   1      43.013  34.855  41.074  1.00  0.00     0.022 A 
BRANCH  70  73
ATOM     73  S   UNL A   1      44.742  36.546  39.795  1.00  0.00     0.127 S 
ATOM     74  O   UNL A   1      45.900  35.927  39.153  1.00  0.00    -0.237 OA
ATOM     75  O   UNL A   1      44.039  37.530  38.971  1.00  0.00    -0.237 OA
ATOM     76  O   UNL A   1      44.934  36.943  41.183  1.00  0.00    -0.744 OA
ENDBRANCH  70  73
ENDBRANCH  52  66
BRANCH  53  77
ATOM     77  C   UNL A   1      40.113  28.119  30.623  1.00  0.00     0.023 A 
ATOM     78  C   UNL A   1      39.133  27.106  30.638  1.00  0.00     0.012 A 
ATOM     79  C   UNL A   1      40.807  28.381  29.426  1.00  0.00     0.148 A 
ATOM     80  C   UNL A   1      38.874  26.347  29.494  1.00  0.00     0.002 A 
ATOM     81  C   UNL A   1      40.506  27.661  28.276  1.00  0.00     0.091 A 
ATOM     82  F   UNL A   1      41.751  29.334  29.438  1.00  0.00    -0.205 F 
ATOM     83  C   UNL A   1      39.552  26.632  28.312  1.00  0.00     0.022 A 
BRANCH  81  84
ATOM     84  S   UNL A   1      41.246  28.032  26.683  1.00  0.00     0.127 S 
ATOM     85  O   UNL A   1      41.029  26.784  25.954  1.00  0.00    -0.237 OA
ATOM     86  O   UNL A   1      40.431  29.160  26.229  1.00  0.00    -0.237 OA
ATOM     87  O   UNL A   1      42.636  28.366  26.962  1.00  0.00    -0.744 OA
ENDBRANCH  81  84
ENDBRANCH  53  77
BRANCH  65  88
ATOM     88  C   UNL A   1      45.064  27.508  35.515  1.00  0.00     0.023 A 
ATOM     89  C   UNL A   1      46.366  27.862  35.108  1.00  0.00     0.012 A 
ATOM     90  C   UNL A   1      44.858  26.279  36.174  1.00  0.00     0.148 A 
ATOM     91  C   UNL A   1      47.438  26.994  35.321  1.00  0.00     0.002 A 
ATOM     92  C   UNL A   1      45.938  25.442  36.429  1.00  0.00     0.091 A 
ATOM     93  F   UNL A   1      43.612  25.952  36.541  1.00  0.00    -0.205 F 
ATOM     94  C   UNL A   1      47.226  25.791  35.992  1.00  0.00     0.022 A 
BRANCH  92  95
ATOM     95  S   UNL A   1      45.777  23.921  37.373  1.00  0.00     0.127 S 
ATOM     96  O   UNL A   1      44.955  23.103  36.483  1.00  0.00    -0.237 OA
ATOM     97  O   UNL A   1      47.168  23.482  37.493  1.00  0.00    -0.237 OA
ATOM     98  O   UNL A   1      45.151  24.294  38.634  1.00  0.00    -0.744 OA
ENDBRANCH  92  95
ENDBRANCH  65  88
ENDBRANCH  39  40
ENDBRANCH  32  34
ENDBRANCH  31  32
ENDBRANCH  30  31
ENDBRANCH  29  30
ENDBRANCH  28  29
ENDBRANCH  27  28
ENDBRANCH   1  27
TORSDOF 23
ENDMDL
MODEL 2
REMARK VINA RESULT:      -9.2      3.980      6.089
REMARK SMILES C[C@@H]1CN(C(=O)NC[C@@H]2CC[C@H](C(=O)OCCOCCOCCOC(=O)c3ccc(-c4c5nc(c(-c6cccc(S(=O)(=O)[O-])c6F)c6ccc([nH]6)c(-c6cccc(S(=O)(=O)[O-])c6F)c6nc(c(-c7cccc(S(=O)(=O)[O-])c7F)c7ccc4[nH]7)C=C6)C=C5)cc3)O2)CC(C)(C)O1
REMARK SMILES IDX 19 1 18 2 17 3 16 4 15 5 13 6 14 7 12 8 9 9 10 10 90 11
REMARK SMILES IDX 11 12 8 13 7 14 5 15 6 16 4 18 1 19 2 20 3 21 95 22 92 23
REMARK SMILES IDX 91 24 93 25 94 26 20 27 21 28 22 29 23 30 24 31 25 32 26 33
REMARK SMILES IDX 27 34 28 35 89 36 29 37 88 38 30 39 31 40 32 41 82 42 33 43
REMARK SMILES IDX 87 44 81 45 83 46 34 47 86 48 80 49 79 50 35 52 67 53 47 54
REMARK SMILES IDX 66 55 48 56 51 57 65 58 84 59 49 60 50 61 64 63 85 64 52 65
REMARK SMILES IDX 36 66 37 67 45 68 38 69 40 70 46 71 39 72 41 73 42 74 43 75
REMARK SMILES IDX 44 76 68 77 69 78 77 79 70 80 72 81 78 82 71 83 73 84 74 85
REMARK SMILES IDX 75 86 76 87 53 88 54 89 62 90 55 91 57 92 63 93 56 94 58 95
REMARK SMILES IDX 59 96 60 97 61 98
REMARK H PARENT 7 17 83 51 51 62
REMARK Flexibility Score: inf
ROOT
ATOM      1  C   UNL A   1      35.504  33.734  30.176  1.00  0.00     0.188 C 
ENDROOT
BRANCH   1   2
ATOM      2  O   UNL A   1      35.187  33.992  28.815  1.00  0.00    -0.376 OA
BRANCH   2   3
ATOM      3  C   UNL A   1      35.745  33.103  27.847  1.00  0.00     0.202 C 
BRANCH   3   4
ATOM      4  C   UNL A   1      35.465  31.599  28.013  1.00  0.00     0.261 C 
BRANCH   4   5
ATOM      5  O   UNL A   1      34.070  31.220  27.872  1.00  0.00    -0.461 OA
BRANCH   5   6
ATOM      6  C   UNL A   1      33.835  30.029  27.250  1.00  0.00     0.335 C 
ATOM      7  O   UNL A   1      34.716  29.293  26.813  1.00  0.00    -0.249 OA
BRANCH   6   8
ATOM      8  C   UNL A   1      32.347  29.648  27.146  1.00  0.00     0.228 C 
ATOM      9  C   UNL A   1      31.781  28.504  25.196  1.00  0.00     0.138 C 
ATOM     10  C   UNL A   1      31.406  29.963  24.986  1.00  0.00     0.037 C 
ATOM     11  O   UNL A   1      32.205  28.344  26.556  1.00  0.00    -0.361 OA
ATOM     12  C   UNL A   1      31.383  30.530  26.378  1.00  0.00     0.047 C 
BRANCH   9  13
ATOM     13  C   UNL A   1      32.853  28.038  24.202  1.00  0.00     0.149 C 
BRANCH  13  14
ATOM     14  N   UNL A   1      33.715  26.980  24.708  1.00  0.00    -0.335 N 
ATOM     15  C   UNL A   1      33.661  25.641  24.816  1.00  0.00     0.317 C 
ATOM     16  O   UNL A   1      34.723  25.115  25.169  1.00  0.00    -0.249 OA
ATOM     17  H   UNL A   1      34.559  27.338  25.065  1.00  0.00     0.165 HD
BRANCH  15  18
ATOM     18  N   UNL A   1      32.566  24.898  24.520  1.00  0.00    -0.319 N 
ATOM     19  C   UNL A   1      33.843  22.090  24.097  1.00  0.00     0.040 C 
ATOM     20  C   UNL A   1      32.411  22.562  23.855  1.00  0.00     0.135 C 
ATOM     21  C   UNL A   1      32.291  24.024  23.391  1.00  0.00     0.153 C 
ATOM     22  O   UNL A   1      31.580  22.286  25.000  1.00  0.00    -0.369 OA
ATOM     23  C   UNL A   1      31.579  23.261  26.073  1.00  0.00     0.081 C 
ATOM     24  C   UNL A   1      31.546  24.722  25.557  1.00  0.00     0.156 C 
ATOM     25  C   UNL A   1      32.765  23.035  27.022  1.00  0.00     0.044 C 
ATOM     26  C   UNL A   1      30.288  22.972  26.852  1.00  0.00     0.044 C 
ENDBRANCH  15  18
ENDBRANCH  13  14
ENDBRANCH   9  13
ENDBRANCH   6   8
ENDBRANCH   5   6
ENDBRANCH   4   5
ENDBRANCH   3   4
ENDBRANCH   2   3
ENDBRANCH   1   2
BRANCH   1  27
ATOM     27  C   UNL A   1      34.302  33.467  31.087  1.00  0.00     0.188 C 
BRANCH  27  28
ATOM     28  O   UNL A   1      34.532  32.467  32.061  1.00  0.00    -0.376 OA
BRANCH  28  29
ATOM     29  C   UNL A   1      35.380  32.712  33.178  1.00  0.00     0.202 C 
BRANCH  29  30
ATOM     30  C   UNL A   1      36.895  32.416  33.121  1.00  0.00     0.261 C 
BRANCH  30  31
ATOM     31  O   UNL A   1      37.380  31.652  32.003  1.00  0.00    -0.460 OA
BRANCH  31  32
ATOM     32  C   UNL A   1      37.276  30.304  32.066  1.00  0.00     0.338 C 
ATOM     33  O   UNL A   1      36.281  29.644  31.816  1.00  0.00    -0.246 OA
BRANCH  32  34
ATOM     34  C   UNL A   1      38.653  29.749  32.193  1.00  0.00     0.060 A 
ATOM     35  C   UNL A   1      39.732  30.633  32.047  1.00  0.00     0.016 A 
ATOM     36  C   UNL A   1      38.891  28.422  32.570  1.00  0.00     0.016 A 
ATOM     37  C   UNL A   1      41.045  30.187  32.231  1.00  0.00     0.010 A 
ATOM     38  C   UNL A   1      40.207  27.972  32.740  1.00  0.00     0.010 A 
ATOM     39  C   UNL A   1      41.293  28.842  32.537  1.00  0.00    -0.014 A 
BRANCH  39  40
ATOM     40  C   UNL A   1      42.671  28.297  32.427  1.00  0.00     0.031 A 
ATOM     41  C   UNL A   1      43.584  28.445  33.616  1.00  0.00     0.074 A 
ATOM     42  C   UNL A   1      43.121  27.689  31.314  1.00  0.00     0.049 A 
ATOM     43  N   UNL A   1      44.835  28.092  33.757  1.00  0.00    -0.248 NA
ATOM     44  C   UNL A   1      43.002  29.083  34.811  1.00  0.00     0.031 C 
ATOM     45  C   UNL A   1      42.348  27.468  30.094  1.00  0.00     0.029 A 
ATOM     46  N   UNL A   1      44.360  27.167  31.025  1.00  0.00    -0.354 N 
ATOM     47  C   UNL A   1      45.199  28.491  35.036  1.00  0.00     0.074 A 
ATOM     48  C   UNL A   1      44.041  29.123  35.631  1.00  0.00     0.031 C 
ATOM     49  C   UNL A   1      43.139  26.883  29.176  1.00  0.00     0.029 A 
ATOM     50  C   UNL A   1      44.481  26.711  29.732  1.00  0.00     0.049 A 
ATOM     51  H   UNL A   1      45.092  27.124  31.682  1.00  0.00     0.167 HD
ATOM     52  C   UNL A   1      46.383  28.335  35.673  1.00  0.00     0.034 A 
ATOM     53  C   UNL A   1      45.557  26.234  29.071  1.00  0.00     0.034 A 
ATOM     54  C   UNL A   1      47.534  27.699  35.096  1.00  0.00     0.049 A 
ATOM     55  C   UNL A   1      46.879  26.104  29.789  1.00  0.00     0.074 A 
ATOM     56  C   UNL A   1      48.765  27.456  35.680  1.00  0.00     0.029 A 
ATOM     57  N   UNL A   1      47.606  27.218  33.798  1.00  0.00    -0.354 N 
ATOM     58  N   UNL A   1      47.173  26.375  31.037  1.00  0.00    -0.248 NA
ATOM     59  C   UNL A   1      48.010  25.570  29.013  1.00  0.00     0.031 C 
ATOM     60  C   UNL A   1      49.593  26.860  34.724  1.00  0.00     0.029 A 
ATOM     61  C   UNL A   1      48.865  26.696  33.557  1.00  0.00     0.049 A 
ATOM     62  H   UNL A   1      46.871  27.246  33.144  1.00  0.00     0.167 HD
ATOM     63  C   UNL A   1      48.507  26.012  31.206  1.00  0.00     0.074 A 
ATOM     64  C   UNL A   1      48.958  25.481  29.936  1.00  0.00     0.031 C 
ATOM     65  C   UNL A   1      49.291  26.119  32.308  1.00  0.00     0.034 A 
BRANCH  52  66
ATOM     66  C   UNL A   1      46.488  28.855  37.081  1.00  0.00     0.023 A 
ATOM     67  C   UNL A   1      46.783  30.216  37.305  1.00  0.00     0.012 A 
ATOM     68  C   UNL A   1      46.252  28.008  38.181  1.00  0.00     0.148 A 
ATOM     69  C   UNL A   1      46.872  30.718  38.602  1.00  0.00     0.002 A 
ATOM     70  C   UNL A   1      46.296  28.526  39.469  1.00  0.00     0.091 A 
ATOM     71  F   UNL A   1      45.999  26.713  37.947  1.00  0.00    -0.205 F 
ATOM     72  C   UNL A   1      46.618  29.877  39.682  1.00  0.00     0.022 A 
BRANCH  70  73
ATOM     73  S   UNL A   1      45.909  27.544  40.922  1.00  0.00     0.127 S 
ATOM     74  O   UNL A   1      45.271  28.535  41.786  1.00  0.00    -0.237 OA
ATOM     75  O   UNL A   1      45.001  26.535  40.375  1.00  0.00    -0.237 OA
ATOM     76  O   UNL A   1      47.180  27.021  41.403  1.00  0.00    -0.744 OA
ENDBRANCH  70  73
ENDBRANCH  52  66
BRANCH  53  77
ATOM     77  C   UNL A   1      45.435  25.819  27.642  1.00  0.00     0.023 A 
ATOM     78  C   UNL A   1      45.597  26.777  26.620  1.00  0.00     0.012 A 
ATOM     79  C   UNL A   1      45.147  24.486  27.292  1.00  0.00     0.148 A 
ATOM     80  C   UNL A   1      45.442  26.420  25.279  1.00  0.00     0.002 A 
ATOM     81  C   UNL A   1      45.050  24.126  25.952  1.00  0.00     0.091 A 
ATOM     82  F   UNL A   1      44.975  23.595  28.279  1.00  0.00    -0.205 F 
ATOM     83  C   UNL A   1      45.179  25.095  24.945  1.00  0.00     0.022 A 
BRANCH  81  84
ATOM     84  S   UNL A   1      44.825  22.424  25.424  1.00  0.00     0.127 S 
ATOM     85  O   UNL A   1      44.715  22.572  23.975  1.00  0.00    -0.237 OA
ATOM     86  O   UNL A   1      46.066  21.801  25.887  1.00  0.00    -0.237 OA
ATOM     87  O   UNL A   1      43.625  21.955  26.104  1.00  0.00    -0.744 OA
ENDBRANCH  81  84
ENDBRANCH  53  77
BRANCH  65  88
ATOM     88  C   UNL A   1      50.710  25.612  32.220  1.00  0.00     0.023 A 
ATOM     89  C   UNL A   1      51.757  26.499  31.898  1.00  0.00     0.012 A 
ATOM     90  C   UNL A   1      51.013  24.273  32.537  1.00  0.00     0.148 A 
ATOM     91  C   UNL A   1      53.078  26.052  31.858  1.00  0.00     0.002 A 
ATOM     92  C   UNL A   1      52.337  23.847  32.545  1.00  0.00     0.091 A 
ATOM     93  F   UNL A   1      50.004  23.440  32.827  1.00  0.00    -0.205 F 
ATOM     94  C   UNL A   1      53.369  24.731  32.193  1.00  0.00     0.022 A 
BRANCH  92  95
ATOM     95  S   UNL A   1      52.814  22.192  33.060  1.00  0.00     0.127 S 
ATOM     96  O   UNL A   1      52.365  22.172  34.451  1.00  0.00    -0.237 OA
ATOM     97  O   UNL A   1      52.033  21.348  32.155  1.00  0.00    -0.237 OA
ATOM     98  O   UNL A   1      54.255  22.111  32.868  1.00  0.00    -0.744 OA
ENDBRANCH  92  95
ENDBRANCH  65  88
ENDBRANCH  39  40
ENDBRANCH  32  34
ENDBRANCH  31  32
ENDBRANCH  30  31
ENDBRANCH  29  30
ENDBRANCH  28  29
ENDBRANCH  27  28
ENDBRANCH   1  27
TORSDOF 23
ENDMDL
MODEL 3
REMARK VINA RESULT:      -9.0      4.562     10.850
REMARK SMILES C[C@@H]1CN(C(=O)NC[C@@H]2CC[C@H](C(=O)OCCOCCOCCOC(=O)c3ccc(-c4c5nc(c(-c6cccc(S(=O)(=O)[O-])c6F)c6ccc([nH]6)c(-c6cccc(S(=O)(=O)[O-])c6F)c6nc(c(-c7cccc(S(=O)(=O)[O-])c7F)c7ccc4[nH]7)C=C6)C=C5)cc3)O2)CC(C)(C)O1
REMARK SMILES IDX 19 1 18 2 17 3 16 4 15 5 13 6 14 7 12 8 9 9 10 10 90 11
REMARK SMILES IDX 11 12 8 13 7 14 5 15 6 16 4 18 1 19 2 20 3 21 95 22 92 23
REMARK SMILES IDX 91 24 93 25 94 26 20 27 21 28 22 29 23 30 24 31 25 32 26 33
REMARK SMILES IDX 27 34 28 35 89 36 29 37 88 38 30 39 31 40 32 41 82 42 33 43
REMARK SMILES IDX 87 44 81 45 83 46 34 47 86 48 80 49 79 50 35 52 67 53 47 54
REMARK SMILES IDX 66 55 48 56 51 57 65 58 84 59 49 60 50 61 64 63 85 64 52 65
REMARK SMILES IDX 36 66 37 67 45 68 38 69 40 70 46 71 39 72 41 73 42 74 43 75
REMARK SMILES IDX 44 76 68 77 69 78 77 79 70 80 72 81 78 82 71 83 73 84 74 85
REMARK SMILES IDX 75 86 76 87 53 88 54 89 62 90 55 91 57 92 63 93 56 94 58 95
REMARK SMILES IDX 59 96 60 97 61 98
REMARK H PARENT 7 17 83 51 51 62
REMARK Flexibility Score: inf
ROOT
ATOM      1  C   UNL A   1      44.018  21.455  25.647  1.00  0.00     0.188 C 
ENDROOT
BRANCH   1   2
ATOM      2  O   UNL A   1      42.622  21.468  25.383  1.00  0.00    -0.376 OA
BRANCH   2   3
ATOM      3  C   UNL A   1      41.842  22.425  26.103  1.00  0.00     0.202 C 
BRANCH   3   4
ATOM      4  C   UNL A   1      42.232  23.907  25.972  1.00  0.00     0.261 C 
BRANCH   4   5
ATOM      5  O   UNL A   1      42.745  24.513  27.188  1.00  0.00    -0.461 OA
BRANCH   5   6
ATOM      6  C   UNL A   1      41.914  25.398  27.811  1.00  0.00     0.335 C 
ATOM      7  O   UNL A   1      42.129  25.884  28.918  1.00  0.00    -0.249 OA
BRANCH   6   8
ATOM      8  C   UNL A   1      40.660  25.771  27.000  1.00  0.00     0.228 C 
ATOM      9  C   UNL A   1      39.899  27.946  27.352  1.00  0.00     0.138 C 
ATOM     10  C   UNL A   1      39.048  27.028  28.215  1.00  0.00     0.037 C 
ATOM     11  O   UNL A   1      40.751  27.130  26.537  1.00  0.00    -0.361 OA
ATOM     12  C   UNL A   1      39.284  25.665  27.626  1.00  0.00     0.047 C 
BRANCH   9  13
ATOM     13  C   UNL A   1      40.700  28.947  28.195  1.00  0.00     0.149 C 
BRANCH  13  14
ATOM     14  N   UNL A   1      40.631  28.709  29.629  1.00  0.00    -0.335 N 
ATOM     15  C   UNL A   1      40.067  29.303  30.694  1.00  0.00     0.317 C 
ATOM     16  O   UNL A   1      40.129  28.645  31.739  1.00  0.00    -0.249 OA
ATOM     17  H   UNL A   1      41.130  27.900  29.888  1.00  0.00     0.165 HD
BRANCH  15  18
ATOM     18  N   UNL A   1      39.429  30.500  30.648  1.00  0.00    -0.319 N 
ATOM     19  C   UNL A   1      36.868  29.754  29.041  1.00  0.00     0.040 C 
ATOM     20  C   UNL A   1      37.378  31.120  29.493  1.00  0.00     0.135 C 
ATOM     21  C   UNL A   1      38.911  31.254  29.517  1.00  0.00     0.153 C 
ATOM     22  O   UNL A   1      36.781  31.500  30.750  1.00  0.00    -0.369 OA
ATOM     23  C   UNL A   1      37.410  31.013  31.961  1.00  0.00     0.081 C 
ATOM     24  C   UNL A   1      38.958  31.084  31.905  1.00  0.00     0.156 C 
ATOM     25  C   UNL A   1      36.933  29.592  32.294  1.00  0.00     0.044 C 
ATOM     26  C   UNL A   1      36.900  31.952  33.062  1.00  0.00     0.044 C 
ENDBRANCH  15  18
ENDBRANCH  13  14
ENDBRANCH   9  13
ENDBRANCH   6   8
ENDBRANCH   5   6
ENDBRANCH   4   5
ENDBRANCH   3   4
ENDBRANCH   2   3
ENDBRANCH   1   2
BRANCH   1  27
ATOM     27  C   UNL A   1      44.889  22.142  24.591  1.00  0.00     0.188 C 
BRANCH  27  28
ATOM     28  O   UNL A   1      45.617  23.252  25.082  1.00  0.00    -0.376 OA
BRANCH  28  29
ATOM     29  C   UNL A   1      46.807  23.690  24.436  1.00  0.00     0.202 C 
BRANCH  29  30
ATOM     30  C   UNL A   1      47.377  25.107  24.670  1.00  0.00     0.261 C 
BRANCH  30  31
ATOM     31  O   UNL A   1      46.543  26.224  24.313  1.00  0.00    -0.460 OA
BRANCH  31  32
ATOM     32  C   UNL A   1      46.989  27.467  24.611  1.00  0.00     0.338 C 
ATOM     33  O   UNL A   1      47.608  28.209  23.868  1.00  0.00    -0.246 OA
BRANCH  32  34
ATOM     34  C   UNL A   1      46.336  27.888  25.883  1.00  0.00     0.060 A 
ATOM     35  C   UNL A   1      44.949  27.706  25.999  1.00  0.00     0.016 A 
ATOM     36  C   UNL A   1      47.071  28.336  26.986  1.00  0.00     0.016 A 
ATOM     37  C   UNL A   1      44.293  28.011  27.196  1.00  0.00     0.010 A 
ATOM     38  C   UNL A   1      46.410  28.656  28.180  1.00  0.00     0.010 A 
ATOM     39  C   UNL A   1      45.013  28.529  28.280  1.00  0.00    -0.014 A 
BRANCH  39  40
ATOM     40  C   UNL A   1      44.292  29.141  29.427  1.00  0.00     0.031 A 
ATOM     41  C   UNL A   1      43.890  30.588  29.316  1.00  0.00     0.074 A 
ATOM     42  C   UNL A   1      43.997  28.451  30.545  1.00  0.00     0.049 A 
ATOM     43  N   UNL A   1      43.292  31.357  30.187  1.00  0.00    -0.248 NA
ATOM     44  C   UNL A   1      44.211  31.259  28.044  1.00  0.00     0.031 C 
ATOM     45  C   UNL A   1      44.316  27.046  30.787  1.00  0.00     0.029 A 
ATOM     46  N   UNL A   1      43.379  28.859  31.704  1.00  0.00    -0.354 N 
ATOM     47  C   UNL A   1      43.193  32.605  29.586  1.00  0.00     0.074 A 
ATOM     48  C   UNL A   1      43.802  32.496  28.278  1.00  0.00     0.031 C 
ATOM     49  C   UNL A   1      43.919  26.717  32.030  1.00  0.00     0.029 A 
ATOM     50  C   UNL A   1      43.342  27.892  32.682  1.00  0.00     0.049 A 
ATOM     51  H   UNL A   1      43.000  29.760  31.823  1.00  0.00     0.167 HD
ATOM     52  C   UNL A   1      42.634  33.740  30.065  1.00  0.00     0.034 A 
ATOM     53  C   UNL A   1      42.913  27.958  33.960  1.00  0.00     0.034 A 
ATOM     54  C   UNL A   1      42.016  33.855  31.357  1.00  0.00     0.049 A 
ATOM     55  C   UNL A   1      42.327  29.245  34.487  1.00  0.00     0.074 A 
ATOM     56  C   UNL A   1      41.385  34.953  31.912  1.00  0.00     0.029 A 
ATOM     57  N   UNL A   1      41.967  32.844  32.304  1.00  0.00    -0.354 N 
ATOM     58  N   UNL A   1      42.132  30.382  33.864  1.00  0.00    -0.248 NA
ATOM     59  C   UNL A   1      41.872  29.249  35.887  1.00  0.00     0.031 C 
ATOM     60  C   UNL A   1      40.983  34.618  33.209  1.00  0.00     0.029 A 
ATOM     61  C   UNL A   1      41.330  33.297  33.446  1.00  0.00     0.049 A 
ATOM     62  H   UNL A   1      42.331  31.938  32.182  1.00  0.00     0.167 HD
ATOM     63  C   UNL A   1      41.501  31.220  34.780  1.00  0.00     0.074 A 
ATOM     64  C   UNL A   1      41.326  30.453  35.995  1.00  0.00     0.031 C 
ATOM     65  C   UNL A   1      41.111  32.511  34.633  1.00  0.00     0.034 A 
BRANCH  52  66
ATOM     66  C   UNL A   1      42.654  34.954  29.175  1.00  0.00     0.023 A 
ATOM     67  C   UNL A   1      41.535  35.246  28.366  1.00  0.00     0.012 A 
ATOM     68  C   UNL A   1      43.757  35.828  29.173  1.00  0.00     0.148 A 
ATOM     69  C   UNL A   1      41.530  36.372  27.545  1.00  0.00     0.002 A 
ATOM     70  C   UNL A   1      43.725  36.973  28.387  1.00  0.00     0.091 A 
ATOM     71  F   UNL A   1      44.819  35.518  29.929  1.00  0.00    -0.205 F 
ATOM     72  C   UNL A   1      42.619  37.240  27.564  1.00  0.00     0.022 A 
BRANCH  70  73
ATOM     73  S   UNL A   1      45.042  38.193  28.400  1.00  0.00     0.127 S 
ATOM     74  O   UNL A   1      44.537  39.182  27.450  1.00  0.00    -0.237 OA
ATOM     75  O   UNL A   1      45.040  38.631  29.796  1.00  0.00    -0.237 OA
ATOM     76  O   UNL A   1      46.247  37.487  27.986  1.00  0.00    -0.744 OA
ENDBRANCH  70  73
ENDBRANCH  52  66
BRANCH  53  77
ATOM     77  C   UNL A   1      43.000  26.757  34.843  1.00  0.00     0.023 A 
ATOM     78  C   UNL A   1      41.909  25.868  34.921  1.00  0.00     0.012 A 
ATOM     79  C   UNL A   1      44.150  26.499  35.613  1.00  0.00     0.148 A 
ATOM     80  C   UNL A   1      41.950  24.764  35.775  1.00  0.00     0.002 A 
ATOM     81  C   UNL A   1      44.207  25.368  36.419  1.00  0.00     0.091 A 
ATOM     82  F   UNL A   1      45.168  27.369  35.542  1.00  0.00    -0.205 F 
ATOM     83  C   UNL A   1      43.101  24.508  36.515  1.00  0.00     0.022 A 
BRANCH  81  84
ATOM     84  S   UNL A   1      45.687  24.897  37.320  1.00  0.00     0.127 S 
ATOM     85  O   UNL A   1      45.828  26.003  38.263  1.00  0.00    -0.237 OA
ATOM     86  O   UNL A   1      45.280  23.625  37.919  1.00  0.00    -0.237 OA
ATOM     87  O   UNL A   1      46.738  24.783  36.319  1.00  0.00    -0.744 OA
ENDBRANCH  81  84
ENDBRANCH  53  77
BRANCH  65  88
ATOM     88  C   UNL A   1      40.411  33.177  35.792  1.00  0.00     0.023 A 
ATOM     89  C   UNL A   1      39.024  33.009  35.970  1.00  0.00     0.012 A 
ATOM     90  C   UNL A   1      41.146  33.904  36.751  1.00  0.00     0.148 A 
ATOM     91  C   UNL A   1      38.373  33.583  37.063  1.00  0.00     0.002 A 
ATOM     92  C   UNL A   1      40.501  34.429  37.864  1.00  0.00     0.091 A 
ATOM     93  F   UNL A   1      42.463  34.066  36.559  1.00  0.00    -0.205 F 
ATOM     94  C   UNL A   1      39.113  34.282  38.015  1.00  0.00     0.022 A 
BRANCH  92  95
ATOM     95  S   UNL A   1      41.386  35.257  39.191  1.00  0.00     0.127 S 
ATOM     96  O   UNL A   1      41.822  34.126  40.010  1.00  0.00    -0.237 OA
ATOM     97  O   UNL A   1      42.463  35.936  38.469  1.00  0.00    -0.237 OA
ATOM     98  O   UNL A   1      40.425  36.150  39.822  1.00  0.00    -0.744 OA
ENDBRANCH  92  95
ENDBRANCH  65  88
ENDBRANCH  39  40
ENDBRANCH  32  34
ENDBRANCH  31  32
ENDBRANCH  30  31
ENDBRANCH  29  30
ENDBRANCH  28  29
ENDBRANCH  27  28
ENDBRANCH   1  27
TORSDOF 23
ENDMDL
