MODEL 1
REMARK VINA RESULT:      -9.4      0.000      0.000
REMARK SMILES Cc1cc(SCC(=O)OCCOCCOCCOC(=O)c2ccc(-c3c4nc(c(-c5cccc(S(=O)(=O)[O-])c5F)c5ccc([nH]5)c(-c5cccc(S(=O)(=O)[O-])c5F)c5nc(c(-c6cccc(S(=O)(=O)[O-])c6F)c6ccc3[nH]6)C=C5)C=C4)cc2)c2cc(I)ccc2n1
REMARK SMILES IDX 14 1 13 2 12 3 11 4 10 5 9 6 7 7 8 8 6 9 5 10 4 11 1 12 2 13
REMARK SMILES IDX 3 14 91 15 90 16 84 17 89 18 85 19 88 20 86 21 87 22 15 23
REMARK SMILES IDX 16 24 17 25 18 26 19 27 20 28 21 29 22 30 83 31 23 32 82 33
REMARK SMILES IDX 24 34 25 35 26 36 76 37 27 38 81 39 75 40 77 41 28 42 80 43
REMARK SMILES IDX 74 44 73 45 29 47 61 48 41 49 60 50 42 51 45 52 59 53 78 54
REMARK SMILES IDX 43 55 44 56 58 58 79 59 46 60 30 61 31 62 39 63 32 64 34 65
REMARK SMILES IDX 40 66 33 67 35 68 36 69 37 70 38 71 62 72 63 73 71 74 64 75
REMARK SMILES IDX 66 76 72 77 65 78 67 79 68 80 69 81 70 82 47 83 48 84 56 85
REMARK SMILES IDX 49 86 51 87 57 88 50 89 52 90 53 91 54 92 55 93
REMARK H PARENT 77 46 45 57
REMARK Flexibility Score: inf
ROOT
ATOM      1  C   UNL A   1      33.817  27.959  24.833  1.00  0.00     0.188 C 
ENDROOT
BRANCH   1   2
ATOM      2  C   UNL A   1      33.790  28.307  23.330  1.00  0.00     0.188 C 
BRANCH   2   3
ATOM      3  O   UNL A   1      32.943  29.374  22.906  1.00  0.00    -0.376 OA
BRANCH   3   4
ATOM      4  C   UNL A   1      31.817  29.048  22.094  1.00  0.00     0.202 C 
BRANCH   4   5
ATOM      5  C   UNL A   1      30.456  29.324  22.739  1.00  0.00     0.261 C 
BRANCH   5   6
ATOM      6  O   UNL A   1      29.520  28.327  22.291  1.00  0.00    -0.463 OA
BRANCH   6   7
ATOM      7  C   UNL A   1      28.615  27.880  23.201  1.00  0.00     0.316 C 
ATOM      8  O   UNL A   1      27.631  28.515  23.555  1.00  0.00    -0.251 OA
BRANCH   7   9
ATOM      9  C   UNL A   1      28.870  26.422  23.555  1.00  0.00     0.197 C 
BRANCH   9  10
ATOM     10  S   UNL A   1      30.384  26.179  24.557  1.00  0.00    -0.114 SA
BRANCH  10  11
ATOM     11  C   UNL A   1      31.614  25.477  23.409  1.00  0.00     0.019 A 
ATOM     12  C   UNL A   1      32.569  25.419  19.727  1.00  0.00     0.067 C 
ATOM     13  C   UNL A   1      32.574  25.234  21.215  1.00  0.00     0.039 A 
ATOM     14  C   UNL A   1      31.590  25.771  22.039  1.00  0.00     0.039 A 
ATOM     15  N   UNL A   1      33.575  24.471  21.690  1.00  0.00    -0.253 NA
ATOM     16  C   UNL A   1      33.574  24.118  22.974  1.00  0.00     0.072 A 
ATOM     17  C   UNL A   1      32.599  24.561  23.895  1.00  0.00     0.015 A 
ATOM     18  C   UNL A   1      34.569  23.240  23.375  1.00  0.00     0.030 A 
ATOM     19  C   UNL A   1      32.663  24.031  25.214  1.00  0.00     0.026 A 
ATOM     20  C   UNL A   1      34.611  22.716  24.664  1.00  0.00     0.017 A 
ATOM     21  C   UNL A   1      33.643  23.103  25.578  1.00  0.00     0.014 A 
ATOM     22  I   UNL A   1      33.626  22.258  27.477  1.00  0.00    -0.044 I 
ENDBRANCH  10  11
ENDBRANCH   9  10
ENDBRANCH   7   9
ENDBRANCH   6   7
ENDBRANCH   5   6
ENDBRANCH   4   5
ENDBRANCH   3   4
ENDBRANCH   2   3
ENDBRANCH   1   2
BRANCH   1  23
ATOM     23  O   UNL A   1      33.828  29.036  25.759  1.00  0.00    -0.376 OA
BRANCH  23  24
ATOM     24  C   UNL A   1      32.557  29.462  26.236  1.00  0.00     0.202 C 
BRANCH  24  25
ATOM     25  C   UNL A   1      32.587  30.806  26.962  1.00  0.00     0.261 C 
BRANCH  25  26
ATOM     26  O   UNL A   1      33.658  30.818  27.926  1.00  0.00    -0.460 OA
BRANCH  26  27
ATOM     27  C   UNL A   1      34.369  31.968  27.951  1.00  0.00     0.338 C 
ATOM     28  O   UNL A   1      34.082  33.010  27.394  1.00  0.00    -0.246 OA
BRANCH  27  29
ATOM     29  C   UNL A   1      35.602  31.777  28.743  1.00  0.00     0.060 A 
ATOM     30  C   UNL A   1      35.661  30.700  29.623  1.00  0.00     0.016 A 
ATOM     31  C   UNL A   1      36.743  32.552  28.515  1.00  0.00     0.016 A 
ATOM     32  C   UNL A   1      36.871  30.379  30.246  1.00  0.00     0.010 A 
ATOM     33  C   UNL A   1      37.963  32.200  29.104  1.00  0.00     0.010 A 
ATOM     34  C   UNL A   1      38.049  31.092  29.954  1.00  0.00    -0.014 A 
BRANCH  34  35
ATOM     35  C   UNL A   1      39.363  30.586  30.438  1.00  0.00     0.031 A 
ATOM     36  C   UNL A   1      39.979  31.056  31.727  1.00  0.00     0.074 A 
ATOM     37  C   UNL A   1      40.047  29.709  29.670  1.00  0.00     0.049 A 
ATOM     38  N   UNL A   1      41.017  30.571  32.359  1.00  0.00    -0.248 NA
ATOM     39  C   UNL A   1      39.386  32.238  32.373  1.00  0.00     0.031 C 
ATOM     40  C   UNL A   1      39.670  29.298  28.314  1.00  0.00     0.029 A 
ATOM     41  N   UNL A   1      41.194  28.996  29.922  1.00  0.00    -0.354 N 
ATOM     42  C   UNL A   1      41.208  31.388  33.466  1.00  0.00     0.074 A 
ATOM     43  C   UNL A   1      40.218  32.439  33.388  1.00  0.00     0.031 C 
ATOM     44  C   UNL A   1      40.529  28.361  27.882  1.00  0.00     0.029 A 
ATOM     45  C   UNL A   1      41.510  28.096  28.929  1.00  0.00     0.049 A 
ATOM     46  H   UNL A   1      41.737  29.117  30.733  1.00  0.00     0.167 HD
ATOM     47  C   UNL A   1      42.085  31.243  34.488  1.00  0.00     0.034 A 
ATOM     48  C   UNL A   1      42.443  27.124  28.889  1.00  0.00     0.034 A 
ATOM     49  C   UNL A   1      43.014  30.153  34.603  1.00  0.00     0.049 A 
ATOM     50  C   UNL A   1      43.309  26.882  30.094  1.00  0.00     0.074 A 
ATOM     51  C   UNL A   1      43.844  29.838  35.664  1.00  0.00     0.029 A 
ATOM     52  N   UNL A   1      43.229  29.196  33.625  1.00  0.00    -0.354 N 
ATOM     53  N   UNL A   1      43.321  27.523  31.237  1.00  0.00    -0.248 NA
ATOM     54  C   UNL A   1      44.252  25.755  30.028  1.00  0.00     0.031 C 
ATOM     55  C   UNL A   1      44.552  28.678  35.333  1.00  0.00     0.029 A 
ATOM     56  C   UNL A   1      44.168  28.280  34.063  1.00  0.00     0.049 A 
ATOM     57  H   UNL A   1      42.780  29.171  32.750  1.00  0.00     0.167 HD
ATOM     58  C   UNL A   1      44.246  26.861  32.036  1.00  0.00     0.074 A 
ATOM     59  C   UNL A   1      44.767  25.761  31.251  1.00  0.00     0.031 C 
ATOM     60  C   UNL A   1      44.634  27.151  33.300  1.00  0.00     0.034 A 
BRANCH  47  61
ATOM     61  C   UNL A   1      41.988  32.211  35.634  1.00  0.00     0.023 A 
ATOM     62  C   UNL A   1      42.993  33.191  35.773  1.00  0.00     0.012 A 
ATOM     63  C   UNL A   1      40.893  32.211  36.518  1.00  0.00     0.148 A 
ATOM     64  C   UNL A   1      42.929  34.137  36.792  1.00  0.00     0.002 A 
ATOM     65  C   UNL A   1      40.821  33.178  37.515  1.00  0.00     0.091 A 
ATOM     66  F   UNL A   1      39.953  31.269  36.371  1.00  0.00    -0.205 F 
ATOM     67  C   UNL A   1      41.840  34.135  37.659  1.00  0.00     0.022 A 
BRANCH  65  68
ATOM     68  S   UNL A   1      39.440  33.304  38.659  1.00  0.00     0.127 S 
ATOM     69  O   UNL A   1      39.535  34.702  39.079  1.00  0.00    -0.237 OA
ATOM     70  O   UNL A   1      38.300  33.002  37.796  1.00  0.00    -0.237 OA
ATOM     71  O   UNL A   1      39.694  32.325  39.706  1.00  0.00    -0.744 OA
ENDBRANCH  65  68
ENDBRANCH  47  61
BRANCH  48  72
ATOM     72  C   UNL A   1      42.482  26.195  27.726  1.00  0.00     0.023 A 
ATOM     73  C   UNL A   1      43.110  26.623  26.541  1.00  0.00     0.012 A 
ATOM     74  C   UNL A   1      41.954  24.893  27.799  1.00  0.00     0.148 A 
ATOM     75  C   UNL A   1      43.198  25.775  25.436  1.00  0.00     0.002 A 
ATOM     76  C   UNL A   1      42.069  24.042  26.704  1.00  0.00     0.091 A 
ATOM     77  F   UNL A   1      41.365  24.511  28.941  1.00  0.00    -0.205 F 
ATOM     78  C   UNL A   1      42.683  24.485  25.519  1.00  0.00     0.022 A 
BRANCH  76  79
ATOM     79  S   UNL A   1      41.505  22.338  26.730  1.00  0.00     0.127 S 
ATOM     80  O   UNL A   1      41.881  21.880  25.394  1.00  0.00    -0.237 OA
ATOM     81  O   UNL A   1      42.301  21.776  27.820  1.00  0.00    -0.237 OA
ATOM     82  O   UNL A   1      40.073  22.398  26.990  1.00  0.00    -0.744 OA
ENDBRANCH  76  79
ENDBRANCH  48  72
BRANCH  60  83
ATOM     83  C   UNL A   1      45.666  26.274  33.951  1.00  0.00     0.023 A 
ATOM     84  C   UNL A   1      47.030  26.569  33.767  1.00  0.00     0.012 A 
ATOM     85  C   UNL A   1      45.284  25.269  34.860  1.00  0.00     0.148 A 
ATOM     86  C   UNL A   1      48.004  25.875  34.484  1.00  0.00     0.002 A 
ATOM     87  C   UNL A   1      46.259  24.604  35.596  1.00  0.00     0.091 A 
ATOM     88  F   UNL A   1      43.978  25.003  35.006  1.00  0.00    -0.205 F 
ATOM     89  C   UNL A   1      47.618  24.904  35.407  1.00  0.00     0.022 A 
BRANCH  87  90
ATOM     90  S   UNL A   1      45.861  23.398  36.866  1.00  0.00     0.127 S 
ATOM     91  O   UNL A   1      45.031  24.186  37.776  1.00  0.00    -0.237 OA
ATOM     92  O   UNL A   1      45.136  22.379  36.107  1.00  0.00    -0.237 OA
ATOM     93  O   UNL A   1      47.134  22.954  37.417  1.00  0.00    -0.744 OA
ENDBRANCH  87  90
ENDBRANCH  60  83
ENDBRANCH  34  35
ENDBRANCH  27  29
ENDBRANCH  26  27
ENDBRANCH  25  26
ENDBRANCH  24  25
ENDBRANCH  23  24
ENDBRANCH   1  23
TORSDOF 22
ENDMDL
MODEL 2
REMARK VINA RESULT:      -9.3      1.824      2.133
REMARK SMILES Cc1cc(SCC(=O)OCCOCCOCCOC(=O)c2ccc(-c3c4nc(c(-c5cccc(S(=O)(=O)[O-])c5F)c5ccc([nH]5)c(-c5cccc(S(=O)(=O)[O-])c5F)c5nc(c(-c6cccc(S(=O)(=O)[O-])c6F)c6ccc3[nH]6)C=C5)C=C4)cc2)c2cc(I)ccc2n1
REMARK SMILES IDX 14 1 13 2 12 3 11 4 10 5 9 6 7 7 8 8 6 9 5 10 4 11 1 12 2 13
REMARK SMILES IDX 3 14 91 15 90 16 84 17 89 18 85 19 88 20 86 21 87 22 15 23
REMARK SMILES IDX 16 24 17 25 18 26 19 27 20 28 21 29 22 30 83 31 23 32 82 33
REMARK SMILES IDX 24 34 25 35 26 36 76 37 27 38 81 39 75 40 77 41 28 42 80 43
REMARK SMILES IDX 74 44 73 45 29 47 61 48 41 49 60 50 42 51 45 52 59 53 78 54
REMARK SMILES IDX 43 55 44 56 58 58 79 59 46 60 30 61 31 62 39 63 32 64 34 65
REMARK SMILES IDX 40 66 33 67 35 68 36 69 37 70 38 71 62 72 63 73 71 74 64 75
REMARK SMILES IDX 66 76 72 77 65 78 67 79 68 80 69 81 70 82 47 83 48 84 56 85
REMARK SMILES IDX 49 86 51 87 57 88 50 89 52 90 53 91 54 92 55 93
REMARK H PARENT 77 46 45 57
REMARK Flexibility Score: inf
ROOT
ATOM      1  C   UNL A   1      34.028  27.761  23.905  1.00  0.00     0.188 C 
ENDROOT
BRANCH   1   2
ATOM      2  C   UNL A   1      33.721  28.666  22.694  1.00  0.00     0.188 C 
BRANCH   2   3
ATOM      3  O   UNL A   1      32.618  29.564  22.793  1.00  0.00    -0.376 OA
BRANCH   3   4
ATOM      4  C   UNL A   1      31.420  29.228  22.097  1.00  0.00     0.202 C 
BRANCH   4   5
ATOM      5  C   UNL A   1      30.162  29.177  22.968  1.00  0.00     0.261 C 
BRANCH   5   6
ATOM      6  O   UNL A   1      29.285  28.157  22.457  1.00  0.00    -0.463 OA
BRANCH   6   7
ATOM      7  C   UNL A   1      28.398  27.612  23.331  1.00  0.00     0.316 C 
ATOM      8  O   UNL A   1      27.354  28.151  23.670  1.00  0.00    -0.251 OA
BRANCH   7   9
ATOM      9  C   UNL A   1      28.770  26.174  23.663  1.00  0.00     0.197 C 
BRANCH   9  10
ATOM     10  S   UNL A   1      30.317  26.036  24.634  1.00  0.00    -0.114 SA
BRANCH  10  11
ATOM     11  C   UNL A   1      31.565  25.405  23.465  1.00  0.00     0.019 A 
ATOM     12  C   UNL A   1      32.513  25.478  19.782  1.00  0.00     0.067 C 
ATOM     13  C   UNL A   1      32.527  25.252  21.264  1.00  0.00     0.039 A 
ATOM     14  C   UNL A   1      31.529  25.735  22.104  1.00  0.00     0.039 A 
ATOM     15  N   UNL A   1      33.552  24.508  21.716  1.00  0.00    -0.253 NA
ATOM     16  C   UNL A   1      33.565  24.120  22.991  1.00  0.00     0.072 A 
ATOM     17  C   UNL A   1      32.579  24.507  23.925  1.00  0.00     0.015 A 
ATOM     18  C   UNL A   1      34.588  23.263  23.365  1.00  0.00     0.030 A 
ATOM     19  C   UNL A   1      32.663  23.942  25.228  1.00  0.00     0.026 A 
ATOM     20  C   UNL A   1      34.650  22.705  24.640  1.00  0.00     0.017 A 
ATOM     21  C   UNL A   1      33.672  23.036  25.565  1.00  0.00     0.014 A 
ATOM     22  I   UNL A   1      33.686  22.140  27.440  1.00  0.00    -0.044 I 
ENDBRANCH  10  11
ENDBRANCH   9  10
ENDBRANCH   7   9
ENDBRANCH   6   7
ENDBRANCH   5   6
ENDBRANCH   4   5
ENDBRANCH   3   4
ENDBRANCH   2   3
ENDBRANCH   1   2
BRANCH   1  23
ATOM     23  O   UNL A   1      34.098  28.374  25.185  1.00  0.00    -0.376 OA
BRANCH  23  24
ATOM     24  C   UNL A   1      33.043  28.060  26.087  1.00  0.00     0.202 C 
BRANCH  24  25
ATOM     25  C   UNL A   1      32.786  29.139  27.137  1.00  0.00     0.261 C 
BRANCH  25  26
ATOM     26  O   UNL A   1      33.924  29.255  28.011  1.00  0.00    -0.460 OA
BRANCH  26  27
ATOM     27  C   UNL A   1      34.610  30.414  27.880  1.00  0.00     0.338 C 
ATOM     28  O   UNL A   1      34.238  31.414  27.296  1.00  0.00    -0.246 OA
BRANCH  27  29
ATOM     29  C   UNL A   1      35.931  30.291  28.531  1.00  0.00     0.060 A 
ATOM     30  C   UNL A   1      36.035  29.489  29.665  1.00  0.00     0.016 A 
ATOM     31  C   UNL A   1      37.083  30.831  27.952  1.00  0.00     0.016 A 
ATOM     32  C   UNL A   1      37.296  29.200  30.195  1.00  0.00     0.010 A 
ATOM     33  C   UNL A   1      38.345  30.502  28.457  1.00  0.00     0.010 A 
ATOM     34  C   UNL A   1      38.470  29.658  29.568  1.00  0.00    -0.014 A 
BRANCH  34  35
ATOM     35  C   UNL A   1      39.797  29.142  30.005  1.00  0.00     0.031 A 
ATOM     36  C   UNL A   1      40.504  29.676  31.220  1.00  0.00     0.074 A 
ATOM     37  C   UNL A   1      40.406  28.195  29.258  1.00  0.00     0.049 A 
ATOM     38  N   UNL A   1      41.566  29.201  31.820  1.00  0.00    -0.248 NA
ATOM     39  C   UNL A   1      39.988  30.917  31.819  1.00  0.00     0.031 C 
ATOM     40  C   UNL A   1      39.933  27.709  27.958  1.00  0.00     0.029 A 
ATOM     41  N   UNL A   1      41.545  27.463  29.488  1.00  0.00    -0.354 N 
ATOM     42  C   UNL A   1      41.849  30.081  32.855  1.00  0.00     0.074 A 
ATOM     43  C   UNL A   1      40.886  31.157  32.766  1.00  0.00     0.031 C 
ATOM     44  C   UNL A   1      40.737  26.717  27.539  1.00  0.00     0.029 A 
ATOM     45  C   UNL A   1      41.773  26.490  28.542  1.00  0.00     0.049 A 
ATOM     46  H   UNL A   1      42.142  27.620  30.256  1.00  0.00     0.167 HD
ATOM     47  C   UNL A   1      42.783  29.975  33.830  1.00  0.00     0.034 A 
ATOM     48  C   UNL A   1      42.673  25.487  28.512  1.00  0.00     0.034 A 
ATOM     49  C   UNL A   1      43.686  28.865  33.962  1.00  0.00     0.049 A 
ATOM     50  C   UNL A   1      43.606  25.297  29.676  1.00  0.00     0.074 A 
ATOM     51  C   UNL A   1      44.570  28.594  34.991  1.00  0.00     0.029 A 
ATOM     52  N   UNL A   1      43.812  27.839  33.041  1.00  0.00    -0.354 N 
ATOM     53  N   UNL A   1      43.707  26.011  30.770  1.00  0.00    -0.248 NA
ATOM     54  C   UNL A   1      44.510  24.137  29.630  1.00  0.00     0.031 C 
ATOM     55  C   UNL A   1      45.223  27.392  34.697  1.00  0.00     0.029 A 
ATOM     56  C   UNL A   1      44.749  26.924  33.482  1.00  0.00     0.049 A 
ATOM     57  H   UNL A   1      43.309  27.772  32.198  1.00  0.00     0.167 HD
ATOM     58  C   UNL A   1      44.660  25.373  31.554  1.00  0.00     0.074 A 
ATOM     59  C   UNL A   1      45.100  24.207  30.817  1.00  0.00     0.031 C 
ATOM     60  C   UNL A   1      45.134  25.733  32.771  1.00  0.00     0.034 A 
BRANCH  47  61
ATOM     61  C   UNL A   1      42.785  31.020  34.911  1.00  0.00     0.023 A 
ATOM     62  C   UNL A   1      42.089  30.749  36.108  1.00  0.00     0.012 A 
ATOM     63  C   UNL A   1      43.516  32.216  34.790  1.00  0.00     0.148 A 
ATOM     64  C   UNL A   1      42.093  31.665  37.157  1.00  0.00     0.002 A 
ATOM     65  C   UNL A   1      43.540  33.113  35.854  1.00  0.00     0.091 A 
ATOM     66  F   UNL A   1      44.166  32.455  33.643  1.00  0.00    -0.205 F 
ATOM     67  C   UNL A   1      42.824  32.843  37.032  1.00  0.00     0.022 A 
BRANCH  65  68
ATOM     68  S   UNL A   1      44.487  34.640  35.825  1.00  0.00     0.127 S 
ATOM     69  O   UNL A   1      45.852  34.135  35.673  1.00  0.00    -0.237 OA
ATOM     70  O   UNL A   1      43.950  35.311  34.642  1.00  0.00    -0.237 OA
ATOM     71  O   UNL A   1      44.212  35.308  37.089  1.00  0.00    -0.744 OA
ENDBRANCH  65  68
ENDBRANCH  47  61
BRANCH  48  72
ATOM     72  C   UNL A   1      42.613  24.482  27.414  1.00  0.00     0.023 A 
ATOM     73  C   UNL A   1      43.460  24.647  26.301  1.00  0.00     0.012 A 
ATOM     74  C   UNL A   1      41.773  23.357  27.485  1.00  0.00     0.148 A 
ATOM     75  C   UNL A   1      43.461  23.715  25.264  1.00  0.00     0.002 A 
ATOM     76  C   UNL A   1      41.798  22.416  26.460  1.00  0.00     0.091 A 
ATOM     77  F   UNL A   1      40.981  23.223  28.557  1.00  0.00    -0.205 F 
ATOM     78  C   UNL A   1      42.635  22.598  25.345  1.00  0.00     0.022 A 
BRANCH  76  79
ATOM     79  S   UNL A   1      40.828  20.905  26.500  1.00  0.00     0.127 S 
ATOM     80  O   UNL A   1      40.885  20.552  27.917  1.00  0.00    -0.237 OA
ATOM     81  O   UNL A   1      39.523  21.376  26.034  1.00  0.00    -0.237 OA
ATOM     82  O   UNL A   1      41.498  19.979  25.597  1.00  0.00    -0.744 OA
ENDBRANCH  76  79
ENDBRANCH  48  72
BRANCH  60  83
ATOM     83  C   UNL A   1      46.179  24.867  33.416  1.00  0.00     0.023 A 
ATOM     84  C   UNL A   1      47.538  25.198  33.256  1.00  0.00     0.012 A 
ATOM     85  C   UNL A   1      45.811  23.834  34.300  1.00  0.00     0.148 A 
ATOM     86  C   UNL A   1      48.519  24.513  33.970  1.00  0.00     0.002 A 
ATOM     87  C   UNL A   1      46.792  23.177  35.034  1.00  0.00     0.091 A 
ATOM     88  F   UNL A   1      44.510  23.534  34.423  1.00  0.00    -0.205 F 
ATOM     89  C   UNL A   1      48.146  23.514  34.868  1.00  0.00     0.022 A 
BRANCH  87  90
ATOM     90  S   UNL A   1      46.408  21.936  36.274  1.00  0.00     0.127 S 
ATOM     91  O   UNL A   1      45.812  22.748  37.334  1.00  0.00    -0.237 OA
ATOM     92  O   UNL A   1      45.465  21.072  35.563  1.00  0.00    -0.237 OA
ATOM     93  O   UNL A   1      47.673  21.301  36.617  1.00  0.00    -0.744 OA
ENDBRANCH  87  90
ENDBRANCH  60  83
ENDBRANCH  34  35
ENDBRANCH  27  29
ENDBRANCH  26  27
ENDBRANCH  25  26
ENDBRANCH  24  25
ENDBRANCH  23  24
ENDBRANCH   1  23
TORSDOF 22
ENDMDL
MODEL 3
REMARK VINA RESULT:      -9.2      4.753      8.707
REMARK SMILES Cc1cc(SCC(=O)OCCOCCOCCOC(=O)c2ccc(-c3c4nc(c(-c5cccc(S(=O)(=O)[O-])c5F)c5ccc([nH]5)c(-c5cccc(S(=O)(=O)[O-])c5F)c5nc(c(-c6cccc(S(=O)(=O)[O-])c6F)c6ccc3[nH]6)C=C5)C=C4)cc2)c2cc(I)ccc2n1
REMARK SMILES IDX 14 1 13 2 12 3 11 4 10 5 9 6 7 7 8 8 6 9 5 10 4 11 1 12 2 13
REMARK SMILES IDX 3 14 91 15 90 16 84 17 89 18 85 19 88 20 86 21 87 22 15 23
REMARK SMILES IDX 16 24 17 25 18 26 19 27 20 28 21 29 22 30 83 31 23 32 82 33
REMARK SMILES IDX 24 34 25 35 26 36 76 37 27 38 81 39 75 40 77 41 28 42 80 43
REMARK SMILES IDX 74 44 73 45 29 47 61 48 41 49 60 50 42 51 45 52 59 53 78 54
REMARK SMILES IDX 43 55 44 56 58 58 79 59 46 60 30 61 31 62 39 63 32 64 34 65
REMARK SMILES IDX 40 66 33 67 35 68 36 69 37 70 38 71 62 72 63 73 71 74 64 75
REMARK SMILES IDX 66 76 72 77 65 78 67 79 68 80 69 81 70 82 47 83 48 84 56 85
REMARK SMILES IDX 49 86 51 87 57 88 50 89 52 90 53 91 54 92 55 93
REMARK H PARENT 77 46 45 57
REMARK Flexibility Score: inf
ROOT
ATOM      1  C   UNL A   1      38.008  22.041  25.546  1.00  0.00     0.188 C 
ENDROOT
BRANCH   1   2
ATOM      2  C   UNL A   1      36.866  21.608  24.602  1.00  0.00     0.188 C 
BRANCH   2   3
ATOM      3  O   UNL A   1      35.577  21.388  25.171  1.00  0.00    -0.376 OA
BRANCH   3   4
ATOM      4  C   UNL A   1      34.493  22.181  24.691  1.00  0.00     0.202 C 
BRANCH   4   5
ATOM      5  C   UNL A   1      34.765  22.913  23.374  1.00  0.00     0.261 C 
BRANCH   5   6
ATOM      6  O   UNL A   1      33.570  22.887  22.573  1.00  0.00    -0.463 OA
BRANCH   6   7
ATOM      7  C   UNL A   1      33.073  24.085  22.168  1.00  0.00     0.316 C 
ATOM      8  O   UNL A   1      33.243  24.553  21.051  1.00  0.00    -0.251 OA
BRANCH   7   9
ATOM      9  C   UNL A   1      32.116  24.659  23.204  1.00  0.00     0.197 C 
BRANCH   9  10
ATOM     10  S   UNL A   1      32.934  25.795  24.387  1.00  0.00    -0.114 SA
BRANCH  10  11
ATOM     11  C   UNL A   1      31.957  27.333  24.330  1.00  0.00     0.019 A 
ATOM     12  C   UNL A   1      29.068  28.969  22.472  1.00  0.00     0.067 C 
ATOM     13  C   UNL A   1      30.160  28.677  23.457  1.00  0.00     0.039 A 
ATOM     14  C   UNL A   1      30.892  27.494  23.433  1.00  0.00     0.039 A 
ATOM     15  N   UNL A   1      30.410  29.661  24.338  1.00  0.00    -0.253 NA
ATOM     16  C   UNL A   1      31.463  29.561  25.148  1.00  0.00     0.072 A 
ATOM     17  C   UNL A   1      32.309  28.430  25.178  1.00  0.00     0.015 A 
ATOM     18  C   UNL A   1      31.732  30.659  25.951  1.00  0.00     0.030 A 
ATOM     19  C   UNL A   1      33.452  28.496  26.022  1.00  0.00     0.026 A 
ATOM     20  C   UNL A   1      32.863  30.717  26.762  1.00  0.00     0.017 A 
ATOM     21  C   UNL A   1      33.731  29.637  26.780  1.00  0.00     0.014 A 
ATOM     22  I   UNL A   1      35.477  29.740  27.904  1.00  0.00    -0.044 I 
ENDBRANCH  10  11
ENDBRANCH   9  10
ENDBRANCH   7   9
ENDBRANCH   6   7
ENDBRANCH   5   6
ENDBRANCH   4   5
ENDBRANCH   3   4
ENDBRANCH   2   3
ENDBRANCH   1   2
BRANCH   1  23
ATOM     23  O   UNL A   1      39.107  21.154  25.703  1.00  0.00    -0.376 OA
BRANCH  23  24
ATOM     24  C   UNL A   1      40.029  21.479  26.736  1.00  0.00     0.202 C 
BRANCH  24  25
ATOM     25  C   UNL A   1      41.474  21.610  26.257  1.00  0.00     0.261 C 
BRANCH  25  26
ATOM     26  O   UNL A   1      42.105  22.731  26.903  1.00  0.00    -0.460 OA
BRANCH  26  27
ATOM     27  C   UNL A   1      42.474  23.724  26.061  1.00  0.00     0.338 C 
ATOM     28  O   UNL A   1      42.998  23.592  24.971  1.00  0.00    -0.246 OA
BRANCH  27  29
ATOM     29  C   UNL A   1      42.179  25.036  26.673  1.00  0.00     0.060 A 
ATOM     30  C   UNL A   1      42.299  25.161  28.055  1.00  0.00     0.016 A 
ATOM     31  C   UNL A   1      41.938  26.169  25.890  1.00  0.00     0.016 A 
ATOM     32  C   UNL A   1      42.212  26.426  28.646  1.00  0.00     0.010 A 
ATOM     33  C   UNL A   1      41.898  27.437  26.479  1.00  0.00     0.010 A 
ATOM     34  C   UNL A   1      42.064  27.585  27.861  1.00  0.00    -0.014 A 
BRANCH  34  35
ATOM     35  C   UNL A   1      42.216  28.929  28.485  1.00  0.00     0.031 A 
ATOM     36  C   UNL A   1      41.036  29.727  28.969  1.00  0.00     0.074 A 
ATOM     37  C   UNL A   1      43.451  29.469  28.577  1.00  0.00     0.049 A 
ATOM     38  N   UNL A   1      41.031  30.817  29.692  1.00  0.00    -0.248 NA
ATOM     39  C   UNL A   1      39.696  29.275  28.564  1.00  0.00     0.031 C 
ATOM     40  C   UNL A   1      44.669  28.900  27.991  1.00  0.00     0.029 A 
ATOM     41  N   UNL A   1      43.891  30.607  29.207  1.00  0.00    -0.354 N 
ATOM     42  C   UNL A   1      39.699  31.186  29.822  1.00  0.00     0.074 A 
ATOM     43  C   UNL A   1      38.925  30.239  29.050  1.00  0.00     0.031 C 
ATOM     44  C   UNL A   1      45.722  29.655  28.343  1.00  0.00     0.029 A 
ATOM     45  C   UNL A   1      45.259  30.753  29.186  1.00  0.00     0.049 A 
ATOM     46  H   UNL A   1      43.285  31.257  29.631  1.00  0.00     0.167 HD
ATOM     47  C   UNL A   1      39.162  32.182  30.565  1.00  0.00     0.034 A 
ATOM     48  C   UNL A   1      46.060  31.630  29.824  1.00  0.00     0.034 A 
ATOM     49  C   UNL A   1      39.927  33.072  31.394  1.00  0.00     0.049 A 
ATOM     50  C   UNL A   1      45.452  32.636  30.762  1.00  0.00     0.074 A 
ATOM     51  C   UNL A   1      39.469  34.019  32.292  1.00  0.00     0.029 A 
ATOM     52  N   UNL A   1      41.311  33.116  31.431  1.00  0.00    -0.354 N 
ATOM     53  N   UNL A   1      44.189  32.824  31.057  1.00  0.00    -0.248 NA
ATOM     54  C   UNL A   1      46.377  33.514  31.496  1.00  0.00     0.031 C 
ATOM     55  C   UNL A   1      40.580  34.628  32.885  1.00  0.00     0.029 A 
ATOM     56  C   UNL A   1      41.726  34.064  32.348  1.00  0.00     0.049 A 
ATOM     57  H   UNL A   1      41.909  32.556  30.887  1.00  0.00     0.167 HD
ATOM     58  C   UNL A   1      44.168  33.817  32.029  1.00  0.00     0.074 A 
ATOM     59  C   UNL A   1      45.546  34.184  32.284  1.00  0.00     0.031 C 
ATOM     60  C   UNL A   1      43.100  34.379  32.642  1.00  0.00     0.034 A 
BRANCH  47  61
ATOM     61  C   UNL A   1      37.662  32.277  30.626  1.00  0.00     0.023 A 
ATOM     62  C   UNL A   1      36.992  31.645  31.694  1.00  0.00     0.012 A 
ATOM     63  C   UNL A   1      36.925  33.031  29.695  1.00  0.00     0.148 A 
ATOM     64  C   UNL A   1      35.608  31.736  31.820  1.00  0.00     0.002 A 
ATOM     65  C   UNL A   1      35.546  33.143  29.843  1.00  0.00     0.091 A 
ATOM     66  F   UNL A   1      37.582  33.618  28.685  1.00  0.00    -0.205 F 
ATOM     67  C   UNL A   1      34.887  32.490  30.899  1.00  0.00     0.022 A 
BRANCH  65  68
ATOM     68  S   UNL A   1      34.519  34.128  28.746  1.00  0.00     0.127 S 
ATOM     69  O   UNL A   1      35.059  35.469  28.967  1.00  0.00    -0.237 OA
ATOM     70  O   UNL A   1      34.831  33.553  27.438  1.00  0.00    -0.237 OA
ATOM     71  O   UNL A   1      33.148  33.931  29.192  1.00  0.00    -0.744 OA
ENDBRANCH  65  68
ENDBRANCH  47  61
BRANCH  48  72
ATOM     72  C   UNL A   1      47.538  31.478  29.726  1.00  0.00     0.023 A 
ATOM     73  C   UNL A   1      48.187  30.604  30.620  1.00  0.00     0.012 A 
ATOM     74  C   UNL A   1      48.288  32.144  28.740  1.00  0.00     0.148 A 
ATOM     75  C   UNL A   1      49.565  30.405  30.546  1.00  0.00     0.002 A 
ATOM     76  C   UNL A   1      49.659  31.921  28.654  1.00  0.00     0.091 A 
ATOM     77  F   UNL A   1      47.644  32.966  27.901  1.00  0.00    -0.205 F 
ATOM     78  C   UNL A   1      50.300  31.059  29.561  1.00  0.00     0.022 A 
BRANCH  76  79
ATOM     79  S   UNL A   1      50.687  32.655  27.378  1.00  0.00     0.127 S 
ATOM     80  O   UNL A   1      50.072  32.130  26.161  1.00  0.00    -0.237 OA
ATOM     81  O   UNL A   1      50.473  34.084  27.608  1.00  0.00    -0.237 OA
ATOM     82  O   UNL A   1      52.042  32.192  27.645  1.00  0.00    -0.744 OA
ENDBRANCH  76  79
ENDBRANCH  48  72
BRANCH  60  83
ATOM     83  C   UNL A   1      43.344  35.449  33.668  1.00  0.00     0.023 A 
ATOM     84  C   UNL A   1      43.440  36.790  33.250  1.00  0.00     0.012 A 
ATOM     85  C   UNL A   1      43.321  35.146  35.043  1.00  0.00     0.148 A 
ATOM     86  C   UNL A   1      43.506  37.818  34.189  1.00  0.00     0.002 A 
ATOM     87  C   UNL A   1      43.354  36.178  35.973  1.00  0.00     0.091 A 
ATOM     88  F   UNL A   1      43.241  33.858  35.411  1.00  0.00    -0.205 F 
ATOM     89  C   UNL A   1      43.449  37.513  35.548  1.00  0.00     0.022 A 
BRANCH  87  90
ATOM     90  S   UNL A   1      43.202  35.895  37.741  1.00  0.00     0.127 S 
ATOM     91  O   UNL A   1      44.595  35.680  38.129  1.00  0.00    -0.237 OA
ATOM     92  O   UNL A   1      42.625  37.157  38.206  1.00  0.00    -0.237 OA
ATOM     93  O   UNL A   1      42.331  34.737  37.892  1.00  0.00    -0.744 OA
ENDBRANCH  87  90
ENDBRANCH  60  83
ENDBRANCH  34  35
ENDBRANCH  27  29
ENDBRANCH  26  27
ENDBRANCH  25  26
ENDBRANCH  24  25
ENDBRANCH  23  24
ENDBRANCH   1  23
TORSDOF 22
ENDMDL
