MODEL 1
REMARK VINA RESULT:     -10.2      0.000      0.000
REMARK SMILES CCc1nn(-c2ccncn2)c(Cl)c1C(=O)OCCOCCOCCOC(=O)c1ccc(-c2c3nc(c(-c4cccc(S(=O)(=O)[O-])c4F)c4ccc([nH]4)c(-c4cccc(S(=O)(=O)[O-])c4F)c4nc(c(-c5cccc(S(=O)(=O)[O-])c5F)c5ccc2[nH]5)C=C4)C=C3)cc1
REMARK SMILES IDX 22 1 21 2 20 3 19 4 18 5 17 6 15 7 16 8 14 9 3 10 4 11 5 12
REMARK SMILES IDX 12 13 13 14 2 15 1 16 6 17 7 18 11 19 8 20 10 21 9 22 23 23
REMARK SMILES IDX 24 24 25 25 26 26 27 27 28 28 29 29 30 30 91 31 31 32 90 33
REMARK SMILES IDX 32 34 33 35 34 36 84 37 35 38 89 39 83 40 85 41 36 42 88 43
REMARK SMILES IDX 82 44 81 45 37 47 69 48 49 49 68 50 50 51 53 52 67 53 86 54
REMARK SMILES IDX 51 55 52 56 66 58 87 59 54 60 38 61 39 62 47 63 40 64 42 65
REMARK SMILES IDX 48 66 41 67 43 68 44 69 45 70 46 71 70 72 71 73 79 74 72 75
REMARK SMILES IDX 74 76 80 77 73 78 75 79 76 80 77 81 78 82 55 83 56 84 64 85
REMARK SMILES IDX 57 86 59 87 65 88 58 89 60 90 61 91 62 92 63 93
REMARK H PARENT 85 46 53 57
REMARK Flexibility Score: inf
ROOT
ATOM      1  C   UNL A   1      32.460  28.085  25.686  1.00  0.00     0.188 C 
ENDROOT
BRANCH   1   2
ATOM      2  C   UNL A   1      32.342  26.564  25.421  1.00  0.00     0.188 C 
BRANCH   2   3
ATOM      3  O   UNL A   1      31.139  25.974  24.953  1.00  0.00    -0.376 OA
BRANCH   3   4
ATOM      4  C   UNL A   1      30.940  25.768  23.564  1.00  0.00     0.202 C 
BRANCH   4   5
ATOM      5  C   UNL A   1      31.770  24.686  22.849  1.00  0.00     0.261 C 
BRANCH   5   6
ATOM      6  O   UNL A   1      32.533  23.834  23.722  1.00  0.00    -0.460 OA
BRANCH   6   7
ATOM      7  C   UNL A   1      33.740  23.407  23.233  1.00  0.00     0.343 C 
ATOM      8  O   UNL A   1      34.405  24.005  22.428  1.00  0.00    -0.246 OA
BRANCH   7   9
ATOM      9  C   UNL A   1      34.191  22.188  23.895  1.00  0.00     0.120 A 
ATOM     10  C   UNL A   1      35.377  21.885  24.625  1.00  0.00     0.079 A 
ATOM     11  N   UNL A   1      35.370  20.625  25.092  1.00  0.00    -0.169 NA
ATOM     12  N   UNL A   1      34.239  20.066  24.575  1.00  0.00    -0.203 N 
ATOM     13  C   UNL A   1      33.518  20.989  23.858  1.00  0.00     0.149 A 
ATOM     14  Cl  UNL A   1      32.035  20.571  23.112  1.00  0.00    -0.061 Cl
BRANCH  10  15
ATOM     15  C   UNL A   1      36.551  22.794  24.869  1.00  0.00     0.056 C 
ATOM     16  C   UNL A   1      36.428  23.714  26.075  1.00  0.00     0.011 C 
ENDBRANCH  10  15
BRANCH  12  17
ATOM     17  C   UNL A   1      33.916  18.703  24.811  1.00  0.00     0.158 A 
ATOM     18  C   UNL A   1      34.749  17.722  24.303  1.00  0.00     0.069 A 
ATOM     19  N   UNL A   1      32.749  18.434  25.445  1.00  0.00    -0.217 NA
ATOM     20  C   UNL A   1      34.306  16.429  24.455  1.00  0.00     0.117 A 
ATOM     21  C   UNL A   1      32.411  17.141  25.503  1.00  0.00     0.224 A 
ATOM     22  N   UNL A   1      33.132  16.112  25.033  1.00  0.00    -0.245 NA
ENDBRANCH  12  17
ENDBRANCH   7   9
ENDBRANCH   6   7
ENDBRANCH   5   6
ENDBRANCH   4   5
ENDBRANCH   3   4
ENDBRANCH   2   3
ENDBRANCH   1   2
BRANCH   1  23
ATOM     23  O   UNL A   1      33.775  28.591  25.860  1.00  0.00    -0.376 OA
BRANCH  23  24
ATOM     24  C   UNL A   1      33.998  29.416  27.001  1.00  0.00     0.202 C 
BRANCH  24  25
ATOM     25  C   UNL A   1      33.653  30.895  26.824  1.00  0.00     0.261 C 
BRANCH  25  26
ATOM     26  O   UNL A   1      33.187  31.505  28.015  1.00  0.00    -0.460 OA
BRANCH  26  27
ATOM     27  C   UNL A   1      33.119  32.850  27.994  1.00  0.00     0.338 C 
ATOM     28  O   UNL A   1      32.308  33.537  27.397  1.00  0.00    -0.246 OA
BRANCH  27  29
ATOM     29  C   UNL A   1      34.220  33.372  28.812  1.00  0.00     0.060 A 
ATOM     30  C   UNL A   1      35.266  33.976  28.113  1.00  0.00     0.016 A 
ATOM     31  C   UNL A   1      34.353  32.909  30.129  1.00  0.00     0.016 A 
ATOM     32  C   UNL A   1      36.535  33.783  28.598  1.00  0.00     0.010 A 
ATOM     33  C   UNL A   1      35.619  32.689  30.598  1.00  0.00     0.010 A 
ATOM     34  C   UNL A   1      36.677  33.009  29.752  1.00  0.00    -0.014 A 
BRANCH  34  35
ATOM     35  C   UNL A   1      37.953  32.370  29.954  1.00  0.00     0.031 A 
ATOM     36  C   UNL A   1      38.068  31.020  29.394  1.00  0.00     0.074 A 
ATOM     37  C   UNL A   1      38.962  33.031  30.551  1.00  0.00     0.049 A 
ATOM     38  N   UNL A   1      38.264  29.922  30.042  1.00  0.00    -0.248 NA
ATOM     39  C   UNL A   1      37.803  30.857  27.961  1.00  0.00     0.031 C 
ATOM     40  C   UNL A   1      39.035  34.463  30.870  1.00  0.00     0.029 A 
ATOM     41  N   UNL A   1      40.211  32.579  30.843  1.00  0.00    -0.354 N 
ATOM     42  C   UNL A   1      38.348  28.941  29.065  1.00  0.00     0.074 A 
ATOM     43  C   UNL A   1      37.884  29.534  27.837  1.00  0.00     0.031 C 
ATOM     44  C   UNL A   1      40.332  34.800  31.045  1.00  0.00     0.029 A 
ATOM     45  C   UNL A   1      41.143  33.599  30.960  1.00  0.00     0.049 A 
ATOM     46  H   UNL A   1      40.430  31.627  30.960  1.00  0.00     0.167 HD
ATOM     47  C   UNL A   1      39.004  27.774  29.280  1.00  0.00     0.034 A 
ATOM     48  C   UNL A   1      42.486  33.461  30.856  1.00  0.00     0.034 A 
ATOM     49  C   UNL A   1      39.272  27.540  30.672  1.00  0.00     0.049 A 
ATOM     50  C   UNL A   1      42.810  32.031  31.091  1.00  0.00     0.074 A 
ATOM     51  C   UNL A   1      38.491  27.398  31.800  1.00  0.00     0.029 A 
ATOM     52  N   UNL A   1      40.550  27.778  31.117  1.00  0.00    -0.354 N 
ATOM     53  N   UNL A   1      42.665  31.433  32.242  1.00  0.00    -0.248 NA
ATOM     54  C   UNL A   1      42.911  31.144  29.943  1.00  0.00     0.031 C 
ATOM     55  C   UNL A   1      39.247  27.986  32.853  1.00  0.00     0.029 A 
ATOM     56  C   UNL A   1      40.452  28.442  32.313  1.00  0.00     0.049 A 
ATOM     57  H   UNL A   1      41.383  27.519  30.661  1.00  0.00     0.167 HD
ATOM     58  C   UNL A   1      42.216  30.157  31.924  1.00  0.00     0.074 A 
ATOM     59  C   UNL A   1      42.517  29.997  30.504  1.00  0.00     0.031 C 
ATOM     60  C   UNL A   1      41.375  29.469  32.756  1.00  0.00     0.034 A 
BRANCH  47  61
ATOM     61  C   UNL A   1      39.658  26.981  28.189  1.00  0.00     0.023 A 
ATOM     62  C   UNL A   1      39.262  25.641  28.019  1.00  0.00     0.012 A 
ATOM     63  C   UNL A   1      40.789  27.423  27.467  1.00  0.00     0.148 A 
ATOM     64  C   UNL A   1      39.963  24.781  27.168  1.00  0.00     0.002 A 
ATOM     65  C   UNL A   1      41.419  26.595  26.549  1.00  0.00     0.091 A 
ATOM     66  F   UNL A   1      41.350  28.605  27.753  1.00  0.00    -0.205 F 
ATOM     67  C   UNL A   1      41.028  25.263  26.414  1.00  0.00     0.022 A 
BRANCH  65  68
ATOM     68  S   UNL A   1      42.726  27.235  25.499  1.00  0.00     0.127 S 
ATOM     69  O   UNL A   1      43.771  27.535  26.472  1.00  0.00    -0.237 OA
ATOM     70  O   UNL A   1      43.004  26.098  24.620  1.00  0.00    -0.237 OA
ATOM     71  O   UNL A   1      42.122  28.375  24.817  1.00  0.00    -0.744 OA
ENDBRANCH  65  68
ENDBRANCH  47  61
BRANCH  48  72
ATOM     72  C   UNL A   1      43.459  34.435  30.312  1.00  0.00     0.023 A 
ATOM     73  C   UNL A   1      44.608  34.766  31.052  1.00  0.00     0.012 A 
ATOM     74  C   UNL A   1      43.382  34.887  28.973  1.00  0.00     0.148 A 
ATOM     75  C   UNL A   1      45.644  35.516  30.480  1.00  0.00     0.002 A 
ATOM     76  C   UNL A   1      44.397  35.658  28.419  1.00  0.00     0.091 A 
ATOM     77  F   UNL A   1      42.363  34.481  28.203  1.00  0.00    -0.205 F 
ATOM     78  C   UNL A   1      45.537  35.968  29.166  1.00  0.00     0.022 A 
BRANCH  76  79
ATOM     79  S   UNL A   1      44.281  36.282  26.736  1.00  0.00     0.127 S 
ATOM     80  O   UNL A   1      45.244  37.385  26.743  1.00  0.00    -0.237 OA
ATOM     81  O   UNL A   1      44.688  35.120  25.951  1.00  0.00    -0.237 OA
ATOM     82  O   UNL A   1      42.895  36.709  26.579  1.00  0.00    -0.744 OA
ENDBRANCH  76  79
ENDBRANCH  48  72
BRANCH  60  83
ATOM     83  C   UNL A   1      41.128  30.024  34.143  1.00  0.00     0.023 A 
ATOM     84  C   UNL A   1      42.056  29.827  35.187  1.00  0.00     0.012 A 
ATOM     85  C   UNL A   1      40.066  30.923  34.350  1.00  0.00     0.148 A 
ATOM     86  C   UNL A   1      41.918  30.480  36.413  1.00  0.00     0.002 A 
ATOM     87  C   UNL A   1      39.959  31.612  35.556  1.00  0.00     0.091 A 
ATOM     88  F   UNL A   1      39.190  31.119  33.352  1.00  0.00    -0.205 F 
ATOM     89  C   UNL A   1      40.877  31.384  36.593  1.00  0.00     0.022 A 
BRANCH  87  90
ATOM     90  S   UNL A   1      38.731  32.902  35.794  1.00  0.00     0.127 S 
ATOM     91  O   UNL A   1      37.482  32.146  35.775  1.00  0.00    -0.237 OA
ATOM     92  O   UNL A   1      39.092  33.451  37.103  1.00  0.00    -0.237 OA
ATOM     93  O   UNL A   1      38.926  33.835  34.690  1.00  0.00    -0.744 OA
ENDBRANCH  87  90
ENDBRANCH  60  83
ENDBRANCH  34  35
ENDBRANCH  27  29
ENDBRANCH  26  27
ENDBRANCH  25  26
ENDBRANCH  24  25
ENDBRANCH  23  24
ENDBRANCH   1  23
TORSDOF 22
ENDMDL
MODEL 2
REMARK VINA RESULT:      -9.8      4.760      7.165
REMARK SMILES CCc1nn(-c2ccncn2)c(Cl)c1C(=O)OCCOCCOCCOC(=O)c1ccc(-c2c3nc(c(-c4cccc(S(=O)(=O)[O-])c4F)c4ccc([nH]4)c(-c4cccc(S(=O)(=O)[O-])c4F)c4nc(c(-c5cccc(S(=O)(=O)[O-])c5F)c5ccc2[nH]5)C=C4)C=C3)cc1
REMARK SMILES IDX 22 1 21 2 20 3 19 4 18 5 17 6 15 7 16 8 14 9 3 10 4 11 5 12
REMARK SMILES IDX 12 13 13 14 2 15 1 16 6 17 7 18 11 19 8 20 10 21 9 22 23 23
REMARK SMILES IDX 24 24 25 25 26 26 27 27 28 28 29 29 30 30 91 31 31 32 90 33
REMARK SMILES IDX 32 34 33 35 34 36 84 37 35 38 89 39 83 40 85 41 36 42 88 43
REMARK SMILES IDX 82 44 81 45 37 47 69 48 49 49 68 50 50 51 53 52 67 53 86 54
REMARK SMILES IDX 51 55 52 56 66 58 87 59 54 60 38 61 39 62 47 63 40 64 42 65
REMARK SMILES IDX 48 66 41 67 43 68 44 69 45 70 46 71 70 72 71 73 79 74 72 75
REMARK SMILES IDX 74 76 80 77 73 78 75 79 76 80 77 81 78 82 55 83 56 84 64 85
REMARK SMILES IDX 57 86 59 87 65 88 58 89 60 90 61 91 62 92 63 93
REMARK H PARENT 85 46 53 57
REMARK Flexibility Score: inf
ROOT
ATOM      1  C   UNL A   1      35.350  34.154  29.331  1.00  0.00     0.188 C 
ENDROOT
BRANCH   1   2
ATOM      2  C   UNL A   1      34.779  33.639  27.988  1.00  0.00     0.188 C 
BRANCH   2   3
ATOM      3  O   UNL A   1      34.919  32.286  27.582  1.00  0.00    -0.376 OA
BRANCH   3   4
ATOM      4  C   UNL A   1      33.862  31.365  27.796  1.00  0.00     0.202 C 
BRANCH   4   5
ATOM      5  C   UNL A   1      34.058  29.900  27.364  1.00  0.00     0.261 C 
BRANCH   5   6
ATOM      6  O   UNL A   1      33.807  29.641  25.971  1.00  0.00    -0.460 OA
BRANCH   6   7
ATOM      7  C   UNL A   1      33.217  28.438  25.684  1.00  0.00     0.343 C 
ATOM      8  O   UNL A   1      33.410  27.417  26.291  1.00  0.00    -0.246 OA
BRANCH   7   9
ATOM      9  C   UNL A   1      32.227  28.561  24.620  1.00  0.00     0.120 A 
ATOM     10  C   UNL A   1      31.992  27.787  23.447  1.00  0.00     0.079 A 
ATOM     11  N   UNL A   1      30.939  28.246  22.747  1.00  0.00    -0.169 NA
ATOM     12  N   UNL A   1      30.557  29.382  23.394  1.00  0.00    -0.203 N 
ATOM     13  C   UNL A   1      31.314  29.585  24.521  1.00  0.00     0.149 A 
ATOM     14  Cl  UNL A   1      31.039  30.928  25.545  1.00  0.00    -0.061 Cl
BRANCH  10  15
ATOM     15  C   UNL A   1      32.786  26.605  22.962  1.00  0.00     0.056 C 
ATOM     16  C   UNL A   1      32.016  25.595  22.124  1.00  0.00     0.011 C 
ENDBRANCH  10  15
BRANCH  12  17
ATOM     17  C   UNL A   1      29.490  30.185  22.907  1.00  0.00     0.158 A 
ATOM     18  C   UNL A   1      29.424  30.456  21.552  1.00  0.00     0.069 A 
ATOM     19  N   UNL A   1      28.643  30.724  23.817  1.00  0.00    -0.217 NA
ATOM     20  C   UNL A   1      28.447  31.344  21.170  1.00  0.00     0.117 A 
ATOM     21  C   UNL A   1      27.756  31.598  23.327  1.00  0.00     0.224 A 
ATOM     22  N   UNL A   1      27.612  31.945  22.039  1.00  0.00    -0.245 NA
ENDBRANCH  12  17
ENDBRANCH   7   9
ENDBRANCH   6   7
ENDBRANCH   5   6
ENDBRANCH   4   5
ENDBRANCH   3   4
ENDBRANCH   2   3
ENDBRANCH   1   2
BRANCH   1  23
ATOM     23  O   UNL A   1      34.978  33.425  30.491  1.00  0.00    -0.376 OA
BRANCH  23  24
ATOM     24  C   UNL A   1      36.033  33.038  31.369  1.00  0.00     0.202 C 
BRANCH  24  25
ATOM     25  C   UNL A   1      37.260  32.423  30.696  1.00  0.00     0.261 C 
BRANCH  25  26
ATOM     26  O   UNL A   1      36.958  31.269  29.932  1.00  0.00    -0.460 OA
BRANCH  26  27
ATOM     27  C   UNL A   1      36.910  30.110  30.618  1.00  0.00     0.338 C 
ATOM     28  O   UNL A   1      36.437  29.932  31.727  1.00  0.00    -0.246 OA
BRANCH  27  29
ATOM     29  C   UNL A   1      37.553  29.074  29.803  1.00  0.00     0.060 A 
ATOM     30  C   UNL A   1      37.980  27.936  30.488  1.00  0.00     0.016 A 
ATOM     31  C   UNL A   1      38.039  29.425  28.535  1.00  0.00     0.016 A 
ATOM     32  C   UNL A   1      39.152  27.358  30.070  1.00  0.00     0.010 A 
ATOM     33  C   UNL A   1      39.224  28.870  28.136  1.00  0.00     0.010 A 
ATOM     34  C   UNL A   1      39.816  27.946  28.992  1.00  0.00    -0.014 A 
BRANCH  34  35
ATOM     35  C   UNL A   1      41.235  27.710  28.894  1.00  0.00     0.031 A 
ATOM     36  C   UNL A   1      41.612  26.449  28.248  1.00  0.00     0.074 A 
ATOM     37  C   UNL A   1      42.114  28.641  29.308  1.00  0.00     0.049 A 
ATOM     38  N   UNL A   1      42.247  25.461  28.779  1.00  0.00    -0.248 NA
ATOM     39  C   UNL A   1      41.107  26.206  26.891  1.00  0.00     0.031 C 
ATOM     40  C   UNL A   1      41.838  30.034  29.685  1.00  0.00     0.029 A 
ATOM     41  N   UNL A   1      43.471  28.576  29.313  1.00  0.00    -0.354 N 
ATOM     42  C   UNL A   1      42.400  24.542  27.752  1.00  0.00     0.074 A 
ATOM     43  C   UNL A   1      41.537  24.965  26.680  1.00  0.00     0.031 C 
ATOM     44  C   UNL A   1      42.989  30.737  29.610  1.00  0.00     0.029 A 
ATOM     45  C   UNL A   1      44.075  29.825  29.295  1.00  0.00     0.049 A 
ATOM     46  H   UNL A   1      43.974  27.731  29.330  1.00  0.00     0.167 HD
ATOM     47  C   UNL A   1      43.394  23.618  27.763  1.00  0.00     0.034 A 
ATOM     48  C   UNL A   1      45.346  30.086  28.911  1.00  0.00     0.034 A 
ATOM     49  C   UNL A   1      44.006  23.483  29.056  1.00  0.00     0.049 A 
ATOM     50  C   UNL A   1      46.110  28.815  28.995  1.00  0.00     0.074 A 
ATOM     51  C   UNL A   1      43.556  23.125  30.310  1.00  0.00     0.029 A 
ATOM     52  N   UNL A   1      45.226  24.087  29.243  1.00  0.00    -0.354 N 
ATOM     53  N   UNL A   1      46.389  28.208  30.116  1.00  0.00    -0.248 NA
ATOM     54  C   UNL A   1      46.216  27.989  27.803  1.00  0.00     0.031 C 
ATOM     55  C   UNL A   1      44.316  23.915  31.218  1.00  0.00     0.029 A 
ATOM     56  C   UNL A   1      45.196  24.701  30.470  1.00  0.00     0.049 A 
ATOM     57  H   UNL A   1      45.983  24.080  28.613  1.00  0.00     0.167 HD
ATOM     58  C   UNL A   1      46.269  26.854  29.826  1.00  0.00     0.074 A 
ATOM     59  C   UNL A   1      46.296  26.780  28.367  1.00  0.00     0.031 C 
ATOM     60  C   UNL A   1      45.857  25.956  30.771  1.00  0.00     0.034 A 
BRANCH  47  61
ATOM     61  C   UNL A   1      44.002  23.045  26.520  1.00  0.00     0.023 A 
ATOM     62  C   UNL A   1      44.572  23.936  25.591  1.00  0.00     0.012 A 
ATOM     63  C   UNL A   1      43.851  21.698  26.120  1.00  0.00     0.148 A 
ATOM     64  C   UNL A   1      44.972  23.505  24.323  1.00  0.00     0.002 A 
ATOM     65  C   UNL A   1      44.341  21.255  24.900  1.00  0.00     0.091 A 
ATOM     66  F   UNL A   1      43.116  20.856  26.858  1.00  0.00    -0.205 F 
ATOM     67  C   UNL A   1      44.879  22.159  23.984  1.00  0.00     0.022 A 
BRANCH  65  68
ATOM     68  S   UNL A   1      44.319  19.507  24.495  1.00  0.00     0.127 S 
ATOM     69  O   UNL A   1      45.378  18.987  25.354  1.00  0.00    -0.237 OA
ATOM     70  O   UNL A   1      42.961  19.116  24.877  1.00  0.00    -0.237 OA
ATOM     71  O   UNL A   1      44.563  19.461  23.057  1.00  0.00    -0.744 OA
ENDBRANCH  65  68
ENDBRANCH  47  61
BRANCH  48  72
ATOM     72  C   UNL A   1      45.860  31.299  28.235  1.00  0.00     0.023 A 
ATOM     73  C   UNL A   1      47.203  31.681  28.406  1.00  0.00     0.012 A 
ATOM     74  C   UNL A   1      45.102  31.971  27.248  1.00  0.00     0.148 A 
ATOM     75  C   UNL A   1      47.770  32.693  27.622  1.00  0.00     0.002 A 
ATOM     76  C   UNL A   1      45.659  32.998  26.493  1.00  0.00     0.091 A 
ATOM     77  F   UNL A   1      43.862  31.545  26.972  1.00  0.00    -0.205 F 
ATOM     78  C   UNL A   1      46.999  33.356  26.669  1.00  0.00     0.022 A 
BRANCH  76  79
ATOM     79  S   UNL A   1      44.686  33.894  25.275  1.00  0.00     0.127 S 
ATOM     80  O   UNL A   1      43.538  34.348  26.064  1.00  0.00    -0.237 OA
ATOM     81  O   UNL A   1      45.605  34.952  24.868  1.00  0.00    -0.237 OA
ATOM     82  O   UNL A   1      44.347  32.909  24.254  1.00  0.00    -0.744 OA
ENDBRANCH  76  79
ENDBRANCH  48  72
BRANCH  60  83
ATOM     83  C   UNL A   1      45.760  26.423  32.208  1.00  0.00     0.023 A 
ATOM     84  C   UNL A   1      46.887  26.419  33.058  1.00  0.00     0.012 A 
ATOM     85  C   UNL A   1      44.589  27.065  32.651  1.00  0.00     0.148 A 
ATOM     86  C   UNL A   1      46.843  27.008  34.323  1.00  0.00     0.002 A 
ATOM     87  C   UNL A   1      44.565  27.696  33.892  1.00  0.00     0.091 A 
ATOM     88  F   UNL A   1      43.522  27.078  31.837  1.00  0.00    -0.205 F 
ATOM     89  C   UNL A   1      45.686  27.659  34.735  1.00  0.00     0.022 A 
BRANCH  87  90
ATOM     90  S   UNL A   1      43.157  28.683  34.415  1.00  0.00     0.127 S 
ATOM     91  O   UNL A   1      43.779  29.657  35.308  1.00  0.00    -0.237 OA
ATOM     92  O   UNL A   1      42.667  29.238  33.152  1.00  0.00    -0.237 OA
ATOM     93  O   UNL A   1      42.234  27.745  35.044  1.00  0.00    -0.744 OA
ENDBRANCH  87  90
ENDBRANCH  60  83
ENDBRANCH  34  35
ENDBRANCH  27  29
ENDBRANCH  26  27
ENDBRANCH  25  26
ENDBRANCH  24  25
ENDBRANCH  23  24
ENDBRANCH   1  23
TORSDOF 22
ENDMDL
MODEL 3
REMARK VINA RESULT:      -9.7      3.537      7.631
REMARK SMILES CCc1nn(-c2ccncn2)c(Cl)c1C(=O)OCCOCCOCCOC(=O)c1ccc(-c2c3nc(c(-c4cccc(S(=O)(=O)[O-])c4F)c4ccc([nH]4)c(-c4cccc(S(=O)(=O)[O-])c4F)c4nc(c(-c5cccc(S(=O)(=O)[O-])c5F)c5ccc2[nH]5)C=C4)C=C3)cc1
REMARK SMILES IDX 22 1 21 2 20 3 19 4 18 5 17 6 15 7 16 8 14 9 3 10 4 11 5 12
REMARK SMILES IDX 12 13 13 14 2 15 1 16 6 17 7 18 11 19 8 20 10 21 9 22 23 23
REMARK SMILES IDX 24 24 25 25 26 26 27 27 28 28 29 29 30 30 91 31 31 32 90 33
REMARK SMILES IDX 32 34 33 35 34 36 84 37 35 38 89 39 83 40 85 41 36 42 88 43
REMARK SMILES IDX 82 44 81 45 37 47 69 48 49 49 68 50 50 51 53 52 67 53 86 54
REMARK SMILES IDX 51 55 52 56 66 58 87 59 54 60 38 61 39 62 47 63 40 64 42 65
REMARK SMILES IDX 48 66 41 67 43 68 44 69 45 70 46 71 70 72 71 73 79 74 72 75
REMARK SMILES IDX 74 76 80 77 73 78 75 79 76 80 77 81 78 82 55 83 56 84 64 85
REMARK SMILES IDX 57 86 59 87 65 88 58 89 60 90 61 91 62 92 63 93
REMARK H PARENT 85 46 53 57
REMARK Flexibility Score: inf
ROOT
ATOM      1  C   UNL A   1      32.160  28.496  24.876  1.00  0.00     0.188 C 
ENDROOT
BRANCH   1   2
ATOM      2  C   UNL A   1      31.914  27.028  25.301  1.00  0.00     0.188 C 
BRANCH   2   3
ATOM      3  O   UNL A   1      30.848  26.259  24.764  1.00  0.00    -0.376 OA
BRANCH   3   4
ATOM      4  C   UNL A   1      30.882  24.843  24.839  1.00  0.00     0.202 C 
BRANCH   4   5
ATOM      5  C   UNL A   1      31.133  24.039  23.550  1.00  0.00     0.261 C 
BRANCH   5   6
ATOM      6  O   UNL A   1      31.447  22.650  23.754  1.00  0.00    -0.460 OA
BRANCH   6   7
ATOM      7  C   UNL A   1      32.557  22.187  23.097  1.00  0.00     0.343 C 
ATOM      8  O   UNL A   1      32.957  22.609  22.043  1.00  0.00    -0.246 OA
BRANCH   7   9
ATOM      9  C   UNL A   1      33.276  21.192  23.884  1.00  0.00     0.120 A 
ATOM     10  C   UNL A   1      34.380  21.304  24.779  1.00  0.00     0.079 A 
ATOM     11  N   UNL A   1      34.711  20.118  25.317  1.00  0.00    -0.169 NA
ATOM     12  N   UNL A   1      33.904  19.213  24.694  1.00  0.00    -0.203 N 
ATOM     13  C   UNL A   1      33.035  19.839  23.835  1.00  0.00     0.149 A 
ATOM     14  Cl  UNL A   1      31.886  18.949  22.931  1.00  0.00    -0.061 Cl
BRANCH  10  15
ATOM     15  C   UNL A   1      35.154  22.549  25.116  1.00  0.00     0.056 C 
ATOM     16  C   UNL A   1      35.183  23.617  24.032  1.00  0.00     0.011 C 
ENDBRANCH  10  15
BRANCH  12  17
ATOM     17  C   UNL A   1      34.004  17.823  24.970  1.00  0.00     0.158 A 
ATOM     18  C   UNL A   1      35.254  17.229  24.960  1.00  0.00     0.069 A 
ATOM     19  N   UNL A   1      32.852  17.130  25.136  1.00  0.00    -0.217 NA
ATOM     20  C   UNL A   1      35.263  15.861  25.103  1.00  0.00     0.117 A 
ATOM     21  C   UNL A   1      32.988  15.802  25.233  1.00  0.00     0.224 A 
ATOM     22  N   UNL A   1      34.144  15.122  25.222  1.00  0.00    -0.245 NA
ENDBRANCH  12  17
ENDBRANCH   7   9
ENDBRANCH   6   7
ENDBRANCH   5   6
ENDBRANCH   4   5
ENDBRANCH   3   4
ENDBRANCH   2   3
ENDBRANCH   1   2
BRANCH   1  23
ATOM     23  O   UNL A   1      31.985  29.479  25.886  1.00  0.00    -0.376 OA
BRANCH  23  24
ATOM     24  C   UNL A   1      32.914  29.458  26.967  1.00  0.00     0.202 C 
BRANCH  24  25
ATOM     25  C   UNL A   1      33.729  30.736  27.161  1.00  0.00     0.261 C 
BRANCH  25  26
ATOM     26  O   UNL A   1      35.104  30.490  27.400  1.00  0.00    -0.460 OA
BRANCH  26  27
ATOM     27  C   UNL A   1      35.786  31.497  27.980  1.00  0.00     0.338 C 
ATOM     28  O   UNL A   1      35.826  32.661  27.620  1.00  0.00    -0.246 OA
BRANCH  27  29
ATOM     29  C   UNL A   1      36.508  30.950  29.134  1.00  0.00     0.060 A 
ATOM     30  C   UNL A   1      37.500  31.768  29.677  1.00  0.00     0.016 A 
ATOM     31  C   UNL A   1      36.451  29.568  29.366  1.00  0.00     0.016 A 
ATOM     32  C   UNL A   1      38.633  31.150  30.142  1.00  0.00     0.010 A 
ATOM     33  C   UNL A   1      37.592  28.952  29.801  1.00  0.00     0.010 A 
ATOM     34  C   UNL A   1      38.699  29.759  30.045  1.00  0.00    -0.014 A 
BRANCH  34  35
ATOM     35  C   UNL A   1      40.015  29.170  30.015  1.00  0.00     0.031 A 
ATOM     36  C   UNL A   1      40.657  29.017  31.324  1.00  0.00     0.074 A 
ATOM     37  C   UNL A   1      40.544  28.736  28.855  1.00  0.00     0.049 A 
ATOM     38  N   UNL A   1      41.743  29.582  31.729  1.00  0.00    -0.248 NA
ATOM     39  C   UNL A   1      39.937  28.248  32.345  1.00  0.00     0.031 C 
ATOM     40  C   UNL A   1      39.867  28.576  27.562  1.00  0.00     0.029 A 
ATOM     41  N   UNL A   1      41.768  28.185  28.641  1.00  0.00    -0.354 N 
ATOM     42  C   UNL A   1      41.953  29.077  33.004  1.00  0.00     0.074 A 
ATOM     43  C   UNL A   1      40.737  28.412  33.396  1.00  0.00     0.031 C 
ATOM     44  C   UNL A   1      40.591  27.729  26.798  1.00  0.00     0.029 A 
ATOM     45  C   UNL A   1      41.814  27.391  27.505  1.00  0.00     0.049 A 
ATOM     46  H   UNL A   1      42.541  28.335  29.230  1.00  0.00     0.167 HD
ATOM     47  C   UNL A   1      43.188  29.045  33.564  1.00  0.00     0.034 A 
ATOM     48  C   UNL A   1      42.731  26.429  27.247  1.00  0.00     0.034 A 
ATOM     49  C   UNL A   1      44.131  29.874  32.867  1.00  0.00     0.049 A 
ATOM     50  C   UNL A   1      43.916  26.699  28.099  1.00  0.00     0.074 A 
ATOM     51  C   UNL A   1      44.212  31.222  32.581  1.00  0.00     0.029 A 
ATOM     52  N   UNL A   1      45.026  29.250  32.032  1.00  0.00    -0.354 N 
ATOM     53  N   UNL A   1      44.701  27.731  27.947  1.00  0.00    -0.248 NA
ATOM     54  C   UNL A   1      44.004  26.042  29.394  1.00  0.00     0.031 C 
ATOM     55  C   UNL A   1      44.825  31.294  31.298  1.00  0.00     0.029 A 
ATOM     56  C   UNL A   1      45.096  29.989  30.878  1.00  0.00     0.049 A 
ATOM     57  H   UNL A   1      45.524  28.423  32.225  1.00  0.00     0.167 HD
ATOM     58  C   UNL A   1      45.038  28.114  29.240  1.00  0.00     0.074 A 
ATOM     59  C   UNL A   1      44.694  26.965  30.073  1.00  0.00     0.031 C 
ATOM     60  C   UNL A   1      45.277  29.423  29.555  1.00  0.00     0.034 A 
BRANCH  47  61
ATOM     61  C   UNL A   1      43.607  28.027  34.581  1.00  0.00     0.023 A 
ATOM     62  C   UNL A   1      44.149  28.490  35.795  1.00  0.00     0.012 A 
ATOM     63  C   UNL A   1      43.693  26.642  34.316  1.00  0.00     0.148 A 
ATOM     64  C   UNL A   1      44.750  27.613  36.702  1.00  0.00     0.002 A 
ATOM     65  C   UNL A   1      44.199  25.763  35.263  1.00  0.00     0.091 A 
ATOM     66  F   UNL A   1      43.407  26.171  33.095  1.00  0.00    -0.205 F 
ATOM     67  C   UNL A   1      44.754  26.245  36.449  1.00  0.00     0.022 A 
BRANCH  65  68
ATOM     68  S   UNL A   1      44.116  23.991  34.992  1.00  0.00     0.127 S 
ATOM     69  O   UNL A   1      44.939  23.833  33.796  1.00  0.00    -0.237 OA
ATOM     70  O   UNL A   1      44.702  23.460  36.223  1.00  0.00    -0.237 OA
ATOM     71  O   UNL A   1      42.692  23.709  34.845  1.00  0.00    -0.744 OA
ENDBRANCH  65  68
ENDBRANCH  47  61
BRANCH  48  72
ATOM     72  C   UNL A   1      42.533  25.161  26.509  1.00  0.00     0.023 A 
ATOM     73  C   UNL A   1      43.425  24.802  25.483  1.00  0.00     0.012 A 
ATOM     74  C   UNL A   1      41.600  24.190  26.944  1.00  0.00     0.148 A 
ATOM     75  C   UNL A   1      43.391  23.522  24.912  1.00  0.00     0.002 A 
ATOM     76  C   UNL A   1      41.548  22.933  26.353  1.00  0.00     0.091 A 
ATOM     77  F   UNL A   1      40.825  24.457  28.005  1.00  0.00    -0.205 F 
ATOM     78  C   UNL A   1      42.449  22.590  25.342  1.00  0.00     0.022 A 
BRANCH  76  79
ATOM     79  S   UNL A   1      40.328  21.714  26.863  1.00  0.00     0.127 S 
ATOM     80  O   UNL A   1      40.582  20.609  25.936  1.00  0.00    -0.237 OA
ATOM     81  O   UNL A   1      40.716  21.454  28.246  1.00  0.00    -0.237 OA
ATOM     82  O   UNL A   1      39.035  22.360  26.670  1.00  0.00    -0.744 OA
ENDBRANCH  76  79
ENDBRANCH  48  72
BRANCH  60  83
ATOM     83  C   UNL A   1      45.402  30.421  28.423  1.00  0.00     0.023 A 
ATOM     84  C   UNL A   1      44.262  31.011  27.837  1.00  0.00     0.012 A 
ATOM     85  C   UNL A   1      46.669  30.930  28.084  1.00  0.00     0.148 A 
ATOM     86  C   UNL A   1      44.378  32.055  26.917  1.00  0.00     0.002 A 
ATOM     87  C   UNL A   1      46.778  32.005  27.206  1.00  0.00     0.091 A 
ATOM     88  F   UNL A   1      47.752  30.376  28.651  1.00  0.00    -0.205 F 
ATOM     89  C   UNL A   1      45.635  32.562  26.612  1.00  0.00     0.022 A 
BRANCH  87  90
ATOM     90  S   UNL A   1      48.358  32.802  26.890  1.00  0.00     0.127 S 
ATOM     91  O   UNL A   1      48.015  33.761  25.842  1.00  0.00    -0.237 OA
ATOM     92  O   UNL A   1      48.678  33.404  28.186  1.00  0.00    -0.237 OA
ATOM     93  O   UNL A   1      49.265  31.730  26.498  1.00  0.00    -0.744 OA
ENDBRANCH  87  90
ENDBRANCH  60  83
ENDBRANCH  34  35
ENDBRANCH  27  29
ENDBRANCH  26  27
ENDBRANCH  25  26
ENDBRANCH  24  25
ENDBRANCH  23  24
ENDBRANCH   1  23
TORSDOF 22
ENDMDL
