MODEL 1
REMARK VINA RESULT:     -12.5      0.000      0.000
REMARK SMILES Cc1cccc(OC2(C(=O)OCCOCCOCCOC(=O)c3ccc(-c4c5nc(c(-c6cccc(S(=O)(=O)[O-])c6F)c6ccc([nH]6)c(-c6cccc(S(=O)(=O)[O-])c6F)c6nc(c(-c7cccc(S(=O)(=O)[O-])c7F)c7ccc4[nH]7)C=C6)C=C5)cc3)CCN(C(=O)c3cnc[nH]c3=O)CC2)c1
REMARK SMILES IDX 16 1 15 2 14 3 13 4 12 5 11 6 9 7 10 8 8 9 86 10 99 11 87 12
REMARK SMILES IDX 98 13 88 14 89 15 90 16 7 17 6 18 1 19 2 20 3 21 100 22 4 23
REMARK SMILES IDX 5 24 91 25 92 26 96 27 93 28 95 29 97 30 94 31 17 33 18 34
REMARK SMILES IDX 19 35 20 36 21 37 22 38 23 39 24 40 85 41 25 42 84 43 26 44
REMARK SMILES IDX 27 45 28 46 78 47 29 48 83 49 77 50 79 51 30 52 82 53 76 54
REMARK SMILES IDX 75 55 31 57 63 58 43 59 62 60 44 61 47 62 61 63 80 64 45 65
REMARK SMILES IDX 46 66 60 68 81 69 48 70 32 71 33 72 41 73 34 74 36 75 42 76
REMARK SMILES IDX 35 77 37 78 38 79 39 80 40 81 64 82 65 83 73 84 66 85 68 86
REMARK SMILES IDX 74 87 67 88 69 89 70 90 71 91 72 92 49 93 50 94 58 95 51 96
REMARK SMILES IDX 53 97 59 98 52 99 54 100 55 101 56 102 57 103
REMARK H PARENT 95 32 79 56 47 67
REMARK Flexibility Score: inf
ROOT
ATOM      1  C   UNL A   1      41.544  20.117  26.412  1.00  0.00     0.188 C 
ENDROOT
BRANCH   1   2
ATOM      2  C   UNL A   1      40.717  21.381  26.223  1.00  0.00     0.188 C 
BRANCH   2   3
ATOM      3  O   UNL A   1      39.298  21.495  26.465  1.00  0.00    -0.376 OA
BRANCH   3   4
ATOM      4  C   UNL A   1      38.269  21.866  25.514  1.00  0.00     0.202 C 
BRANCH   4   5
ATOM      5  C   UNL A   1      36.801  22.788  25.731  1.00  0.00     0.261 C 
BRANCH   5   6
ATOM      6  O   UNL A   1      35.282  22.397  26.655  1.00  0.00    -0.460 OA
BRANCH   6   7
ATOM      7  C   UNL A   1      33.828  22.779  26.807  1.00  0.00     0.350 C 
ATOM      8  O   UNL A   1      33.249  23.190  27.822  1.00  0.00    -0.247 OA
BRANCH   7   9
ATOM      9  C   UNL A   1      32.880  22.813  25.612  1.00  0.00     0.209 C 
ATOM     10  C   UNL A   1      31.478  22.824  26.164  1.00  0.00     0.082 C 
ATOM     11  C   UNL A   1      33.319  24.060  24.785  1.00  0.00     0.082 C 
ATOM     12  C   UNL A   1      30.484  23.465  25.240  1.00  0.00     0.124 C 
ATOM     13  C   UNL A   1      32.216  24.494  23.853  1.00  0.00     0.124 C 
ATOM     14  N   UNL A   1      31.025  24.677  24.675  1.00  0.00    -0.338 N 
ATOM     15  C   UNL A   1      30.655  25.909  25.192  1.00  0.00     0.261 C 
ATOM     16  O   UNL A   1      30.140  26.075  26.290  1.00  0.00    -0.269 OA
BRANCH   9  17
ATOM     17  O   UNL A   1      33.362  21.674  24.849  1.00  0.00    -0.475 OA
BRANCH  17  18
ATOM     18  C   UNL A   1      32.724  20.531  24.480  1.00  0.00     0.121 A 
ATOM     19  C   UNL A   1      33.037  16.935  25.577  1.00  0.00     0.044 C 
ATOM     20  C   UNL A   1      32.632  18.121  24.754  1.00  0.00    -0.047 A 
ATOM     21  C   UNL A   1      32.338  17.959  23.396  1.00  0.00     0.003 A 
ATOM     22  C   UNL A   1      32.769  19.411  25.294  1.00  0.00     0.050 A 
ATOM     23  C   UNL A   1      32.207  19.082  22.581  1.00  0.00     0.004 A 
ATOM     24  C   UNL A   1      32.428  20.360  23.118  1.00  0.00     0.046 A 
ENDBRANCH  17  18
ENDBRANCH   9  17
BRANCH  15  25
ATOM     25  C   UNL A   1      30.805  27.003  24.223  1.00  0.00     0.123 A 
ATOM     26  C   UNL A   1      29.993  27.146  23.167  1.00  0.00     0.132 A 
ATOM     27  C   UNL A   1      31.781  28.076  24.490  1.00  0.00     0.263 A 
ATOM     28  N   UNL A   1      29.995  28.243  22.332  1.00  0.00    -0.246 NA
ATOM     29  N   UNL A   1      31.664  29.172  23.690  1.00  0.00    -0.312 N 
ATOM     30  O   UNL A   1      32.642  28.020  25.361  1.00  0.00    -0.269 OA
ATOM     31  C   UNL A   1      30.797  29.203  22.640  1.00  0.00     0.199 A 
ATOM     32  H   UNL A   1      32.221  29.963  23.875  1.00  0.00     0.171 HD
ENDBRANCH  15  25
ENDBRANCH   7   9
ENDBRANCH   6   7
ENDBRANCH   5   6
ENDBRANCH   4   5
ENDBRANCH   3   4
ENDBRANCH   2   3
ENDBRANCH   1   2
BRANCH   1  33
ATOM     33  O   UNL A   1      42.404  19.906  25.321  1.00  0.00    -0.376 OA
BRANCH  33  34
ATOM     34  C   UNL A   1      43.780  19.824  25.623  1.00  0.00     0.202 C 
BRANCH  34  35
ATOM     35  C   UNL A   1      44.689  20.787  24.833  1.00  0.00     0.261 C 
BRANCH  35  36
ATOM     36  O   UNL A   1      44.878  22.065  25.484  1.00  0.00    -0.460 OA
BRANCH  36  37
ATOM     37  C   UNL A   1      43.877  23.005  25.321  1.00  0.00     0.338 C 
ATOM     38  O   UNL A   1      43.163  23.044  24.330  1.00  0.00    -0.246 OA
BRANCH  37  39
ATOM     39  C   UNL A   1      43.836  23.943  26.487  1.00  0.00     0.060 A 
ATOM     40  C   UNL A   1      42.967  24.003  27.597  1.00  0.00     0.016 A 
ATOM     41  C   UNL A   1      44.668  24.989  26.364  1.00  0.00     0.016 A 
ATOM     42  C   UNL A   1      42.817  25.199  28.472  1.00  0.00     0.010 A 
ATOM     43  C   UNL A   1      44.376  26.120  27.102  1.00  0.00     0.010 A 
ATOM     44  C   UNL A   1      43.486  26.402  28.222  1.00  0.00    -0.014 A 
BRANCH  44  45
ATOM     45  C   UNL A   1      43.291  27.954  29.044  1.00  0.00     0.031 A 
ATOM     46  C   UNL A   1      41.861  28.983  29.464  1.00  0.00     0.074 A 
ATOM     47  C   UNL A   1      44.393  28.494  29.602  1.00  0.00     0.049 A 
ATOM     48  N   UNL A   1      41.825  30.302  29.442  1.00  0.00    -0.248 NA
ATOM     49  C   UNL A   1      40.393  28.557  29.735  1.00  0.00     0.031 C 
ATOM     50  C   UNL A   1      44.415  29.445  30.710  1.00  0.00     0.029 A 
ATOM     51  N   UNL A   1      45.739  28.212  29.381  1.00  0.00    -0.354 N 
ATOM     52  C   UNL A   1      40.501  30.708  29.776  1.00  0.00     0.074 A 
ATOM     53  C   UNL A   1      39.643  29.619  29.562  1.00  0.00     0.031 C 
ATOM     54  C   UNL A   1      45.683  29.831  30.925  1.00  0.00     0.029 A 
ATOM     55  C   UNL A   1      46.474  29.316  29.827  1.00  0.00     0.049 A 
ATOM     56  H   UNL A   1      46.106  27.389  28.984  1.00  0.00     0.167 HD
ATOM     57  C   UNL A   1      40.194  31.741  30.611  1.00  0.00     0.034 A 
ATOM     58  C   UNL A   1      47.238  30.028  28.955  1.00  0.00     0.034 A 
ATOM     59  C   UNL A   1      41.433  32.388  30.971  1.00  0.00     0.049 A 
ATOM     60  C   UNL A   1      46.785  31.468  28.854  1.00  0.00     0.074 A 
ATOM     61  C   UNL A   1      42.306  32.222  32.030  1.00  0.00     0.029 A 
ATOM     62  N   UNL A   1      42.132  33.011  29.963  1.00  0.00    -0.354 N 
ATOM     63  N   UNL A   1      45.796  31.980  29.537  1.00  0.00    -0.248 NA
ATOM     64  C   UNL A   1      47.404  32.455  27.978  1.00  0.00     0.031 C 
ATOM     65  C   UNL A   1      43.572  32.725  31.617  1.00  0.00     0.029 A 
ATOM     66  C   UNL A   1      43.450  33.216  30.328  1.00  0.00     0.049 A 
ATOM     67  H   UNL A   1      41.747  33.276  29.096  1.00  0.00     0.167 HD
ATOM     68  C   UNL A   1      45.497  33.228  29.062  1.00  0.00     0.074 A 
ATOM     69  C   UNL A   1      46.611  33.524  28.179  1.00  0.00     0.031 C 
ATOM     70  C   UNL A   1      44.325  33.869  29.363  1.00  0.00     0.034 A 
BRANCH  57  71
ATOM     71  C   UNL A   1      38.874  31.849  31.421  1.00  0.00     0.023 A 
ATOM     72  C   UNL A   1      38.729  30.937  32.488  1.00  0.00     0.012 A 
ATOM     73  C   UNL A   1      37.744  32.695  31.199  1.00  0.00     0.148 A 
ATOM     74  C   UNL A   1      37.533  30.776  33.201  1.00  0.00     0.002 A 
ATOM     75  C   UNL A   1      36.516  32.472  31.850  1.00  0.00     0.091 A 
ATOM     76  F   UNL A   1      37.856  33.783  30.423  1.00  0.00    -0.205 F 
ATOM     77  C   UNL A   1      36.411  31.510  32.853  1.00  0.00     0.022 A 
BRANCH  75  78
ATOM     78  S   UNL A   1      34.976  33.294  31.365  1.00  0.00     0.127 S 
ATOM     79  O   UNL A   1      35.209  34.681  31.783  1.00  0.00    -0.237 OA
ATOM     80  O   UNL A   1      34.948  33.102  29.917  1.00  0.00    -0.237 OA
ATOM     81  O   UNL A   1      33.923  32.626  32.122  1.00  0.00    -0.744 OA
ENDBRANCH  75  78
ENDBRANCH  57  71
BRANCH  58  82
ATOM     82  C   UNL A   1      47.829  29.155  27.884  1.00  0.00     0.023 A 
ATOM     83  C   UNL A   1      48.766  28.174  28.315  1.00  0.00     0.012 A 
ATOM     84  C   UNL A   1      47.235  28.997  26.618  1.00  0.00     0.148 A 
ATOM     85  C   UNL A   1      48.998  27.010  27.579  1.00  0.00     0.002 A 
ATOM     86  C   UNL A   1      47.495  27.842  25.875  1.00  0.00     0.091 A 
ATOM     87  F   UNL A   1      46.384  29.938  26.190  1.00  0.00    -0.205 F 
ATOM     88  C   UNL A   1      48.336  26.831  26.374  1.00  0.00     0.022 A 
BRANCH  86  89
ATOM     89  S   UNL A   1      46.707  27.479  24.301  1.00  0.00     0.127 S 
ATOM     90  O   UNL A   1      47.445  28.356  23.391  1.00  0.00    -0.237 OA
ATOM     91  O   UNL A   1      47.018  26.062  24.137  1.00  0.00    -0.237 OA
ATOM     92  O   UNL A   1      45.302  27.807  24.473  1.00  0.00    -0.744 OA
ENDBRANCH  86  89
ENDBRANCH  58  82
BRANCH  70  93
ATOM     93  C   UNL A   1      43.812  35.144  28.707  1.00  0.00     0.023 A 
ATOM     94  C   UNL A   1      42.796  35.137  27.739  1.00  0.00     0.012 A 
ATOM     95  C   UNL A   1      44.219  36.422  29.185  1.00  0.00     0.148 A 
ATOM     96  C   UNL A   1      42.270  36.321  27.211  1.00  0.00     0.002 A 
ATOM     97  C   UNL A   1      43.579  37.586  28.775  1.00  0.00     0.091 A 
ATOM     98  F   UNL A   1      45.243  36.530  30.047  1.00  0.00    -0.205 F 
ATOM     99  C   UNL A   1      42.639  37.546  27.749  1.00  0.00     0.022 A 
BRANCH  97 100
ATOM    100  S   UNL A   1      43.801  39.114  29.699  1.00  0.00     0.127 S 
ATOM    101  O   UNL A   1      42.650  39.905  29.276  1.00  0.00    -0.237 OA
ATOM    102  O   UNL A   1      43.748  38.659  31.090  1.00  0.00    -0.237 OA
ATOM    103  O   UNL A   1      45.113  39.596  29.282  1.00  0.00    -0.744 OA
ENDBRANCH  97 100
ENDBRANCH  70  93
ENDBRANCH  44  45
ENDBRANCH  37  39
ENDBRANCH  36  37
ENDBRANCH  35  36
ENDBRANCH  34  35
ENDBRANCH  33  34
ENDBRANCH   1  33
TORSDOF 23
ENDMDL
MODEL 2
REMARK VINA RESULT:     -12.1      2.355      2.874
REMARK SMILES Cc1cccc(OC2(C(=O)OCCOCCOCCOC(=O)c3ccc(-c4c5nc(c(-c6cccc(S(=O)(=O)[O-])c6F)c6ccc([nH]6)c(-c6cccc(S(=O)(=O)[O-])c6F)c6nc(c(-c7cccc(S(=O)(=O)[O-])c7F)c7ccc4[nH]7)C=C6)C=C5)cc3)CCN(C(=O)c3cnc[nH]c3=O)CC2)c1
REMARK SMILES IDX 16 1 15 2 14 3 13 4 12 5 11 6 9 7 10 8 8 9 86 10 99 11 87 12
REMARK SMILES IDX 98 13 88 14 89 15 90 16 7 17 6 18 1 19 2 20 3 21 100 22 4 23
REMARK SMILES IDX 5 24 91 25 92 26 96 27 93 28 95 29 97 30 94 31 17 33 18 34
REMARK SMILES IDX 19 35 20 36 21 37 22 38 23 39 24 40 85 41 25 42 84 43 26 44
REMARK SMILES IDX 27 45 28 46 78 47 29 48 83 49 77 50 79 51 30 52 82 53 76 54
REMARK SMILES IDX 75 55 31 57 63 58 43 59 62 60 44 61 47 62 61 63 80 64 45 65
REMARK SMILES IDX 46 66 60 68 81 69 48 70 32 71 33 72 41 73 34 74 36 75 42 76
REMARK SMILES IDX 35 77 37 78 38 79 39 80 40 81 64 82 65 83 73 84 66 85 68 86
REMARK SMILES IDX 74 87 67 88 69 89 70 90 71 91 72 92 49 93 50 94 58 95 51 96
REMARK SMILES IDX 53 97 59 98 52 99 54 100 55 101 56 102 57 103
REMARK H PARENT 95 32 79 56 47 67
REMARK Flexibility Score: inf
ROOT
ATOM      1  C   UNL A   1      41.797  19.862  26.397  1.00  0.00     0.188 C 
ENDROOT
BRANCH   1   2
ATOM      2  C   UNL A   1      40.947  21.071  26.031  1.00  0.00     0.188 C 
BRANCH   2   3
ATOM      3  O   UNL A   1      39.579  21.286  26.443  1.00  0.00    -0.376 OA
BRANCH   3   4
ATOM      4  C   UNL A   1      38.453  21.644  25.604  1.00  0.00     0.202 C 
BRANCH   4   5
ATOM      5  C   UNL A   1      36.982  22.506  25.985  1.00  0.00     0.261 C 
BRANCH   5   6
ATOM      6  O   UNL A   1      35.441  21.933  26.767  1.00  0.00    -0.460 OA
BRANCH   6   7
ATOM      7  C   UNL A   1      33.960  22.214  26.869  1.00  0.00     0.350 C 
ATOM      8  O   UNL A   1      33.286  22.391  27.892  1.00  0.00    -0.247 OA
BRANCH   7   9
ATOM      9  C   UNL A   1      33.101  22.446  25.629  1.00  0.00     0.209 C 
ATOM     10  C   UNL A   1      31.663  22.372  26.071  1.00  0.00     0.082 C 
ATOM     11  C   UNL A   1      33.590  23.808  25.049  1.00  0.00     0.082 C 
ATOM     12  C   UNL A   1      30.734  23.158  25.192  1.00  0.00     0.124 C 
ATOM     13  C   UNL A   1      32.554  24.392  24.122  1.00  0.00     0.124 C 
ATOM     14  N   UNL A   1      31.304  24.444  24.873  1.00  0.00    -0.338 N 
ATOM     15  C   UNL A   1      30.888  25.576  25.553  1.00  0.00     0.261 C 
ATOM     16  O   UNL A   1      30.292  25.565  26.624  1.00  0.00    -0.269 OA
BRANCH   9  17
ATOM     17  O   UNL A   1      33.647  21.444  24.728  1.00  0.00    -0.475 OA
BRANCH  17  18
ATOM     18  C   UNL A   1      33.151  20.232  24.358  1.00  0.00     0.121 A 
ATOM     19  C   UNL A   1      34.612  16.754  24.311  1.00  0.00     0.044 C 
ATOM     20  C   UNL A   1      33.665  17.882  24.032  1.00  0.00    -0.047 A 
ATOM     21  C   UNL A   1      32.848  17.843  22.897  1.00  0.00     0.003 A 
ATOM     22  C   UNL A   1      33.766  19.065  24.784  1.00  0.00     0.050 A 
ATOM     23  C   UNL A   1      32.158  18.987  22.505  1.00  0.00     0.004 A 
ATOM     24  C   UNL A   1      32.333  20.183  23.219  1.00  0.00     0.046 A 
ENDBRANCH  17  18
ENDBRANCH   9  17
BRANCH  15  25
ATOM     25  C   UNL A   1      31.100  26.813  24.788  1.00  0.00     0.123 A 
ATOM     26  C   UNL A   1      32.249  27.500  24.836  1.00  0.00     0.132 A 
ATOM     27  C   UNL A   1      30.081  27.244  23.812  1.00  0.00     0.263 A 
ATOM     28  N   UNL A   1      32.548  28.566  24.014  1.00  0.00    -0.246 NA
ATOM     29  N   UNL A   1      30.477  28.235  22.967  1.00  0.00    -0.312 N 
ATOM     30  O   UNL A   1      28.955  26.763  23.738  1.00  0.00    -0.269 OA
ATOM     31  C   UNL A   1      31.676  28.864  23.113  1.00  0.00     0.199 A 
ATOM     32  H   UNL A   1      29.881  28.505  22.231  1.00  0.00     0.171 HD
ENDBRANCH  15  25
ENDBRANCH   7   9
ENDBRANCH   6   7
ENDBRANCH   5   6
ENDBRANCH   4   5
ENDBRANCH   3   4
ENDBRANCH   2   3
ENDBRANCH   1   2
BRANCH   1  33
ATOM     33  O   UNL A   1      42.482  19.366  25.275  1.00  0.00    -0.376 OA
BRANCH  33  34
ATOM     34  C   UNL A   1      43.773  18.849  25.515  1.00  0.00     0.202 C 
BRANCH  34  35
ATOM     35  C   UNL A   1      44.780  19.022  24.360  1.00  0.00     0.261 C 
BRANCH  35  36
ATOM     36  O   UNL A   1      45.581  20.222  24.469  1.00  0.00    -0.460 OA
BRANCH  36  37
ATOM     37  C   UNL A   1      44.965  21.417  24.148  1.00  0.00     0.338 C 
ATOM     38  O   UNL A   1      44.466  21.630  23.053  1.00  0.00    -0.246 OA
BRANCH  37  39
ATOM     39  C   UNL A   1      45.035  22.374  25.297  1.00  0.00     0.060 A 
ATOM     40  C   UNL A   1      44.353  22.391  26.532  1.00  0.00     0.016 A 
ATOM     41  C   UNL A   1      45.749  23.479  25.031  1.00  0.00     0.016 A 
ATOM     42  C   UNL A   1      44.248  23.591  27.409  1.00  0.00     0.010 A 
ATOM     43  C   UNL A   1      45.489  24.601  25.797  1.00  0.00     0.010 A 
ATOM     44  C   UNL A   1      44.769  24.836  27.043  1.00  0.00    -0.014 A 
BRANCH  44  45
ATOM     45  C   UNL A   1      44.584  26.386  27.871  1.00  0.00     0.031 A 
ATOM     46  C   UNL A   1      43.175  27.479  28.191  1.00  0.00     0.074 A 
ATOM     47  C   UNL A   1      45.662  26.865  28.523  1.00  0.00     0.049 A 
ATOM     48  N   UNL A   1      43.204  28.799  28.188  1.00  0.00    -0.248 NA
ATOM     49  C   UNL A   1      41.671  27.122  28.338  1.00  0.00     0.031 C 
ATOM     50  C   UNL A   1      45.640  27.801  29.644  1.00  0.00     0.029 A 
ATOM     51  N   UNL A   1      47.006  26.520  28.406  1.00  0.00    -0.354 N 
ATOM     52  C   UNL A   1      41.878  29.265  28.421  1.00  0.00     0.074 A 
ATOM     53  C   UNL A   1      40.989  28.221  28.122  1.00  0.00     0.031 C 
ATOM     54  C   UNL A   1      46.903  28.121  29.966  1.00  0.00     0.029 A 
ATOM     55  C   UNL A   1      47.755  27.581  28.927  1.00  0.00     0.049 A 
ATOM     56  H   UNL A   1      47.363  25.685  28.026  1.00  0.00     0.167 HD
ATOM     57  C   UNL A   1      41.555  30.302  29.245  1.00  0.00     0.034 A 
ATOM     58  C   UNL A   1      48.619  28.266  28.130  1.00  0.00     0.034 A 
ATOM     59  C   UNL A   1      42.791  30.883  29.713  1.00  0.00     0.049 A 
ATOM     60  C   UNL A   1      48.245  29.727  28.016  1.00  0.00     0.074 A 
ATOM     61  C   UNL A   1      43.567  30.662  30.835  1.00  0.00     0.029 A 
ATOM     62  N   UNL A   1      43.598  31.483  28.773  1.00  0.00    -0.354 N 
ATOM     63  N   UNL A   1      47.230  30.279  28.625  1.00  0.00    -0.248 NA
ATOM     64  C   UNL A   1      48.979  30.693  27.207  1.00  0.00     0.031 C 
ATOM     65  C   UNL A   1      44.884  31.107  30.533  1.00  0.00     0.029 A 
ATOM     66  C   UNL A   1      44.889  31.618  29.245  1.00  0.00     0.049 A 
ATOM     67  H   UNL A   1      43.296  31.776  27.883  1.00  0.00     0.167 HD
ATOM     68  C   UNL A   1      47.030  31.545  28.147  1.00  0.00     0.074 A 
ATOM     69  C   UNL A   1      48.224  31.797  27.361  1.00  0.00     0.031 C 
ATOM     70  C   UNL A   1      45.870  32.239  28.364  1.00  0.00     0.034 A 
BRANCH  57  71
ATOM     71  C   UNL A   1      40.181  30.465  29.949  1.00  0.00     0.023 A 
ATOM     72  C   UNL A   1      39.290  31.384  29.356  1.00  0.00     0.012 A 
ATOM     73  C   UNL A   1      39.709  29.868  31.159  1.00  0.00     0.148 A 
ATOM     74  C   UNL A   1      38.088  31.784  29.959  1.00  0.00     0.002 A 
ATOM     75  C   UNL A   1      38.551  30.337  31.810  1.00  0.00     0.091 A 
ATOM     76  F   UNL A   1      40.317  28.783  31.660  1.00  0.00    -0.205 F 
ATOM     77  C   UNL A   1      37.740  31.297  31.207  1.00  0.00     0.022 A 
BRANCH  75  78
ATOM     78  S   UNL A   1      38.099  29.849  33.495  1.00  0.00     0.127 S 
ATOM     79  O   UNL A   1      37.312  30.997  33.959  1.00  0.00    -0.237 OA
ATOM     80  O   UNL A   1      37.316  28.635  33.282  1.00  0.00    -0.237 OA
ATOM     81  O   UNL A   1      39.362  29.684  34.205  1.00  0.00    -0.744 OA
ENDBRANCH  75  78
ENDBRANCH  57  71
BRANCH  58  82
ATOM     82  C   UNL A   1      49.252  27.378  27.095  1.00  0.00     0.023 A 
ATOM     83  C   UNL A   1      48.556  27.254  25.859  1.00  0.00     0.012 A 
ATOM     84  C   UNL A   1      50.611  27.015  27.133  1.00  0.00     0.148 A 
ATOM     85  C   UNL A   1      49.219  26.917  24.677  1.00  0.00     0.002 A 
ATOM     86  C   UNL A   1      51.260  26.652  25.949  1.00  0.00     0.091 A 
ATOM     87  F   UNL A   1      51.260  27.091  28.301  1.00  0.00    -0.205 F 
ATOM     88  C   UNL A   1      50.578  26.649  24.718  1.00  0.00     0.022 A 
BRANCH  86  89
ATOM     89  S   UNL A   1      53.015  26.280  25.856  1.00  0.00     0.127 S 
ATOM     90  O   UNL A   1      53.606  27.482  26.445  1.00  0.00    -0.237 OA
ATOM     91  O   UNL A   1      53.110  25.097  26.707  1.00  0.00    -0.237 OA
ATOM     92  O   UNL A   1      53.306  26.075  24.447  1.00  0.00    -0.744 OA
ENDBRANCH  86  89
ENDBRANCH  58  82
BRANCH  70  93
ATOM     93  C   UNL A   1      45.473  33.546  27.690  1.00  0.00     0.023 A 
ATOM     94  C   UNL A   1      45.137  33.619  26.328  1.00  0.00     0.012 A 
ATOM     95  C   UNL A   1      45.249  34.723  28.459  1.00  0.00     0.148 A 
ATOM     96  C   UNL A   1      44.687  34.806  25.742  1.00  0.00     0.002 A 
ATOM     97  C   UNL A   1      44.648  35.847  27.903  1.00  0.00     0.091 A 
ATOM     98  F   UNL A   1      45.621  34.772  29.748  1.00  0.00    -0.205 F 
ATOM     99  C   UNL A   1      44.413  35.913  26.533  1.00  0.00     0.022 A 
BRANCH  97 100
ATOM    100  S   UNL A   1      43.982  37.135  28.969  1.00  0.00     0.127 S 
ATOM    101  O   UNL A   1      43.156  37.908  28.045  1.00  0.00    -0.237 OA
ATOM    102  O   UNL A   1      43.227  36.371  29.964  1.00  0.00    -0.237 OA
ATOM    103  O   UNL A   1      45.162  37.802  29.504  1.00  0.00    -0.744 OA
ENDBRANCH  97 100
ENDBRANCH  70  93
ENDBRANCH  44  45
ENDBRANCH  37  39
ENDBRANCH  36  37
ENDBRANCH  35  36
ENDBRANCH  34  35
ENDBRANCH  33  34
ENDBRANCH   1  33
TORSDOF 23
ENDMDL
MODEL 3
REMARK VINA RESULT:     -10.3      3.133      9.840
REMARK SMILES Cc1cccc(OC2(C(=O)OCCOCCOCCOC(=O)c3ccc(-c4c5nc(c(-c6cccc(S(=O)(=O)[O-])c6F)c6ccc([nH]6)c(-c6cccc(S(=O)(=O)[O-])c6F)c6nc(c(-c7cccc(S(=O)(=O)[O-])c7F)c7ccc4[nH]7)C=C6)C=C5)cc3)CCN(C(=O)c3cnc[nH]c3=O)CC2)c1
REMARK SMILES IDX 16 1 15 2 14 3 13 4 12 5 11 6 9 7 10 8 8 9 86 10 99 11 87 12
REMARK SMILES IDX 98 13 88 14 89 15 90 16 7 17 6 18 1 19 2 20 3 21 100 22 4 23
REMARK SMILES IDX 5 24 91 25 92 26 96 27 93 28 95 29 97 30 94 31 17 33 18 34
REMARK SMILES IDX 19 35 20 36 21 37 22 38 23 39 24 40 85 41 25 42 84 43 26 44
REMARK SMILES IDX 27 45 28 46 78 47 29 48 83 49 77 50 79 51 30 52 82 53 76 54
REMARK SMILES IDX 75 55 31 57 63 58 43 59 62 60 44 61 47 62 61 63 80 64 45 65
REMARK SMILES IDX 46 66 60 68 81 69 48 70 32 71 33 72 41 73 34 74 36 75 42 76
REMARK SMILES IDX 35 77 37 78 38 79 39 80 40 81 64 82 65 83 73 84 66 85 68 86
REMARK SMILES IDX 74 87 67 88 69 89 70 90 71 91 72 92 49 93 50 94 58 95 51 96
REMARK SMILES IDX 53 97 59 98 52 99 54 100 55 101 56 102 57 103
REMARK H PARENT 95 32 79 56 47 67
REMARK Flexibility Score: inf
ROOT
ATOM      1  C   UNL A   1      36.991  29.152  30.859  1.00  0.00     0.188 C 
ENDROOT
BRANCH   1   2
ATOM      2  C   UNL A   1      37.309  29.973  29.618  1.00  0.00     0.188 C 
BRANCH   2   3
ATOM      3  O   UNL A   1      36.348  30.716  28.837  1.00  0.00    -0.376 OA
BRANCH   3   4
ATOM      4  C   UNL A   1      35.834  30.382  27.523  1.00  0.00     0.202 C 
BRANCH   4   5
ATOM      5  C   UNL A   1      34.675  29.171  27.031  1.00  0.00     0.261 C 
BRANCH   5   6
ATOM      6  O   UNL A   1      33.597  29.089  25.567  1.00  0.00    -0.460 OA
BRANCH   6   7
ATOM      7  C   UNL A   1      33.469  28.473  24.193  1.00  0.00     0.350 C 
ATOM      8  O   UNL A   1      34.251  28.571  23.237  1.00  0.00    -0.247 OA
BRANCH   7   9
ATOM      9  C   UNL A   1      32.344  27.500  23.853  1.00  0.00     0.209 C 
ATOM     10  C   UNL A   1      32.542  27.083  22.418  1.00  0.00     0.082 C 
ATOM     11  C   UNL A   1      32.444  26.377  24.931  1.00  0.00     0.082 C 
ATOM     12  C   UNL A   1      31.965  25.733  22.110  1.00  0.00     0.124 C 
ATOM     13  C   UNL A   1      31.726  25.134  24.469  1.00  0.00     0.124 C 
ATOM     14  N   UNL A   1      32.277  24.796  23.162  1.00  0.00    -0.338 N 
ATOM     15  C   UNL A   1      33.311  23.888  22.998  1.00  0.00     0.261 C 
ATOM     16  O   UNL A   1      34.202  23.991  22.164  1.00  0.00    -0.269 OA
BRANCH   9  17
ATOM     17  O   UNL A   1      31.181  28.281  24.239  1.00  0.00    -0.475 OA
BRANCH  17  18
ATOM     18  C   UNL A   1      30.051  28.577  23.542  1.00  0.00     0.121 A 
ATOM     19  C   UNL A   1      27.852  31.637  23.376  1.00  0.00     0.044 C 
ATOM     20  C   UNL A   1      28.299  30.219  23.188  1.00  0.00    -0.047 A 
ATOM     21  C   UNL A   1      27.350  29.202  23.042  1.00  0.00     0.003 A 
ATOM     22  C   UNL A   1      29.653  29.895  23.383  1.00  0.00     0.050 A 
ATOM     23  C   UNL A   1      27.751  27.870  23.117  1.00  0.00     0.004 A 
ATOM     24  C   UNL A   1      29.092  27.562  23.394  1.00  0.00     0.046 A 
ENDBRANCH  17  18
ENDBRANCH   9  17
BRANCH  15  25
ATOM     25  C   UNL A   1      33.158  22.691  23.836  1.00  0.00     0.123 A 
ATOM     26  C   UNL A   1      32.343  21.680  23.505  1.00  0.00     0.132 A 
ATOM     27  C   UNL A   1      34.038  22.509  25.006  1.00  0.00     0.263 A 
ATOM     28  N   UNL A   1      32.294  20.475  24.172  1.00  0.00    -0.246 NA
ATOM     29  N   UNL A   1      34.012  21.265  25.558  1.00  0.00    -0.312 N 
ATOM     30  O   UNL A   1      34.754  23.390  25.470  1.00  0.00    -0.269 OA
ATOM     31  C   UNL A   1      33.135  20.313  25.136  1.00  0.00     0.199 A 
ATOM     32  H   UNL A   1      34.643  21.047  26.282  1.00  0.00     0.171 HD
ENDBRANCH  15  25
ENDBRANCH   7   9
ENDBRANCH   6   7
ENDBRANCH   5   6
ENDBRANCH   4   5
ENDBRANCH   3   4
ENDBRANCH   2   3
ENDBRANCH   1   2
BRANCH   1  33
ATOM     33  O   UNL A   1      37.192  29.902  32.030  1.00  0.00    -0.376 OA
BRANCH  33  34
ATOM     34  C   UNL A   1      37.898  29.256  33.067  1.00  0.00     0.202 C 
BRANCH  34  35
ATOM     35  C   UNL A   1      39.355  29.721  33.265  1.00  0.00     0.261 C 
BRANCH  35  36
ATOM     36  O   UNL A   1      39.502  30.730  34.292  1.00  0.00    -0.460 OA
BRANCH  36  37
ATOM     37  C   UNL A   1      40.206  31.871  33.951  1.00  0.00     0.338 C 
ATOM     38  O   UNL A   1      40.214  32.875  34.648  1.00  0.00    -0.246 OA
BRANCH  37  39
ATOM     39  C   UNL A   1      40.896  31.694  32.635  1.00  0.00     0.060 A 
ATOM     40  C   UNL A   1      40.388  31.668  31.318  1.00  0.00     0.016 A 
ATOM     41  C   UNL A   1      42.187  31.345  32.749  1.00  0.00     0.016 A 
ATOM     42  C   UNL A   1      41.132  31.118  30.150  1.00  0.00     0.010 A 
ATOM     43  C   UNL A   1      42.768  30.704  31.671  1.00  0.00     0.010 A 
ATOM     44  C   UNL A   1      42.387  30.512  30.276  1.00  0.00    -0.014 A 
BRANCH  44  45
ATOM     45  C   UNL A   1      43.320  29.661  29.041  1.00  0.00     0.031 A 
ATOM     46  C   UNL A   1      43.528  27.915  28.603  1.00  0.00     0.074 A 
ATOM     47  C   UNL A   1      43.952  30.417  28.121  1.00  0.00     0.049 A 
ATOM     48  N   UNL A   1      44.646  27.350  28.189  1.00  0.00    -0.248 NA
ATOM     49  C   UNL A   1      42.541  26.732  28.797  1.00  0.00     0.031 C 
ATOM     50  C   UNL A   1      44.339  29.990  26.779  1.00  0.00     0.029 A 
ATOM     51  N   UNL A   1      44.273  31.772  28.143  1.00  0.00    -0.354 N 
ATOM     52  C   UNL A   1      44.394  25.958  28.018  1.00  0.00     0.074 A 
ATOM     53  C   UNL A   1      43.247  25.628  28.755  1.00  0.00     0.031 C 
ATOM     54  C   UNL A   1      45.032  30.979  26.193  1.00  0.00     0.029 A 
ATOM     55  C   UNL A   1      45.299  31.971  27.212  1.00  0.00     0.049 A 
ATOM     56  H   UNL A   1      43.857  32.462  28.708  1.00  0.00     0.167 HD
ATOM     57  C   UNL A   1      44.840  25.213  26.967  1.00  0.00     0.034 A 
ATOM     58  C   UNL A   1      46.514  32.429  27.619  1.00  0.00     0.034 A 
ATOM     59  C   UNL A   1      45.689  26.063  26.165  1.00  0.00     0.049 A 
ATOM     60  C   UNL A   1      47.618  31.439  27.323  1.00  0.00     0.074 A 
ATOM     61  C   UNL A   1      45.445  26.867  25.068  1.00  0.00     0.029 A 
ATOM     62  N   UNL A   1      46.858  26.505  26.741  1.00  0.00    -0.354 N 
ATOM     63  N   UNL A   1      47.440  30.290  26.727  1.00  0.00    -0.248 NA
ATOM     64  C   UNL A   1      49.018  31.653  27.672  1.00  0.00     0.031 C 
ATOM     65  C   UNL A   1      46.480  27.842  25.020  1.00  0.00     0.029 A 
ATOM     66  C   UNL A   1      47.355  27.605  26.067  1.00  0.00     0.049 A 
ATOM     67  H   UNL A   1      47.283  26.095  27.528  1.00  0.00     0.167 HD
ATOM     68  C   UNL A   1      48.580  29.539  26.807  1.00  0.00     0.074 A 
ATOM     69  C   UNL A   1      49.569  30.486  27.292  1.00  0.00     0.031 C 
ATOM     70  C   UNL A   1      48.595  28.193  26.556  1.00  0.00     0.034 A 
BRANCH  57  71
ATOM     71  C   UNL A   1      44.151  23.919  26.456  1.00  0.00     0.023 A 
ATOM     72  C   UNL A   1      42.816  23.729  26.869  1.00  0.00     0.012 A 
ATOM     73  C   UNL A   1      44.698  22.850  25.682  1.00  0.00     0.148 A 
ATOM     74  C   UNL A   1      42.110  22.537  26.652  1.00  0.00     0.002 A 
ATOM     75  C   UNL A   1      44.025  21.620  25.544  1.00  0.00     0.091 A 
ATOM     76  F   UNL A   1      45.834  23.026  24.993  1.00  0.00    -0.205 F 
ATOM     77  C   UNL A   1      42.728  21.464  26.031  1.00  0.00     0.022 A 
BRANCH  75  78
ATOM     78  S   UNL A   1      44.809  20.135  24.864  1.00  0.00     0.127 S 
ATOM     79  O   UNL A   1      46.162  20.203  25.426  1.00  0.00    -0.237 OA
ATOM     80  O   UNL A   1      43.988  19.057  25.410  1.00  0.00    -0.237 OA
ATOM     81  O   UNL A   1      44.770  20.303  23.416  1.00  0.00    -0.744 OA
ENDBRANCH  75  78
ENDBRANCH  57  71
BRANCH  58  82
ATOM     82  C   UNL A   1      46.396  33.382  28.776  1.00  0.00     0.023 A 
ATOM     83  C   UNL A   1      47.097  33.024  29.962  1.00  0.00     0.012 A 
ATOM     84  C   UNL A   1      45.992  34.721  28.620  1.00  0.00     0.148 A 
ATOM     85  C   UNL A   1      47.503  33.985  30.891  1.00  0.00     0.002 A 
ATOM     86  C   UNL A   1      46.380  35.672  29.569  1.00  0.00     0.091 A 
ATOM     87  F   UNL A   1      45.297  35.055  27.526  1.00  0.00    -0.205 F 
ATOM     88  C   UNL A   1      47.171  35.313  30.675  1.00  0.00     0.022 A 
BRANCH  86  89
ATOM     89  S   UNL A   1      46.020  37.425  29.417  1.00  0.00     0.127 S 
ATOM     90  O   UNL A   1      44.561  37.440  29.529  1.00  0.00    -0.237 OA
ATOM     91  O   UNL A   1      46.707  37.969  30.585  1.00  0.00    -0.237 OA
ATOM     92  O   UNL A   1      46.546  37.831  28.124  1.00  0.00    -0.744 OA
ENDBRANCH  86  89
ENDBRANCH  58  82
BRANCH  70  93
ATOM     93  C   UNL A   1      49.754  27.247  26.837  1.00  0.00     0.023 A 
ATOM     94  C   UNL A   1      50.457  26.592  25.813  1.00  0.00     0.012 A 
ATOM     95  C   UNL A   1      50.293  27.126  28.150  1.00  0.00     0.148 A 
ATOM     96  C   UNL A   1      51.577  25.797  26.079  1.00  0.00     0.002 A 
ATOM     97  C   UNL A   1      51.497  26.470  28.380  1.00  0.00     0.091 A 
ATOM     98  F   UNL A   1      49.641  27.647  29.202  1.00  0.00    -0.205 F 
ATOM     99  C   UNL A   1      52.117  25.759  27.357  1.00  0.00     0.022 A 
BRANCH  97 100
ATOM    100  S   UNL A   1      52.370  26.704  29.936  1.00  0.00     0.127 S 
ATOM    101  O   UNL A   1      51.549  25.940  30.872  1.00  0.00    -0.237 OA
ATOM    102  O   UNL A   1      53.683  26.116  29.661  1.00  0.00    -0.237 OA
ATOM    103  O   UNL A   1      52.394  28.150  30.119  1.00  0.00    -0.744 OA
ENDBRANCH  97 100
ENDBRANCH  70  93
ENDBRANCH  44  45
ENDBRANCH  37  39
ENDBRANCH  36  37
ENDBRANCH  35  36
ENDBRANCH  34  35
ENDBRANCH  33  34
ENDBRANCH   1  33
TORSDOF 23
ENDMDL
