MODEL 1
REMARK VINA RESULT:     -11.9      0.000      0.000
REMARK SMILES Cc1ncccc1OC1(C(=O)OCCOCCOCCOC(=O)c2ccc(-c3c4nc(c(-c5cccc(S(=O)(=O)[O-])c5F)c5ccc([nH]5)c(-c5cccc(S(=O)(=O)[O-])c5F)c5nc(c(-c6cccc(S(=O)(=O)[O-])c6F)c6ccc3[nH]6)C=C5)C=C4)cc2)CCN(C(=O)c2ccc(O)nn2)CC1
REMARK SMILES IDX 17 1 16 2 15 3 14 4 13 5 12 6 10 7 11 8 9 9 87 10 100 11
REMARK SMILES IDX 88 12 99 13 89 14 90 15 91 16 8 17 7 18 1 19 2 20 3 21 4 22
REMARK SMILES IDX 6 23 5 24 92 25 93 26 98 27 94 28 97 29 95 30 96 31 18 33
REMARK SMILES IDX 19 34 20 35 21 36 22 37 23 38 24 39 25 40 86 41 26 42 85 43
REMARK SMILES IDX 27 44 28 45 29 46 79 47 30 48 84 49 78 50 80 51 31 52 83 53
REMARK SMILES IDX 77 54 76 55 32 57 64 58 44 59 63 60 45 61 48 62 62 63 81 64
REMARK SMILES IDX 46 65 47 66 61 68 82 69 49 70 33 71 34 72 42 73 35 74 37 75
REMARK SMILES IDX 43 76 36 77 38 78 39 79 40 80 41 81 65 82 66 83 74 84 67 85
REMARK SMILES IDX 69 86 75 87 68 88 70 89 71 90 72 91 73 92 50 93 51 94 59 95
REMARK SMILES IDX 52 96 54 97 60 98 53 99 55 100 56 101 57 102 58 103
REMARK H PARENT 96 32 80 56 48 67
REMARK Flexibility Score: inf
ROOT
ATOM      1  C   UNL A   1      43.458  19.039  26.161  1.00  0.00     0.188 C 
ENDROOT
BRANCH   1   2
ATOM      2  C   UNL A   1      41.933  18.912  26.123  1.00  0.00     0.188 C 
BRANCH   2   3
ATOM      3  O   UNL A   1      41.163  20.075  26.372  1.00  0.00    -0.376 OA
BRANCH   3   4
ATOM      4  C   UNL A   1      39.863  20.154  25.807  1.00  0.00     0.202 C 
BRANCH   4   5
ATOM      5  C   UNL A   1      39.119  21.491  25.909  1.00  0.00     0.261 C 
BRANCH   5   6
ATOM      6  O   UNL A   1      37.675  21.417  25.837  1.00  0.00    -0.460 OA
BRANCH   6   7
ATOM      7  C   UNL A   1      36.997  22.607  25.743  1.00  0.00     0.350 C 
ATOM      8  O   UNL A   1      37.545  23.695  25.895  1.00  0.00    -0.247 OA
BRANCH   7   9
ATOM      9  C   UNL A   1      35.435  22.434  25.615  1.00  0.00     0.209 C 
ATOM     10  C   UNL A   1      34.756  22.427  26.983  1.00  0.00     0.082 C 
ATOM     11  C   UNL A   1      35.127  23.657  24.761  1.00  0.00     0.082 C 
ATOM     12  C   UNL A   1      33.388  23.084  27.091  1.00  0.00     0.124 C 
ATOM     13  C   UNL A   1      33.701  24.114  24.776  1.00  0.00     0.124 C 
ATOM     14  N   UNL A   1      33.008  24.049  26.066  1.00  0.00    -0.337 N 
ATOM     15  C   UNL A   1      31.718  24.603  26.205  1.00  0.00     0.274 C 
ATOM     16  O   UNL A   1      31.009  24.460  27.197  1.00  0.00    -0.267 OA
BRANCH   9  17
ATOM     17  O   UNL A   1      35.381  21.197  24.877  1.00  0.00    -0.474 OA
BRANCH  17  18
ATOM     18  C   UNL A   1      34.583  20.123  24.704  1.00  0.00     0.142 A 
ATOM     19  C   UNL A   1      32.197  21.001  24.298  1.00  0.00     0.071 C 
ATOM     20  C   UNL A   1      33.225  19.946  24.431  1.00  0.00     0.079 A 
ATOM     21  N   UNL A   1      32.665  18.727  24.153  1.00  0.00    -0.258 NA
ATOM     22  C   UNL A   1      33.448  17.638  24.136  1.00  0.00     0.111 A 
ATOM     23  C   UNL A   1      35.347  18.940  24.689  1.00  0.00     0.050 A 
ATOM     24  C   UNL A   1      34.791  17.691  24.408  1.00  0.00     0.024 A 
ENDBRANCH  17  18
ENDBRANCH   9  17
BRANCH  15  25
ATOM     25  C   UNL A   1      31.237  25.466  25.105  1.00  0.00     0.151 A 
ATOM     26  C   UNL A   1      31.245  26.836  25.302  1.00  0.00     0.042 A 
ATOM     27  N   UNL A   1      31.069  24.884  23.890  1.00  0.00    -0.142 NA
ATOM     28  C   UNL A   1      31.100  27.641  24.182  1.00  0.00     0.072 A 
ATOM     29  N   UNL A   1      30.917  25.679  22.799  1.00  0.00    -0.112 NA
ATOM     30  C   UNL A   1      30.951  27.016  22.963  1.00  0.00     0.230 A 
BRANCH  30  31
ATOM     31  O   UNL A   1      30.874  27.747  21.821  1.00  0.00    -0.492 OA
ATOM     32  H   UNL A   1      30.606  27.338  21.022  1.00  0.00     0.295 HD
ENDBRANCH  30  31
ENDBRANCH  15  25
ENDBRANCH   7   9
ENDBRANCH   6   7
ENDBRANCH   5   6
ENDBRANCH   4   5
ENDBRANCH   3   4
ENDBRANCH   2   3
ENDBRANCH   1   2
BRANCH   1  33
ATOM     33  O   UNL A   1      44.086  19.089  24.893  1.00  0.00    -0.376 OA
BRANCH  33  34
ATOM     34  C   UNL A   1      44.421  20.382  24.405  1.00  0.00     0.202 C 
BRANCH  34  35
ATOM     35  C   UNL A   1      44.691  21.408  25.522  1.00  0.00     0.261 C 
BRANCH  35  36
ATOM     36  O   UNL A   1      43.718  22.465  25.649  1.00  0.00    -0.460 OA
BRANCH  36  37
ATOM     37  C   UNL A   1      44.116  23.723  25.331  1.00  0.00     0.338 C 
ATOM     38  O   UNL A   1      44.734  24.050  24.330  1.00  0.00    -0.246 OA
BRANCH  37  39
ATOM     39  C   UNL A   1      43.400  24.675  26.230  1.00  0.00     0.060 A 
ATOM     40  C   UNL A   1      43.820  26.017  26.255  1.00  0.00     0.016 A 
ATOM     41  C   UNL A   1      42.273  24.290  26.959  1.00  0.00     0.016 A 
ATOM     42  C   UNL A   1      43.147  26.959  27.041  1.00  0.00     0.010 A 
ATOM     43  C   UNL A   1      41.613  25.230  27.762  1.00  0.00     0.010 A 
ATOM     44  C   UNL A   1      42.066  26.560  27.839  1.00  0.00    -0.014 A 
BRANCH  44  45
ATOM     45  C   UNL A   1      41.557  27.452  28.916  1.00  0.00     0.031 A 
ATOM     46  C   UNL A   1      42.332  27.509  30.209  1.00  0.00     0.074 A 
ATOM     47  C   UNL A   1      40.433  28.182  28.786  1.00  0.00     0.049 A 
ATOM     48  N   UNL A   1      42.062  28.149  31.316  1.00  0.00    -0.248 NA
ATOM     49  C   UNL A   1      43.581  26.730  30.255  1.00  0.00     0.031 C 
ATOM     50  C   UNL A   1      39.587  28.240  27.597  1.00  0.00     0.029 A 
ATOM     51  N   UNL A   1      39.795  28.997  29.693  1.00  0.00    -0.354 N 
ATOM     52  C   UNL A   1      43.082  27.820  32.202  1.00  0.00     0.074 A 
ATOM     53  C   UNL A   1      43.972  26.919  31.505  1.00  0.00     0.031 C 
ATOM     54  C   UNL A   1      38.522  29.022  27.858  1.00  0.00     0.029 A 
ATOM     55  C   UNL A   1      38.595  29.496  29.240  1.00  0.00     0.049 A 
ATOM     56  H   UNL A   1      40.161  29.203  30.584  1.00  0.00     0.167 HD
ATOM     57  C   UNL A   1      43.274  28.235  33.476  1.00  0.00     0.034 A 
ATOM     58  C   UNL A   1      37.654  30.228  29.874  1.00  0.00     0.034 A 
ATOM     59  C   UNL A   1      42.406  29.145  34.172  1.00  0.00     0.049 A 
ATOM     60  C   UNL A   1      37.870  30.648  31.310  1.00  0.00     0.074 A 
ATOM     61  C   UNL A   1      42.552  29.664  35.446  1.00  0.00     0.029 A 
ATOM     62  N   UNL A   1      41.222  29.656  33.666  1.00  0.00    -0.354 N 
ATOM     63  N   UNL A   1      38.898  30.428  32.092  1.00  0.00    -0.248 NA
ATOM     64  C   UNL A   1      36.803  31.445  31.940  1.00  0.00     0.031 C 
ATOM     65  C   UNL A   1      41.436  30.458  35.726  1.00  0.00     0.029 A 
ATOM     66  C   UNL A   1      40.616  30.469  34.609  1.00  0.00     0.049 A 
ATOM     67  H   UNL A   1      40.863  29.467  32.768  1.00  0.00     0.167 HD
ATOM     68  C   UNL A   1      38.623  31.093  33.285  1.00  0.00     0.074 A 
ATOM     69  C   UNL A   1      37.338  31.736  33.118  1.00  0.00     0.031 C 
ATOM     70  C   UNL A   1      39.365  31.155  34.420  1.00  0.00     0.034 A 
BRANCH  57  71
ATOM     71  C   UNL A   1      44.483  27.711  34.204  1.00  0.00     0.023 A 
ATOM     72  C   UNL A   1      45.674  28.465  34.223  1.00  0.00     0.012 A 
ATOM     73  C   UNL A   1      44.423  26.492  34.908  1.00  0.00     0.148 A 
ATOM     74  C   UNL A   1      46.798  27.997  34.902  1.00  0.00     0.002 A 
ATOM     75  C   UNL A   1      45.533  26.056  35.622  1.00  0.00     0.091 A 
ATOM     76  F   UNL A   1      43.289  25.779  34.857  1.00  0.00    -0.205 F 
ATOM     77  C   UNL A   1      46.724  26.800  35.609  1.00  0.00     0.022 A 
BRANCH  75  78
ATOM     78  S   UNL A   1      45.511  24.571  36.630  1.00  0.00     0.127 S 
ATOM     79  O   UNL A   1      46.939  24.291  36.775  1.00  0.00    -0.237 OA
ATOM     80  O   UNL A   1      44.854  25.038  37.850  1.00  0.00    -0.237 OA
ATOM     81  O   UNL A   1      44.755  23.583  35.873  1.00  0.00    -0.744 OA
ENDBRANCH  75  78
ENDBRANCH  57  71
BRANCH  58  82
ATOM     82  C   UNL A   1      36.414  30.643  29.155  1.00  0.00     0.023 A 
ATOM     83  C   UNL A   1      35.591  29.662  28.565  1.00  0.00     0.012 A 
ATOM     84  C   UNL A   1      36.053  32.000  29.038  1.00  0.00     0.148 A 
ATOM     85  C   UNL A   1      34.450  30.025  27.849  1.00  0.00     0.002 A 
ATOM     86  C   UNL A   1      34.886  32.352  28.370  1.00  0.00     0.091 A 
ATOM     87  F   UNL A   1      36.859  32.919  29.585  1.00  0.00    -0.205 F 
ATOM     88  C   UNL A   1      34.092  31.368  27.759  1.00  0.00     0.022 A 
BRANCH  86  89
ATOM     89  S   UNL A   1      34.284  34.042  28.297  1.00  0.00     0.127 S 
ATOM     90  O   UNL A   1      34.651  34.549  29.617  1.00  0.00    -0.237 OA
ATOM     91  O   UNL A   1      35.066  34.589  27.188  1.00  0.00    -0.237 OA
ATOM     92  O   UNL A   1      32.855  33.942  28.038  1.00  0.00    -0.744 OA
ENDBRANCH  86  89
ENDBRANCH  58  82
BRANCH  70  93
ATOM     93  C   UNL A   1      38.847  31.990  35.566  1.00  0.00     0.023 A 
ATOM     94  C   UNL A   1      38.913  33.396  35.505  1.00  0.00     0.012 A 
ATOM     95  C   UNL A   1      38.217  31.378  36.670  1.00  0.00     0.148 A 
ATOM     96  C   UNL A   1      38.391  34.177  36.538  1.00  0.00     0.002 A 
ATOM     97  C   UNL A   1      37.654  32.163  37.670  1.00  0.00     0.091 A 
ATOM     98  F   UNL A   1      38.176  30.039  36.720  1.00  0.00    -0.205 F 
ATOM     99  C   UNL A   1      37.752  33.562  37.612  1.00  0.00     0.022 A 
BRANCH  97 100
ATOM    100  S   UNL A   1      36.725  31.463  39.040  1.00  0.00     0.127 S 
ATOM    101  O   UNL A   1      37.696  31.545  40.130  1.00  0.00    -0.237 OA
ATOM    102  O   UNL A   1      35.598  32.390  39.156  1.00  0.00    -0.237 OA
ATOM    103  O   UNL A   1      36.359  30.114  38.631  1.00  0.00    -0.744 OA
ENDBRANCH  97 100
ENDBRANCH  70  93
ENDBRANCH  44  45
ENDBRANCH  37  39
ENDBRANCH  36  37
ENDBRANCH  35  36
ENDBRANCH  34  35
ENDBRANCH  33  34
ENDBRANCH   1  33
TORSDOF 24
ENDMDL
MODEL 2
REMARK VINA RESULT:     -11.7      4.608     11.210
REMARK SMILES Cc1ncccc1OC1(C(=O)OCCOCCOCCOC(=O)c2ccc(-c3c4nc(c(-c5cccc(S(=O)(=O)[O-])c5F)c5ccc([nH]5)c(-c5cccc(S(=O)(=O)[O-])c5F)c5nc(c(-c6cccc(S(=O)(=O)[O-])c6F)c6ccc3[nH]6)C=C5)C=C4)cc2)CCN(C(=O)c2ccc(O)nn2)CC1
REMARK SMILES IDX 17 1 16 2 15 3 14 4 13 5 12 6 10 7 11 8 9 9 87 10 100 11
REMARK SMILES IDX 88 12 99 13 89 14 90 15 91 16 8 17 7 18 1 19 2 20 3 21 4 22
REMARK SMILES IDX 6 23 5 24 92 25 93 26 98 27 94 28 97 29 95 30 96 31 18 33
REMARK SMILES IDX 19 34 20 35 21 36 22 37 23 38 24 39 25 40 86 41 26 42 85 43
REMARK SMILES IDX 27 44 28 45 29 46 79 47 30 48 84 49 78 50 80 51 31 52 83 53
REMARK SMILES IDX 77 54 76 55 32 57 64 58 44 59 63 60 45 61 48 62 62 63 81 64
REMARK SMILES IDX 46 65 47 66 61 68 82 69 49 70 33 71 34 72 42 73 35 74 37 75
REMARK SMILES IDX 43 76 36 77 38 78 39 79 40 80 41 81 65 82 66 83 74 84 67 85
REMARK SMILES IDX 69 86 75 87 68 88 70 89 71 90 72 91 73 92 50 93 51 94 59 95
REMARK SMILES IDX 52 96 54 97 60 98 53 99 55 100 56 101 57 102 58 103
REMARK H PARENT 96 32 80 56 48 67
REMARK Flexibility Score: inf
ROOT
ATOM      1  C   UNL A   1      33.724  33.818  28.721  1.00  0.00     0.188 C 
ENDROOT
BRANCH   1   2
ATOM      2  C   UNL A   1      34.376  32.642  27.989  1.00  0.00     0.188 C 
BRANCH   2   3
ATOM      3  O   UNL A   1      33.708  31.393  28.009  1.00  0.00    -0.376 OA
BRANCH   3   4
ATOM      4  C   UNL A   1      32.813  31.092  26.949  1.00  0.00     0.202 C 
BRANCH   4   5
ATOM      5  C   UNL A   1      32.110  29.729  26.971  1.00  0.00     0.261 C 
BRANCH   5   6
ATOM      6  O   UNL A   1      32.867  28.619  26.432  1.00  0.00    -0.460 OA
BRANCH   6   7
ATOM      7  C   UNL A   1      33.083  28.616  25.076  1.00  0.00     0.350 C 
ATOM      8  O   UNL A   1      33.586  29.566  24.484  1.00  0.00    -0.247 OA
BRANCH   7   9
ATOM      9  C   UNL A   1      32.456  27.370  24.341  1.00  0.00     0.209 C 
ATOM     10  C   UNL A   1      32.959  27.253  22.904  1.00  0.00     0.082 C 
ATOM     11  C   UNL A   1      32.943  26.270  25.275  1.00  0.00     0.082 C 
ATOM     12  C   UNL A   1      33.184  25.854  22.351  1.00  0.00     0.124 C 
ATOM     13  C   UNL A   1      32.942  24.887  24.702  1.00  0.00     0.124 C 
ATOM     14  N   UNL A   1      33.354  24.760  23.301  1.00  0.00    -0.337 N 
ATOM     15  C   UNL A   1      33.531  23.483  22.728  1.00  0.00     0.274 C 
ATOM     16  O   UNL A   1      33.724  23.284  21.532  1.00  0.00    -0.267 OA
BRANCH   9  17
ATOM     17  O   UNL A   1      31.054  27.668  24.497  1.00  0.00    -0.474 OA
BRANCH  17  18
ATOM     18  C   UNL A   1      30.008  28.151  23.793  1.00  0.00     0.142 A 
ATOM     19  C   UNL A   1      28.147  26.375  23.877  1.00  0.00     0.071 C 
ATOM     20  C   UNL A   1      28.728  27.681  23.497  1.00  0.00     0.079 A 
ATOM     21  N   UNL A   1      27.775  28.437  22.866  1.00  0.00    -0.258 NA
ATOM     22  C   UNL A   1      28.072  29.696  22.509  1.00  0.00     0.111 A 
ATOM     23  C   UNL A   1      30.264  29.472  23.378  1.00  0.00     0.050 A 
ATOM     24  C   UNL A   1      29.305  30.254  22.733  1.00  0.00     0.024 A 
ENDBRANCH  17  18
ENDBRANCH   9  17
BRANCH  15  25
ATOM     25  C   UNL A   1      33.552  22.330  23.653  1.00  0.00     0.151 A 
ATOM     26  C   UNL A   1      32.410  21.556  23.755  1.00  0.00     0.042 A 
ATOM     27  N   UNL A   1      34.761  21.950  24.142  1.00  0.00    -0.142 NA
ATOM     28  C   UNL A   1      32.532  20.317  24.365  1.00  0.00     0.072 A 
ATOM     29  N   UNL A   1      34.871  20.739  24.748  1.00  0.00    -0.112 NA
ATOM     30  C   UNL A   1      33.778  19.956  24.831  1.00  0.00     0.230 A 
BRANCH  30  31
ATOM     31  O   UNL A   1      33.978  18.728  25.376  1.00  0.00    -0.492 OA
ATOM     32  H   UNL A   1      34.801  18.295  25.262  1.00  0.00     0.295 HD
ENDBRANCH  30  31
ENDBRANCH  15  25
ENDBRANCH   7   9
ENDBRANCH   6   7
ENDBRANCH   5   6
ENDBRANCH   4   5
ENDBRANCH   3   4
ENDBRANCH   2   3
ENDBRANCH   1   2
BRANCH   1  33
ATOM     33  O   UNL A   1      34.544  34.451  29.685  1.00  0.00    -0.376 OA
BRANCH  33  34
ATOM     34  C   UNL A   1      33.880  35.009  30.812  1.00  0.00     0.202 C 
BRANCH  34  35
ATOM     35  C   UNL A   1      34.011  34.153  32.086  1.00  0.00     0.261 C 
BRANCH  35  36
ATOM     36  O   UNL A   1      34.646  32.869  31.915  1.00  0.00    -0.460 OA
BRANCH  36  37
ATOM     37  C   UNL A   1      35.649  32.548  32.771  1.00  0.00     0.338 C 
ATOM     38  O   UNL A   1      35.606  32.625  33.989  1.00  0.00    -0.246 OA
BRANCH  37  39
ATOM     39  C   UNL A   1      36.682  31.788  32.009  1.00  0.00     0.060 A 
ATOM     40  C   UNL A   1      37.459  30.839  32.698  1.00  0.00     0.016 A 
ATOM     41  C   UNL A   1      36.823  31.924  30.627  1.00  0.00     0.016 A 
ATOM     42  C   UNL A   1      38.404  30.064  32.017  1.00  0.00     0.010 A 
ATOM     43  C   UNL A   1      37.784  31.162  29.949  1.00  0.00     0.010 A 
ATOM     44  C   UNL A   1      38.607  30.254  30.644  1.00  0.00    -0.014 A 
BRANCH  44  45
ATOM     45  C   UNL A   1      39.813  29.693  29.976  1.00  0.00     0.031 A 
ATOM     46  C   UNL A   1      41.045  30.560  29.902  1.00  0.00     0.074 A 
ATOM     47  C   UNL A   1      39.835  28.464  29.425  1.00  0.00     0.049 A 
ATOM     48  N   UNL A   1      42.192  30.332  29.317  1.00  0.00    -0.248 NA
ATOM     49  C   UNL A   1      40.964  31.866  30.577  1.00  0.00     0.031 C 
ATOM     50  C   UNL A   1      38.730  27.509  29.429  1.00  0.00     0.029 A 
ATOM     51  N   UNL A   1      40.831  27.825  28.724  1.00  0.00    -0.354 N 
ATOM     52  C   UNL A   1      42.953  31.478  29.518  1.00  0.00     0.074 A 
ATOM     53  C   UNL A   1      42.136  32.401  30.273  1.00  0.00     0.031 C 
ATOM     54  C   UNL A   1      39.097  26.417  28.733  1.00  0.00     0.029 A 
ATOM     55  C   UNL A   1      40.450  26.606  28.210  1.00  0.00     0.049 A 
ATOM     56  H   UNL A   1      41.731  28.203  28.599  1.00  0.00     0.167 HD
ATOM     57  C   UNL A   1      44.221  31.740  29.125  1.00  0.00     0.034 A 
ATOM     58  C   UNL A   1      41.106  25.755  27.392  1.00  0.00     0.034 A 
ATOM     59  C   UNL A   1      45.049  30.822  28.390  1.00  0.00     0.049 A 
ATOM     60  C   UNL A   1      42.507  26.086  26.932  1.00  0.00     0.074 A 
ATOM     61  C   UNL A   1      46.366  30.982  27.997  1.00  0.00     0.029 A 
ATOM     62  N   UNL A   1      44.639  29.586  27.920  1.00  0.00    -0.354 N 
ATOM     63  N   UNL A   1      43.256  27.119  27.232  1.00  0.00    -0.248 NA
ATOM     64  C   UNL A   1      43.164  25.114  26.041  1.00  0.00     0.031 C 
ATOM     65  C   UNL A   1      46.741  29.858  27.255  1.00  0.00     0.029 A 
ATOM     66  C   UNL A   1      45.670  28.979  27.224  1.00  0.00     0.049 A 
ATOM     67  H   UNL A   1      43.745  29.197  28.060  1.00  0.00     0.167 HD
ATOM     68  C   UNL A   1      44.482  26.901  26.606  1.00  0.00     0.074 A 
ATOM     69  C   UNL A   1      44.380  25.630  25.921  1.00  0.00     0.031 C 
ATOM     70  C   UNL A   1      45.587  27.688  26.592  1.00  0.00     0.034 A 
BRANCH  57  71
ATOM     71  C   UNL A   1      44.800  33.081  29.490  1.00  0.00     0.023 A 
ATOM     72  C   UNL A   1      45.573  33.218  30.661  1.00  0.00     0.012 A 
ATOM     73  C   UNL A   1      44.616  34.195  28.648  1.00  0.00     0.148 A 
ATOM     74  C   UNL A   1      46.123  34.451  31.007  1.00  0.00     0.002 A 
ATOM     75  C   UNL A   1      45.209  35.408  28.974  1.00  0.00     0.091 A 
ATOM     76  F   UNL A   1      43.859  34.050  27.551  1.00  0.00    -0.205 F 
ATOM     77  C   UNL A   1      45.951  35.542  30.159  1.00  0.00     0.022 A 
BRANCH  75  78
ATOM     78  S   UNL A   1      45.113  36.849  27.907  1.00  0.00     0.127 S 
ATOM     79  O   UNL A   1      43.691  37.182  27.986  1.00  0.00    -0.237 OA
ATOM     80  O   UNL A   1      45.999  37.794  28.587  1.00  0.00    -0.237 OA
ATOM     81  O   UNL A   1      45.579  36.412  26.598  1.00  0.00    -0.744 OA
ENDBRANCH  75  78
ENDBRANCH  57  71
BRANCH  58  82
ATOM     82  C   UNL A   1      40.462  24.480  26.960  1.00  0.00     0.023 A 
ATOM     83  C   UNL A   1      39.149  24.504  26.447  1.00  0.00     0.012 A 
ATOM     84  C   UNL A   1      41.133  23.246  27.068  1.00  0.00     0.148 A 
ATOM     85  C   UNL A   1      38.507  23.321  26.078  1.00  0.00     0.002 A 
ATOM     86  C   UNL A   1      40.508  22.078  26.648  1.00  0.00     0.091 A 
ATOM     87  F   UNL A   1      42.371  23.241  27.580  1.00  0.00    -0.205 F 
ATOM     88  C   UNL A   1      39.188  22.110  26.169  1.00  0.00     0.022 A 
BRANCH  86  89
ATOM     89  S   UNL A   1      41.342  20.487  26.623  1.00  0.00     0.127 S 
ATOM     90  O   UNL A   1      40.293  19.607  26.114  1.00  0.00    -0.237 OA
ATOM     91  O   UNL A   1      42.439  20.741  25.690  1.00  0.00    -0.237 OA
ATOM     92  O   UNL A   1      41.759  20.239  27.995  1.00  0.00    -0.744 OA
ENDBRANCH  86  89
ENDBRANCH  58  82
BRANCH  70  93
ATOM     93  C   UNL A   1      46.809  27.189  25.861  1.00  0.00     0.023 A 
ATOM     94  C   UNL A   1      46.937  27.392  24.472  1.00  0.00     0.012 A 
ATOM     95  C   UNL A   1      47.872  26.590  26.570  1.00  0.00     0.148 A 
ATOM     96  C   UNL A   1      48.087  26.978  23.797  1.00  0.00     0.002 A 
ATOM     97  C   UNL A   1      49.035  26.228  25.900  1.00  0.00     0.091 A 
ATOM     98  F   UNL A   1      47.729  26.391  27.888  1.00  0.00    -0.205 F 
ATOM     99  C   UNL A   1      49.139  26.408  24.511  1.00  0.00     0.022 A 
BRANCH  97 100
ATOM    100  S   UNL A   1      50.479  25.579  26.751  1.00  0.00     0.127 S 
ATOM    101  O   UNL A   1      51.358  25.241  25.633  1.00  0.00    -0.237 OA
ATOM    102  O   UNL A   1      50.915  26.730  27.544  1.00  0.00    -0.237 OA
ATOM    103  O   UNL A   1      50.008  24.447  27.538  1.00  0.00    -0.744 OA
ENDBRANCH  97 100
ENDBRANCH  70  93
ENDBRANCH  44  45
ENDBRANCH  37  39
ENDBRANCH  36  37
ENDBRANCH  35  36
ENDBRANCH  34  35
ENDBRANCH  33  34
ENDBRANCH   1  33
TORSDOF 24
ENDMDL
MODEL 3
REMARK VINA RESULT:     -11.1      4.731      9.551
REMARK SMILES Cc1ncccc1OC1(C(=O)OCCOCCOCCOC(=O)c2ccc(-c3c4nc(c(-c5cccc(S(=O)(=O)[O-])c5F)c5ccc([nH]5)c(-c5cccc(S(=O)(=O)[O-])c5F)c5nc(c(-c6cccc(S(=O)(=O)[O-])c6F)c6ccc3[nH]6)C=C5)C=C4)cc2)CCN(C(=O)c2ccc(O)nn2)CC1
REMARK SMILES IDX 17 1 16 2 15 3 14 4 13 5 12 6 10 7 11 8 9 9 87 10 100 11
REMARK SMILES IDX 88 12 99 13 89 14 90 15 91 16 8 17 7 18 1 19 2 20 3 21 4 22
REMARK SMILES IDX 6 23 5 24 92 25 93 26 98 27 94 28 97 29 95 30 96 31 18 33
REMARK SMILES IDX 19 34 20 35 21 36 22 37 23 38 24 39 25 40 86 41 26 42 85 43
REMARK SMILES IDX 27 44 28 45 29 46 79 47 30 48 84 49 78 50 80 51 31 52 83 53
REMARK SMILES IDX 77 54 76 55 32 57 64 58 44 59 63 60 45 61 48 62 62 63 81 64
REMARK SMILES IDX 46 65 47 66 61 68 82 69 49 70 33 71 34 72 42 73 35 74 37 75
REMARK SMILES IDX 43 76 36 77 38 78 39 79 40 80 41 81 65 82 66 83 74 84 67 85
REMARK SMILES IDX 69 86 75 87 68 88 70 89 71 90 72 91 73 92 50 93 51 94 59 95
REMARK SMILES IDX 52 96 54 97 60 98 53 99 55 100 56 101 57 102 58 103
REMARK H PARENT 96 32 80 56 48 67
REMARK Flexibility Score: inf
ROOT
ATOM      1  C   UNL A   1      35.750  23.569  23.627  1.00  0.00     0.188 C 
ENDROOT
BRANCH   1   2
ATOM      2  C   UNL A   1      34.469  23.538  22.789  1.00  0.00     0.188 C 
BRANCH   2   3
ATOM      3  O   UNL A   1      34.064  24.735  22.149  1.00  0.00    -0.376 OA
BRANCH   3   4
ATOM      4  C   UNL A   1      32.872  24.715  21.377  1.00  0.00     0.202 C 
BRANCH   4   5
ATOM      5  C   UNL A   1      32.197  26.057  21.070  1.00  0.00     0.261 C 
BRANCH   5   6
ATOM      6  O   UNL A   1      30.895  26.262  21.670  1.00  0.00    -0.460 OA
BRANCH   6   7
ATOM      7  C   UNL A   1      30.760  27.339  22.509  1.00  0.00     0.350 C 
ATOM      8  O   UNL A   1      30.747  28.497  22.103  1.00  0.00    -0.247 OA
BRANCH   7   9
ATOM      9  C   UNL A   1      30.817  26.958  24.038  1.00  0.00     0.209 C 
ATOM     10  C   UNL A   1      29.437  26.585  24.576  1.00  0.00     0.082 C 
ATOM     11  C   UNL A   1      31.801  25.797  23.959  1.00  0.00     0.082 C 
ATOM     12  C   UNL A   1      29.365  25.477  25.615  1.00  0.00     0.124 C 
ATOM     13  C   UNL A   1      31.795  24.864  25.130  1.00  0.00     0.124 C 
ATOM     14  N   UNL A   1      30.486  24.548  25.708  1.00  0.00    -0.337 N 
ATOM     15  C   UNL A   1      30.372  23.560  26.708  1.00  0.00     0.274 C 
ATOM     16  O   UNL A   1      29.349  23.341  27.350  1.00  0.00    -0.267 OA
BRANCH   9  17
ATOM     17  O   UNL A   1      31.400  28.162  24.575  1.00  0.00    -0.474 OA
BRANCH  17  18
ATOM     18  C   UNL A   1      32.317  28.559  25.482  1.00  0.00     0.142 A 
ATOM     19  C   UNL A   1      31.307  28.155  27.815  1.00  0.00     0.071 C 
ATOM     20  C   UNL A   1      32.372  28.571  26.877  1.00  0.00     0.079 A 
ATOM     21  N   UNL A   1      33.498  28.902  27.583  1.00  0.00    -0.258 NA
ATOM     22  C   UNL A   1      34.614  29.232  26.915  1.00  0.00     0.111 A 
ATOM     23  C   UNL A   1      33.513  28.932  24.839  1.00  0.00     0.050 A 
ATOM     24  C   UNL A   1      34.669  29.271  25.545  1.00  0.00     0.024 A 
ENDBRANCH  17  18
ENDBRANCH   9  17
BRANCH  15  25
ATOM     25  C   UNL A   1      31.551  22.698  26.935  1.00  0.00     0.151 A 
ATOM     26  C   UNL A   1      31.961  21.870  25.904  1.00  0.00     0.042 A 
ATOM     27  N   UNL A   1      32.309  22.961  28.031  1.00  0.00    -0.142 NA
ATOM     28  C   UNL A   1      33.226  21.312  26.000  1.00  0.00     0.072 A 
ATOM     29  N   UNL A   1      33.544  22.402  28.123  1.00  0.00    -0.112 NA
ATOM     30  C   UNL A   1      33.974  21.616  27.117  1.00  0.00     0.230 A 
BRANCH  30  31
ATOM     31  O   UNL A   1      35.247  21.157  27.238  1.00  0.00    -0.492 OA
ATOM     32  H   UNL A   1      35.523  20.749  28.035  1.00  0.00     0.295 HD
ENDBRANCH  30  31
ENDBRANCH  15  25
ENDBRANCH   7   9
ENDBRANCH   6   7
ENDBRANCH   5   6
ENDBRANCH   4   5
ENDBRANCH   3   4
ENDBRANCH   2   3
ENDBRANCH   1   2
BRANCH   1  33
ATOM     33  O   UNL A   1      36.630  22.480  23.415  1.00  0.00    -0.376 OA
BRANCH  33  34
ATOM     34  C   UNL A   1      36.410  21.325  24.215  1.00  0.00     0.202 C 
BRANCH  34  35
ATOM     35  C   UNL A   1      37.692  20.786  24.879  1.00  0.00     0.261 C 
BRANCH  35  36
ATOM     36  O   UNL A   1      38.167  21.533  26.017  1.00  0.00    -0.460 OA
BRANCH  36  37
ATOM     37  C   UNL A   1      39.459  21.348  26.391  1.00  0.00     0.338 C 
ATOM     38  O   UNL A   1      40.158  20.388  26.106  1.00  0.00    -0.246 OA
BRANCH  37  39
ATOM     39  C   UNL A   1      39.978  22.642  26.922  1.00  0.00     0.060 A 
ATOM     40  C   UNL A   1      39.363  23.834  26.499  1.00  0.00     0.016 A 
ATOM     41  C   UNL A   1      40.979  22.688  27.895  1.00  0.00     0.016 A 
ATOM     42  C   UNL A   1      39.779  25.069  27.008  1.00  0.00     0.010 A 
ATOM     43  C   UNL A   1      41.409  23.927  28.389  1.00  0.00     0.010 A 
ATOM     44  C   UNL A   1      40.839  25.127  27.923  1.00  0.00    -0.014 A 
BRANCH  44  45
ATOM     45  C   UNL A   1      41.508  26.424  28.218  1.00  0.00     0.031 A 
ATOM     46  C   UNL A   1      40.695  27.498  28.899  1.00  0.00     0.074 A 
ATOM     47  C   UNL A   1      42.788  26.675  27.885  1.00  0.00     0.049 A 
ATOM     48  N   UNL A   1      41.022  28.726  29.200  1.00  0.00    -0.248 NA
ATOM     49  C   UNL A   1      39.322  27.129  29.284  1.00  0.00     0.031 C 
ATOM     50  C   UNL A   1      43.701  25.736  27.238  1.00  0.00     0.029 A 
ATOM     51  N   UNL A   1      43.532  27.825  28.025  1.00  0.00    -0.354 N 
ATOM     52  C   UNL A   1      39.887  29.290  29.772  1.00  0.00     0.074 A 
ATOM     53  C   UNL A   1      38.862  28.271  29.770  1.00  0.00     0.031 C 
ATOM     54  C   UNL A   1      44.873  26.357  27.007  1.00  0.00     0.029 A 
ATOM     55  C   UNL A   1      44.785  27.745  27.462  1.00  0.00     0.049 A 
ATOM     56  H   UNL A   1      43.199  28.630  28.484  1.00  0.00     0.167 HD
ATOM     57  C   UNL A   1      39.711  30.537  30.268  1.00  0.00     0.034 A 
ATOM     58  C   UNL A   1      45.739  28.688  27.308  1.00  0.00     0.034 A 
ATOM     59  C   UNL A   1      40.728  31.552  30.292  1.00  0.00     0.049 A 
ATOM     60  C   UNL A   1      45.506  30.086  27.833  1.00  0.00     0.074 A 
ATOM     61  C   UNL A   1      40.655  32.828  30.825  1.00  0.00     0.029 A 
ATOM     62  N   UNL A   1      41.994  31.421  29.744  1.00  0.00    -0.354 N 
ATOM     63  N   UNL A   1      44.473  30.566  28.480  1.00  0.00    -0.248 NA
ATOM     64  C   UNL A   1      46.589  31.063  27.632  1.00  0.00     0.031 C 
ATOM     65  C   UNL A   1      41.863  33.481  30.565  1.00  0.00     0.029 A 
ATOM     66  C   UNL A   1      42.705  32.597  29.909  1.00  0.00     0.049 A 
ATOM     67  H   UNL A   1      42.336  30.610  29.302  1.00  0.00     0.167 HD
ATOM     68  C   UNL A   1      44.797  31.883  28.800  1.00  0.00     0.074 A 
ATOM     69  C   UNL A   1      46.129  32.121  28.288  1.00  0.00     0.031 C 
ATOM     70  C   UNL A   1      44.053  32.813  29.450  1.00  0.00     0.034 A 
BRANCH  57  71
ATOM     71  C   UNL A   1      38.359  30.875  30.837  1.00  0.00     0.023 A 
ATOM     72  C   UNL A   1      38.032  30.485  32.151  1.00  0.00     0.012 A 
ATOM     73  C   UNL A   1      37.429  31.619  30.084  1.00  0.00     0.148 A 
ATOM     74  C   UNL A   1      36.787  30.799  32.695  1.00  0.00     0.002 A 
ATOM     75  C   UNL A   1      36.210  31.970  30.651  1.00  0.00     0.091 A 
ATOM     76  F   UNL A   1      37.750  31.959  28.828  1.00  0.00    -0.205 F 
ATOM     77  C   UNL A   1      35.882  31.550  31.950  1.00  0.00     0.022 A 
BRANCH  75  78
ATOM     78  S   UNL A   1      35.012  33.004  29.802  1.00  0.00     0.127 S 
ATOM     79  O   UNL A   1      34.459  32.070  28.821  1.00  0.00    -0.237 OA
ATOM     80  O   UNL A   1      34.096  33.363  30.885  1.00  0.00    -0.237 OA
ATOM     81  O   UNL A   1      35.764  34.119  29.247  1.00  0.00    -0.744 OA
ENDBRANCH  75  78
ENDBRANCH  57  71
BRANCH  58  82
ATOM     82  C   UNL A   1      47.031  28.348  26.642  1.00  0.00     0.023 A 
ATOM     83  C   UNL A   1      48.202  28.227  27.418  1.00  0.00     0.012 A 
ATOM     84  C   UNL A   1      47.111  28.159  25.248  1.00  0.00     0.148 A 
ATOM     85  C   UNL A   1      49.431  27.954  26.816  1.00  0.00     0.002 A 
ATOM     86  C   UNL A   1      48.328  27.833  24.661  1.00  0.00     0.091 A 
ATOM     87  F   UNL A   1      45.992  28.300  24.525  1.00  0.00    -0.205 F 
ATOM     88  C   UNL A   1      49.493  27.747  25.440  1.00  0.00     0.022 A 
BRANCH  86  89
ATOM     89  S   UNL A   1      48.487  27.440  22.916  1.00  0.00     0.127 S 
ATOM     90  O   UNL A   1      48.227  26.002  22.907  1.00  0.00    -0.237 OA
ATOM     91  O   UNL A   1      47.428  28.260  22.328  1.00  0.00    -0.237 OA
ATOM     92  O   UNL A   1      49.837  27.837  22.544  1.00  0.00    -0.744 OA
ENDBRANCH  86  89
ENDBRANCH  58  82
BRANCH  70  93
ATOM     93  C   UNL A   1      44.667  34.168  29.704  1.00  0.00     0.023 A 
ATOM     94  C   UNL A   1      45.413  34.398  30.878  1.00  0.00     0.012 A 
ATOM     95  C   UNL A   1      44.574  35.189  28.737  1.00  0.00     0.148 A 
ATOM     96  C   UNL A   1      46.027  35.633  31.098  1.00  0.00     0.002 A 
ATOM     97  C   UNL A   1      45.231  36.398  28.938  1.00  0.00     0.091 A 
ATOM     98  F   UNL A   1      43.849  34.959  27.633  1.00  0.00    -0.205 F 
ATOM     99  C   UNL A   1      45.946  36.627  30.124  1.00  0.00     0.022 A 
BRANCH  97 100
ATOM    100  S   UNL A   1      45.266  37.698  27.699  1.00  0.00     0.127 S 
ATOM    101  O   UNL A   1      46.100  38.708  28.348  1.00  0.00    -0.237 OA
ATOM    102  O   UNL A   1      45.896  37.026  26.561  1.00  0.00    -0.237 OA
ATOM    103  O   UNL A   1      43.878  38.083  27.479  1.00  0.00    -0.744 OA
ENDBRANCH  97 100
ENDBRANCH  70  93
ENDBRANCH  44  45
ENDBRANCH  37  39
ENDBRANCH  36  37
ENDBRANCH  35  36
ENDBRANCH  34  35
ENDBRANCH  33  34
ENDBRANCH   1  33
TORSDOF 24
ENDMDL
