MODEL 1
REMARK VINA RESULT:      -8.5      0.000      0.000
REMARK SMILES Cc1c(CC(=O)N[C@@H](CCO)C(=O)OCCOCCOCCOC(=O)c2ccc(-c3c4nc(c(-c5cccc(S(=O)(=O)[O-])c5F)c5ccc([nH]5)c(-c5cccc(S(=O)(=O)[O-])c5F)c5nc(c(-c6cccc(S(=O)(=O)[O-])c6F)c6ccc3[nH]6)C=C5)C=C4)cc2)cc(-c2ccc(S(C)(=O)=O)cc2)n1-c1ccc(F)cc1
REMARK SMILES IDX 18 1 17 2 16 3 15 4 14 5 12 6 13 7 8 8 7 9 5 10 6 11 4 13
REMARK SMILES IDX 3 14 1 15 2 16 101 17 89 18 90 19 102 20 103 21 108 22
REMARK SMILES IDX 104 23 107 24 105 25 106 26 91 27 92 28 100 29 93 30 99 31
REMARK SMILES IDX 94 32 95 33 96 34 97 35 98 36 9 37 10 38 11 39 19 41 20 42
REMARK SMILES IDX 21 43 22 44 23 45 24 46 25 47 26 48 27 49 88 50 28 51 87 52
REMARK SMILES IDX 29 53 30 54 31 55 81 56 32 57 86 58 80 59 82 60 33 61 85 62
REMARK SMILES IDX 79 63 78 64 34 66 66 67 46 68 65 69 47 70 50 71 64 72 83 73
REMARK SMILES IDX 48 74 49 75 63 77 84 78 51 79 35 80 36 81 44 82 37 83 39 84
REMARK SMILES IDX 45 85 38 86 40 87 41 88 42 89 43 90 67 91 68 92 76 93 69 94
REMARK SMILES IDX 71 95 77 96 70 97 72 98 73 99 74 100 75 101 52 102 53 103
REMARK SMILES IDX 61 104 54 105 56 106 62 107 55 108 57 109 58 110 59 111
REMARK SMILES IDX 60 112
REMARK H PARENT 7 12 11 40 82 65 50 76
REMARK Flexibility Score: inf
ROOT
ATOM      1  C   UNL A   1      31.476  28.333  25.331  1.00  0.00     0.188 C 
ENDROOT
BRANCH   1   2
ATOM      2  O   UNL A   1      32.513  27.370  25.279  1.00  0.00    -0.376 OA
BRANCH   2   3
ATOM      3  C   UNL A   1      33.206  27.089  24.070  1.00  0.00     0.202 C 
BRANCH   3   4
ATOM      4  C   UNL A   1      33.616  25.666  23.679  1.00  0.00     0.261 C 
BRANCH   4   5
ATOM      5  O   UNL A   1      32.531  24.832  23.263  1.00  0.00    -0.462 OA
BRANCH   5   6
ATOM      6  C   UNL A   1      32.003  24.072  24.263  1.00  0.00     0.328 C 
ATOM      7  O   UNL A   1      31.000  24.349  24.910  1.00  0.00    -0.250 OA
BRANCH   6   8
ATOM      8  C   UNL A   1      32.820  22.805  24.522  1.00  0.00     0.194 C 
BRANCH   8   9
ATOM      9  N   UNL A   1      33.431  22.642  25.846  1.00  0.00    -0.342 N 
ATOM     10  C   UNL A   1      34.755  22.519  26.172  1.00  0.00     0.225 C 
ATOM     11  O   UNL A   1      35.031  22.107  27.300  1.00  0.00    -0.275 OA
ATOM     12  H   UNL A   1      32.802  22.617  26.604  1.00  0.00     0.164 HD
BRANCH  10  13
ATOM     13  C   UNL A   1      35.845  22.942  25.189  1.00  0.00     0.137 C 
BRANCH  13  14
ATOM     14  C   UNL A   1      37.158  23.217  25.849  1.00  0.00    -0.017 A 
ATOM     15  C   UNL A   1      38.376  20.988  25.391  1.00  0.00     0.065 C 
ATOM     16  C   UNL A   1      38.279  22.403  25.862  1.00  0.00     0.024 A 
ATOM     17  N   UNL A   1      39.326  23.117  26.432  1.00  0.00    -0.314 N 
ATOM     18  C   UNL A   1      37.491  24.389  26.576  1.00  0.00     0.033 A 
ATOM     19  C   UNL A   1      38.846  24.360  26.849  1.00  0.00     0.053 A 
BRANCH  17  20
ATOM     20  C   UNL A   1      40.675  22.684  26.523  1.00  0.00     0.046 A 
ATOM     21  C   UNL A   1      41.090  21.942  27.636  1.00  0.00     0.029 A 
ATOM     22  C   UNL A   1      41.587  23.041  25.520  1.00  0.00     0.029 A 
ATOM     23  C   UNL A   1      42.423  21.547  27.738  1.00  0.00     0.041 A 
ATOM     24  C   UNL A   1      42.921  22.658  25.641  1.00  0.00     0.041 A 
ATOM     25  C   UNL A   1      43.326  21.915  26.745  1.00  0.00     0.123 A 
ATOM     26  F   UNL A   1      44.610  21.551  26.857  1.00  0.00    -0.207 F 
ENDBRANCH  17  20
BRANCH  19  27
ATOM     27  C   UNL A   1      39.669  25.490  27.299  1.00  0.00    -0.001 A 
ATOM     28  C   UNL A   1      39.767  25.792  28.667  1.00  0.00     0.011 A 
ATOM     29  C   UNL A   1      40.419  26.232  26.380  1.00  0.00     0.011 A 
ATOM     30  C   UNL A   1      40.575  26.842  29.108  1.00  0.00     0.021 A 
ATOM     31  C   UNL A   1      41.228  27.287  26.814  1.00  0.00     0.021 A 
ATOM     32  C   UNL A   1      41.293  27.592  28.175  1.00  0.00     0.067 A 
BRANCH  32  33
ATOM     33  S   UNL A   1      42.335  28.909  28.757  1.00  0.00     0.175 S 
ATOM     34  C   UNL A   1      42.627  28.507  30.459  1.00  0.00     0.163 C 
ATOM     35  O   UNL A   1      43.580  28.822  28.049  1.00  0.00    -0.224 OA
ATOM     36  O   UNL A   1      41.541  30.140  28.743  1.00  0.00    -0.224 OA
ENDBRANCH  32  33
ENDBRANCH  19  27
ENDBRANCH  13  14
ENDBRANCH  10  13
ENDBRANCH   8   9
BRANCH   8  37
ATOM     37  C   UNL A   1      31.967  21.577  24.171  1.00  0.00     0.065 C 
BRANCH  37  38
ATOM     38  C   UNL A   1      32.690  20.240  24.327  1.00  0.00     0.159 C 
BRANCH  38  39
ATOM     39  O   UNL A   1      32.197  19.495  25.429  1.00  0.00    -0.396 OA
ATOM     40  H   UNL A   1      32.839  19.529  26.155  1.00  0.00     0.210 HD
ENDBRANCH  38  39
ENDBRANCH  37  38
ENDBRANCH   8  37
ENDBRANCH   6   8
ENDBRANCH   5   6
ENDBRANCH   4   5
ENDBRANCH   3   4
ENDBRANCH   2   3
ENDBRANCH   1   2
BRANCH   1  41
ATOM     41  C   UNL A   1      31.787  29.831  25.460  1.00  0.00     0.188 C 
BRANCH  41  42
ATOM     42  O   UNL A   1      31.785  30.390  26.752  1.00  0.00    -0.376 OA
BRANCH  42  43
ATOM     43  C   UNL A   1      32.729  31.435  26.996  1.00  0.00     0.202 C 
BRANCH  43  44
ATOM     44  C   UNL A   1      32.300  32.863  27.454  1.00  0.00     0.261 C 
BRANCH  44  45
ATOM     45  O   UNL A   1      33.302  33.879  27.827  1.00  0.00    -0.460 OA
BRANCH  45  46
ATOM     46  C   UNL A   1      33.467  34.101  29.185  1.00  0.00     0.338 C 
ATOM     47  O   UNL A   1      32.651  34.744  29.834  1.00  0.00    -0.246 OA
BRANCH  46  48
ATOM     48  C   UNL A   1      34.692  33.452  29.864  1.00  0.00     0.060 A 
ATOM     49  C   UNL A   1      35.501  34.203  30.712  1.00  0.00     0.016 A 
ATOM     50  C   UNL A   1      35.268  32.227  29.459  1.00  0.00     0.016 A 
ATOM     51  C   UNL A   1      36.782  33.712  31.180  1.00  0.00     0.010 A 
ATOM     52  C   UNL A   1      36.604  31.757  29.895  1.00  0.00     0.010 A 
ATOM     53  C   UNL A   1      37.424  32.474  30.785  1.00  0.00    -0.014 A 
BRANCH  53  54
ATOM     54  C   UNL A   1      39.061  32.366  30.988  1.00  0.00     0.031 A 
ATOM     55  C   UNL A   1      39.169  31.283  32.012  1.00  0.00     0.074 A 
ATOM     56  C   UNL A   1      40.299  32.959  30.653  1.00  0.00     0.049 A 
ATOM     57  N   UNL A   1      38.468  31.337  33.114  1.00  0.00    -0.248 NA
ATOM     58  C   UNL A   1      39.725  29.956  31.732  1.00  0.00     0.031 C 
ATOM     59  C   UNL A   1      40.527  34.193  29.875  1.00  0.00     0.029 A 
ATOM     60  N   UNL A   1      41.689  32.619  30.923  1.00  0.00    -0.354 N 
ATOM     61  C   UNL A   1      38.868  30.264  33.854  1.00  0.00     0.074 A 
ATOM     62  C   UNL A   1      39.361  29.326  32.857  1.00  0.00     0.031 C 
ATOM     63  C   UNL A   1      41.851  34.414  29.612  1.00  0.00     0.029 A 
ATOM     64  C   UNL A   1      42.709  33.395  30.222  1.00  0.00     0.049 A 
ATOM     65  H   UNL A   1      41.929  31.899  31.550  1.00  0.00     0.167 HD
ATOM     66  C   UNL A   1      39.399  30.568  35.075  1.00  0.00     0.034 A 
ATOM     67  C   UNL A   1      44.113  33.316  30.181  1.00  0.00     0.034 A 
ATOM     68  C   UNL A   1      40.813  30.333  35.143  1.00  0.00     0.049 A 
ATOM     69  C   UNL A   1      44.522  32.654  31.427  1.00  0.00     0.074 A 
ATOM     70  C   UNL A   1      41.628  29.321  34.672  1.00  0.00     0.029 A 
ATOM     71  N   UNL A   1      41.621  31.431  35.351  1.00  0.00    -0.354 N 
ATOM     72  N   UNL A   1      44.628  33.323  32.536  1.00  0.00    -0.248 NA
ATOM     73  C   UNL A   1      45.005  31.279  31.488  1.00  0.00     0.031 C 
ATOM     74  C   UNL A   1      42.756  29.980  34.141  1.00  0.00     0.029 A 
ATOM     75  C   UNL A   1      42.790  31.277  34.631  1.00  0.00     0.049 A 
ATOM     76  H   UNL A   1      41.400  32.202  35.922  1.00  0.00     0.167 HD
ATOM     77  C   UNL A   1      44.592  32.343  33.477  1.00  0.00     0.074 A 
ATOM     78  C   UNL A   1      45.120  31.165  32.814  1.00  0.00     0.031 C 
ATOM     79  C   UNL A   1      43.602  32.445  34.397  1.00  0.00     0.034 A 
BRANCH  66  80
ATOM     80  C   UNL A   1      38.671  31.659  35.825  1.00  0.00     0.023 A 
ATOM     81  C   UNL A   1      38.916  32.986  35.438  1.00  0.00     0.012 A 
ATOM     82  C   UNL A   1      37.913  31.419  37.001  1.00  0.00     0.148 A 
ATOM     83  C   UNL A   1      38.473  34.048  36.231  1.00  0.00     0.002 A 
ATOM     84  C   UNL A   1      37.575  32.473  37.841  1.00  0.00     0.091 A 
ATOM     85  F   UNL A   1      37.542  30.161  37.287  1.00  0.00    -0.205 F 
ATOM     86  C   UNL A   1      37.840  33.792  37.448  1.00  0.00     0.022 A 
BRANCH  84  87
ATOM     87  S   UNL A   1      37.009  32.208  39.533  1.00  0.00     0.127 S 
ATOM     88  O   UNL A   1      37.734  33.245  40.273  1.00  0.00    -0.237 OA
ATOM     89  O   UNL A   1      35.572  32.438  39.433  1.00  0.00    -0.237 OA
ATOM     90  O   UNL A   1      37.408  30.852  39.893  1.00  0.00    -0.744 OA
ENDBRANCH  84  87
ENDBRANCH  66  80
BRANCH  67  91
ATOM     91  C   UNL A   1      45.447  33.834  29.488  1.00  0.00     0.023 A 
ATOM     92  C   UNL A   1      46.137  34.964  30.077  1.00  0.00     0.012 A 
ATOM     93  C   UNL A   1      46.252  33.072  28.613  1.00  0.00     0.148 A 
ATOM     94  C   UNL A   1      47.511  35.239  29.924  1.00  0.00     0.002 A 
ATOM     95  C   UNL A   1      47.637  33.372  28.436  1.00  0.00     0.091 A 
ATOM     96  F   UNL A   1      45.706  32.001  28.025  1.00  0.00    -0.205 F 
ATOM     97  C   UNL A   1      48.269  34.429  29.111  1.00  0.00     0.022 A 
BRANCH  95  98
ATOM     98  S   UNL A   1      48.756  32.383  27.413  1.00  0.00     0.127 S 
ATOM     99  O   UNL A   1      49.118  31.278  28.305  1.00  0.00    -0.237 OA
ATOM    100  O   UNL A   1      47.887  31.998  26.302  1.00  0.00    -0.237 OA
ATOM    101  O   UNL A   1      49.858  33.273  27.081  1.00  0.00    -0.744 OA
ENDBRANCH  95  98
ENDBRANCH  67  91
BRANCH  79 102
ATOM    102  C   UNL A   1      43.290  33.836  34.925  1.00  0.00     0.023 A 
ATOM    103  C   UNL A   1      42.516  34.808  34.246  1.00  0.00     0.012 A 
ATOM    104  C   UNL A   1      43.851  34.204  36.156  1.00  0.00     0.148 A 
ATOM    105  C   UNL A   1      42.367  36.108  34.740  1.00  0.00     0.002 A 
ATOM    106  C   UNL A   1      43.657  35.481  36.676  1.00  0.00     0.091 A 
ATOM    107  F   UNL A   1      44.601  33.298  36.801  1.00  0.00    -0.205 F 
ATOM    108  C   UNL A   1      42.930  36.443  35.966  1.00  0.00     0.022 A 
BRANCH 106 109
ATOM    109  S   UNL A   1      44.336  35.915  38.277  1.00  0.00     0.127 S 
ATOM    110  O   UNL A   1      44.291  37.376  38.238  1.00  0.00    -0.237 OA
ATOM    111  O   UNL A   1      43.402  35.303  39.219  1.00  0.00    -0.237 OA
ATOM    112  O   UNL A   1      45.674  35.330  38.292  1.00  0.00    -0.744 OA
ENDBRANCH 106 109
ENDBRANCH  79 102
ENDBRANCH  53  54
ENDBRANCH  46  48
ENDBRANCH  45  46
ENDBRANCH  44  45
ENDBRANCH  43  44
ENDBRANCH  42  43
ENDBRANCH  41  42
ENDBRANCH   1  41
TORSDOF 29
ENDMDL
MODEL 2
REMARK VINA RESULT:      -8.4      2.895      6.926
REMARK SMILES Cc1c(CC(=O)N[C@@H](CCO)C(=O)OCCOCCOCCOC(=O)c2ccc(-c3c4nc(c(-c5cccc(S(=O)(=O)[O-])c5F)c5ccc([nH]5)c(-c5cccc(S(=O)(=O)[O-])c5F)c5nc(c(-c6cccc(S(=O)(=O)[O-])c6F)c6ccc3[nH]6)C=C5)C=C4)cc2)cc(-c2ccc(S(C)(=O)=O)cc2)n1-c1ccc(F)cc1
REMARK SMILES IDX 18 1 17 2 16 3 15 4 14 5 12 6 13 7 8 8 7 9 5 10 6 11 4 13
REMARK SMILES IDX 3 14 1 15 2 16 101 17 89 18 90 19 102 20 103 21 108 22
REMARK SMILES IDX 104 23 107 24 105 25 106 26 91 27 92 28 100 29 93 30 99 31
REMARK SMILES IDX 94 32 95 33 96 34 97 35 98 36 9 37 10 38 11 39 19 41 20 42
REMARK SMILES IDX 21 43 22 44 23 45 24 46 25 47 26 48 27 49 88 50 28 51 87 52
REMARK SMILES IDX 29 53 30 54 31 55 81 56 32 57 86 58 80 59 82 60 33 61 85 62
REMARK SMILES IDX 79 63 78 64 34 66 66 67 46 68 65 69 47 70 50 71 64 72 83 73
REMARK SMILES IDX 48 74 49 75 63 77 84 78 51 79 35 80 36 81 44 82 37 83 39 84
REMARK SMILES IDX 45 85 38 86 40 87 41 88 42 89 43 90 67 91 68 92 76 93 69 94
REMARK SMILES IDX 71 95 77 96 70 97 72 98 73 99 74 100 75 101 52 102 53 103
REMARK SMILES IDX 61 104 54 105 56 106 62 107 55 108 57 109 58 110 59 111
REMARK SMILES IDX 60 112
REMARK H PARENT 7 12 11 40 82 65 50 76
REMARK Flexibility Score: inf
ROOT
ATOM      1  C   UNL A   1      31.975  27.634  23.219  1.00  0.00     0.188 C 
ENDROOT
BRANCH   1   2
ATOM      2  O   UNL A   1      32.919  26.580  23.277  1.00  0.00    -0.376 OA
BRANCH   2   3
ATOM      3  C   UNL A   1      33.145  25.724  22.165  1.00  0.00     0.202 C 
BRANCH   3   4
ATOM      4  C   UNL A   1      33.930  24.415  22.291  1.00  0.00     0.261 C 
BRANCH   4   5
ATOM      5  O   UNL A   1      33.149  23.235  22.078  1.00  0.00    -0.462 OA
BRANCH   5   6
ATOM      6  C   UNL A   1      32.615  22.713  23.218  1.00  0.00     0.328 C 
ATOM      7  O   UNL A   1      31.447  22.830  23.572  1.00  0.00    -0.250 OA
BRANCH   6   8
ATOM      8  C   UNL A   1      33.649  21.955  24.050  1.00  0.00     0.194 C 
BRANCH   8   9
ATOM      9  N   UNL A   1      33.888  22.407  25.425  1.00  0.00    -0.342 N 
ATOM     10  C   UNL A   1      35.045  22.880  25.986  1.00  0.00     0.225 C 
ATOM     11  O   UNL A   1      35.105  22.932  27.216  1.00  0.00    -0.275 OA
ATOM     12  H   UNL A   1      33.110  22.364  26.028  1.00  0.00     0.164 HD
BRANCH  10  13
ATOM     13  C   UNL A   1      36.189  23.384  25.109  1.00  0.00     0.137 C 
BRANCH  13  14
ATOM     14  C   UNL A   1      37.536  23.182  25.727  1.00  0.00    -0.017 A 
ATOM     15  C   UNL A   1      37.792  20.629  25.446  1.00  0.00     0.065 C 
ATOM     16  C   UNL A   1      38.262  22.005  25.796  1.00  0.00     0.024 A 
ATOM     17  N   UNL A   1      39.526  22.303  26.290  1.00  0.00    -0.314 N 
ATOM     18  C   UNL A   1      38.322  24.187  26.347  1.00  0.00     0.033 A 
ATOM     19  C   UNL A   1      39.574  23.661  26.605  1.00  0.00     0.053 A 
BRANCH  17  20
ATOM     20  C   UNL A   1      40.612  21.394  26.400  1.00  0.00     0.046 A 
ATOM     21  C   UNL A   1      40.602  20.425  27.411  1.00  0.00     0.029 A 
ATOM     22  C   UNL A   1      41.699  21.503  25.523  1.00  0.00     0.029 A 
ATOM     23  C   UNL A   1      41.685  19.556  27.538  1.00  0.00     0.041 A 
ATOM     24  C   UNL A   1      42.785  20.643  25.670  1.00  0.00     0.041 A 
ATOM     25  C   UNL A   1      42.768  19.678  26.672  1.00  0.00     0.123 A 
ATOM     26  F   UNL A   1      43.815  18.854  26.810  1.00  0.00    -0.207 F 
ENDBRANCH  17  20
BRANCH  19  27
ATOM     27  C   UNL A   1      40.784  24.420  26.946  1.00  0.00    -0.001 A 
ATOM     28  C   UNL A   1      41.848  24.503  26.033  1.00  0.00     0.011 A 
ATOM     29  C   UNL A   1      40.863  25.126  28.152  1.00  0.00     0.011 A 
ATOM     30  C   UNL A   1      42.988  25.251  26.333  1.00  0.00     0.021 A 
ATOM     31  C   UNL A   1      42.003  25.875  28.461  1.00  0.00     0.021 A 
ATOM     32  C   UNL A   1      43.063  25.925  27.554  1.00  0.00     0.067 A 
BRANCH  32  33
ATOM     33  S   UNL A   1      44.511  26.892  27.908  1.00  0.00     0.175 S 
ATOM     34  C   UNL A   1      45.274  27.122  26.324  1.00  0.00     0.163 C 
ATOM     35  O   UNL A   1      44.072  28.170  28.390  1.00  0.00    -0.224 OA
ATOM     36  O   UNL A   1      45.418  26.056  28.698  1.00  0.00    -0.224 OA
ENDBRANCH  32  33
ENDBRANCH  19  27
ENDBRANCH  13  14
ENDBRANCH  10  13
ENDBRANCH   8   9
BRANCH   8  37
ATOM     37  C   UNL A   1      33.311  20.457  24.030  1.00  0.00     0.065 C 
BRANCH  37  38
ATOM     38  C   UNL A   1      33.850  19.670  25.224  1.00  0.00     0.159 C 
BRANCH  38  39
ATOM     39  O   UNL A   1      33.109  19.924  26.406  1.00  0.00    -0.396 OA
ATOM     40  H   UNL A   1      33.060  20.880  26.557  1.00  0.00     0.210 HD
ENDBRANCH  38  39
ENDBRANCH  37  38
ENDBRANCH   8  37
ENDBRANCH   6   8
ENDBRANCH   5   6
ENDBRANCH   4   5
ENDBRANCH   3   4
ENDBRANCH   2   3
ENDBRANCH   1   2
BRANCH   1  41
ATOM     41  C   UNL A   1      32.290  29.017  23.805  1.00  0.00     0.188 C 
BRANCH  41  42
ATOM     42  O   UNL A   1      31.386  29.552  24.741  1.00  0.00    -0.376 OA
BRANCH  42  43
ATOM     43  C   UNL A   1      31.911  29.853  26.036  1.00  0.00     0.202 C 
BRANCH  43  44
ATOM     44  C   UNL A   1      33.435  30.058  26.296  1.00  0.00     0.261 C 
BRANCH  44  45
ATOM     45  O   UNL A   1      33.925  30.592  27.581  1.00  0.00    -0.460 OA
BRANCH  45  46
ATOM     46  C   UNL A   1      35.199  30.198  27.956  1.00  0.00     0.338 C 
ATOM     47  O   UNL A   1      35.939  29.597  27.186  1.00  0.00    -0.246 OA
BRANCH  46  48
ATOM     48  C   UNL A   1      35.677  30.600  29.368  1.00  0.00     0.060 A 
ATOM     49  C   UNL A   1      35.489  31.901  29.827  1.00  0.00     0.016 A 
ATOM     50  C   UNL A   1      36.587  29.846  30.143  1.00  0.00     0.016 A 
ATOM     51  C   UNL A   1      36.125  32.385  31.036  1.00  0.00     0.010 A 
ATOM     52  C   UNL A   1      37.279  30.365  31.345  1.00  0.00     0.010 A 
ATOM     53  C   UNL A   1      37.075  31.660  31.857  1.00  0.00    -0.014 A 
BRANCH  53  54
ATOM     54  C   UNL A   1      38.069  32.546  32.835  1.00  0.00     0.031 A 
ATOM     55  C   UNL A   1      39.154  32.942  31.887  1.00  0.00     0.074 A 
ATOM     56  C   UNL A   1      38.308  32.942  34.171  1.00  0.00     0.049 A 
ATOM     57  N   UNL A   1      39.748  32.045  31.145  1.00  0.00    -0.248 NA
ATOM     58  C   UNL A   1      39.373  34.319  31.435  1.00  0.00     0.031 C 
ATOM     59  C   UNL A   1      37.578  32.516  35.382  1.00  0.00     0.029 A 
ATOM     60  N   UNL A   1      39.271  33.831  34.805  1.00  0.00    -0.354 N 
ATOM     61  C   UNL A   1      40.731  32.716  30.479  1.00  0.00     0.074 A 
ATOM     62  C   UNL A   1      40.248  34.088  30.449  1.00  0.00     0.031 C 
ATOM     63  C   UNL A   1      37.973  33.196  36.502  1.00  0.00     0.029 A 
ATOM     64  C   UNL A   1      39.061  34.134  36.219  1.00  0.00     0.049 A 
ATOM     65  H   UNL A   1      40.029  34.210  34.304  1.00  0.00     0.167 HD
ATOM     66  C   UNL A   1      41.999  32.263  30.709  1.00  0.00     0.034 A 
ATOM     67  C   UNL A   1      39.728  34.977  37.127  1.00  0.00     0.034 A 
ATOM     68  C   UNL A   1      42.787  33.177  31.486  1.00  0.00     0.049 A 
ATOM     69  C   UNL A   1      41.093  35.140  36.608  1.00  0.00     0.074 A 
ATOM     70  C   UNL A   1      42.924  34.552  31.478  1.00  0.00     0.029 A 
ATOM     71  N   UNL A   1      43.209  32.742  32.725  1.00  0.00    -0.354 N 
ATOM     72  N   UNL A   1      42.004  34.241  36.829  1.00  0.00    -0.248 NA
ATOM     73  C   UNL A   1      41.575  36.365  35.980  1.00  0.00     0.031 C 
ATOM     74  C   UNL A   1      42.931  34.925  32.838  1.00  0.00     0.029 A 
ATOM     75  C   UNL A   1      43.187  33.802  33.610  1.00  0.00     0.049 A 
ATOM     76  H   UNL A   1      43.483  31.821  32.943  1.00  0.00     0.167 HD
ATOM     77  C   UNL A   1      42.932  34.520  35.876  1.00  0.00     0.074 A 
ATOM     78  C   UNL A   1      42.787  35.939  35.614  1.00  0.00     0.031 C 
ATOM     79  C   UNL A   1      43.222  33.508  35.021  1.00  0.00     0.034 A 
BRANCH  66  80
ATOM     80  C   UNL A   1      42.133  30.758  30.752  1.00  0.00     0.023 A 
ATOM     81  C   UNL A   1      40.951  30.002  30.699  1.00  0.00     0.012 A 
ATOM     82  C   UNL A   1      43.357  30.096  31.029  1.00  0.00     0.148 A 
ATOM     83  C   UNL A   1      40.975  28.632  30.975  1.00  0.00     0.002 A 
ATOM     84  C   UNL A   1      43.357  28.760  31.413  1.00  0.00     0.091 A 
ATOM     85  F   UNL A   1      44.504  30.784  30.923  1.00  0.00    -0.205 F 
ATOM     86  C   UNL A   1      42.167  28.022  31.369  1.00  0.00     0.022 A 
BRANCH  84  87
ATOM     87  S   UNL A   1      44.789  27.985  32.187  1.00  0.00     0.127 S 
ATOM     88  O   UNL A   1      45.874  28.340  31.268  1.00  0.00    -0.237 OA
ATOM     89  O   UNL A   1      44.858  28.653  33.482  1.00  0.00    -0.237 OA
ATOM     90  O   UNL A   1      44.510  26.554  32.230  1.00  0.00    -0.744 OA
ENDBRANCH  84  87
ENDBRANCH  66  80
BRANCH  67  91
ATOM     91  C   UNL A   1      39.716  35.633  38.575  1.00  0.00     0.023 A 
ATOM     92  C   UNL A   1      39.623  37.075  38.679  1.00  0.00     0.012 A 
ATOM     93  C   UNL A   1      39.374  34.957  39.767  1.00  0.00     0.148 A 
ATOM     94  C   UNL A   1      39.121  37.774  39.796  1.00  0.00     0.002 A 
ATOM     95  C   UNL A   1      38.894  35.669  40.908  1.00  0.00     0.091 A 
ATOM     96  F   UNL A   1      39.421  33.619  39.769  1.00  0.00    -0.205 F 
ATOM     97  C   UNL A   1      38.740  37.065  40.911  1.00  0.00     0.022 A 
BRANCH  95  98
ATOM     98  S   UNL A   1      38.341  34.866  42.433  1.00  0.00     0.127 S 
ATOM     99  O   UNL A   1      38.882  35.743  43.475  1.00  0.00    -0.237 OA
ATOM    100  O   UNL A   1      36.887  34.926  42.294  1.00  0.00    -0.237 OA
ATOM    101  O   UNL A   1      38.931  33.536  42.401  1.00  0.00    -0.744 OA
ENDBRANCH  95  98
ENDBRANCH  67  91
BRANCH  79 102
ATOM    102  C   UNL A   1      43.327  32.112  35.613  1.00  0.00     0.023 A 
ATOM    103  C   UNL A   1      44.490  31.566  36.207  1.00  0.00     0.012 A 
ATOM    104  C   UNL A   1      42.201  31.282  35.519  1.00  0.00     0.148 A 
ATOM    105  C   UNL A   1      44.547  30.232  36.627  1.00  0.00     0.002 A 
ATOM    106  C   UNL A   1      42.239  29.971  35.987  1.00  0.00     0.091 A 
ATOM    107  F   UNL A   1      41.097  31.782  34.942  1.00  0.00    -0.205 F 
ATOM    108  C   UNL A   1      43.414  29.434  36.527  1.00  0.00     0.022 A 
BRANCH 106 109
ATOM    109  S   UNL A   1      40.773  28.943  35.909  1.00  0.00     0.127 S 
ATOM    110  O   UNL A   1      39.741  29.851  36.409  1.00  0.00    -0.237 OA
ATOM    111  O   UNL A   1      40.660  28.618  34.490  1.00  0.00    -0.237 OA
ATOM    112  O   UNL A   1      41.067  27.798  36.766  1.00  0.00    -0.744 OA
ENDBRANCH 106 109
ENDBRANCH  79 102
ENDBRANCH  53  54
ENDBRANCH  46  48
ENDBRANCH  45  46
ENDBRANCH  44  45
ENDBRANCH  43  44
ENDBRANCH  42  43
ENDBRANCH  41  42
ENDBRANCH   1  41
TORSDOF 29
ENDMDL
MODEL 3
REMARK VINA RESULT:      -8.3      2.358      3.268
REMARK SMILES Cc1c(CC(=O)N[C@@H](CCO)C(=O)OCCOCCOCCOC(=O)c2ccc(-c3c4nc(c(-c5cccc(S(=O)(=O)[O-])c5F)c5ccc([nH]5)c(-c5cccc(S(=O)(=O)[O-])c5F)c5nc(c(-c6cccc(S(=O)(=O)[O-])c6F)c6ccc3[nH]6)C=C5)C=C4)cc2)cc(-c2ccc(S(C)(=O)=O)cc2)n1-c1ccc(F)cc1
REMARK SMILES IDX 18 1 17 2 16 3 15 4 14 5 12 6 13 7 8 8 7 9 5 10 6 11 4 13
REMARK SMILES IDX 3 14 1 15 2 16 101 17 89 18 90 19 102 20 103 21 108 22
REMARK SMILES IDX 104 23 107 24 105 25 106 26 91 27 92 28 100 29 93 30 99 31
REMARK SMILES IDX 94 32 95 33 96 34 97 35 98 36 9 37 10 38 11 39 19 41 20 42
REMARK SMILES IDX 21 43 22 44 23 45 24 46 25 47 26 48 27 49 88 50 28 51 87 52
REMARK SMILES IDX 29 53 30 54 31 55 81 56 32 57 86 58 80 59 82 60 33 61 85 62
REMARK SMILES IDX 79 63 78 64 34 66 66 67 46 68 65 69 47 70 50 71 64 72 83 73
REMARK SMILES IDX 48 74 49 75 63 77 84 78 51 79 35 80 36 81 44 82 37 83 39 84
REMARK SMILES IDX 45 85 38 86 40 87 41 88 42 89 43 90 67 91 68 92 76 93 69 94
REMARK SMILES IDX 71 95 77 96 70 97 72 98 73 99 74 100 75 101 52 102 53 103
REMARK SMILES IDX 61 104 54 105 56 106 62 107 55 108 57 109 58 110 59 111
REMARK SMILES IDX 60 112
REMARK H PARENT 7 12 11 40 82 65 50 76
REMARK Flexibility Score: inf
ROOT
ATOM      1  C   UNL A   1      31.240  28.468  25.936  1.00  0.00     0.188 C 
ENDROOT
BRANCH   1   2
ATOM      2  O   UNL A   1      32.197  27.582  26.488  1.00  0.00    -0.376 OA
BRANCH   2   3
ATOM      3  C   UNL A   1      33.567  27.643  26.116  1.00  0.00     0.202 C 
BRANCH   3   4
ATOM      4  C   UNL A   1      34.445  26.392  26.033  1.00  0.00     0.261 C 
BRANCH   4   5
ATOM      5  O   UNL A   1      34.414  25.731  24.765  1.00  0.00    -0.462 OA
BRANCH   5   6
ATOM      6  C   UNL A   1      33.865  24.484  24.805  1.00  0.00     0.328 C 
ATOM      7  O   UNL A   1      32.800  24.195  25.337  1.00  0.00    -0.250 OA
BRANCH   6   8
ATOM      8  C   UNL A   1      34.744  23.441  24.113  1.00  0.00     0.194 C 
BRANCH   8   9
ATOM      9  N   UNL A   1      35.268  22.338  24.926  1.00  0.00    -0.342 N 
ATOM     10  C   UNL A   1      36.374  22.315  25.733  1.00  0.00     0.225 C 
ATOM     11  O   UNL A   1      36.795  21.216  26.097  1.00  0.00    -0.275 OA
ATOM     12  H   UNL A   1      34.754  21.499  24.886  1.00  0.00     0.164 HD
BRANCH  10  13
ATOM     13  C   UNL A   1      37.018  23.615  26.213  1.00  0.00     0.137 C 
BRANCH  13  14
ATOM     14  C   UNL A   1      38.500  23.510  26.379  1.00  0.00    -0.017 A 
ATOM     15  C   UNL A   1      38.874  25.237  28.261  1.00  0.00     0.065 C 
ATOM     16  C   UNL A   1      39.288  24.151  27.321  1.00  0.00     0.024 A 
ATOM     17  N   UNL A   1      40.576  23.635  27.232  1.00  0.00    -0.314 N 
ATOM     18  C   UNL A   1      39.368  22.709  25.593  1.00  0.00     0.033 A 
ATOM     19  C   UNL A   1      40.619  22.719  26.180  1.00  0.00     0.053 A 
BRANCH  17  20
ATOM     20  C   UNL A   1      41.656  23.939  28.103  1.00  0.00     0.046 A 
ATOM     21  C   UNL A   1      42.161  22.946  28.950  1.00  0.00     0.029 A 
ATOM     22  C   UNL A   1      42.176  25.240  28.134  1.00  0.00     0.029 A 
ATOM     23  C   UNL A   1      43.200  23.257  29.827  1.00  0.00     0.041 A 
ATOM     24  C   UNL A   1      43.200  25.546  29.028  1.00  0.00     0.041 A 
ATOM     25  C   UNL A   1      43.703  24.554  29.863  1.00  0.00     0.123 A 
ATOM     26  F   UNL A   1      44.687  24.853  30.721  1.00  0.00    -0.207 F 
ENDBRANCH  17  20
BRANCH  19  27
ATOM     27  C   UNL A   1      41.725  21.798  25.891  1.00  0.00    -0.001 A 
ATOM     28  C   UNL A   1      41.579  20.421  26.129  1.00  0.00     0.011 A 
ATOM     29  C   UNL A   1      42.909  22.268  25.310  1.00  0.00     0.011 A 
ATOM     30  C   UNL A   1      42.611  19.532  25.823  1.00  0.00     0.021 A 
ATOM     31  C   UNL A   1      43.948  21.384  25.004  1.00  0.00     0.021 A 
ATOM     32  C   UNL A   1      43.797  20.022  25.273  1.00  0.00     0.067 A 
BRANCH  32  33
ATOM     33  S   UNL A   1      45.090  18.872  24.868  1.00  0.00     0.175 S 
ATOM     34  C   UNL A   1      46.583  19.778  25.174  1.00  0.00     0.163 C 
ATOM     35  O   UNL A   1      45.016  17.788  25.805  1.00  0.00    -0.224 OA
ATOM     36  O   UNL A   1      45.030  18.630  23.424  1.00  0.00    -0.224 OA
ENDBRANCH  32  33
ENDBRANCH  19  27
ENDBRANCH  13  14
ENDBRANCH  10  13
ENDBRANCH   8   9
BRANCH   8  37
ATOM     37  C   UNL A   1      34.002  22.895  22.884  1.00  0.00     0.065 C 
BRANCH  37  38
ATOM     38  C   UNL A   1      33.270  23.956  22.064  1.00  0.00     0.159 C 
BRANCH  38  39
ATOM     39  O   UNL A   1      31.872  23.943  22.305  1.00  0.00    -0.396 OA
ATOM     40  H   UNL A   1      31.566  23.025  22.378  1.00  0.00     0.210 HD
ENDBRANCH  38  39
ENDBRANCH  37  38
ENDBRANCH   8  37
ENDBRANCH   6   8
ENDBRANCH   5   6
ENDBRANCH   4   5
ENDBRANCH   3   4
ENDBRANCH   2   3
ENDBRANCH   1   2
BRANCH   1  41
ATOM     41  C   UNL A   1      31.571  29.947  25.692  1.00  0.00     0.188 C 
BRANCH  41  42
ATOM     42  O   UNL A   1      31.492  30.824  26.790  1.00  0.00    -0.376 OA
BRANCH  42  43
ATOM     43  C   UNL A   1      32.539  31.791  26.911  1.00  0.00     0.202 C 
BRANCH  43  44
ATOM     44  C   UNL A   1      32.280  33.252  27.392  1.00  0.00     0.261 C 
BRANCH  44  45
ATOM     45  O   UNL A   1      33.385  34.110  27.858  1.00  0.00    -0.460 OA
BRANCH  45  46
ATOM     46  C   UNL A   1      33.534  34.217  29.231  1.00  0.00     0.338 C 
ATOM     47  O   UNL A   1      32.701  34.788  29.925  1.00  0.00    -0.246 OA
BRANCH  46  48
ATOM     48  C   UNL A   1      34.765  33.535  29.864  1.00  0.00     0.060 A 
ATOM     49  C   UNL A   1      35.504  34.193  30.844  1.00  0.00     0.016 A 
ATOM     50  C   UNL A   1      35.418  32.408  29.316  1.00  0.00     0.016 A 
ATOM     51  C   UNL A   1      36.791  33.699  31.292  1.00  0.00     0.010 A 
ATOM     52  C   UNL A   1      36.759  31.941  29.739  1.00  0.00     0.010 A 
ATOM     53  C   UNL A   1      37.509  32.560  30.756  1.00  0.00    -0.014 A 
BRANCH  53  54
ATOM     54  C   UNL A   1      39.141  32.499  31.011  1.00  0.00     0.031 A 
ATOM     55  C   UNL A   1      39.252  31.384  32.001  1.00  0.00     0.074 A 
ATOM     56  C   UNL A   1      40.368  33.145  30.741  1.00  0.00     0.049 A 
ATOM     57  N   UNL A   1      38.512  31.377  33.079  1.00  0.00    -0.248 NA
ATOM     58  C   UNL A   1      39.861  30.087  31.695  1.00  0.00     0.031 C 
ATOM     59  C   UNL A   1      40.580  34.411  30.013  1.00  0.00     0.029 A 
ATOM     60  N   UNL A   1      41.759  32.841  31.047  1.00  0.00    -0.354 N 
ATOM     61  C   UNL A   1      38.923  30.292  33.795  1.00  0.00     0.074 A 
ATOM     62  C   UNL A   1      39.481  29.407  32.785  1.00  0.00     0.031 C 
ATOM     63  C   UNL A   1      41.905  34.685  29.804  1.00  0.00     0.029 A 
ATOM     64  C   UNL A   1      42.775  33.674  30.409  1.00  0.00     0.049 A 
ATOM     65  H   UNL A   1      42.003  32.107  31.657  1.00  0.00     0.167 HD
ATOM     66  C   UNL A   1      39.402  30.570  35.044  1.00  0.00     0.034 A 
ATOM     67  C   UNL A   1      44.182  33.643  30.414  1.00  0.00     0.034 A 
ATOM     68  C   UNL A   1      40.821  30.379  35.153  1.00  0.00     0.049 A 
ATOM     69  C   UNL A   1      44.571  32.951  31.650  1.00  0.00     0.074 A 
ATOM     70  C   UNL A   1      41.685  29.412  34.676  1.00  0.00     0.029 A 
ATOM     71  N   UNL A   1      41.583  31.495  35.427  1.00  0.00    -0.354 N 
ATOM     72  N   UNL A   1      44.616  33.584  32.784  1.00  0.00    -0.248 NA
ATOM     73  C   UNL A   1      45.098  31.592  31.681  1.00  0.00     0.031 C 
ATOM     74  C   UNL A   1      42.807  30.126  34.208  1.00  0.00     0.029 A 
ATOM     75  C   UNL A   1      42.780  31.406  34.743  1.00  0.00     0.049 A 
ATOM     76  H   UNL A   1      41.317  32.238  36.016  1.00  0.00     0.167 HD
ATOM     77  C   UNL A   1      44.583  32.570  33.690  1.00  0.00     0.074 A 
ATOM     78  C   UNL A   1      45.173  31.435  33.006  1.00  0.00     0.031 C 
ATOM     79  C   UNL A   1      43.559  32.607  34.578  1.00  0.00     0.034 A 
BRANCH  66  80
ATOM     80  C   UNL A   1      38.612  31.610  35.805  1.00  0.00     0.023 A 
ATOM     81  C   UNL A   1      38.798  32.954  35.448  1.00  0.00     0.012 A 
ATOM     82  C   UNL A   1      37.851  31.309  36.965  1.00  0.00     0.148 A 
ATOM     83  C   UNL A   1      38.294  33.978  36.255  1.00  0.00     0.002 A 
ATOM     84  C   UNL A   1      37.452  32.328  37.821  1.00  0.00     0.091 A 
ATOM     85  F   UNL A   1      37.537  30.030  37.220  1.00  0.00    -0.205 F 
ATOM     86  C   UNL A   1      37.658  33.666  37.458  1.00  0.00     0.022 A 
BRANCH  84  87
ATOM     87  S   UNL A   1      36.877  32.001  39.498  1.00  0.00     0.127 S 
ATOM     88  O   UNL A   1      36.886  33.338  40.100  1.00  0.00    -0.237 OA
ATOM     89  O   UNL A   1      35.542  31.452  39.281  1.00  0.00    -0.237 OA
ATOM     90  O   UNL A   1      37.845  31.089  40.096  1.00  0.00    -0.744 OA
ENDBRANCH  84  87
ENDBRANCH  66  80
BRANCH  67  91
ATOM     91  C   UNL A   1      45.520  34.229  29.786  1.00  0.00     0.023 A 
ATOM     92  C   UNL A   1      46.755  34.077  30.528  1.00  0.00     0.012 A 
ATOM     93  C   UNL A   1      45.713  34.513  28.416  1.00  0.00     0.148 A 
ATOM     94  C   UNL A   1      48.044  34.075  29.957  1.00  0.00     0.002 A 
ATOM     95  C   UNL A   1      47.023  34.540  27.846  1.00  0.00     0.091 A 
ATOM     96  F   UNL A   1      44.631  34.663  27.643  1.00  0.00    -0.205 F 
ATOM     97  C   UNL A   1      48.177  34.292  28.606  1.00  0.00     0.022 A 
BRANCH  95  98
ATOM     98  S   UNL A   1      47.346  34.796  26.084  1.00  0.00     0.127 S 
ATOM     99  O   UNL A   1      48.800  34.644  25.996  1.00  0.00    -0.237 OA
ATOM    100  O   UNL A   1      46.589  33.702  25.477  1.00  0.00    -0.237 OA
ATOM    101  O   UNL A   1      46.864  36.140  25.798  1.00  0.00    -0.744 OA
ENDBRANCH  95  98
ENDBRANCH  67  91
BRANCH  79 102
ATOM    102  C   UNL A   1      43.182  33.968  35.141  1.00  0.00     0.023 A 
ATOM    103  C   UNL A   1      42.193  34.825  34.602  1.00  0.00     0.012 A 
ATOM    104  C   UNL A   1      43.902  34.432  36.251  1.00  0.00     0.148 A 
ATOM    105  C   UNL A   1      41.980  36.113  35.105  1.00  0.00     0.002 A 
ATOM    106  C   UNL A   1      43.652  35.693  36.788  1.00  0.00     0.091 A 
ATOM    107  F   UNL A   1      44.855  33.636  36.760  1.00  0.00    -0.205 F 
ATOM    108  C   UNL A   1      42.704  36.545  36.209  1.00  0.00     0.022 A 
BRANCH 106 109
ATOM    109  S   UNL A   1      44.544  36.247  38.240  1.00  0.00     0.127 S 
ATOM    110  O   UNL A   1      44.170  35.235  39.227  1.00  0.00    -0.237 OA
ATOM    111  O   UNL A   1      45.942  36.198  37.820  1.00  0.00    -0.237 OA
ATOM    112  O   UNL A   1      44.042  37.593  38.502  1.00  0.00    -0.744 OA
ENDBRANCH 106 109
ENDBRANCH  79 102
ENDBRANCH  53  54
ENDBRANCH  46  48
ENDBRANCH  45  46
ENDBRANCH  44  45
ENDBRANCH  43  44
ENDBRANCH  42  43
ENDBRANCH  41  42
ENDBRANCH   1  41
TORSDOF 29
ENDMDL
