MODEL 1
REMARK VINA RESULT:      -8.5      0.000      0.000
REMARK SMILES O=C(CC[NH+]1CCC([N@H+]2CCC[C@H](C(=O)NCc3cccnc3)C2)CC1)OCCOCCOCCOC(=O)c1ccc(-c2c3nc(c(-c4cccc(S(=O)(=O)[O-])c4F)c4ccc([nH]4)c(-c4cccc(S(=O)(=O)[O-])c4F)c4nc(c(-c5cccc(S(=O)(=O)[O-])c5F)c5ccc2[nH]5)C=C4)C=C3)cc1
REMARK SMILES IDX 30 1 29 2 28 3 27 4 2 5 1 6 3 7 4 8 5 9 6 10 26 11 7 13
REMARK SMILES IDX 25 14 8 15 9 16 10 17 24 18 11 20 13 21 12 22 14 23 15 24
REMARK SMILES IDX 16 25 17 27 18 28 19 29 23 30 20 31 22 32 21 33 31 34 32 35
REMARK SMILES IDX 33 36 34 37 35 38 36 39 37 40 38 41 39 42 40 43 101 44 41 45
REMARK SMILES IDX 100 46 42 47 43 48 44 49 94 50 45 51 99 52 93 53 95 54 46 55
REMARK SMILES IDX 98 56 92 57 91 58 47 60 79 61 59 62 78 63 60 64 63 65 77 66
REMARK SMILES IDX 96 67 61 68 62 69 76 71 97 72 64 73 48 74 49 75 57 76 50 77
REMARK SMILES IDX 52 78 58 79 51 80 53 81 54 82 55 83 56 84 80 85 81 86 89 87
REMARK SMILES IDX 82 88 84 89 90 90 83 91 85 92 86 93 87 94 88 95 65 96 66 97
REMARK SMILES IDX 74 98 67 99 69 100 75 101 68 102 70 103 71 104 72 105 73 106
REMARK H PARENT 5 12 9 19 16 26 95 59 63 70
REMARK Flexibility Score: inf
ROOT
ATOM      1  O   UNL A   1      42.482  27.336  27.519  1.00  0.00    -0.376 OA
ENDROOT
BRANCH   1   2
ATOM      2  C   UNL A   1      42.252  25.962  27.744  1.00  0.00     0.202 C 
BRANCH   2   3
ATOM      3  C   UNL A   1      42.413  24.954  26.594  1.00  0.00     0.261 C 
BRANCH   3   4
ATOM      4  O   UNL A   1      42.453  23.550  26.890  1.00  0.00    -0.463 OA
BRANCH   4   5
ATOM      5  C   UNL A   1      42.309  22.613  25.921  1.00  0.00     0.311 C 
ATOM      6  O   UNL A   1      42.910  22.720  24.856  1.00  0.00    -0.252 OA
BRANCH   5   7
ATOM      7  C   UNL A   1      41.227  21.590  26.139  1.00  0.00     0.184 C 
BRANCH   7   8
ATOM      8  C   UNL A   1      39.923  22.166  26.716  1.00  0.00     0.274 C 
BRANCH   8   9
ATOM      9  N   UNL A   1      38.808  22.476  25.793  1.00  0.00    -0.334 N 
ATOM     10  C   UNL A   1      38.084  21.290  25.353  1.00  0.00     0.268 C 
ATOM     11  C   UNL A   1      38.025  23.620  26.230  1.00  0.00     0.268 C 
ATOM     12  H   UNL A   1      39.206  22.808  24.915  1.00  0.00     0.348 HD
ATOM     13  C   UNL A   1      36.867  21.620  24.484  1.00  0.00     0.126 C 
ATOM     14  C   UNL A   1      36.615  23.796  25.665  1.00  0.00     0.126 C 
ATOM     15  C   UNL A   1      35.899  22.488  25.294  1.00  0.00     0.195 C 
BRANCH  15  16
ATOM     16  N   UNL A   1      34.555  22.744  24.730  1.00  0.00    -0.331 N 
ATOM     17  C   UNL A   1      34.550  23.014  23.293  1.00  0.00     0.262 C 
ATOM     18  C   UNL A   1      33.560  21.744  25.149  1.00  0.00     0.275 C 
ATOM     19  H   UNL A   1      34.252  23.625  25.146  1.00  0.00     0.348 HD
ATOM     20  C   UNL A   1      33.165  23.406  22.797  1.00  0.00     0.062 C 
ATOM     21  C   UNL A   1      32.142  21.958  24.610  1.00  0.00     0.133 C 
ATOM     22  C   UNL A   1      32.113  22.373  23.141  1.00  0.00     0.025 C 
BRANCH  21  23
ATOM     23  C   UNL A   1      31.127  22.703  25.484  1.00  0.00     0.229 C 
ATOM     24  O   UNL A   1      30.208  22.055  26.006  1.00  0.00    -0.275 OA
ATOM     25  N   UNL A   1      31.077  24.038  25.692  1.00  0.00    -0.352 N 
ATOM     26  H   UNL A   1      30.228  24.340  26.090  1.00  0.00     0.163 HD
BRANCH  25  27
ATOM     27  C   UNL A   1      32.012  25.113  25.450  1.00  0.00     0.153 C 
BRANCH  27  28
ATOM     28  C   UNL A   1      31.467  26.223  24.590  1.00  0.00    -0.010 A 
ATOM     29  C   UNL A   1      30.116  26.242  24.225  1.00  0.00     0.009 A 
ATOM     30  C   UNL A   1      32.224  27.338  24.244  1.00  0.00     0.116 A 
ATOM     31  C   UNL A   1      29.585  27.354  23.575  1.00  0.00     0.020 A 
ATOM     32  N   UNL A   1      31.735  28.435  23.618  1.00  0.00    -0.264 NA
ATOM     33  C   UNL A   1      30.422  28.423  23.313  1.00  0.00     0.111 A 
ENDBRANCH  27  28
ENDBRANCH  25  27
ENDBRANCH  21  23
ENDBRANCH  15  16
ENDBRANCH   8   9
ENDBRANCH   7   8
ENDBRANCH   5   7
ENDBRANCH   4   5
ENDBRANCH   3   4
ENDBRANCH   2   3
ENDBRANCH   1   2
BRANCH   1  34
ATOM     34  C   UNL A   1      41.378  28.157  27.178  1.00  0.00     0.188 C 
BRANCH  34  35
ATOM     35  C   UNL A   1      39.981  27.707  27.630  1.00  0.00     0.188 C 
BRANCH  35  36
ATOM     36  O   UNL A   1      39.015  28.738  27.602  1.00  0.00    -0.376 OA
BRANCH  36  37
ATOM     37  C   UNL A   1      38.337  29.111  28.791  1.00  0.00     0.202 C 
BRANCH  37  38
ATOM     38  C   UNL A   1      38.127  30.555  29.303  1.00  0.00     0.261 C 
BRANCH  38  39
ATOM     39  O   UNL A   1      38.839  31.010  30.453  1.00  0.00    -0.460 OA
BRANCH  39  40
ATOM     40  C   UNL A   1      38.493  30.470  31.641  1.00  0.00     0.338 C 
ATOM     41  O   UNL A   1      37.360  30.351  32.081  1.00  0.00    -0.246 OA
BRANCH  40  42
ATOM     42  C   UNL A   1      39.691  29.842  32.241  1.00  0.00     0.060 A 
ATOM     43  C   UNL A   1      40.807  30.657  32.481  1.00  0.00     0.016 A 
ATOM     44  C   UNL A   1      39.712  28.491  32.600  1.00  0.00     0.016 A 
ATOM     45  C   UNL A   1      41.958  30.119  33.049  1.00  0.00     0.010 A 
ATOM     46  C   UNL A   1      40.887  27.939  33.124  1.00  0.00     0.010 A 
ATOM     47  C   UNL A   1      42.027  28.744  33.307  1.00  0.00    -0.014 A 
BRANCH  47  48
ATOM     48  C   UNL A   1      43.372  28.143  33.474  1.00  0.00     0.031 A 
ATOM     49  C   UNL A   1      43.871  27.940  34.880  1.00  0.00     0.074 A 
ATOM     50  C   UNL A   1      44.090  27.701  32.426  1.00  0.00     0.049 A 
ATOM     51  N   UNL A   1      44.976  27.385  35.299  1.00  0.00    -0.248 NA
ATOM     52  C   UNL A   1      42.993  28.423  35.963  1.00  0.00     0.031 C 
ATOM     53  C   UNL A   1      43.703  27.812  31.022  1.00  0.00     0.029 A 
ATOM     54  N   UNL A   1      45.311  27.073  32.392  1.00  0.00    -0.354 N 
ATOM     55  C   UNL A   1      44.931  27.458  36.686  1.00  0.00     0.074 A 
ATOM     56  C   UNL A   1      43.705  28.135  37.040  1.00  0.00     0.031 C 
ATOM     57  C   UNL A   1      44.684  27.296  30.259  1.00  0.00     0.029 A 
ATOM     58  C   UNL A   1      45.773  26.835  31.120  1.00  0.00     0.049 A 
ATOM     59  H   UNL A   1      45.808  26.817  33.202  1.00  0.00     0.167 HD
ATOM     60  C   UNL A   1      45.820  26.984  37.590  1.00  0.00     0.034 A 
ATOM     61  C   UNL A   1      46.949  26.323  30.703  1.00  0.00     0.034 A 
ATOM     62  C   UNL A   1      47.039  26.312  37.240  1.00  0.00     0.049 A 
ATOM     63  C   UNL A   1      47.948  25.850  31.731  1.00  0.00     0.074 A 
ATOM     64  C   UNL A   1      48.006  25.792  38.080  1.00  0.00     0.029 A 
ATOM     65  N   UNL A   1      47.465  26.077  35.942  1.00  0.00    -0.354 N 
ATOM     66  N   UNL A   1      47.853  25.846  33.040  1.00  0.00    -0.248 NA
ATOM     67  C   UNL A   1      49.203  25.274  31.223  1.00  0.00     0.031 C 
ATOM     68  C   UNL A   1      49.034  25.268  37.288  1.00  0.00     0.029 A 
ATOM     69  C   UNL A   1      48.685  25.424  35.956  1.00  0.00     0.049 A 
ATOM     70  H   UNL A   1      46.972  26.337  35.130  1.00  0.00     0.167 HD
ATOM     71  C   UNL A   1      49.012  25.234  33.507  1.00  0.00     0.074 A 
ATOM     72  C   UNL A   1      49.783  24.858  32.339  1.00  0.00     0.031 C 
ATOM     73  C   UNL A   1      49.413  25.013  34.784  1.00  0.00     0.034 A 
BRANCH  60  74
ATOM     74  C   UNL A   1      45.489  27.164  39.048  1.00  0.00     0.023 A 
ATOM     75  C   UNL A   1      44.752  26.170  39.726  1.00  0.00     0.012 A 
ATOM     76  C   UNL A   1      45.939  28.295  39.756  1.00  0.00     0.148 A 
ATOM     77  C   UNL A   1      44.443  26.313  41.077  1.00  0.00     0.002 A 
ATOM     78  C   UNL A   1      45.669  28.407  41.115  1.00  0.00     0.091 A 
ATOM     79  F   UNL A   1      46.615  29.239  39.088  1.00  0.00    -0.205 F 
ATOM     80  C   UNL A   1      44.910  27.425  41.774  1.00  0.00     0.022 A 
BRANCH  78  81
ATOM     81  S   UNL A   1      46.289  29.761  42.119  1.00  0.00     0.127 S 
ATOM     82  O   UNL A   1      47.735  29.592  41.980  1.00  0.00    -0.237 OA
ATOM     83  O   UNL A   1      45.742  30.928  41.426  1.00  0.00    -0.237 OA
ATOM     84  O   UNL A   1      45.763  29.543  43.459  1.00  0.00    -0.744 OA
ENDBRANCH  78  81
ENDBRANCH  60  74
BRANCH  61  85
ATOM     85  C   UNL A   1      47.255  26.225  29.247  1.00  0.00     0.023 A 
ATOM     86  C   UNL A   1      46.910  25.066  28.526  1.00  0.00     0.012 A 
ATOM     87  C   UNL A   1      47.911  27.278  28.578  1.00  0.00     0.148 A 
ATOM     88  C   UNL A   1      47.250  24.939  27.178  1.00  0.00     0.002 A 
ATOM     89  C   UNL A   1      48.191  27.170  27.221  1.00  0.00     0.091 A 
ATOM     90  F   UNL A   1      48.251  28.365  29.285  1.00  0.00    -0.205 F 
ATOM     91  C   UNL A   1      47.882  25.993  26.524  1.00  0.00     0.022 A 
BRANCH  89  92
ATOM     92  S   UNL A   1      48.884  28.529  26.275  1.00  0.00     0.127 S 
ATOM     93  O   UNL A   1      50.241  28.605  26.808  1.00  0.00    -0.237 OA
ATOM     94  O   UNL A   1      48.785  28.023  24.906  1.00  0.00    -0.237 OA
ATOM     95  O   UNL A   1      48.029  29.677  26.551  1.00  0.00    -0.744 OA
ENDBRANCH  89  92
ENDBRANCH  61  85
BRANCH  73  96
ATOM     96  C   UNL A   1      50.720  24.290  34.992  1.00  0.00     0.023 A 
ATOM     97  C   UNL A   1      51.907  25.020  35.205  1.00  0.00     0.012 A 
ATOM     98  C   UNL A   1      50.758  22.882  35.033  1.00  0.00     0.148 A 
ATOM     99  C   UNL A   1      53.119  24.359  35.407  1.00  0.00     0.002 A 
ATOM    100  C   UNL A   1      51.960  22.232  35.291  1.00  0.00     0.091 A 
ATOM    101  F   UNL A   1      49.622  22.204  34.816  1.00  0.00    -0.205 F 
ATOM    102  C   UNL A   1      53.143  22.968  35.460  1.00  0.00     0.022 A 
BRANCH 100 103
ATOM    103  S   UNL A   1      52.068  20.448  35.477  1.00  0.00     0.127 S 
ATOM    104  O   UNL A   1      51.233  20.221  36.656  1.00  0.00    -0.237 OA
ATOM    105  O   UNL A   1      51.493  19.970  34.220  1.00  0.00    -0.237 OA
ATOM    106  O   UNL A   1      53.483  20.148  35.647  1.00  0.00    -0.744 OA
ENDBRANCH 100 103
ENDBRANCH  73  96
ENDBRANCH  47  48
ENDBRANCH  40  42
ENDBRANCH  39  40
ENDBRANCH  38  39
ENDBRANCH  37  38
ENDBRANCH  36  37
ENDBRANCH  35  36
ENDBRANCH  34  35
ENDBRANCH   1  34
TORSDOF 26
ENDMDL
MODEL 2
REMARK VINA RESULT:      -8.4      6.721     10.891
REMARK SMILES O=C(CC[NH+]1CCC([N@H+]2CCC[C@H](C(=O)NCc3cccnc3)C2)CC1)OCCOCCOCCOC(=O)c1ccc(-c2c3nc(c(-c4cccc(S(=O)(=O)[O-])c4F)c4ccc([nH]4)c(-c4cccc(S(=O)(=O)[O-])c4F)c4nc(c(-c5cccc(S(=O)(=O)[O-])c5F)c5ccc2[nH]5)C=C4)C=C3)cc1
REMARK SMILES IDX 30 1 29 2 28 3 27 4 2 5 1 6 3 7 4 8 5 9 6 10 26 11 7 13
REMARK SMILES IDX 25 14 8 15 9 16 10 17 24 18 11 20 13 21 12 22 14 23 15 24
REMARK SMILES IDX 16 25 17 27 18 28 19 29 23 30 20 31 22 32 21 33 31 34 32 35
REMARK SMILES IDX 33 36 34 37 35 38 36 39 37 40 38 41 39 42 40 43 101 44 41 45
REMARK SMILES IDX 100 46 42 47 43 48 44 49 94 50 45 51 99 52 93 53 95 54 46 55
REMARK SMILES IDX 98 56 92 57 91 58 47 60 79 61 59 62 78 63 60 64 63 65 77 66
REMARK SMILES IDX 96 67 61 68 62 69 76 71 97 72 64 73 48 74 49 75 57 76 50 77
REMARK SMILES IDX 52 78 58 79 51 80 53 81 54 82 55 83 56 84 80 85 81 86 89 87
REMARK SMILES IDX 82 88 84 89 90 90 83 91 85 92 86 93 87 94 88 95 65 96 66 97
REMARK SMILES IDX 74 98 67 99 69 100 75 101 68 102 70 103 71 104 72 105 73 106
REMARK H PARENT 5 12 9 19 16 26 95 59 63 70
REMARK Flexibility Score: inf
ROOT
ATOM      1  O   UNL A   1      46.138  23.426  26.377  1.00  0.00    -0.376 OA
ENDROOT
BRANCH   1   2
ATOM      2  C   UNL A   1      44.954  22.934  25.789  1.00  0.00     0.202 C 
BRANCH   2   3
ATOM      3  C   UNL A   1      43.713  22.672  26.658  1.00  0.00     0.261 C 
BRANCH   3   4
ATOM      4  O   UNL A   1      42.561  22.047  26.070  1.00  0.00    -0.463 OA
BRANCH   4   5
ATOM      5  C   UNL A   1      41.782  21.187  26.771  1.00  0.00     0.311 C 
ATOM      6  O   UNL A   1      42.132  20.024  26.939  1.00  0.00    -0.252 OA
BRANCH   5   7
ATOM      7  C   UNL A   1      40.401  21.674  27.122  1.00  0.00     0.184 C 
BRANCH   7   8
ATOM      8  C   UNL A   1      39.477  21.871  25.909  1.00  0.00     0.274 C 
BRANCH   8   9
ATOM      9  N   UNL A   1      38.045  22.169  26.141  1.00  0.00    -0.334 N 
ATOM     10  C   UNL A   1      37.730  23.587  26.028  1.00  0.00     0.268 C 
ATOM     11  C   UNL A   1      37.165  21.227  25.469  1.00  0.00     0.268 C 
ATOM     12  H   UNL A   1      37.841  21.993  27.124  1.00  0.00     0.348 HD
ATOM     13  C   UNL A   1      36.233  23.880  26.164  1.00  0.00     0.126 C 
ATOM     14  C   UNL A   1      35.710  21.632  25.233  1.00  0.00     0.126 C 
ATOM     15  C   UNL A   1      35.479  23.141  25.054  1.00  0.00     0.195 C 
BRANCH  15  16
ATOM     16  N   UNL A   1      34.046  23.454  24.858  1.00  0.00    -0.331 N 
ATOM     17  C   UNL A   1      33.652  23.606  23.459  1.00  0.00     0.262 C 
ATOM     18  C   UNL A   1      33.159  22.570  25.631  1.00  0.00     0.275 C 
ATOM     19  H   UNL A   1      33.918  24.385  25.253  1.00  0.00     0.348 HD
ATOM     20  C   UNL A   1      32.206  24.063  23.327  1.00  0.00     0.062 C 
ATOM     21  C   UNL A   1      31.660  22.847  25.484  1.00  0.00     0.133 C 
ATOM     22  C   UNL A   1      31.240  23.144  24.046  1.00  0.00     0.025 C 
BRANCH  21  23
ATOM     23  C   UNL A   1      30.971  23.736  26.526  1.00  0.00     0.229 C 
ATOM     24  O   UNL A   1      30.178  23.208  27.321  1.00  0.00    -0.275 OA
ATOM     25  N   UNL A   1      31.073  25.080  26.626  1.00  0.00    -0.352 N 
ATOM     26  H   UNL A   1      30.385  25.483  27.204  1.00  0.00     0.163 HD
BRANCH  25  27
ATOM     27  C   UNL A   1      31.986  26.047  26.059  1.00  0.00     0.153 C 
BRANCH  27  28
ATOM     28  C   UNL A   1      31.310  27.178  25.330  1.00  0.00    -0.010 A 
ATOM     29  C   UNL A   1      31.771  28.493  25.472  1.00  0.00     0.009 A 
ATOM     30  C   UNL A   1      30.311  26.967  24.385  1.00  0.00     0.116 A 
ATOM     31  C   UNL A   1      31.253  29.505  24.668  1.00  0.00     0.020 A 
ATOM     32  N   UNL A   1      29.792  27.928  23.585  1.00  0.00    -0.264 NA
ATOM     33  C   UNL A   1      30.288  29.173  23.735  1.00  0.00     0.111 A 
ENDBRANCH  27  28
ENDBRANCH  25  27
ENDBRANCH  21  23
ENDBRANCH  15  16
ENDBRANCH   8   9
ENDBRANCH   7   8
ENDBRANCH   5   7
ENDBRANCH   4   5
ENDBRANCH   3   4
ENDBRANCH   2   3
ENDBRANCH   1   2
BRANCH   1  34
ATOM     34  C   UNL A   1      46.902  24.379  25.658  1.00  0.00     0.188 C 
BRANCH  34  35
ATOM     35  C   UNL A   1      46.286  25.767  25.424  1.00  0.00     0.188 C 
BRANCH  35  36
ATOM     36  O   UNL A   1      45.539  26.248  26.523  1.00  0.00    -0.376 OA
BRANCH  36  37
ATOM     37  C   UNL A   1      44.426  27.100  26.308  1.00  0.00     0.202 C 
BRANCH  37  38
ATOM     38  C   UNL A   1      44.413  28.638  26.473  1.00  0.00     0.261 C 
BRANCH  38  39
ATOM     39  O   UNL A   1      45.547  29.300  27.031  1.00  0.00    -0.460 OA
BRANCH  39  40
ATOM     40  C   UNL A   1      45.710  30.604  26.717  1.00  0.00     0.338 C 
ATOM     41  O   UNL A   1      45.901  31.063  25.601  1.00  0.00    -0.246 OA
BRANCH  40  42
ATOM     42  C   UNL A   1      45.404  31.419  27.914  1.00  0.00     0.060 A 
ATOM     43  C   UNL A   1      45.699  30.872  29.171  1.00  0.00     0.016 A 
ATOM     44  C   UNL A   1      44.876  32.709  27.809  1.00  0.00     0.016 A 
ATOM     45  C   UNL A   1      45.436  31.599  30.329  1.00  0.00     0.010 A 
ATOM     46  C   UNL A   1      44.564  33.419  28.976  1.00  0.00     0.010 A 
ATOM     47  C   UNL A   1      44.803  32.845  30.238  1.00  0.00    -0.014 A 
BRANCH  47  48
ATOM     48  C   UNL A   1      44.143  33.371  31.457  1.00  0.00     0.031 A 
ATOM     49  C   UNL A   1      42.678  33.070  31.636  1.00  0.00     0.074 A 
ATOM     50  C   UNL A   1      44.829  34.009  32.421  1.00  0.00     0.049 A 
ATOM     51  N   UNL A   1      41.885  33.359  32.633  1.00  0.00    -0.248 NA
ATOM     52  C   UNL A   1      42.021  32.331  30.541  1.00  0.00     0.031 C 
ATOM     53  C   UNL A   1      46.253  34.333  32.379  1.00  0.00     0.029 A 
ATOM     54  N   UNL A   1      44.405  34.507  33.628  1.00  0.00    -0.354 N 
ATOM     55  C   UNL A   1      40.641  32.848  32.284  1.00  0.00     0.074 A 
ATOM     56  C   UNL A   1      40.774  32.254  30.974  1.00  0.00     0.031 C 
ATOM     57  C   UNL A   1      46.580  35.005  33.498  1.00  0.00     0.029 A 
ATOM     58  C   UNL A   1      45.386  35.171  34.325  1.00  0.00     0.049 A 
ATOM     59  H   UNL A   1      43.486  34.399  33.963  1.00  0.00     0.167 HD
ATOM     60  C   UNL A   1      39.492  32.849  32.999  1.00  0.00     0.034 A 
ATOM     61  C   UNL A   1      45.317  35.853  35.488  1.00  0.00     0.034 A 
ATOM     62  C   UNL A   1      39.358  33.440  34.301  1.00  0.00     0.049 A 
ATOM     63  C   UNL A   1      44.009  35.886  36.241  1.00  0.00     0.074 A 
ATOM     64  C   UNL A   1      38.238  33.494  35.110  1.00  0.00     0.029 A 
ATOM     65  N   UNL A   1      40.377  34.090  34.980  1.00  0.00    -0.354 N 
ATOM     66  N   UNL A   1      42.864  35.322  35.941  1.00  0.00    -0.248 NA
ATOM     67  C   UNL A   1      43.996  36.619  37.517  1.00  0.00     0.031 C 
ATOM     68  C   UNL A   1      38.572  34.204  36.268  1.00  0.00     0.029 A 
ATOM     69  C   UNL A   1      39.911  34.555  36.197  1.00  0.00     0.049 A 
ATOM     70  H   UNL A   1      41.296  34.205  34.645  1.00  0.00     0.167 HD
ATOM     71  C   UNL A   1      42.010  35.597  37.004  1.00  0.00     0.074 A 
ATOM     72  C   UNL A   1      42.778  36.357  37.969  1.00  0.00     0.031 C 
ATOM     73  C   UNL A   1      40.704  35.265  37.166  1.00  0.00     0.034 A 
BRANCH  60  74
ATOM     74  C   UNL A   1      38.293  32.173  32.388  1.00  0.00     0.023 A 
ATOM     75  C   UNL A   1      38.036  30.816  32.673  1.00  0.00     0.012 A 
ATOM     76  C   UNL A   1      37.403  32.888  31.565  1.00  0.00     0.148 A 
ATOM     77  C   UNL A   1      36.927  30.173  32.124  1.00  0.00     0.002 A 
ATOM     78  C   UNL A   1      36.273  32.254  31.061  1.00  0.00     0.091 A 
ATOM     79  F   UNL A   1      37.680  34.168  31.285  1.00  0.00    -0.205 F 
ATOM     80  C   UNL A   1      36.041  30.894  31.328  1.00  0.00     0.022 A 
BRANCH  78  81
ATOM     81  S   UNL A   1      35.031  33.112  30.088  1.00  0.00     0.127 S 
ATOM     82  O   UNL A   1      34.429  32.009  29.340  1.00  0.00    -0.237 OA
ATOM     83  O   UNL A   1      34.175  33.685  31.126  1.00  0.00    -0.237 OA
ATOM     84  O   UNL A   1      35.753  34.087  29.283  1.00  0.00    -0.744 OA
ENDBRANCH  78  81
ENDBRANCH  60  74
BRANCH  61  85
ATOM     85  C   UNL A   1      46.517  36.560  36.019  1.00  0.00     0.023 A 
ATOM     86  C   UNL A   1      47.422  35.887  36.862  1.00  0.00     0.012 A 
ATOM     87  C   UNL A   1      46.752  37.914  35.704  1.00  0.00     0.148 A 
ATOM     88  C   UNL A   1      48.513  36.559  37.417  1.00  0.00     0.002 A 
ATOM     89  C   UNL A   1      47.874  38.559  36.209  1.00  0.00     0.091 A 
ATOM     90  F   UNL A   1      45.869  38.544  34.918  1.00  0.00    -0.205 F 
ATOM     91  C   UNL A   1      48.744  37.891  37.084  1.00  0.00     0.022 A 
BRANCH  89  92
ATOM     92  S   UNL A   1      48.315  40.232  35.728  1.00  0.00     0.127 S 
ATOM     93  O   UNL A   1      48.542  40.081  34.294  1.00  0.00    -0.237 OA
ATOM     94  O   UNL A   1      47.109  40.976  36.089  1.00  0.00    -0.237 OA
ATOM     95  O   UNL A   1      49.488  40.573  36.523  1.00  0.00    -0.744 OA
ENDBRANCH  89  92
ENDBRANCH  61  85
BRANCH  73  96
ATOM     96  C   UNL A   1      40.032  35.676  38.453  1.00  0.00     0.023 A 
ATOM     97  C   UNL A   1      39.547  36.990  38.610  1.00  0.00     0.012 A 
ATOM     98  C   UNL A   1      39.832  34.737  39.485  1.00  0.00     0.148 A 
ATOM     99  C   UNL A   1      38.917  37.376  39.793  1.00  0.00     0.002 A 
ATOM    100  C   UNL A   1      39.153  35.114  40.638  1.00  0.00     0.091 A 
ATOM    101  F   UNL A   1      40.311  33.495  39.323  1.00  0.00    -0.205 F 
ATOM    102  C   UNL A   1      38.711  36.437  40.801  1.00  0.00     0.022 A 
BRANCH 100 103
ATOM    103  S   UNL A   1      38.754  33.948  41.945  1.00  0.00     0.127 S 
ATOM    104  O   UNL A   1      37.795  34.711  42.742  1.00  0.00    -0.237 OA
ATOM    105  O   UNL A   1      38.176  32.832  41.197  1.00  0.00    -0.237 OA
ATOM    106  O   UNL A   1      40.014  33.642  42.609  1.00  0.00    -0.744 OA
ENDBRANCH 100 103
ENDBRANCH  73  96
ENDBRANCH  47  48
ENDBRANCH  40  42
ENDBRANCH  39  40
ENDBRANCH  38  39
ENDBRANCH  37  38
ENDBRANCH  36  37
ENDBRANCH  35  36
ENDBRANCH  34  35
ENDBRANCH   1  34
TORSDOF 26
ENDMDL
MODEL 3
REMARK VINA RESULT:      -8.3      2.969      5.881
REMARK SMILES O=C(CC[NH+]1CCC([N@H+]2CCC[C@H](C(=O)NCc3cccnc3)C2)CC1)OCCOCCOCCOC(=O)c1ccc(-c2c3nc(c(-c4cccc(S(=O)(=O)[O-])c4F)c4ccc([nH]4)c(-c4cccc(S(=O)(=O)[O-])c4F)c4nc(c(-c5cccc(S(=O)(=O)[O-])c5F)c5ccc2[nH]5)C=C4)C=C3)cc1
REMARK SMILES IDX 30 1 29 2 28 3 27 4 2 5 1 6 3 7 4 8 5 9 6 10 26 11 7 13
REMARK SMILES IDX 25 14 8 15 9 16 10 17 24 18 11 20 13 21 12 22 14 23 15 24
REMARK SMILES IDX 16 25 17 27 18 28 19 29 23 30 20 31 22 32 21 33 31 34 32 35
REMARK SMILES IDX 33 36 34 37 35 38 36 39 37 40 38 41 39 42 40 43 101 44 41 45
REMARK SMILES IDX 100 46 42 47 43 48 44 49 94 50 45 51 99 52 93 53 95 54 46 55
REMARK SMILES IDX 98 56 92 57 91 58 47 60 79 61 59 62 78 63 60 64 63 65 77 66
REMARK SMILES IDX 96 67 61 68 62 69 76 71 97 72 64 73 48 74 49 75 57 76 50 77
REMARK SMILES IDX 52 78 58 79 51 80 53 81 54 82 55 83 56 84 80 85 81 86 89 87
REMARK SMILES IDX 82 88 84 89 90 90 83 91 85 92 86 93 87 94 88 95 65 96 66 97
REMARK SMILES IDX 74 98 67 99 69 100 75 101 68 102 70 103 71 104 72 105 73 106
REMARK H PARENT 5 12 9 19 16 26 95 59 63 70
REMARK Flexibility Score: inf
ROOT
ATOM      1  O   UNL A   1      34.363  35.030  31.230  1.00  0.00    -0.376 OA
ENDROOT
BRANCH   1   2
ATOM      2  C   UNL A   1      33.222  35.269  30.436  1.00  0.00     0.202 C 
BRANCH   2   3
ATOM      3  C   UNL A   1      33.354  36.025  29.103  1.00  0.00     0.261 C 
BRANCH   3   4
ATOM      4  O   UNL A   1      34.182  35.479  28.065  1.00  0.00    -0.463 OA
BRANCH   4   5
ATOM      5  C   UNL A   1      34.484  34.159  28.014  1.00  0.00     0.311 C 
ATOM      6  O   UNL A   1      35.627  33.789  27.765  1.00  0.00    -0.252 OA
BRANCH   5   7
ATOM      7  C   UNL A   1      33.318  33.207  28.057  1.00  0.00     0.184 C 
BRANCH   7   8
ATOM      8  C   UNL A   1      33.719  31.727  28.180  1.00  0.00     0.274 C 
BRANCH   8   9
ATOM      9  N   UNL A   1      33.542  30.839  27.009  1.00  0.00    -0.334 N 
ATOM     10  C   UNL A   1      34.345  29.625  27.085  1.00  0.00     0.268 C 
ATOM     11  C   UNL A   1      32.147  30.701  26.621  1.00  0.00     0.268 C 
ATOM     12  H   UNL A   1      33.948  31.301  26.197  1.00  0.00     0.348 HD
ATOM     13  C   UNL A   1      34.081  28.660  25.926  1.00  0.00     0.126 C 
ATOM     14  C   UNL A   1      31.748  29.509  25.752  1.00  0.00     0.126 C 
ATOM     15  C   UNL A   1      32.606  28.248  25.948  1.00  0.00     0.195 C 
BRANCH  15  16
ATOM     16  N   UNL A   1      32.175  27.151  25.052  1.00  0.00    -0.331 N 
ATOM     17  C   UNL A   1      30.894  26.551  25.416  1.00  0.00     0.262 C 
ATOM     18  C   UNL A   1      32.284  27.503  23.628  1.00  0.00     0.275 C 
ATOM     19  H   UNL A   1      32.850  26.402  25.203  1.00  0.00     0.348 HD
ATOM     20  C   UNL A   1      30.571  25.343  24.548  1.00  0.00     0.062 C 
ATOM     21  C   UNL A   1      31.865  26.406  22.644  1.00  0.00     0.133 C 
ATOM     22  C   UNL A   1      30.597  25.668  23.069  1.00  0.00     0.025 C 
BRANCH  21  23
ATOM     23  C   UNL A   1      32.947  25.491  22.058  1.00  0.00     0.229 C 
ATOM     24  O   UNL A   1      33.158  25.534  20.836  1.00  0.00    -0.275 OA
ATOM     25  N   UNL A   1      33.662  24.562  22.731  1.00  0.00    -0.352 N 
ATOM     26  H   UNL A   1      34.134  23.930  22.142  1.00  0.00     0.163 HD
BRANCH  25  27
ATOM     27  C   UNL A   1      33.875  24.307  24.138  1.00  0.00     0.153 C 
BRANCH  27  28
ATOM     28  C   UNL A   1      34.896  23.237  24.423  1.00  0.00    -0.010 A 
ATOM     29  C   UNL A   1      36.077  23.162  23.674  1.00  0.00     0.009 A 
ATOM     30  C   UNL A   1      34.794  22.379  25.513  1.00  0.00     0.116 A 
ATOM     31  C   UNL A   1      37.088  22.281  24.051  1.00  0.00     0.020 A 
ATOM     32  N   UNL A   1      35.760  21.517  25.907  1.00  0.00    -0.264 NA
ATOM     33  C   UNL A   1      36.893  21.500  25.175  1.00  0.00     0.111 A 
ENDBRANCH  27  28
ENDBRANCH  25  27
ENDBRANCH  21  23
ENDBRANCH  15  16
ENDBRANCH   8   9
ENDBRANCH   7   8
ENDBRANCH   5   7
ENDBRANCH   4   5
ENDBRANCH   3   4
ENDBRANCH   2   3
ENDBRANCH   1   2
BRANCH   1  34
ATOM     34  C   UNL A   1      34.204  34.962  32.637  1.00  0.00     0.188 C 
BRANCH  34  35
ATOM     35  C   UNL A   1      35.442  34.629  33.485  1.00  0.00     0.188 C 
BRANCH  35  36
ATOM     36  O   UNL A   1      36.360  33.773  32.837  1.00  0.00    -0.376 OA
BRANCH  36  37
ATOM     37  C   UNL A   1      35.929  32.521  32.329  1.00  0.00     0.202 C 
BRANCH  37  38
ATOM     38  C   UNL A   1      36.845  31.347  31.909  1.00  0.00     0.261 C 
BRANCH  38  39
ATOM     39  O   UNL A   1      38.258  31.454  32.079  1.00  0.00    -0.460 OA
BRANCH  39  40
ATOM     40  C   UNL A   1      38.805  30.764  33.102  1.00  0.00     0.338 C 
ATOM     41  O   UNL A   1      38.264  30.486  34.161  1.00  0.00    -0.246 OA
BRANCH  40  42
ATOM     42  C   UNL A   1      40.099  30.204  32.653  1.00  0.00     0.060 A 
ATOM     43  C   UNL A   1      40.325  28.834  32.852  1.00  0.00     0.016 A 
ATOM     44  C   UNL A   1      41.059  30.993  32.013  1.00  0.00     0.016 A 
ATOM     45  C   UNL A   1      41.523  28.256  32.444  1.00  0.00     0.010 A 
ATOM     46  C   UNL A   1      42.285  30.421  31.647  1.00  0.00     0.010 A 
ATOM     47  C   UNL A   1      42.534  29.060  31.904  1.00  0.00    -0.014 A 
BRANCH  47  48
ATOM     48  C   UNL A   1      43.915  28.520  31.904  1.00  0.00     0.031 A 
ATOM     49  C   UNL A   1      44.706  28.640  33.180  1.00  0.00     0.074 A 
ATOM     50  C   UNL A   1      44.423  27.861  30.847  1.00  0.00     0.049 A 
ATOM     51  N   UNL A   1      45.903  28.200  33.461  1.00  0.00    -0.248 NA
ATOM     52  C   UNL A   1      44.049  29.346  34.295  1.00  0.00     0.031 C 
ATOM     53  C   UNL A   1      43.746  27.654  29.569  1.00  0.00     0.029 A 
ATOM     54  N   UNL A   1      45.642  27.250  30.687  1.00  0.00    -0.354 N 
ATOM     55  C   UNL A   1      46.144  28.580  34.775  1.00  0.00     0.074 A 
ATOM     56  C   UNL A   1      44.984  29.310  35.230  1.00  0.00     0.031 C 
ATOM     57  C   UNL A   1      44.573  26.988  28.743  1.00  0.00     0.029 A 
ATOM     58  C   UNL A   1      45.840  26.737  29.428  1.00  0.00     0.049 A 
ATOM     59  H   UNL A   1      46.310  27.184  31.407  1.00  0.00     0.167 HD
ATOM     60  C   UNL A   1      47.226  28.326  35.548  1.00  0.00     0.034 A 
ATOM     61  C   UNL A   1      46.931  26.154  28.889  1.00  0.00     0.034 A 
ATOM     62  C   UNL A   1      48.381  27.601  35.096  1.00  0.00     0.049 A 
ATOM     63  C   UNL A   1      48.146  25.929  29.755  1.00  0.00     0.074 A 
ATOM     64  C   UNL A   1      49.529  27.288  35.801  1.00  0.00     0.029 A 
ATOM     65  N   UNL A   1      48.539  27.085  33.819  1.00  0.00    -0.354 N 
ATOM     66  N   UNL A   1      48.326  26.215  31.022  1.00  0.00    -0.248 NA
ATOM     67  C   UNL A   1      49.297  25.263  29.125  1.00  0.00     0.031 C 
ATOM     68  C   UNL A   1      50.396  26.607  34.939  1.00  0.00     0.029 A 
ATOM     69  C   UNL A   1      49.768  26.460  33.711  1.00  0.00     0.049 A 
ATOM     70  H   UNL A   1      47.875  27.154  33.096  1.00  0.00     0.167 HD
ATOM     71  C   UNL A   1      49.589  25.731  31.350  1.00  0.00     0.074 A 
ATOM     72  C   UNL A   1      50.119  25.109  30.154  1.00  0.00     0.031 C 
ATOM     73  C   UNL A   1      50.258  25.803  32.528  1.00  0.00     0.034 A 
BRANCH  60  74
ATOM     74  C   UNL A   1      47.198  28.823  36.968  1.00  0.00     0.023 A 
ATOM     75  C   UNL A   1      47.587  30.149  37.252  1.00  0.00     0.012 A 
ATOM     76  C   UNL A   1      46.750  27.995  38.014  1.00  0.00     0.148 A 
ATOM     77  C   UNL A   1      47.559  30.633  38.559  1.00  0.00     0.002 A 
ATOM     78  C   UNL A   1      46.680  28.499  39.308  1.00  0.00     0.091 A 
ATOM     79  F   UNL A   1      46.411  26.731  37.727  1.00  0.00    -0.205 F 
ATOM     80  C   UNL A   1      47.096  29.812  39.584  1.00  0.00     0.022 A 
BRANCH  78  81
ATOM     81  S   UNL A   1      46.028  27.549  40.685  1.00  0.00     0.127 S 
ATOM     82  O   UNL A   1      44.669  27.260  40.226  1.00  0.00    -0.237 OA
ATOM     83  O   UNL A   1      46.923  26.391  40.707  1.00  0.00    -0.237 OA
ATOM     84  O   UNL A   1      46.119  28.414  41.852  1.00  0.00    -0.744 OA
ENDBRANCH  78  81
ENDBRANCH  60  74
BRANCH  61  85
ATOM     85  C   UNL A   1      46.931  25.736  27.457  1.00  0.00     0.023 A 
ATOM     86  C   UNL A   1      47.616  26.501  26.495  1.00  0.00     0.012 A 
ATOM     87  C   UNL A   1      46.228  24.586  27.044  1.00  0.00     0.148 A 
ATOM     88  C   UNL A   1      47.568  26.154  25.143  1.00  0.00     0.002 A 
ATOM     89  C   UNL A   1      46.235  24.211  25.706  1.00  0.00     0.091 A 
ATOM     90  F   UNL A   1      45.563  23.882  27.971  1.00  0.00    -0.205 F 
ATOM     91  C   UNL A   1      46.886  25.006  24.750  1.00  0.00     0.022 A 
BRANCH  89  92
ATOM     92  S   UNL A   1      45.492  22.680  25.135  1.00  0.00     0.127 S 
ATOM     93  O   UNL A   1      45.904  22.650  23.735  1.00  0.00    -0.237 OA
ATOM     94  O   UNL A   1      46.145  21.691  25.994  1.00  0.00    -0.237 OA
ATOM     95  O   UNL A   1      44.061  22.826  25.372  1.00  0.00    -0.744 OA
ENDBRANCH  89  92
ENDBRANCH  61  85
BRANCH  73  96
ATOM     96  C   UNL A   1      51.618  25.154  32.601  1.00  0.00     0.023 A 
ATOM     97  C   UNL A   1      52.783  25.927  32.422  1.00  0.00     0.012 A 
ATOM     98  C   UNL A   1      51.738  23.783  32.905  1.00  0.00     0.148 A 
ATOM     99  C   UNL A   1      54.044  25.336  32.497  1.00  0.00     0.002 A 
ATOM    100  C   UNL A   1      52.999  23.213  33.032  1.00  0.00     0.091 A 
ATOM    101  F   UNL A   1      50.619  23.060  33.059  1.00  0.00    -0.205 F 
ATOM    102  C   UNL A   1      54.152  23.984  32.812  1.00  0.00     0.022 A 
BRANCH 100 103
ATOM    103  S   UNL A   1      53.238  21.504  33.534  1.00  0.00     0.127 S 
ATOM    104  O   UNL A   1      52.315  21.394  34.663  1.00  0.00    -0.237 OA
ATOM    105  O   UNL A   1      52.828  20.770  32.336  1.00  0.00    -0.237 OA
ATOM    106  O   UNL A   1      54.650  21.377  33.867  1.00  0.00    -0.744 OA
ENDBRANCH 100 103
ENDBRANCH  73  96
ENDBRANCH  47  48
ENDBRANCH  40  42
ENDBRANCH  39  40
ENDBRANCH  38  39
ENDBRANCH  37  38
ENDBRANCH  36  37
ENDBRANCH  35  36
ENDBRANCH  34  35
ENDBRANCH   1  34
TORSDOF 26
ENDMDL
