MODEL 1
REMARK VINA RESULT:     -10.6      0.000      0.000
REMARK SMILES O=C(OCCOCCOCCOC(=O)[C@H]1C[C@H]1c1ccc(C2CC2)cc1)c1ccc(-c2c3nc(c(-c4cccc(S(=O)(=O)[O-])c4F)c4ccc([nH]4)c(-c4cccc(S(=O)(=O)[O-])c4F)c4nc(c(-c5cccc(S(=O)(=O)[O-])c5F)c5ccc2[nH]5)C=C4)C=C3)cc1
REMARK SMILES IDX 7 1 6 2 5 3 4 4 3 5 2 6 1 7 27 8 28 9 89 10 29 11 88 12
REMARK SMILES IDX 30 13 31 14 32 15 82 16 33 17 87 18 81 19 83 20 34 21 86 22
REMARK SMILES IDX 80 23 79 24 35 26 67 27 47 28 66 29 48 30 51 31 65 32 84 33
REMARK SMILES IDX 49 34 50 35 64 37 85 38 52 39 36 40 37 41 45 42 38 43 40 44
REMARK SMILES IDX 46 45 39 46 41 47 42 48 43 49 44 50 68 51 69 52 77 53 70 54
REMARK SMILES IDX 72 55 78 56 71 57 73 58 74 59 75 60 76 61 53 62 54 63 62 64
REMARK SMILES IDX 55 65 57 66 63 67 56 68 58 69 59 70 60 71 61 72 8 73 9 74
REMARK SMILES IDX 10 75 11 76 12 77 13 78 14 79 15 80 16 81 17 82 18 83 19 84
REMARK SMILES IDX 26 85 20 86 25 87 21 88 22 89 23 90 24 91
REMARK H PARENT 83 25 51 36
REMARK Flexibility Score: inf
ROOT
ATOM      1  C   UNL A   1      33.175  29.015  26.012  1.00  0.00     0.188 C 
ENDROOT
BRANCH   1   2
ATOM      2  O   UNL A   1      32.857  30.403  25.889  1.00  0.00    -0.376 OA
BRANCH   2   3
ATOM      3  C   UNL A   1      31.559  30.748  26.387  1.00  0.00     0.202 C 
BRANCH   3   4
ATOM      4  C   UNL A   1      31.349  32.224  26.772  1.00  0.00     0.261 C 
BRANCH   4   5
ATOM      5  O   UNL A   1      32.559  32.999  26.753  1.00  0.00    -0.460 OA
BRANCH   5   6
ATOM      6  C   UNL A   1      33.288  33.435  27.812  1.00  0.00     0.338 C 
ATOM      7  O   UNL A   1      32.928  34.461  28.386  1.00  0.00    -0.246 OA
BRANCH   6   8
ATOM      8  C   UNL A   1      34.506  32.732  28.321  1.00  0.00     0.060 A 
ATOM      9  C   UNL A   1      34.542  31.404  28.747  1.00  0.00     0.016 A 
ATOM     10  C   UNL A   1      35.715  33.449  28.308  1.00  0.00     0.016 A 
ATOM     11  C   UNL A   1      35.699  30.837  29.261  1.00  0.00     0.010 A 
ATOM     12  C   UNL A   1      36.901  32.869  28.773  1.00  0.00     0.010 A 
ATOM     13  C   UNL A   1      36.880  31.572  29.293  1.00  0.00    -0.014 A 
BRANCH  13  14
ATOM     14  C   UNL A   1      38.041  30.974  29.976  1.00  0.00     0.031 A 
ATOM     15  C   UNL A   1      38.214  31.228  31.436  1.00  0.00     0.074 A 
ATOM     16  C   UNL A   1      38.851  30.144  29.298  1.00  0.00     0.049 A 
ATOM     17  N   UNL A   1      39.130  30.769  32.241  1.00  0.00    -0.248 NA
ATOM     18  C   UNL A   1      37.242  32.132  32.073  1.00  0.00     0.031 C 
ATOM     19  C   UNL A   1      38.740  29.881  27.869  1.00  0.00     0.029 A 
ATOM     20  N   UNL A   1      39.906  29.368  29.695  1.00  0.00    -0.354 N 
ATOM     21  C   UNL A   1      38.902  31.397  33.456  1.00  0.00     0.074 A 
ATOM     22  C   UNL A   1      37.734  32.234  33.297  1.00  0.00     0.031 C 
ATOM     23  C   UNL A   1      39.652  28.967  27.512  1.00  0.00     0.029 A 
ATOM     24  C   UNL A   1      40.439  28.603  28.680  1.00  0.00     0.049 A 
ATOM     25  H   UNL A   1      40.251  29.356  30.617  1.00  0.00     0.167 HD
ATOM     26  C   UNL A   1      39.633  31.301  34.588  1.00  0.00     0.034 A 
ATOM     27  C   UNL A   1      41.456  27.719  28.701  1.00  0.00     0.034 A 
ATOM     28  C   UNL A   1      40.793  30.462  34.699  1.00  0.00     0.049 A 
ATOM     29  C   UNL A   1      42.193  27.565  30.003  1.00  0.00     0.074 A 
ATOM     30  C   UNL A   1      41.640  30.298  35.777  1.00  0.00     0.029 A 
ATOM     31  N   UNL A   1      41.276  29.652  33.678  1.00  0.00    -0.354 N 
ATOM     32  N   UNL A   1      41.943  28.135  31.159  1.00  0.00    -0.248 NA
ATOM     33  C   UNL A   1      43.356  26.671  30.009  1.00  0.00     0.031 C 
ATOM     34  C   UNL A   1      42.653  29.409  35.395  1.00  0.00     0.029 A 
ATOM     35  C   UNL A   1      42.412  28.986  34.096  1.00  0.00     0.049 A 
ATOM     36  H   UNL A   1      40.867  29.565  32.786  1.00  0.00     0.167 HD
ATOM     37  C   UNL A   1      42.925  27.683  32.027  1.00  0.00     0.074 A 
ATOM     38  C   UNL A   1      43.737  26.742  31.277  1.00  0.00     0.031 C 
ATOM     39  C   UNL A   1      43.166  28.037  33.314  1.00  0.00     0.034 A 
BRANCH  26  40
ATOM     40  C   UNL A   1      39.228  32.181  35.736  1.00  0.00     0.023 A 
ATOM     41  C   UNL A   1      39.755  33.482  35.861  1.00  0.00     0.012 A 
ATOM     42  C   UNL A   1      38.349  31.693  36.723  1.00  0.00     0.148 A 
ATOM     43  C   UNL A   1      39.450  34.265  36.976  1.00  0.00     0.002 A 
ATOM     44  C   UNL A   1      38.015  32.495  37.806  1.00  0.00     0.091 A 
ATOM     45  F   UNL A   1      37.886  30.441  36.601  1.00  0.00    -0.205 F 
ATOM     46  C   UNL A   1      38.576  33.774  37.943  1.00  0.00     0.022 A 
BRANCH  44  47
ATOM     47  S   UNL A   1      36.856  31.976  39.075  1.00  0.00     0.127 S 
ATOM     48  O   UNL A   1      35.675  32.773  38.740  1.00  0.00    -0.237 OA
ATOM     49  O   UNL A   1      36.724  30.546  38.797  1.00  0.00    -0.237 OA
ATOM     50  O   UNL A   1      37.480  32.297  40.349  1.00  0.00    -0.744 OA
ENDBRANCH  44  47
ENDBRANCH  26  40
BRANCH  27  51
ATOM     51  C   UNL A   1      41.810  26.917  27.490  1.00  0.00     0.023 A 
ATOM     52  C   UNL A   1      42.424  27.550  26.389  1.00  0.00     0.012 A 
ATOM     53  C   UNL A   1      41.580  25.529  27.422  1.00  0.00     0.148 A 
ATOM     54  C   UNL A   1      42.777  26.826  25.247  1.00  0.00     0.002 A 
ATOM     55  C   UNL A   1      42.000  24.800  26.313  1.00  0.00     0.091 A 
ATOM     56  F   UNL A   1      40.957  24.935  28.450  1.00  0.00    -0.205 F 
ATOM     57  C   UNL A   1      42.583  25.448  25.216  1.00  0.00     0.022 A 
BRANCH  55  58
ATOM     58  S   UNL A   1      41.900  23.006  26.275  1.00  0.00     0.127 S 
ATOM     59  O   UNL A   1      42.636  22.640  27.481  1.00  0.00    -0.237 OA
ATOM     60  O   UNL A   1      40.458  22.765  26.343  1.00  0.00    -0.237 OA
ATOM     61  O   UNL A   1      42.510  22.621  25.008  1.00  0.00    -0.744 OA
ENDBRANCH  55  58
ENDBRANCH  27  51
BRANCH  39  62
ATOM     62  C   UNL A   1      44.347  27.394  33.982  1.00  0.00     0.023 A 
ATOM     63  C   UNL A   1      45.597  28.044  33.974  1.00  0.00     0.012 A 
ATOM     64  C   UNL A   1      44.191  26.186  34.685  1.00  0.00     0.148 A 
ATOM     65  C   UNL A   1      46.687  27.480  34.633  1.00  0.00     0.002 A 
ATOM     66  C   UNL A   1      45.266  25.661  35.386  1.00  0.00     0.091 A 
ATOM     67  F   UNL A   1      42.995  25.581  34.658  1.00  0.00    -0.205 F 
ATOM     68  C   UNL A   1      46.518  26.297  35.349  1.00  0.00     0.022 A 
BRANCH  66  69
ATOM     69  S   UNL A   1      45.110  24.201  36.418  1.00  0.00     0.127 S 
ATOM     70  O   UNL A   1      43.947  24.539  37.236  1.00  0.00    -0.237 OA
ATOM     71  O   UNL A   1      44.880  23.147  35.430  1.00  0.00    -0.237 OA
ATOM     72  O   UNL A   1      46.370  24.084  37.142  1.00  0.00    -0.744 OA
ENDBRANCH  66  69
ENDBRANCH  39  62
ENDBRANCH  13  14
ENDBRANCH   6   8
ENDBRANCH   5   6
ENDBRANCH   4   5
ENDBRANCH   3   4
ENDBRANCH   2   3
ENDBRANCH   1   2
BRANCH   1  73
ATOM     73  C   UNL A   1      32.629  28.161  24.868  1.00  0.00     0.188 C 
BRANCH  73  74
ATOM     74  O   UNL A   1      31.313  27.630  25.017  1.00  0.00    -0.376 OA
BRANCH  74  75
ATOM     75  C   UNL A   1      31.104  26.660  26.039  1.00  0.00     0.202 C 
BRANCH  75  76
ATOM     76  C   UNL A   1      32.255  25.707  26.393  1.00  0.00     0.261 C 
BRANCH  76  77
ATOM     77  O   UNL A   1      32.090  24.374  25.906  1.00  0.00    -0.463 OA
BRANCH  77  78
ATOM     78  C   UNL A   1      31.787  24.281  24.575  1.00  0.00     0.309 C 
ATOM     79  O   UNL A   1      30.676  24.219  24.095  1.00  0.00    -0.252 OA
BRANCH  78  80
ATOM     80  C   UNL A   1      32.993  24.467  23.728  1.00  0.00     0.107 C 
ATOM     81  C   UNL A   1      34.374  24.255  24.280  1.00  0.00     0.025 C 
ATOM     82  C   UNL A   1      33.834  23.309  23.238  1.00  0.00     0.034 C 
BRANCH  82  83
ATOM     83  C   UNL A   1      33.435  21.891  23.552  1.00  0.00    -0.044 A 
ATOM     84  C   UNL A   1      34.045  21.141  24.559  1.00  0.00     0.004 A 
ATOM     85  C   UNL A   1      32.484  21.234  22.761  1.00  0.00     0.004 A 
ATOM     86  C   UNL A   1      33.767  19.779  24.724  1.00  0.00     0.004 A 
ATOM     87  C   UNL A   1      32.188  19.881  22.943  1.00  0.00     0.004 A 
ATOM     88  C   UNL A   1      32.849  19.106  23.906  1.00  0.00    -0.045 A 
BRANCH  88  89
ATOM     89  C   UNL A   1      32.662  17.608  24.044  1.00  0.00     0.019 C 
ATOM     90  C   UNL A   1      33.735  16.617  23.664  1.00  0.00     0.009 C 
ATOM     91  C   UNL A   1      33.430  16.867  25.115  1.00  0.00     0.009 C 
ENDBRANCH  88  89
ENDBRANCH  82  83
ENDBRANCH  78  80
ENDBRANCH  77  78
ENDBRANCH  76  77
ENDBRANCH  75  76
ENDBRANCH  74  75
ENDBRANCH  73  74
ENDBRANCH   1  73
TORSDOF 22
ENDMDL
MODEL 2
REMARK VINA RESULT:     -10.5      5.239     10.941
REMARK SMILES O=C(OCCOCCOCCOC(=O)[C@H]1C[C@H]1c1ccc(C2CC2)cc1)c1ccc(-c2c3nc(c(-c4cccc(S(=O)(=O)[O-])c4F)c4ccc([nH]4)c(-c4cccc(S(=O)(=O)[O-])c4F)c4nc(c(-c5cccc(S(=O)(=O)[O-])c5F)c5ccc2[nH]5)C=C4)C=C3)cc1
REMARK SMILES IDX 7 1 6 2 5 3 4 4 3 5 2 6 1 7 27 8 28 9 89 10 29 11 88 12
REMARK SMILES IDX 30 13 31 14 32 15 82 16 33 17 87 18 81 19 83 20 34 21 86 22
REMARK SMILES IDX 80 23 79 24 35 26 67 27 47 28 66 29 48 30 51 31 65 32 84 33
REMARK SMILES IDX 49 34 50 35 64 37 85 38 52 39 36 40 37 41 45 42 38 43 40 44
REMARK SMILES IDX 46 45 39 46 41 47 42 48 43 49 44 50 68 51 69 52 77 53 70 54
REMARK SMILES IDX 72 55 78 56 71 57 73 58 74 59 75 60 76 61 53 62 54 63 62 64
REMARK SMILES IDX 55 65 57 66 63 67 56 68 58 69 59 70 60 71 61 72 8 73 9 74
REMARK SMILES IDX 10 75 11 76 12 77 13 78 14 79 15 80 16 81 17 82 18 83 19 84
REMARK SMILES IDX 26 85 20 86 25 87 21 88 22 89 23 90 24 91
REMARK H PARENT 83 25 51 36
REMARK Flexibility Score: inf
ROOT
ATOM      1  C   UNL A   1      34.469  20.759  24.949  1.00  0.00     0.188 C 
ENDROOT
BRANCH   1   2
ATOM      2  O   UNL A   1      34.922  19.427  24.695  1.00  0.00    -0.376 OA
BRANCH   2   3
ATOM      3  C   UNL A   1      36.330  19.246  24.885  1.00  0.00     0.202 C 
BRANCH   3   4
ATOM      4  C   UNL A   1      37.212  20.485  24.648  1.00  0.00     0.261 C 
BRANCH   4   5
ATOM      5  O   UNL A   1      37.786  21.019  25.853  1.00  0.00    -0.460 OA
BRANCH   5   6
ATOM      6  C   UNL A   1      39.095  21.270  26.114  1.00  0.00     0.338 C 
ATOM      7  O   UNL A   1      39.910  20.369  25.930  1.00  0.00    -0.246 OA
BRANCH   6   8
ATOM      8  C   UNL A   1      39.599  22.587  26.612  1.00  0.00     0.060 A 
ATOM      9  C   UNL A   1      39.089  23.831  26.238  1.00  0.00     0.016 A 
ATOM     10  C   UNL A   1      40.620  22.561  27.578  1.00  0.00     0.016 A 
ATOM     11  C   UNL A   1      39.647  25.014  26.700  1.00  0.00     0.010 A 
ATOM     12  C   UNL A   1      41.155  23.748  28.092  1.00  0.00     0.010 A 
ATOM     13  C   UNL A   1      40.694  24.978  27.616  1.00  0.00    -0.014 A 
BRANCH  13  14
ATOM     14  C   UNL A   1      41.342  26.256  27.965  1.00  0.00     0.031 A 
ATOM     15  C   UNL A   1      42.695  26.541  27.407  1.00  0.00     0.074 A 
ATOM     16  C   UNL A   1      40.665  27.164  28.689  1.00  0.00     0.049 A 
ATOM     17  N   UNL A   1      43.426  27.611  27.545  1.00  0.00    -0.248 NA
ATOM     18  C   UNL A   1      43.320  25.477  26.604  1.00  0.00     0.031 C 
ATOM     19  C   UNL A   1      39.352  26.926  29.276  1.00  0.00     0.029 A 
ATOM     20  N   UNL A   1      40.960  28.450  29.049  1.00  0.00    -0.354 N 
ATOM     21  C   UNL A   1      44.631  27.317  26.926  1.00  0.00     0.074 A 
ATOM     22  C   UNL A   1      44.519  25.987  26.370  1.00  0.00     0.031 C 
ATOM     23  C   UNL A   1      38.927  28.044  29.881  1.00  0.00     0.029 A 
ATOM     24  C   UNL A   1      39.952  29.068  29.756  1.00  0.00     0.049 A 
ATOM     25  H   UNL A   1      41.811  28.893  28.824  1.00  0.00     0.167 HD
ATOM     26  C   UNL A   1      45.740  28.087  26.864  1.00  0.00     0.034 A 
ATOM     27  C   UNL A   1      39.879  30.319  30.252  1.00  0.00     0.034 A 
ATOM     28  C   UNL A   1      45.810  29.401  27.439  1.00  0.00     0.049 A 
ATOM     29  C   UNL A   1      41.097  31.186  30.086  1.00  0.00     0.074 A 
ATOM     30  C   UNL A   1      46.882  30.272  27.474  1.00  0.00     0.029 A 
ATOM     31  N   UNL A   1      44.758  30.028  28.095  1.00  0.00    -0.354 N 
ATOM     32  N   UNL A   1      42.219  30.911  29.462  1.00  0.00    -0.248 NA
ATOM     33  C   UNL A   1      41.057  32.517  30.700  1.00  0.00     0.031 C 
ATOM     34  C   UNL A   1      46.483  31.414  28.179  1.00  0.00     0.029 A 
ATOM     35  C   UNL A   1      45.152  31.274  28.543  1.00  0.00     0.049 A 
ATOM     36  H   UNL A   1      43.861  29.640  28.221  1.00  0.00     0.167 HD
ATOM     37  C   UNL A   1      43.027  32.027  29.619  1.00  0.00     0.074 A 
ATOM     38  C   UNL A   1      42.238  33.006  30.347  1.00  0.00     0.031 C 
ATOM     39  C   UNL A   1      44.314  32.220  29.239  1.00  0.00     0.034 A 
BRANCH  26  40
ATOM     40  C   UNL A   1      46.956  27.479  26.223  1.00  0.00     0.023 A 
ATOM     41  C   UNL A   1      47.854  26.705  26.985  1.00  0.00     0.012 A 
ATOM     42  C   UNL A   1      47.229  27.718  24.863  1.00  0.00     0.148 A 
ATOM     43  C   UNL A   1      49.030  26.217  26.413  1.00  0.00     0.002 A 
ATOM     44  C   UNL A   1      48.378  27.191  24.288  1.00  0.00     0.091 A 
ATOM     45  F   UNL A   1      46.378  28.484  24.166  1.00  0.00    -0.205 F 
ATOM     46  C   UNL A   1      49.288  26.454  25.064  1.00  0.00     0.022 A 
BRANCH  44  47
ATOM     47  S   UNL A   1      48.772  27.393  22.549  1.00  0.00     0.127 S 
ATOM     48  O   UNL A   1      47.907  28.513  22.178  1.00  0.00    -0.237 OA
ATOM     49  O   UNL A   1      50.198  27.715  22.598  1.00  0.00    -0.237 OA
ATOM     50  O   UNL A   1      48.453  26.125  21.911  1.00  0.00    -0.744 OA
ENDBRANCH  44  47
ENDBRANCH  26  40
BRANCH  27  51
ATOM     51  C   UNL A   1      38.634  30.821  30.911  1.00  0.00     0.023 A 
ATOM     52  C   UNL A   1      38.504  30.734  32.313  1.00  0.00     0.012 A 
ATOM     53  C   UNL A   1      37.588  31.413  30.176  1.00  0.00     0.148 A 
ATOM     54  C   UNL A   1      37.358  31.204  32.960  1.00  0.00     0.002 A 
ATOM     55  C   UNL A   1      36.482  31.944  30.832  1.00  0.00     0.091 A 
ATOM     56  F   UNL A   1      37.692  31.454  28.840  1.00  0.00    -0.205 F 
ATOM     57  C   UNL A   1      36.355  31.826  32.223  1.00  0.00     0.022 A 
BRANCH  55  58
ATOM     58  S   UNL A   1      35.225  32.877  29.948  1.00  0.00     0.127 S 
ATOM     59  O   UNL A   1      36.011  33.958  29.363  1.00  0.00    -0.237 OA
ATOM     60  O   UNL A   1      34.719  31.898  28.985  1.00  0.00    -0.237 OA
ATOM     61  O   UNL A   1      34.257  33.265  30.968  1.00  0.00    -0.744 OA
ENDBRANCH  55  58
ENDBRANCH  27  51
BRANCH  39  62
ATOM     62  C   UNL A   1      44.935  33.539  29.597  1.00  0.00     0.023 A 
ATOM     63  C   UNL A   1      45.672  33.667  30.791  1.00  0.00     0.012 A 
ATOM     64  C   UNL A   1      44.851  34.625  28.708  1.00  0.00     0.148 A 
ATOM     65  C   UNL A   1      46.293  34.872  31.109  1.00  0.00     0.002 A 
ATOM     66  C   UNL A   1      45.520  35.804  29.004  1.00  0.00     0.091 A 
ATOM     67  F   UNL A   1      44.126  34.481  27.589  1.00  0.00    -0.205 F 
ATOM     68  C   UNL A   1      46.228  35.934  30.210  1.00  0.00     0.022 A 
BRANCH  66  69
ATOM     69  S   UNL A   1      45.578  37.182  27.857  1.00  0.00     0.127 S 
ATOM     70  O   UNL A   1      44.171  37.572  27.790  1.00  0.00    -0.237 OA
ATOM     71  O   UNL A   1      46.444  38.131  28.559  1.00  0.00    -0.237 OA
ATOM     72  O   UNL A   1      46.139  36.654  26.621  1.00  0.00    -0.744 OA
ENDBRANCH  66  69
ENDBRANCH  39  62
ENDBRANCH  13  14
ENDBRANCH   6   8
ENDBRANCH   5   6
ENDBRANCH   4   5
ENDBRANCH   3   4
ENDBRANCH   2   3
ENDBRANCH   1   2
BRANCH   1  73
ATOM     73  C   UNL A   1      33.304  20.828  25.936  1.00  0.00     0.188 C 
BRANCH  73  74
ATOM     74  O   UNL A   1      32.005  21.071  25.398  1.00  0.00    -0.376 OA
BRANCH  74  75
ATOM     75  C   UNL A   1      31.496  22.400  25.474  1.00  0.00     0.202 C 
BRANCH  75  76
ATOM     76  C   UNL A   1      31.993  23.435  24.454  1.00  0.00     0.261 C 
BRANCH  76  77
ATOM     77  O   UNL A   1      31.327  24.697  24.520  1.00  0.00    -0.463 OA
BRANCH  77  78
ATOM     78  C   UNL A   1      31.681  25.478  25.586  1.00  0.00     0.309 C 
ATOM     79  O   UNL A   1      31.056  25.614  26.615  1.00  0.00    -0.252 OA
BRANCH  78  80
ATOM     80  C   UNL A   1      33.057  26.015  25.434  1.00  0.00     0.107 C 
ATOM     81  C   UNL A   1      33.772  25.965  24.114  1.00  0.00     0.025 C 
ATOM     82  C   UNL A   1      33.358  27.296  24.688  1.00  0.00     0.034 C 
BRANCH  82  83
ATOM     83  C   UNL A   1      32.239  28.121  24.109  1.00  0.00    -0.044 A 
ATOM     84  C   UNL A   1      31.666  29.196  24.790  1.00  0.00     0.004 A 
ATOM     85  C   UNL A   1      31.661  27.767  22.884  1.00  0.00     0.004 A 
ATOM     86  C   UNL A   1      30.526  29.845  24.301  1.00  0.00     0.004 A 
ATOM     87  C   UNL A   1      30.539  28.431  22.383  1.00  0.00     0.004 A 
ATOM     88  C   UNL A   1      29.917  29.465  23.096  1.00  0.00    -0.045 A 
BRANCH  88  89
ATOM     89  C   UNL A   1      28.619  30.116  22.660  1.00  0.00     0.019 C 
ATOM     90  C   UNL A   1      27.800  30.990  23.577  1.00  0.00     0.009 C 
ATOM     91  C   UNL A   1      28.582  31.614  22.455  1.00  0.00     0.009 C 
ENDBRANCH  88  89
ENDBRANCH  82  83
ENDBRANCH  78  80
ENDBRANCH  77  78
ENDBRANCH  76  77
ENDBRANCH  75  76
ENDBRANCH  74  75
ENDBRANCH  73  74
ENDBRANCH   1  73
TORSDOF 22
ENDMDL
MODEL 3
REMARK VINA RESULT:     -10.4      1.891      7.907
REMARK SMILES O=C(OCCOCCOCCOC(=O)[C@H]1C[C@H]1c1ccc(C2CC2)cc1)c1ccc(-c2c3nc(c(-c4cccc(S(=O)(=O)[O-])c4F)c4ccc([nH]4)c(-c4cccc(S(=O)(=O)[O-])c4F)c4nc(c(-c5cccc(S(=O)(=O)[O-])c5F)c5ccc2[nH]5)C=C4)C=C3)cc1
REMARK SMILES IDX 7 1 6 2 5 3 4 4 3 5 2 6 1 7 27 8 28 9 89 10 29 11 88 12
REMARK SMILES IDX 30 13 31 14 32 15 82 16 33 17 87 18 81 19 83 20 34 21 86 22
REMARK SMILES IDX 80 23 79 24 35 26 67 27 47 28 66 29 48 30 51 31 65 32 84 33
REMARK SMILES IDX 49 34 50 35 64 37 85 38 52 39 36 40 37 41 45 42 38 43 40 44
REMARK SMILES IDX 46 45 39 46 41 47 42 48 43 49 44 50 68 51 69 52 77 53 70 54
REMARK SMILES IDX 72 55 78 56 71 57 73 58 74 59 75 60 76 61 53 62 54 63 62 64
REMARK SMILES IDX 55 65 57 66 63 67 56 68 58 69 59 70 60 71 61 72 8 73 9 74
REMARK SMILES IDX 10 75 11 76 12 77 13 78 14 79 15 80 16 81 17 82 18 83 19 84
REMARK SMILES IDX 26 85 20 86 25 87 21 88 22 89 23 90 24 91
REMARK H PARENT 83 25 51 36
REMARK Flexibility Score: inf
ROOT
ATOM      1  C   UNL A   1      31.445  26.976  25.167  1.00  0.00     0.188 C 
ENDROOT
BRANCH   1   2
ATOM      2  O   UNL A   1      30.535  28.073  25.275  1.00  0.00    -0.376 OA
BRANCH   2   3
ATOM      3  C   UNL A   1      30.921  29.225  24.518  1.00  0.00     0.202 C 
BRANCH   3   4
ATOM      4  C   UNL A   1      31.355  30.458  25.331  1.00  0.00     0.261 C 
BRANCH   4   5
ATOM      5  O   UNL A   1      32.695  30.365  25.843  1.00  0.00    -0.460 OA
BRANCH   5   6
ATOM      6  C   UNL A   1      33.254  31.079  26.854  1.00  0.00     0.338 C 
ATOM      7  O   UNL A   1      32.669  32.085  27.251  1.00  0.00    -0.246 OA
BRANCH   6   8
ATOM      8  C   UNL A   1      34.544  30.706  27.512  1.00  0.00     0.060 A 
ATOM      9  C   UNL A   1      34.996  29.400  27.699  1.00  0.00     0.016 A 
ATOM     10  C   UNL A   1      35.389  31.756  27.913  1.00  0.00     0.016 A 
ATOM     11  C   UNL A   1      36.180  29.130  28.371  1.00  0.00     0.010 A 
ATOM     12  C   UNL A   1      36.610  31.496  28.544  1.00  0.00     0.010 A 
ATOM     13  C   UNL A   1      36.984  30.177  28.812  1.00  0.00    -0.014 A 
BRANCH  13  14
ATOM     14  C   UNL A   1      38.155  29.839  29.641  1.00  0.00     0.031 A 
ATOM     15  C   UNL A   1      39.263  29.056  29.020  1.00  0.00     0.074 A 
ATOM     16  C   UNL A   1      38.241  30.322  30.892  1.00  0.00     0.049 A 
ATOM     17  N   UNL A   1      40.397  28.689  29.545  1.00  0.00    -0.248 NA
ATOM     18  C   UNL A   1      39.062  28.608  27.632  1.00  0.00     0.031 C 
ATOM     19  C   UNL A   1      37.180  31.072  31.553  1.00  0.00     0.029 A 
ATOM     20  N   UNL A   1      39.242  30.276  31.824  1.00  0.00    -0.354 N 
ATOM     21  C   UNL A   1      41.006  27.892  28.588  1.00  0.00     0.074 A 
ATOM     22  C   UNL A   1      40.139  27.866  27.431  1.00  0.00     0.031 C 
ATOM     23  C   UNL A   1      37.598  31.462  32.765  1.00  0.00     0.029 A 
ATOM     24  C   UNL A   1      38.946  30.961  32.983  1.00  0.00     0.049 A 
ATOM     25  H   UNL A   1      40.092  29.800  31.681  1.00  0.00     0.167 HD
ATOM     26  C   UNL A   1      42.172  27.218  28.692  1.00  0.00     0.034 A 
ATOM     27  C   UNL A   1      39.685  31.146  34.095  1.00  0.00     0.034 A 
ATOM     28  C   UNL A   1      43.000  27.265  29.865  1.00  0.00     0.049 A 
ATOM     29  C   UNL A   1      41.022  30.458  34.143  1.00  0.00     0.074 A 
ATOM     30  C   UNL A   1      44.187  26.606  30.111  1.00  0.00     0.029 A 
ATOM     31  N   UNL A   1      42.709  28.014  30.999  1.00  0.00    -0.354 N 
ATOM     32  N   UNL A   1      41.607  29.738  33.214  1.00  0.00    -0.248 NA
ATOM     33  C   UNL A   1      41.792  30.584  35.385  1.00  0.00     0.031 C 
ATOM     34  C   UNL A   1      44.599  26.934  31.408  1.00  0.00     0.029 A 
ATOM     35  C   UNL A   1      43.692  27.831  31.953  1.00  0.00     0.049 A 
ATOM     36  H   UNL A   1      41.918  28.590  31.107  1.00  0.00     0.167 HD
ATOM     37  C   UNL A   1      42.807  29.311  33.761  1.00  0.00     0.074 A 
ATOM     38  C   UNL A   1      42.892  29.906  35.083  1.00  0.00     0.031 C 
ATOM     39  C   UNL A   1      43.740  28.473  33.244  1.00  0.00     0.034 A 
BRANCH  26  40
ATOM     40  C   UNL A   1      42.551  26.332  27.539  1.00  0.00     0.023 A 
ATOM     41  C   UNL A   1      43.251  26.858  26.434  1.00  0.00     0.012 A 
ATOM     42  C   UNL A   1      42.170  24.977  27.534  1.00  0.00     0.148 A 
ATOM     43  C   UNL A   1      43.523  26.058  25.322  1.00  0.00     0.002 A 
ATOM     44  C   UNL A   1      42.484  24.175  26.445  1.00  0.00     0.091 A 
ATOM     45  F   UNL A   1      41.477  24.506  28.581  1.00  0.00    -0.205 F 
ATOM     46  C   UNL A   1      43.145  24.717  25.331  1.00  0.00     0.022 A 
BRANCH  44  47
ATOM     47  S   UNL A   1      42.091  22.425  26.384  1.00  0.00     0.127 S 
ATOM     48  O   UNL A   1      42.638  22.045  25.081  1.00  0.00    -0.237 OA
ATOM     49  O   UNL A   1      42.837  21.908  27.532  1.00  0.00    -0.237 OA
ATOM     50  O   UNL A   1      40.644  22.330  26.501  1.00  0.00    -0.744 OA
ENDBRANCH  44  47
ENDBRANCH  26  40
BRANCH  27  51
ATOM     51  C   UNL A   1      39.202  32.017  35.210  1.00  0.00     0.023 A 
ATOM     52  C   UNL A   1      38.272  31.507  36.140  1.00  0.00     0.012 A 
ATOM     53  C   UNL A   1      39.673  33.333  35.386  1.00  0.00     0.148 A 
ATOM     54  C   UNL A   1      37.809  32.292  37.200  1.00  0.00     0.002 A 
ATOM     55  C   UNL A   1      39.264  34.085  36.484  1.00  0.00     0.091 A 
ATOM     56  F   UNL A   1      40.523  33.833  34.478  1.00  0.00    -0.205 F 
ATOM     57  C   UNL A   1      38.319  33.574  37.384  1.00  0.00     0.022 A 
BRANCH  55  58
ATOM     58  S   UNL A   1      39.991  35.688  36.847  1.00  0.00     0.127 S 
ATOM     59  O   UNL A   1      41.415  35.371  36.878  1.00  0.00    -0.237 OA
ATOM     60  O   UNL A   1      39.570  36.496  35.701  1.00  0.00    -0.237 OA
ATOM     61  O   UNL A   1      39.395  36.094  38.114  1.00  0.00    -0.744 OA
ENDBRANCH  55  58
ENDBRANCH  27  51
BRANCH  39  62
ATOM     62  C   UNL A   1      44.926  28.165  34.111  1.00  0.00     0.023 A 
ATOM     63  C   UNL A   1      46.099  28.936  33.994  1.00  0.00     0.012 A 
ATOM     64  C   UNL A   1      44.844  27.163  35.094  1.00  0.00     0.148 A 
ATOM     65  C   UNL A   1      47.188  28.692  34.826  1.00  0.00     0.002 A 
ATOM     66  C   UNL A   1      45.911  26.963  35.956  1.00  0.00     0.091 A 
ATOM     67  F   UNL A   1      43.723  26.432  35.168  1.00  0.00    -0.205 F 
ATOM     68  C   UNL A   1      47.089  27.715  35.815  1.00  0.00     0.022 A 
BRANCH  66  69
ATOM     69  S   UNL A   1      45.830  25.802  37.322  1.00  0.00     0.127 S 
ATOM     70  O   UNL A   1      45.498  24.556  36.635  1.00  0.00    -0.237 OA
ATOM     71  O   UNL A   1      47.189  25.863  37.860  1.00  0.00    -0.237 OA
ATOM     72  O   UNL A   1      44.802  26.311  38.222  1.00  0.00    -0.744 OA
ENDBRANCH  66  69
ENDBRANCH  39  62
ENDBRANCH  13  14
ENDBRANCH   6   8
ENDBRANCH   5   6
ENDBRANCH   4   5
ENDBRANCH   3   4
ENDBRANCH   2   3
ENDBRANCH   1   2
BRANCH   1  73
ATOM     73  C   UNL A   1      31.355  26.238  23.831  1.00  0.00     0.188 C 
BRANCH  73  74
ATOM     74  O   UNL A   1      32.579  25.814  23.233  1.00  0.00    -0.376 OA
BRANCH  74  75
ATOM     75  C   UNL A   1      32.523  24.731  22.310  1.00  0.00     0.202 C 
BRANCH  75  76
ATOM     76  C   UNL A   1      33.732  23.789  22.210  1.00  0.00     0.261 C 
BRANCH  76  77
ATOM     77  O   UNL A   1      34.945  24.326  22.741  1.00  0.00    -0.463 OA
BRANCH  77  78
ATOM     78  C   UNL A   1      35.818  23.396  23.234  1.00  0.00     0.309 C 
ATOM     79  O   UNL A   1      36.520  22.654  22.581  1.00  0.00    -0.252 OA
BRANCH  78  80
ATOM     80  C   UNL A   1      35.974  23.520  24.705  1.00  0.00     0.107 C 
ATOM     81  C   UNL A   1      34.781  23.691  25.603  1.00  0.00     0.025 C 
ATOM     82  C   UNL A   1      35.585  22.417  25.664  1.00  0.00     0.034 C 
BRANCH  82  83
ATOM     83  C   UNL A   1      35.069  21.102  25.144  1.00  0.00    -0.044 A 
ATOM     84  C   UNL A   1      33.724  20.886  24.839  1.00  0.00     0.004 A 
ATOM     85  C   UNL A   1      35.927  19.999  25.039  1.00  0.00     0.004 A 
ATOM     86  C   UNL A   1      33.245  19.613  24.510  1.00  0.00     0.004 A 
ATOM     87  C   UNL A   1      35.453  18.733  24.686  1.00  0.00     0.004 A 
ATOM     88  C   UNL A   1      34.092  18.497  24.447  1.00  0.00    -0.045 A 
BRANCH  88  89
ATOM     89  C   UNL A   1      33.516  17.117  24.200  1.00  0.00     0.019 C 
ATOM     90  C   UNL A   1      34.089  15.872  24.831  1.00  0.00     0.009 C 
ATOM     91  C   UNL A   1      32.777  16.419  25.319  1.00  0.00     0.009 C 
ENDBRANCH  88  89
ENDBRANCH  82  83
ENDBRANCH  78  80
ENDBRANCH  77  78
ENDBRANCH  76  77
ENDBRANCH  75  76
ENDBRANCH  74  75
ENDBRANCH  73  74
ENDBRANCH   1  73
TORSDOF 22
ENDMDL
