MODEL 1
REMARK VINA RESULT:      -9.9      0.000      0.000
REMARK SMILES Cc1cccc(N2CCN(c3ncc(NC(=O)c4ccccc4F)cc3C(=O)OCCOCCOCCOC(=O)c3ccc(-c4c5nc(c(-c6cccc(S(=O)(=O)[O-])c6F)c6ccc([nH]6)c(-c6cccc(S(=O)(=O)[O-])c6F)c6nc(c(-c7cccc(S(=O)(=O)[O-])c7F)c7ccc4[nH]7)C=C6)C=C5)cc3)C[C@@H]2C)c1
REMARK SMILES IDX 34 1 33 2 32 3 31 4 30 5 29 6 27 7 28 8 26 9 11 10 12 11
REMARK SMILES IDX 13 12 25 13 14 14 10 15 7 16 8 17 105 18 9 19 104 20 106 21
REMARK SMILES IDX 6 22 1 23 2 24 3 25 107 26 4 27 5 28 15 29 16 30 17 32 18 33
REMARK SMILES IDX 19 34 23 35 20 36 22 37 24 38 21 39 35 40 36 41 37 42 38 43
REMARK SMILES IDX 39 44 40 45 41 46 42 47 103 48 43 49 102 50 44 51 45 52
REMARK SMILES IDX 46 53 96 54 47 55 101 56 95 57 97 58 48 59 100 60 94 61
REMARK SMILES IDX 93 62 49 64 81 65 61 66 80 67 62 68 65 69 79 70 98 71 63 72
REMARK SMILES IDX 64 73 78 75 99 76 66 77 50 78 51 79 59 80 52 81 54 82 60 83
REMARK SMILES IDX 53 84 55 85 56 86 57 87 58 88 82 89 83 90 91 91 84 92 86 93
REMARK SMILES IDX 92 94 85 95 87 96 88 97 89 98 90 99 67 100 68 101 76 102
REMARK SMILES IDX 69 103 71 104 77 105 70 106 72 107 73 108 74 109 75 110
REMARK H PARENT 15 31 97 63 65 74
REMARK Flexibility Score: inf
ROOT
ATOM      1  C   UNL A   1      44.599  30.435  37.839  1.00  0.00     0.188 C 
ENDROOT
BRANCH   1   2
ATOM      2  C   UNL A   1      43.669  31.456  37.229  1.00  0.00     0.188 C 
BRANCH   2   3
ATOM      3  O   UNL A   1      44.080  32.191  36.126  1.00  0.00    -0.376 OA
BRANCH   3   4
ATOM      4  C   UNL A   1      44.485  31.341  35.036  1.00  0.00     0.202 C 
BRANCH   4   5
ATOM      5  C   UNL A   1      43.636  31.110  33.500  1.00  0.00     0.261 C 
BRANCH   5   6
ATOM      6  O   UNL A   1      42.693  32.277  32.287  1.00  0.00    -0.460 OA
BRANCH   6   7
ATOM      7  C   UNL A   1      41.480  33.444  32.201  1.00  0.00     0.342 C 
ATOM      8  O   UNL A   1      40.983  34.041  33.162  1.00  0.00    -0.246 OA
BRANCH   7   9
ATOM      9  C   UNL A   1      40.659  33.807  30.982  1.00  0.00     0.104 A 
ATOM     10  C   UNL A   1      40.860  34.606  29.684  1.00  0.00     0.143 A 
ATOM     11  N   UNL A   1      39.708  34.834  28.982  1.00  0.00    -0.236 NA
ATOM     12  C   UNL A   1      38.486  34.374  29.487  1.00  0.00     0.139 A 
ATOM     13  C   UNL A   1      39.386  33.533  31.473  1.00  0.00     0.047 A 
ATOM     14  C   UNL A   1      38.273  33.783  30.733  1.00  0.00     0.061 A 
BRANCH  10  15
ATOM     15  N   UNL A   1      42.078  35.198  29.123  1.00  0.00    -0.352 N 
ATOM     16  N   UNL A   1      44.761  36.306  27.773  1.00  0.00    -0.365 N 
ATOM     17  C   UNL A   1      44.411  36.298  29.290  1.00  0.00     0.138 C 
ATOM     18  C   UNL A   1      43.788  35.418  26.722  1.00  0.00     0.098 C 
ATOM     19  C   UNL A   1      42.936  36.091  29.920  1.00  0.00     0.139 C 
ATOM     20  C   UNL A   1      42.213  35.863  27.718  1.00  0.00     0.142 C 
ATOM     21  C   UNL A   1      44.139  33.408  25.812  1.00  0.00     0.033 C 
BRANCH  16  22
ATOM     22  C   UNL A   1      45.932  36.965  27.315  1.00  0.00     0.037 A 
ATOM     23  C   UNL A   1      46.671  39.897  24.930  1.00  0.00     0.044 C 
ATOM     24  C   UNL A   1      46.861  38.645  25.744  1.00  0.00    -0.049 A 
ATOM     25  C   UNL A   1      47.928  37.800  25.458  1.00  0.00     0.003 A 
ATOM     26  C   UNL A   1      45.929  38.260  26.742  1.00  0.00     0.029 A 
ATOM     27  C   UNL A   1      48.084  36.631  26.192  1.00  0.00     0.002 A 
ATOM     28  C   UNL A   1      47.119  36.250  27.138  1.00  0.00     0.026 A 
ENDBRANCH  16  22
ENDBRANCH  10  15
BRANCH  14  29
ATOM     29  N   UNL A   1      37.107  33.374  31.409  1.00  0.00    -0.320 N 
ATOM     30  C   UNL A   1      36.269  32.314  31.254  1.00  0.00     0.258 C 
ATOM     31  H   UNL A   1      36.846  33.977  32.143  1.00  0.00     0.170 HD
ATOM     32  O   UNL A   1      35.306  32.155  32.004  1.00  0.00    -0.269 OA
BRANCH  30  33
ATOM     33  C   UNL A   1      36.513  31.329  30.217  1.00  0.00     0.075 A 
ATOM     34  C   UNL A   1      35.830  31.496  29.015  1.00  0.00     0.017 A 
ATOM     35  C   UNL A   1      37.379  30.258  30.416  1.00  0.00     0.135 A 
ATOM     36  C   UNL A   1      36.094  30.628  27.965  1.00  0.00     0.001 A 
ATOM     37  C   UNL A   1      37.662  29.405  29.361  1.00  0.00     0.040 A 
ATOM     38  F   UNL A   1      37.945  30.035  31.610  1.00  0.00    -0.206 F 
ATOM     39  C   UNL A   1      37.028  29.601  28.131  1.00  0.00     0.003 A 
ENDBRANCH  30  33
ENDBRANCH  14  29
ENDBRANCH   7   9
ENDBRANCH   6   7
ENDBRANCH   5   6
ENDBRANCH   4   5
ENDBRANCH   3   4
ENDBRANCH   2   3
ENDBRANCH   1   2
BRANCH   1  40
ATOM     40  O   UNL A   1      44.198  29.085  37.775  1.00  0.00    -0.376 OA
BRANCH  40  41
ATOM     41  C   UNL A   1      45.161  28.150  38.233  1.00  0.00     0.202 C 
BRANCH  41  42
ATOM     42  C   UNL A   1      44.704  26.686  38.520  1.00  0.00     0.261 C 
BRANCH  42  43
ATOM     43  O   UNL A   1      44.422  25.842  37.359  1.00  0.00    -0.460 OA
BRANCH  43  44
ATOM     44  C   UNL A   1      43.343  25.808  36.514  1.00  0.00     0.338 C 
ATOM     45  O   UNL A   1      42.244  25.425  36.893  1.00  0.00    -0.246 OA
BRANCH  44  46
ATOM     46  C   UNL A   1      43.476  26.587  35.283  1.00  0.00     0.060 A 
ATOM     47  C   UNL A   1      42.469  27.320  34.763  1.00  0.00     0.016 A 
ATOM     48  C   UNL A   1      44.624  27.119  34.822  1.00  0.00     0.016 A 
ATOM     49  C   UNL A   1      42.392  27.580  33.356  1.00  0.00     0.010 A 
ATOM     50  C   UNL A   1      44.553  27.488  33.457  1.00  0.00     0.010 A 
ATOM     51  C   UNL A   1      43.403  27.264  32.502  1.00  0.00    -0.014 A 
BRANCH  51  52
ATOM     52  C   UNL A   1      43.328  27.273  30.634  1.00  0.00     0.031 A 
ATOM     53  C   UNL A   1      43.496  25.787  29.455  1.00  0.00     0.074 A 
ATOM     54  C   UNL A   1      43.117  28.426  29.961  1.00  0.00     0.049 A 
ATOM     55  N   UNL A   1      43.930  25.755  28.219  1.00  0.00    -0.248 NA
ATOM     56  C   UNL A   1      43.449  24.212  29.842  1.00  0.00     0.031 C 
ATOM     57  C   UNL A   1      42.777  28.562  28.541  1.00  0.00     0.029 A 
ATOM     58  N   UNL A   1      43.221  29.740  30.404  1.00  0.00    -0.354 N 
ATOM     59  C   UNL A   1      44.058  24.390  27.809  1.00  0.00     0.074 A 
ATOM     60  C   UNL A   1      44.080  23.551  28.918  1.00  0.00     0.031 C 
ATOM     61  C   UNL A   1      42.996  29.837  28.169  1.00  0.00     0.029 A 
ATOM     62  C   UNL A   1      43.697  30.445  29.289  1.00  0.00     0.049 A 
ATOM     63  H   UNL A   1      43.009  30.095  31.298  1.00  0.00     0.167 HD
ATOM     64  C   UNL A   1      43.828  23.981  26.538  1.00  0.00     0.034 A 
ATOM     65  C   UNL A   1      45.010  30.801  29.226  1.00  0.00     0.034 A 
ATOM     66  C   UNL A   1      43.911  25.161  25.729  1.00  0.00     0.049 A 
ATOM     67  C   UNL A   1      45.696  30.292  27.943  1.00  0.00     0.074 A 
ATOM     68  C   UNL A   1      42.978  26.128  25.405  1.00  0.00     0.029 A 
ATOM     69  N   UNL A   1      45.158  25.745  25.669  1.00  0.00    -0.354 N 
ATOM     70  N   UNL A   1      45.488  29.121  27.391  1.00  0.00    -0.248 NA
ATOM     71  C   UNL A   1      46.603  31.091  27.108  1.00  0.00     0.031 C 
ATOM     72  C   UNL A   1      43.688  27.353  25.274  1.00  0.00     0.029 A 
ATOM     73  C   UNL A   1      45.036  27.100  25.470  1.00  0.00     0.049 A 
ATOM     74  H   UNL A   1      46.012  25.263  25.756  1.00  0.00     0.167 HD
ATOM     75  C   UNL A   1      46.263  28.983  26.259  1.00  0.00     0.074 A 
ATOM     76  C   UNL A   1      47.003  30.221  26.165  1.00  0.00     0.031 C 
ATOM     77  C   UNL A   1      46.238  27.897  25.433  1.00  0.00     0.034 A 
BRANCH  64  78
ATOM     78  C   UNL A   1      43.167  22.648  26.152  1.00  0.00     0.023 A 
ATOM     79  C   UNL A   1      41.789  22.589  26.437  1.00  0.00     0.012 A 
ATOM     80  C   UNL A   1      43.735  21.428  25.671  1.00  0.00     0.148 A 
ATOM     81  C   UNL A   1      41.044  21.409  26.349  1.00  0.00     0.002 A 
ATOM     82  C   UNL A   1      43.006  20.229  25.648  1.00  0.00     0.091 A 
ATOM     83  F   UNL A   1      44.957  21.396  25.132  1.00  0.00    -0.205 F 
ATOM     84  C   UNL A   1      41.656  20.220  25.988  1.00  0.00     0.022 A 
BRANCH  82  85
ATOM     85  S   UNL A   1      43.754  18.625  25.263  1.00  0.00     0.127 S 
ATOM     86  O   UNL A   1      43.910  18.694  23.807  1.00  0.00    -0.237 OA
ATOM     87  O   UNL A   1      45.010  18.675  26.006  1.00  0.00    -0.237 OA
ATOM     88  O   UNL A   1      42.795  17.617  25.702  1.00  0.00    -0.744 OA
ENDBRANCH  82  85
ENDBRANCH  64  78
BRANCH  65  89
ATOM     89  C   UNL A   1      45.624  31.081  30.595  1.00  0.00     0.023 A 
ATOM     90  C   UNL A   1      46.535  29.738  31.339  1.00  0.00     0.012 A 
ATOM     91  C   UNL A   1      45.934  32.749  31.260  1.00  0.00     0.148 A 
ATOM     92  C   UNL A   1      47.702  30.003  32.662  1.00  0.00     0.002 A 
ATOM     93  C   UNL A   1      47.166  33.017  32.657  1.00  0.00     0.091 A 
ATOM     94  F   UNL A   1      45.317  33.672  30.563  1.00  0.00    -0.205 F 
ATOM     95  C   UNL A   1      48.001  31.594  33.348  1.00  0.00     0.022 A 
BRANCH  93  96
ATOM     96  S   UNL A   1      47.576  34.369  33.888  1.00  0.00     0.127 S 
ATOM     97  O   UNL A   1      46.682  35.444  33.454  1.00  0.00    -0.237 OA
ATOM     98  O   UNL A   1      47.152  33.771  35.150  1.00  0.00    -0.237 OA
ATOM     99  O   UNL A   1      48.994  34.639  33.717  1.00  0.00    -0.744 OA
ENDBRANCH  93  96
ENDBRANCH  65  89
BRANCH  77 100
ATOM    100  C   UNL A   1      47.367  27.438  24.515  1.00  0.00     0.023 A 
ATOM    101  C   UNL A   1      47.400  27.795  23.155  1.00  0.00     0.012 A 
ATOM    102  C   UNL A   1      48.562  26.888  25.059  1.00  0.00     0.148 A 
ATOM    103  C   UNL A   1      48.545  27.588  22.373  1.00  0.00     0.002 A 
ATOM    104  C   UNL A   1      49.736  26.832  24.317  1.00  0.00     0.091 A 
ATOM    105  F   UNL A   1      48.578  26.419  26.317  1.00  0.00    -0.205 F 
ATOM    106  C   UNL A   1      49.724  27.142  22.960  1.00  0.00     0.022 A 
BRANCH 104 107
ATOM    107  S   UNL A   1      51.321  26.587  25.143  1.00  0.00     0.127 S 
ATOM    108  O   UNL A   1      51.040  25.450  26.014  1.00  0.00    -0.237 OA
ATOM    109  O   UNL A   1      52.220  26.292  24.024  1.00  0.00    -0.237 OA
ATOM    110  O   UNL A   1      51.592  27.859  25.800  1.00  0.00    -0.744 OA
ENDBRANCH 104 107
ENDBRANCH  77 100
ENDBRANCH  51  52
ENDBRANCH  44  46
ENDBRANCH  43  44
ENDBRANCH  42  43
ENDBRANCH  41  42
ENDBRANCH  40  41
ENDBRANCH   1  40
TORSDOF 24
ENDMDL
MODEL 2
REMARK VINA RESULT:      -9.4      6.219     13.681
REMARK SMILES Cc1cccc(N2CCN(c3ncc(NC(=O)c4ccccc4F)cc3C(=O)OCCOCCOCCOC(=O)c3ccc(-c4c5nc(c(-c6cccc(S(=O)(=O)[O-])c6F)c6ccc([nH]6)c(-c6cccc(S(=O)(=O)[O-])c6F)c6nc(c(-c7cccc(S(=O)(=O)[O-])c7F)c7ccc4[nH]7)C=C6)C=C5)cc3)C[C@@H]2C)c1
REMARK SMILES IDX 34 1 33 2 32 3 31 4 30 5 29 6 27 7 28 8 26 9 11 10 12 11
REMARK SMILES IDX 13 12 25 13 14 14 10 15 7 16 8 17 105 18 9 19 104 20 106 21
REMARK SMILES IDX 6 22 1 23 2 24 3 25 107 26 4 27 5 28 15 29 16 30 17 32 18 33
REMARK SMILES IDX 19 34 23 35 20 36 22 37 24 38 21 39 35 40 36 41 37 42 38 43
REMARK SMILES IDX 39 44 40 45 41 46 42 47 103 48 43 49 102 50 44 51 45 52
REMARK SMILES IDX 46 53 96 54 47 55 101 56 95 57 97 58 48 59 100 60 94 61
REMARK SMILES IDX 93 62 49 64 81 65 61 66 80 67 62 68 65 69 79 70 98 71 63 72
REMARK SMILES IDX 64 73 78 75 99 76 66 77 50 78 51 79 59 80 52 81 54 82 60 83
REMARK SMILES IDX 53 84 55 85 56 86 57 87 58 88 82 89 83 90 91 91 84 92 86 93
REMARK SMILES IDX 92 94 85 95 87 96 88 97 89 98 90 99 67 100 68 101 76 102
REMARK SMILES IDX 69 103 71 104 77 105 70 106 72 107 73 108 74 109 75 110
REMARK H PARENT 15 31 97 63 65 74
REMARK Flexibility Score: inf
ROOT
ATOM      1  C   UNL A   1      52.537  28.917  36.879  1.00  0.00     0.188 C 
ENDROOT
BRANCH   1   2
ATOM      2  C   UNL A   1      51.042  28.792  37.052  1.00  0.00     0.188 C 
BRANCH   2   3
ATOM      3  O   UNL A   1      50.529  27.964  38.040  1.00  0.00    -0.376 OA
BRANCH   3   4
ATOM      4  C   UNL A   1      51.133  26.656  38.009  1.00  0.00     0.202 C 
BRANCH   4   5
ATOM      5  C   UNL A   1      50.367  25.148  37.487  1.00  0.00     0.261 C 
BRANCH   5   6
ATOM      6  O   UNL A   1      48.610  24.379  37.698  1.00  0.00    -0.460 OA
BRANCH   6   7
ATOM      7  C   UNL A   1      47.496  23.335  36.983  1.00  0.00     0.342 C 
ATOM      8  O   UNL A   1      46.267  23.406  37.093  1.00  0.00    -0.246 OA
BRANCH   7   9
ATOM      9  C   UNL A   1      47.802  22.035  36.271  1.00  0.00     0.104 A 
ATOM     10  C   UNL A   1      47.710  20.532  36.579  1.00  0.00     0.143 A 
ATOM     11  N   UNL A   1      48.336  19.733  35.662  1.00  0.00    -0.236 NA
ATOM     12  C   UNL A   1      49.007  20.314  34.580  1.00  0.00     0.139 A 
ATOM     13  C   UNL A   1      48.625  22.517  35.257  1.00  0.00     0.047 A 
ATOM     14  C   UNL A   1      49.225  21.677  34.373  1.00  0.00     0.061 A 
BRANCH  10  15
ATOM     15  N   UNL A   1      47.108  19.841  37.723  1.00  0.00    -0.352 N 
ATOM     16  N   UNL A   1      45.997  18.313  40.308  1.00  0.00    -0.365 N 
ATOM     17  C   UNL A   1      45.657  18.003  38.820  1.00  0.00     0.138 C 
ATOM     18  C   UNL A   1      47.271  19.368  40.636  1.00  0.00     0.098 C 
ATOM     19  C   UNL A   1      45.915  18.991  37.566  1.00  0.00     0.139 C 
ATOM     20  C   UNL A   1      46.825  20.460  39.126  1.00  0.00     0.142 C 
ATOM     21  C   UNL A   1      49.371  18.917  41.250  1.00  0.00     0.033 C 
BRANCH  16  22
ATOM     22  C   UNL A   1      45.311  17.638  41.351  1.00  0.00     0.037 A 
ATOM     23  C   UNL A   1      46.260  15.024  44.014  1.00  0.00     0.044 C 
ATOM     24  C   UNL A   1      45.433  15.857  43.073  1.00  0.00    -0.049 A 
ATOM     25  C   UNL A   1      44.145  15.442  42.747  1.00  0.00     0.003 A 
ATOM     26  C   UNL A   1      45.962  17.011  42.440  1.00  0.00     0.029 A 
ATOM     27  C   UNL A   1      43.393  16.198  41.856  1.00  0.00     0.002 A 
ATOM     28  C   UNL A   1      43.962  17.305  41.206  1.00  0.00     0.026 A 
ENDBRANCH  16  22
ENDBRANCH  10  15
BRANCH  14  29
ATOM     29  N   UNL A   1      49.959  22.391  33.407  1.00  0.00    -0.320 N 
ATOM     30  C   UNL A   1      51.277  22.408  33.070  1.00  0.00     0.258 C 
ATOM     31  H   UNL A   1      49.408  23.002  32.866  1.00  0.00     0.170 HD
ATOM     32  O   UNL A   1      51.683  23.117  32.149  1.00  0.00    -0.269 OA
BRANCH  30  33
ATOM     33  C   UNL A   1      52.226  21.564  33.770  1.00  0.00     0.075 A 
ATOM     34  C   UNL A   1      52.454  20.296  33.238  1.00  0.00     0.017 A 
ATOM     35  C   UNL A   1      52.871  21.991  34.926  1.00  0.00     0.135 A 
ATOM     36  C   UNL A   1      53.414  19.484  33.824  1.00  0.00     0.001 A 
ATOM     37  C   UNL A   1      53.847  21.192  35.498  1.00  0.00     0.040 A 
ATOM     38  F   UNL A   1      52.564  23.163  35.499  1.00  0.00    -0.206 F 
ATOM     39  C   UNL A   1      54.128  19.943  34.936  1.00  0.00     0.003 A 
ENDBRANCH  30  33
ENDBRANCH  14  29
ENDBRANCH   7   9
ENDBRANCH   6   7
ENDBRANCH   5   6
ENDBRANCH   4   5
ENDBRANCH   3   4
ENDBRANCH   2   3
ENDBRANCH   1   2
BRANCH   1  40
ATOM     40  O   UNL A   1      53.135  28.112  35.888  1.00  0.00    -0.376 OA
BRANCH  40  41
ATOM     41  C   UNL A   1      54.520  27.864  36.072  1.00  0.00     0.202 C 
BRANCH  41  42
ATOM     42  C   UNL A   1      55.369  27.419  34.840  1.00  0.00     0.261 C 
BRANCH  42  43
ATOM     43  O   UNL A   1      54.788  27.650  33.518  1.00  0.00    -0.460 OA
BRANCH  43  44
ATOM     44  C   UNL A   1      54.721  26.841  32.413  1.00  0.00     0.338 C 
ATOM     45  O   UNL A   1      55.318  25.774  32.363  1.00  0.00    -0.246 OA
BRANCH  44  46
ATOM     46  C   UNL A   1      53.630  27.128  31.481  1.00  0.00     0.060 A 
ATOM     47  C   UNL A   1      53.035  28.336  31.393  1.00  0.00     0.016 A 
ATOM     48  C   UNL A   1      53.439  26.513  30.298  1.00  0.00     0.016 A 
ATOM     49  C   UNL A   1      51.676  28.461  30.957  1.00  0.00     0.010 A 
ATOM     50  C   UNL A   1      52.135  26.703  29.781  1.00  0.00     0.010 A 
ATOM     51  C   UNL A   1      50.978  27.413  30.443  1.00  0.00    -0.014 A 
BRANCH  51  52
ATOM     52  C   UNL A   1      49.138  27.353  30.112  1.00  0.00     0.031 A 
ATOM     53  C   UNL A   1      47.801  26.449  31.124  1.00  0.00     0.074 A 
ATOM     54  C   UNL A   1      48.609  28.016  29.060  1.00  0.00     0.049 A 
ATOM     55  N   UNL A   1      46.651  25.963  30.728  1.00  0.00    -0.248 NA
ATOM     56  C   UNL A   1      47.955  25.805  32.605  1.00  0.00     0.031 C 
ATOM     57  C   UNL A   1      47.187  28.281  28.816  1.00  0.00     0.029 A 
ATOM     58  N   UNL A   1      49.241  28.550  27.942  1.00  0.00    -0.354 N 
ATOM     59  C   UNL A   1      46.078  25.203  31.796  1.00  0.00     0.074 A 
ATOM     60  C   UNL A   1      47.051  24.881  32.737  1.00  0.00     0.031 C 
ATOM     61  C   UNL A   1      47.033  28.638  27.528  1.00  0.00     0.029 A 
ATOM     62  C   UNL A   1      48.317  28.368  26.902  1.00  0.00     0.049 A 
ATOM     63  H   UNL A   1      50.134  28.961  27.892  1.00  0.00     0.167 HD
ATOM     64  C   UNL A   1      44.743  25.134  32.014  1.00  0.00     0.034 A 
ATOM     65  C   UNL A   1      48.499  27.358  26.007  1.00  0.00     0.034 A 
ATOM     66  C   UNL A   1      44.127  25.538  30.784  1.00  0.00     0.049 A 
ATOM     67  C   UNL A   1      47.273  26.428  25.914  1.00  0.00     0.074 A 
ATOM     68  C   UNL A   1      43.807  26.783  30.275  1.00  0.00     0.029 A 
ATOM     69  N   UNL A   1      44.334  24.689  29.718  1.00  0.00    -0.354 N 
ATOM     70  N   UNL A   1      46.539  26.045  26.930  1.00  0.00    -0.248 NA
ATOM     71  C   UNL A   1      46.701  25.926  24.657  1.00  0.00     0.031 C 
ATOM     72  C   UNL A   1      43.954  26.697  28.864  1.00  0.00     0.029 A 
ATOM     73  C   UNL A   1      44.310  25.398  28.540  1.00  0.00     0.049 A 
ATOM     74  H   UNL A   1      44.478  23.718  29.789  1.00  0.00     0.167 HD
ATOM     75  C   UNL A   1      45.526  25.215  26.500  1.00  0.00     0.074 A 
ATOM     76  C   UNL A   1      45.715  25.111  25.071  1.00  0.00     0.031 C 
ATOM     77  C   UNL A   1      44.562  24.687  27.310  1.00  0.00     0.034 A 
BRANCH  64  78
ATOM     78  C   UNL A   1      44.082  25.091  33.401  1.00  0.00     0.023 A 
ATOM     79  C   UNL A   1      43.877  23.790  33.897  1.00  0.00     0.012 A 
ATOM     80  C   UNL A   1      43.534  26.137  34.208  1.00  0.00     0.148 A 
ATOM     81  C   UNL A   1      43.118  23.522  35.041  1.00  0.00     0.002 A 
ATOM     82  C   UNL A   1      42.716  25.867  35.315  1.00  0.00     0.091 A 
ATOM     83  F   UNL A   1      43.856  27.416  33.999  1.00  0.00    -0.205 F 
ATOM     84  C   UNL A   1      42.507  24.556  35.733  1.00  0.00     0.022 A 
BRANCH  82  85
ATOM     85  S   UNL A   1      41.822  27.157  36.222  1.00  0.00     0.127 S 
ATOM     86  O   UNL A   1      40.899  26.375  37.049  1.00  0.00    -0.237 OA
ATOM     87  O   UNL A   1      42.890  27.815  36.968  1.00  0.00    -0.237 OA
ATOM     88  O   UNL A   1      41.157  27.972  35.211  1.00  0.00    -0.744 OA
ENDBRANCH  82  85
ENDBRANCH  64  78
BRANCH  65  89
ATOM     89  C   UNL A   1      49.970  27.034  25.756  1.00  0.00     0.023 A 
ATOM     90  C   UNL A   1      50.640  25.654  26.669  1.00  0.00     0.012 A 
ATOM     91  C   UNL A   1      50.904  27.577  24.289  1.00  0.00     0.148 A 
ATOM     92  C   UNL A   1      52.144  24.833  26.176  1.00  0.00     0.002 A 
ATOM     93  C   UNL A   1      52.490  26.703  23.778  1.00  0.00     0.091 A 
ATOM     94  F   UNL A   1      50.263  28.505  23.620  1.00  0.00    -0.205 F 
ATOM     95  C   UNL A   1      53.086  25.350  24.785  1.00  0.00     0.022 A 
BRANCH  93  96
ATOM     96  S   UNL A   1      53.948  27.047  22.652  1.00  0.00     0.127 S 
ATOM     97  O   UNL A   1      53.488  26.470  21.388  1.00  0.00    -0.237 OA
ATOM     98  O   UNL A   1      53.970  28.506  22.619  1.00  0.00    -0.237 OA
ATOM     99  O   UNL A   1      55.083  26.373  23.261  1.00  0.00    -0.744 OA
ENDBRANCH  93  96
ENDBRANCH  65  89
BRANCH  77 100
ATOM    100  C   UNL A   1      43.766  23.412  27.049  1.00  0.00     0.023 A 
ATOM    101  C   UNL A   1      42.360  23.402  27.088  1.00  0.00     0.012 A 
ATOM    102  C   UNL A   1      44.396  22.271  26.476  1.00  0.00     0.148 A 
ATOM    103  C   UNL A   1      41.624  22.307  26.614  1.00  0.00     0.002 A 
ATOM    104  C   UNL A   1      43.656  21.264  25.869  1.00  0.00     0.091 A 
ATOM    105  F   UNL A   1      45.733  22.153  26.504  1.00  0.00    -0.205 F 
ATOM    106  C   UNL A   1      42.268  21.255  25.971  1.00  0.00     0.022 A 
BRANCH 104 107
ATOM    107  S   UNL A   1      44.457  20.095  24.754  1.00  0.00     0.127 S 
ATOM    108  O   UNL A   1      45.699  19.799  25.461  1.00  0.00    -0.237 OA
ATOM    109  O   UNL A   1      43.499  18.987  24.713  1.00  0.00    -0.237 OA
ATOM    110  O   UNL A   1      44.581  20.816  23.494  1.00  0.00    -0.744 OA
ENDBRANCH 104 107
ENDBRANCH  77 100
ENDBRANCH  51  52
ENDBRANCH  44  46
ENDBRANCH  43  44
ENDBRANCH  42  43
ENDBRANCH  41  42
ENDBRANCH  40  41
ENDBRANCH   1  40
TORSDOF 24
ENDMDL
MODEL 3
REMARK VINA RESULT:      -9.2      5.292     14.269
REMARK SMILES Cc1cccc(N2CCN(c3ncc(NC(=O)c4ccccc4F)cc3C(=O)OCCOCCOCCOC(=O)c3ccc(-c4c5nc(c(-c6cccc(S(=O)(=O)[O-])c6F)c6ccc([nH]6)c(-c6cccc(S(=O)(=O)[O-])c6F)c6nc(c(-c7cccc(S(=O)(=O)[O-])c7F)c7ccc4[nH]7)C=C6)C=C5)cc3)C[C@@H]2C)c1
REMARK SMILES IDX 34 1 33 2 32 3 31 4 30 5 29 6 27 7 28 8 26 9 11 10 12 11
REMARK SMILES IDX 13 12 25 13 14 14 10 15 7 16 8 17 105 18 9 19 104 20 106 21
REMARK SMILES IDX 6 22 1 23 2 24 3 25 107 26 4 27 5 28 15 29 16 30 17 32 18 33
REMARK SMILES IDX 19 34 23 35 20 36 22 37 24 38 21 39 35 40 36 41 37 42 38 43
REMARK SMILES IDX 39 44 40 45 41 46 42 47 103 48 43 49 102 50 44 51 45 52
REMARK SMILES IDX 46 53 96 54 47 55 101 56 95 57 97 58 48 59 100 60 94 61
REMARK SMILES IDX 93 62 49 64 81 65 61 66 80 67 62 68 65 69 79 70 98 71 63 72
REMARK SMILES IDX 64 73 78 75 99 76 66 77 50 78 51 79 59 80 52 81 54 82 60 83
REMARK SMILES IDX 53 84 55 85 56 86 57 87 58 88 82 89 83 90 91 91 84 92 86 93
REMARK SMILES IDX 92 94 85 95 87 96 88 97 89 98 90 99 67 100 68 101 76 102
REMARK SMILES IDX 69 103 71 104 77 105 70 106 72 107 73 108 74 109 75 110
REMARK H PARENT 15 31 97 63 65 74
REMARK Flexibility Score: inf
ROOT
ATOM      1  C   UNL A   1      51.963  29.186  22.036  1.00  0.00     0.188 C 
ENDROOT
BRANCH   1   2
ATOM      2  C   UNL A   1      52.003  29.035  20.534  1.00  0.00     0.188 C 
BRANCH   2   3
ATOM      3  O   UNL A   1      51.169  28.118  19.910  1.00  0.00    -0.376 OA
BRANCH   3   4
ATOM      4  C   UNL A   1      49.846  28.125  20.479  1.00  0.00     0.202 C 
BRANCH   4   5
ATOM      5  C   UNL A   1      49.020  26.766  21.256  1.00  0.00     0.261 C 
BRANCH   5   6
ATOM      6  O   UNL A   1      48.081  26.528  22.925  1.00  0.00    -0.460 OA
BRANCH   6   7
ATOM      7  C   UNL A   1      47.164  27.334  24.088  1.00  0.00     0.342 C 
ATOM      8  O   UNL A   1      46.812  28.517  24.036  1.00  0.00    -0.246 OA
BRANCH   7   9
ATOM      9  C   UNL A   1      46.798  26.823  25.464  1.00  0.00     0.104 A 
ATOM     10  C   UNL A   1      47.310  26.995  26.904  1.00  0.00     0.143 A 
ATOM     11  N   UNL A   1      46.762  26.120  27.802  1.00  0.00    -0.236 NA
ATOM     12  C   UNL A   1      45.845  25.159  27.361  1.00  0.00     0.139 A 
ATOM     13  C   UNL A   1      46.006  25.737  25.103  1.00  0.00     0.047 A 
ATOM     14  C   UNL A   1      45.489  24.896  26.038  1.00  0.00     0.061 A 
BRANCH  10  15
ATOM     15  N   UNL A   1      48.324  27.908  27.440  1.00  0.00    -0.352 N 
ATOM     16  N   UNL A   1      50.377  30.055  28.634  1.00  0.00    -0.365 N 
ATOM     17  C   UNL A   1      50.566  29.191  27.353  1.00  0.00     0.138 C 
ATOM     18  C   UNL A   1      48.851  30.100  29.351  1.00  0.00     0.098 C 
ATOM     19  C   UNL A   1      49.719  27.868  26.970  1.00  0.00     0.139 C 
ATOM     20  C   UNL A   1      48.547  28.253  28.945  1.00  0.00     0.142 C 
ATOM     21  C   UNL A   1      47.263  31.665  29.221  1.00  0.00     0.033 C 
BRANCH  16  22
ATOM     22  C   UNL A   1      51.442  30.859  29.116  1.00  0.00     0.037 A 
ATOM     23  C   UNL A   1      51.802  33.636  31.760  1.00  0.00     0.044 C 
ATOM     24  C   UNL A   1      52.079  32.775  30.557  1.00  0.00    -0.049 A 
ATOM     25  C   UNL A   1      52.949  33.237  29.573  1.00  0.00     0.003 A 
ATOM     26  C   UNL A   1      51.412  31.540  30.356  1.00  0.00     0.029 A 
ATOM     27  C   UNL A   1      53.181  32.453  28.450  1.00  0.00     0.002 A 
ATOM     28  C   UNL A   1      52.467  31.259  28.255  1.00  0.00     0.026 A 
ENDBRANCH  16  22
ENDBRANCH  10  15
BRANCH  14  29
ATOM     29  N   UNL A   1      44.677  23.910  25.445  1.00  0.00    -0.320 N 
ATOM     30  C   UNL A   1      43.335  23.688  25.448  1.00  0.00     0.258 C 
ATOM     31  H   UNL A   1      45.183  23.247  24.921  1.00  0.00     0.170 HD
ATOM     32  O   UNL A   1      42.848  22.751  24.818  1.00  0.00    -0.269 OA
BRANCH  30  33
ATOM     33  C   UNL A   1      42.445  24.577  26.172  1.00  0.00     0.075 A 
ATOM     34  C   UNL A   1      41.956  25.682  25.479  1.00  0.00     0.017 A 
ATOM     35  C   UNL A   1      42.105  24.346  27.501  1.00  0.00     0.135 A 
ATOM     36  C   UNL A   1      41.037  26.514  26.102  1.00  0.00     0.001 A 
ATOM     37  C   UNL A   1      41.169  25.162  28.117  1.00  0.00     0.040 A 
ATOM     38  F   UNL A   1      42.666  23.350  28.200  1.00  0.00    -0.206 F 
ATOM     39  C   UNL A   1      40.625  26.238  27.410  1.00  0.00     0.003 A 
ENDBRANCH  30  33
ENDBRANCH  14  29
ENDBRANCH   7   9
ENDBRANCH   6   7
ENDBRANCH   5   6
ENDBRANCH   4   5
ENDBRANCH   3   4
ENDBRANCH   2   3
ENDBRANCH   1   2
BRANCH   1  40
ATOM     40  O   UNL A   1      51.436  30.391  22.544  1.00  0.00    -0.376 OA
BRANCH  40  41
ATOM     41  C   UNL A   1      52.396  31.283  23.089  1.00  0.00     0.202 C 
BRANCH  41  42
ATOM     42  C   UNL A   1      52.276  31.681  24.593  1.00  0.00     0.261 C 
BRANCH  42  43
ATOM     43  O   UNL A   1      51.184  32.585  24.952  1.00  0.00    -0.460 OA
BRANCH  43  44
ATOM     44  C   UNL A   1      51.186  33.756  25.665  1.00  0.00     0.338 C 
ATOM     45  O   UNL A   1      51.980  34.654  25.421  1.00  0.00    -0.246 OA
BRANCH  44  46
ATOM     46  C   UNL A   1      49.982  34.023  26.453  1.00  0.00     0.060 A 
ATOM     47  C   UNL A   1      48.743  33.682  26.042  1.00  0.00     0.016 A 
ATOM     48  C   UNL A   1      49.938  34.106  27.797  1.00  0.00     0.016 A 
ATOM     49  C   UNL A   1      47.591  34.415  26.478  1.00  0.00     0.010 A 
ATOM     50  C   UNL A   1      48.760  34.732  28.272  1.00  0.00     0.010 A 
ATOM     51  C   UNL A   1      47.658  35.361  27.453  1.00  0.00    -0.014 A 
BRANCH  51  52
ATOM     52  C   UNL A   1      46.321  36.585  27.912  1.00  0.00     0.031 A 
ATOM     53  C   UNL A   1      46.384  38.484  27.782  1.00  0.00     0.074 A 
ATOM     54  C   UNL A   1      45.130  36.154  28.387  1.00  0.00     0.049 A 
ATOM     55  N   UNL A   1      45.751  39.385  28.491  1.00  0.00    -0.248 NA
ATOM     56  C   UNL A   1      47.481  39.380  26.991  1.00  0.00     0.031 C 
ATOM     57  C   UNL A   1      43.909  36.951  28.543  1.00  0.00     0.029 A 
ATOM     58  N   UNL A   1      44.778  34.906  28.889  1.00  0.00    -0.354 N 
ATOM     59  C   UNL A   1      46.263  40.679  28.160  1.00  0.00     0.074 A 
ATOM     60  C   UNL A   1      47.498  40.563  27.528  1.00  0.00     0.031 C 
ATOM     61  C   UNL A   1      43.067  36.288  29.356  1.00  0.00     0.029 A 
ATOM     62  C   UNL A   1      43.849  35.190  29.902  1.00  0.00     0.049 A 
ATOM     63  H   UNL A   1      45.106  34.024  28.600  1.00  0.00     0.167 HD
ATOM     64  C   UNL A   1      45.493  41.792  28.148  1.00  0.00     0.034 A 
ATOM     65  C   UNL A   1      44.238  35.144  31.206  1.00  0.00     0.034 A 
ATOM     66  C   UNL A   1      44.333  41.472  28.927  1.00  0.00     0.049 A 
ATOM     67  C   UNL A   1      43.949  36.461  31.952  1.00  0.00     0.074 A 
ATOM     68  C   UNL A   1      43.142  40.851  28.600  1.00  0.00     0.029 A 
ATOM     69  N   UNL A   1      44.570  41.247  30.266  1.00  0.00    -0.354 N 
ATOM     70  N   UNL A   1      44.099  37.661  31.448  1.00  0.00    -0.248 NA
ATOM     71  C   UNL A   1      43.369  36.546  33.300  1.00  0.00     0.031 C 
ATOM     72  C   UNL A   1      42.728  40.130  29.753  1.00  0.00     0.029 A 
ATOM     73  C   UNL A   1      43.642  40.364  30.767  1.00  0.00     0.049 A 
ATOM     74  H   UNL A   1      45.297  41.657  30.788  1.00  0.00     0.167 HD
ATOM     75  C   UNL A   1      43.757  38.616  32.381  1.00  0.00     0.074 A 
ATOM     76  C   UNL A   1      43.375  37.865  33.555  1.00  0.00     0.031 C 
ATOM     77  C   UNL A   1      43.758  39.962  32.148  1.00  0.00     0.034 A 
BRANCH  64  78
ATOM     78  C   UNL A   1      45.630  42.943  27.137  1.00  0.00     0.023 A 
ATOM     79  C   UNL A   1      45.897  44.194  27.727  1.00  0.00     0.012 A 
ATOM     80  C   UNL A   1      45.412  42.977  25.725  1.00  0.00     0.148 A 
ATOM     81  C   UNL A   1      45.862  45.395  27.012  1.00  0.00     0.002 A 
ATOM     82  C   UNL A   1      45.309  44.186  25.020  1.00  0.00     0.091 A 
ATOM     83  F   UNL A   1      45.392  41.857  24.998  1.00  0.00    -0.205 F 
ATOM     84  C   UNL A   1      45.534  45.398  25.666  1.00  0.00     0.022 A 
BRANCH  82  85
ATOM     85  S   UNL A   1      44.809  44.276  23.281  1.00  0.00     0.127 S 
ATOM     86  O   UNL A   1      44.656  45.719  23.074  1.00  0.00    -0.237 OA
ATOM     87  O   UNL A   1      45.954  43.687  22.592  1.00  0.00    -0.237 OA
ATOM     88  O   UNL A   1      43.557  43.534  23.182  1.00  0.00    -0.744 OA
ENDBRANCH  82  85
ENDBRANCH  64  78
BRANCH  65  89
ATOM     89  C   UNL A   1      45.330  34.110  31.472  1.00  0.00     0.023 A 
ATOM     90  C   UNL A   1      47.006  34.725  31.505  1.00  0.00     0.012 A 
ATOM     91  C   UNL A   1      45.039  32.484  32.239  1.00  0.00     0.148 A 
ATOM     92  C   UNL A   1      48.337  33.807  32.257  1.00  0.00     0.002 A 
ATOM     93  C   UNL A   1      46.451  31.523  33.029  1.00  0.00     0.091 A 
ATOM     94  F   UNL A   1      43.763  32.185  32.276  1.00  0.00    -0.205 F 
ATOM     95  C   UNL A   1      48.097  32.222  32.978  1.00  0.00     0.022 A 
BRANCH  93  96
ATOM     96  S   UNL A   1      46.771  29.766  33.597  1.00  0.00     0.127 S 
ATOM     97  O   UNL A   1      45.411  29.287  33.850  1.00  0.00    -0.237 OA
ATOM     98  O   UNL A   1      47.358  29.163  32.404  1.00  0.00    -0.237 OA
ATOM     99  O   UNL A   1      47.615  29.881  34.775  1.00  0.00    -0.744 OA
ENDBRANCH  93  96
ENDBRANCH  65  89
BRANCH  77 100
ATOM    100  C   UNL A   1      43.906  41.058  33.199  1.00  0.00     0.023 A 
ATOM    101  C   UNL A   1      44.936  41.025  34.155  1.00  0.00     0.012 A 
ATOM    102  C   UNL A   1      43.197  42.285  33.067  1.00  0.00     0.148 A 
ATOM    103  C   UNL A   1      45.224  42.138  34.958  1.00  0.00     0.002 A 
ATOM    104  C   UNL A   1      43.592  43.427  33.755  1.00  0.00     0.091 A 
ATOM    105  F   UNL A   1      42.128  42.364  32.258  1.00  0.00    -0.205 F 
ATOM    106  C   UNL A   1      44.578  43.349  34.733  1.00  0.00     0.022 A 
BRANCH 104 107
ATOM    107  S   UNL A   1      43.004  45.050  33.233  1.00  0.00     0.127 S 
ATOM    108  O   UNL A   1      43.883  45.947  33.975  1.00  0.00    -0.237 OA
ATOM    109  O   UNL A   1      43.239  45.022  31.787  1.00  0.00    -0.237 OA
ATOM    110  O   UNL A   1      41.595  45.065  33.603  1.00  0.00    -0.744 OA
ENDBRANCH 104 107
ENDBRANCH  77 100
ENDBRANCH  51  52
ENDBRANCH  44  46
ENDBRANCH  43  44
ENDBRANCH  42  43
ENDBRANCH  41  42
ENDBRANCH  40  41
ENDBRANCH   1  40
TORSDOF 24
ENDMDL
