MODEL 1
REMARK VINA RESULT:     -11.6      0.000      0.000
REMARK SMILES C[N@H+]1CC[C@H]2CN(C(=O)c3csc(-c4ccncc4)n3)C[C@@]2(C(=O)OCCOCCOCCOC(=O)c2ccc(-c3c4nc(c(-c5cccc(S(=O)(=O)[O-])c5F)c5ccc([nH]5)c(-c5cccc(S(=O)(=O)[O-])c5F)c5nc(c(-c6cccc(S(=O)(=O)[O-])c6F)c6ccc3[nH]6)C=C5)C=C4)cc2)C1
REMARK SMILES IDX 29 1 28 2 27 3 26 4 25 5 23 6 24 7 22 8 1 9 2 10 3 11 100 12
REMARK SMILES IDX 4 14 5 15 21 16 6 17 7 18 8 19 9 20 10 21 11 22 20 23 12 24
REMARK SMILES IDX 13 25 14 26 15 27 19 28 16 29 18 30 17 31 30 32 31 33 32 34
REMARK SMILES IDX 33 35 34 36 35 37 36 38 37 39 38 40 99 41 39 42 98 43 40 44
REMARK SMILES IDX 41 45 42 46 92 47 43 48 97 49 91 50 93 51 44 52 96 53 90 54
REMARK SMILES IDX 89 55 45 57 77 58 57 59 76 60 58 61 61 62 75 63 94 64 59 65
REMARK SMILES IDX 60 66 74 68 95 69 62 70 46 71 47 72 55 73 48 74 50 75 56 76
REMARK SMILES IDX 49 77 51 78 52 79 53 80 54 81 78 82 79 83 87 84 80 85 82 86
REMARK SMILES IDX 88 87 81 88 83 89 84 90 85 91 86 92 63 93 64 94 72 95 65 96
REMARK SMILES IDX 67 97 73 98 66 99 68 100 69 101 70 102 71 103
REMARK H PARENT 2 13 93 56 61 67
REMARK Flexibility Score: inf
ROOT
ATOM      1  C   UNL A   1      33.504  29.209  25.857  1.00  0.00     0.188 C 
ENDROOT
BRANCH   1   2
ATOM      2  O   UNL A   1      33.108  29.739  24.586  1.00  0.00    -0.376 OA
BRANCH   2   3
ATOM      3  C   UNL A   1      32.681  28.756  23.635  1.00  0.00     0.202 C 
BRANCH   3   4
ATOM      4  C   UNL A   1      33.879  28.096  22.911  1.00  0.00     0.261 C 
BRANCH   4   5
ATOM      5  O   UNL A   1      33.843  26.664  23.082  1.00  0.00    -0.463 OA
BRANCH   5   6
ATOM      6  C   UNL A   1      32.784  25.853  22.687  1.00  0.00     0.320 C 
ATOM      7  O   UNL A   1      32.349  25.768  21.556  1.00  0.00    -0.251 OA
BRANCH   6   8
ATOM      8  C   UNL A   1      32.394  25.041  23.953  1.00  0.00     0.139 C 
ATOM      9  C   UNL A   1      29.034  26.697  23.732  1.00  0.00     0.332 C 
ATOM     10  N   UNL A   1      30.276  26.240  24.337  1.00  0.00    -0.336 N 
ATOM     11  C   UNL A   1      30.197  26.200  25.788  1.00  0.00     0.262 C 
ATOM     12  C   UNL A   1      30.850  25.006  23.771  1.00  0.00     0.283 C 
ATOM     13  H   UNL A   1      30.954  26.958  24.078  1.00  0.00     0.347 HD
ATOM     14  C   UNL A   1      31.337  25.359  26.330  1.00  0.00     0.068 C 
ATOM     15  C   UNL A   1      32.621  25.433  25.462  1.00  0.00     0.039 C 
ATOM     16  C   UNL A   1      33.327  23.801  23.784  1.00  0.00     0.145 C 
ATOM     17  C   UNL A   1      33.528  24.359  26.062  1.00  0.00     0.125 C 
ATOM     18  N   UNL A   1      34.220  23.831  24.941  1.00  0.00    -0.336 N 
BRANCH  18  19
ATOM     19  C   UNL A   1      35.512  23.377  25.116  1.00  0.00     0.273 C 
ATOM     20  O   UNL A   1      36.462  24.163  25.161  1.00  0.00    -0.267 OA
BRANCH  19  21
ATOM     21  C   UNL A   1      35.759  21.935  25.122  1.00  0.00     0.139 A 
ATOM     22  C   UNL A   1      37.013  21.399  24.885  1.00  0.00     0.101 A 
ATOM     23  N   UNL A   1      34.730  20.991  25.154  1.00  0.00    -0.231 NA
ATOM     24  S   UNL A   1      36.920  19.701  24.718  1.00  0.00    -0.122 S 
ATOM     25  C   UNL A   1      35.212  19.791  24.909  1.00  0.00     0.124 A 
BRANCH  25  26
ATOM     26  C   UNL A   1      34.417  18.575  24.753  1.00  0.00     0.013 A 
ATOM     27  C   UNL A   1      34.970  17.441  24.151  1.00  0.00     0.031 A 
ATOM     28  C   UNL A   1      33.096  18.529  25.199  1.00  0.00     0.031 A 
ATOM     29  C   UNL A   1      34.183  16.307  24.044  1.00  0.00     0.111 A 
ATOM     30  C   UNL A   1      32.390  17.349  25.040  1.00  0.00     0.111 A 
ATOM     31  N   UNL A   1      32.907  16.233  24.485  1.00  0.00    -0.265 NA
ENDBRANCH  25  26
ENDBRANCH  19  21
ENDBRANCH  18  19
ENDBRANCH   6   8
ENDBRANCH   5   6
ENDBRANCH   4   5
ENDBRANCH   3   4
ENDBRANCH   2   3
ENDBRANCH   1   2
BRANCH   1  32
ATOM     32  C   UNL A   1      32.743  29.958  26.964  1.00  0.00     0.188 C 
BRANCH  32  33
ATOM     33  O   UNL A   1      31.514  30.590  26.604  1.00  0.00    -0.376 OA
BRANCH  33  34
ATOM     34  C   UNL A   1      31.436  31.991  26.829  1.00  0.00     0.202 C 
BRANCH  34  35
ATOM     35  C   UNL A   1      32.748  32.689  27.225  1.00  0.00     0.261 C 
BRANCH  35  36
ATOM     36  O   UNL A   1      32.593  33.971  27.870  1.00  0.00    -0.460 OA
BRANCH  36  37
ATOM     37  C   UNL A   1      33.755  34.558  28.262  1.00  0.00     0.338 C 
ATOM     38  O   UNL A   1      33.942  35.747  28.455  1.00  0.00    -0.246 OA
BRANCH  37  39
ATOM     39  C   UNL A   1      34.795  33.541  28.550  1.00  0.00     0.060 A 
ATOM     40  C   UNL A   1      34.419  32.384  29.248  1.00  0.00     0.016 A 
ATOM     41  C   UNL A   1      36.142  33.780  28.272  1.00  0.00     0.016 A 
ATOM     42  C   UNL A   1      35.390  31.483  29.702  1.00  0.00     0.010 A 
ATOM     43  C   UNL A   1      37.114  32.884  28.742  1.00  0.00     0.010 A 
ATOM     44  C   UNL A   1      36.749  31.747  29.490  1.00  0.00    -0.014 A 
BRANCH  44  45
ATOM     45  C   UNL A   1      37.802  30.956  30.188  1.00  0.00     0.031 A 
ATOM     46  C   UNL A   1      38.137  31.294  31.617  1.00  0.00     0.074 A 
ATOM     47  C   UNL A   1      38.491  29.982  29.565  1.00  0.00     0.049 A 
ATOM     48  N   UNL A   1      39.100  30.838  32.374  1.00  0.00    -0.248 NA
ATOM     49  C   UNL A   1      37.269  32.284  32.275  1.00  0.00     0.031 C 
ATOM     50  C   UNL A   1      38.258  29.523  28.201  1.00  0.00     0.029 A 
ATOM     51  N   UNL A   1      39.559  29.227  29.996  1.00  0.00    -0.354 N 
ATOM     52  C   UNL A   1      38.983  31.512  33.584  1.00  0.00     0.074 A 
ATOM     53  C   UNL A   1      37.849  32.403  33.461  1.00  0.00     0.031 C 
ATOM     54  C   UNL A   1      39.178  28.592  27.888  1.00  0.00     0.029 A 
ATOM     55  C   UNL A   1      40.093  28.422  29.017  1.00  0.00     0.049 A 
ATOM     56  H   UNL A   1      39.906  29.261  30.916  1.00  0.00     0.167 HD
ATOM     57  C   UNL A   1      39.746  31.403  34.699  1.00  0.00     0.034 A 
ATOM     58  C   UNL A   1      41.214  27.669  29.013  1.00  0.00     0.034 A 
ATOM     59  C   UNL A   1      40.872  30.519  34.833  1.00  0.00     0.049 A 
ATOM     60  C   UNL A   1      42.085  27.611  30.245  1.00  0.00     0.074 A 
ATOM     61  C   UNL A   1      41.685  30.327  35.937  1.00  0.00     0.029 A 
ATOM     62  N   UNL A   1      41.361  29.697  33.831  1.00  0.00    -0.354 N 
ATOM     63  N   UNL A   1      41.909  28.183  31.410  1.00  0.00    -0.248 NA
ATOM     64  C   UNL A   1      43.301  26.783  30.168  1.00  0.00     0.031 C 
ATOM     65  C   UNL A   1      42.687  29.415  35.592  1.00  0.00     0.029 A 
ATOM     66  C   UNL A   1      42.471  29.006  34.285  1.00  0.00     0.049 A 
ATOM     67  H   UNL A   1      40.975  29.616  32.929  1.00  0.00     0.167 HD
ATOM     68  C   UNL A   1      42.960  27.749  32.215  1.00  0.00     0.074 A 
ATOM     69  C   UNL A   1      43.767  26.860  31.407  1.00  0.00     0.031 C 
ATOM     70  C   UNL A   1      43.234  28.068  33.503  1.00  0.00     0.034 A 
BRANCH  57  71
ATOM     71  C   UNL A   1      39.386  32.270  35.875  1.00  0.00     0.023 A 
ATOM     72  C   UNL A   1      39.897  33.581  35.962  1.00  0.00     0.012 A 
ATOM     73  C   UNL A   1      38.502  31.804  36.869  1.00  0.00     0.148 A 
ATOM     74  C   UNL A   1      39.563  34.401  37.039  1.00  0.00     0.002 A 
ATOM     75  C   UNL A   1      38.139  32.643  37.914  1.00  0.00     0.091 A 
ATOM     76  F   UNL A   1      38.043  30.548  36.777  1.00  0.00    -0.205 F 
ATOM     77  C   UNL A   1      38.679  33.936  38.008  1.00  0.00     0.022 A 
BRANCH  75  78
ATOM     78  S   UNL A   1      36.946  32.164  39.168  1.00  0.00     0.127 S 
ATOM     79  O   UNL A   1      35.695  32.641  38.582  1.00  0.00    -0.237 OA
ATOM     80  O   UNL A   1      37.091  30.708  39.191  1.00  0.00    -0.237 OA
ATOM     81  O   UNL A   1      37.358  32.834  40.392  1.00  0.00    -0.744 OA
ENDBRANCH  75  78
ENDBRANCH  57  71
BRANCH  58  82
ATOM     82  C   UNL A   1      41.592  26.891  27.796  1.00  0.00     0.023 A 
ATOM     83  C   UNL A   1      42.165  27.559  26.695  1.00  0.00     0.012 A 
ATOM     84  C   UNL A   1      41.374  25.502  27.718  1.00  0.00     0.148 A 
ATOM     85  C   UNL A   1      42.481  26.863  25.528  1.00  0.00     0.002 A 
ATOM     86  C   UNL A   1      41.743  24.806  26.574  1.00  0.00     0.091 A 
ATOM     87  F   UNL A   1      40.810  24.889  28.768  1.00  0.00    -0.205 F 
ATOM     88  C   UNL A   1      42.279  25.487  25.469  1.00  0.00     0.022 A 
BRANCH  86  89
ATOM     89  S   UNL A   1      41.630  23.017  26.452  1.00  0.00     0.127 S 
ATOM     90  O   UNL A   1      40.187  22.814  26.350  1.00  0.00    -0.237 OA
ATOM     91  O   UNL A   1      42.380  22.753  25.224  1.00  0.00    -0.237 OA
ATOM     92  O   UNL A   1      42.255  22.500  27.662  1.00  0.00    -0.744 OA
ENDBRANCH  86  89
ENDBRANCH  58  82
BRANCH  70  93
ATOM     93  C   UNL A   1      44.414  27.408  34.174  1.00  0.00     0.023 A 
ATOM     94  C   UNL A   1      45.656  28.070  34.238  1.00  0.00     0.012 A 
ATOM     95  C   UNL A   1      44.254  26.176  34.842  1.00  0.00     0.148 A 
ATOM     96  C   UNL A   1      46.724  27.506  34.939  1.00  0.00     0.002 A 
ATOM     97  C   UNL A   1      45.306  25.646  35.579  1.00  0.00     0.091 A 
ATOM     98  F   UNL A   1      43.069  25.554  34.756  1.00  0.00    -0.205 F 
ATOM     99  C   UNL A   1      46.546  26.303  35.620  1.00  0.00     0.022 A 
BRANCH  97 100
ATOM    100  S   UNL A   1      45.139  24.157  36.572  1.00  0.00     0.127 S 
ATOM    101  O   UNL A   1      46.534  23.753  36.741  1.00  0.00    -0.237 OA
ATOM    102  O   UNL A   1      44.499  24.664  37.785  1.00  0.00    -0.237 OA
ATOM    103  O   UNL A   1      44.318  23.240  35.791  1.00  0.00    -0.744 OA
ENDBRANCH  97 100
ENDBRANCH  70  93
ENDBRANCH  44  45
ENDBRANCH  37  39
ENDBRANCH  36  37
ENDBRANCH  35  36
ENDBRANCH  34  35
ENDBRANCH  33  34
ENDBRANCH  32  33
ENDBRANCH   1  32
TORSDOF 23
ENDMDL
MODEL 2
REMARK VINA RESULT:     -11.4      4.937     10.335
REMARK SMILES C[N@H+]1CC[C@H]2CN(C(=O)c3csc(-c4ccncc4)n3)C[C@@]2(C(=O)OCCOCCOCCOC(=O)c2ccc(-c3c4nc(c(-c5cccc(S(=O)(=O)[O-])c5F)c5ccc([nH]5)c(-c5cccc(S(=O)(=O)[O-])c5F)c5nc(c(-c6cccc(S(=O)(=O)[O-])c6F)c6ccc3[nH]6)C=C5)C=C4)cc2)C1
REMARK SMILES IDX 29 1 28 2 27 3 26 4 25 5 23 6 24 7 22 8 1 9 2 10 3 11 100 12
REMARK SMILES IDX 4 14 5 15 21 16 6 17 7 18 8 19 9 20 10 21 11 22 20 23 12 24
REMARK SMILES IDX 13 25 14 26 15 27 19 28 16 29 18 30 17 31 30 32 31 33 32 34
REMARK SMILES IDX 33 35 34 36 35 37 36 38 37 39 38 40 99 41 39 42 98 43 40 44
REMARK SMILES IDX 41 45 42 46 92 47 43 48 97 49 91 50 93 51 44 52 96 53 90 54
REMARK SMILES IDX 89 55 45 57 77 58 57 59 76 60 58 61 61 62 75 63 94 64 59 65
REMARK SMILES IDX 60 66 74 68 95 69 62 70 46 71 47 72 55 73 48 74 50 75 56 76
REMARK SMILES IDX 49 77 51 78 52 79 53 80 54 81 78 82 79 83 87 84 80 85 82 86
REMARK SMILES IDX 88 87 81 88 83 89 84 90 85 91 86 92 63 93 64 94 72 95 65 96
REMARK SMILES IDX 67 97 73 98 66 99 68 100 69 101 70 102 71 103
REMARK H PARENT 2 13 93 56 61 67
REMARK Flexibility Score: inf
ROOT
ATOM      1  C   UNL A   1      37.212  22.377  24.928  1.00  0.00     0.188 C 
ENDROOT
BRANCH   1   2
ATOM      2  O   UNL A   1      36.852  23.451  24.050  1.00  0.00    -0.376 OA
BRANCH   2   3
ATOM      3  C   UNL A   1      35.669  23.220  23.275  1.00  0.00     0.202 C 
BRANCH   3   4
ATOM      4  C   UNL A   1      34.405  23.141  24.163  1.00  0.00     0.261 C 
BRANCH   4   5
ATOM      5  O   UNL A   1      33.301  23.819  23.528  1.00  0.00    -0.463 OA
BRANCH   5   6
ATOM      6  C   UNL A   1      33.341  25.137  23.085  1.00  0.00     0.320 C 
ATOM      7  O   UNL A   1      33.823  25.511  22.034  1.00  0.00    -0.251 OA
BRANCH   6   8
ATOM      8  C   UNL A   1      32.556  25.953  24.151  1.00  0.00     0.139 C 
ATOM      9  C   UNL A   1      34.141  29.018  22.676  1.00  0.00     0.332 C 
ATOM     10  N   UNL A   1      33.725  28.075  23.703  1.00  0.00    -0.336 N 
ATOM     11  C   UNL A   1      33.723  28.673  25.028  1.00  0.00     0.262 C 
ATOM     12  C   UNL A   1      32.487  27.326  23.424  1.00  0.00     0.283 C 
ATOM     13  H   UNL A   1      34.449  27.356  23.684  1.00  0.00     0.347 HD
ATOM     14  C   UNL A   1      32.920  27.801  25.973  1.00  0.00     0.068 C 
ATOM     15  C   UNL A   1      32.994  26.290  25.626  1.00  0.00     0.039 C 
ATOM     16  C   UNL A   1      31.331  25.012  24.370  1.00  0.00     0.145 C 
ATOM     17  C   UNL A   1      31.954  25.653  26.547  1.00  0.00     0.125 C 
ATOM     18  N   UNL A   1      31.409  24.598  25.770  1.00  0.00    -0.336 N 
BRANCH  18  19
ATOM     19  C   UNL A   1      30.985  23.453  26.415  1.00  0.00     0.273 C 
ATOM     20  O   UNL A   1      30.000  23.467  27.155  1.00  0.00    -0.267 OA
BRANCH  19  21
ATOM     21  C   UNL A   1      31.798  22.241  26.305  1.00  0.00     0.139 A 
ATOM     22  C   UNL A   1      32.977  22.077  27.012  1.00  0.00     0.101 A 
ATOM     23  N   UNL A   1      31.570  21.261  25.336  1.00  0.00    -0.231 NA
ATOM     24  S   UNL A   1      33.806  20.680  26.483  1.00  0.00    -0.122 S 
ATOM     25  C   UNL A   1      32.578  20.415  25.306  1.00  0.00     0.124 A 
BRANCH  25  26
ATOM     26  C   UNL A   1      32.740  19.326  24.346  1.00  0.00     0.013 A 
ATOM     27  C   UNL A   1      32.146  19.402  23.084  1.00  0.00     0.031 A 
ATOM     28  C   UNL A   1      33.487  18.195  24.676  1.00  0.00     0.031 A 
ATOM     29  C   UNL A   1      32.345  18.353  22.202  1.00  0.00     0.111 A 
ATOM     30  C   UNL A   1      33.621  17.196  23.727  1.00  0.00     0.111 A 
ATOM     31  N   UNL A   1      33.079  17.255  22.493  1.00  0.00    -0.265 NA
ENDBRANCH  25  26
ENDBRANCH  19  21
ENDBRANCH  18  19
ENDBRANCH   6   8
ENDBRANCH   5   6
ENDBRANCH   4   5
ENDBRANCH   3   4
ENDBRANCH   2   3
ENDBRANCH   1   2
BRANCH   1  32
ATOM     32  C   UNL A   1      36.863  21.044  24.246  1.00  0.00     0.188 C 
BRANCH  32  33
ATOM     33  O   UNL A   1      37.565  19.879  24.682  1.00  0.00    -0.376 OA
BRANCH  33  34
ATOM     34  C   UNL A   1      38.460  20.052  25.772  1.00  0.00     0.202 C 
BRANCH  34  35
ATOM     35  C   UNL A   1      39.689  19.128  25.795  1.00  0.00     0.261 C 
BRANCH  35  36
ATOM     36  O   UNL A   1      40.965  19.799  25.722  1.00  0.00    -0.460 OA
BRANCH  36  37
ATOM     37  C   UNL A   1      41.543  20.060  26.924  1.00  0.00     0.338 C 
ATOM     38  O   UNL A   1      42.149  19.271  27.628  1.00  0.00    -0.246 OA
BRANCH  37  39
ATOM     39  C   UNL A   1      41.450  21.502  27.258  1.00  0.00     0.060 A 
ATOM     40  C   UNL A   1      41.018  22.390  26.261  1.00  0.00     0.016 A 
ATOM     41  C   UNL A   1      41.915  21.997  28.478  1.00  0.00     0.016 A 
ATOM     42  C   UNL A   1      41.086  23.773  26.466  1.00  0.00     0.010 A 
ATOM     43  C   UNL A   1      41.997  23.384  28.674  1.00  0.00     0.010 A 
ATOM     44  C   UNL A   1      41.616  24.282  27.658  1.00  0.00    -0.014 A 
BRANCH  44  45
ATOM     45  C   UNL A   1      41.946  25.729  27.794  1.00  0.00     0.031 A 
ATOM     46  C   UNL A   1      43.278  26.220  27.290  1.00  0.00     0.074 A 
ATOM     47  C   UNL A   1      41.111  26.598  28.393  1.00  0.00     0.049 A 
ATOM     48  N   UNL A   1      43.834  27.396  27.422  1.00  0.00    -0.248 NA
ATOM     49  C   UNL A   1      44.092  25.249  26.541  1.00  0.00     0.031 C 
ATOM     50  C   UNL A   1      39.781  26.278  28.899  1.00  0.00     0.029 A 
ATOM     51  N   UNL A   1      41.280  27.927  28.710  1.00  0.00    -0.354 N 
ATOM     52  C   UNL A   1      45.078  27.299  26.811  1.00  0.00     0.074 A 
ATOM     53  C   UNL A   1      45.192  25.949  26.301  1.00  0.00     0.031 C 
ATOM     54  C   UNL A   1      39.266  27.367  29.497  1.00  0.00     0.029 A 
ATOM     55  C   UNL A   1      40.249  28.450  29.456  1.00  0.00     0.049 A 
ATOM     56  H   UNL A   1      42.064  28.452  28.430  1.00  0.00     0.167 HD
ATOM     57  C   UNL A   1      46.042  28.243  26.682  1.00  0.00     0.034 A 
ATOM     58  C   UNL A   1      40.128  29.645  30.071  1.00  0.00     0.034 A 
ATOM     59  C   UNL A   1      45.939  29.587  27.182  1.00  0.00     0.049 A 
ATOM     60  C   UNL A   1      41.242  30.660  29.969  1.00  0.00     0.074 A 
ATOM     61  C   UNL A   1      46.858  30.617  27.071  1.00  0.00     0.029 A 
ATOM     62  N   UNL A   1      44.866  30.087  27.902  1.00  0.00    -0.354 N 
ATOM     63  N   UNL A   1      42.372  30.584  29.311  1.00  0.00    -0.248 NA
ATOM     64  C   UNL A   1      41.052  31.937  30.679  1.00  0.00     0.031 C 
ATOM     65  C   UNL A   1      46.357  31.728  27.757  1.00  0.00     0.029 A 
ATOM     66  C   UNL A   1      45.106  31.403  28.255  1.00  0.00     0.049 A 
ATOM     67  H   UNL A   1      44.054  29.580  28.129  1.00  0.00     0.167 HD
ATOM     68  C   UNL A   1      43.002  31.814  29.487  1.00  0.00     0.074 A 
ATOM     69  C   UNL A   1      42.127  32.620  30.308  1.00  0.00     0.031 C 
ATOM     70  C   UNL A   1      44.203  32.230  29.015  1.00  0.00     0.034 A 
BRANCH  57  71
ATOM     71  C   UNL A   1      47.307  27.851  25.967  1.00  0.00     0.023 A 
ATOM     72  C   UNL A   1      48.401  27.350  26.700  1.00  0.00     0.012 A 
ATOM     73  C   UNL A   1      47.394  27.935  24.563  1.00  0.00     0.148 A 
ATOM     74  C   UNL A   1      49.575  26.972  26.052  1.00  0.00     0.002 A 
ATOM     75  C   UNL A   1      48.551  27.514  23.920  1.00  0.00     0.091 A 
ATOM     76  F   UNL A   1      46.350  28.432  23.886  1.00  0.00    -0.205 F 
ATOM     77  C   UNL A   1      49.647  27.045  24.663  1.00  0.00     0.022 A 
BRANCH  75  78
ATOM     78  S   UNL A   1      48.710  27.495  22.132  1.00  0.00     0.127 S 
ATOM     79  O   UNL A   1      49.956  28.235  21.938  1.00  0.00    -0.237 OA
ATOM     80  O   UNL A   1      48.802  26.063  21.845  1.00  0.00    -0.237 OA
ATOM     81  O   UNL A   1      47.512  28.141  21.614  1.00  0.00    -0.744 OA
ENDBRANCH  75  78
ENDBRANCH  57  71
BRANCH  58  82
ATOM     82  C   UNL A   1      38.897  29.967  30.852  1.00  0.00     0.023 A 
ATOM     83  C   UNL A   1      38.727  29.422  32.140  1.00  0.00     0.012 A 
ATOM     84  C   UNL A   1      37.889  30.795  30.320  1.00  0.00     0.148 A 
ATOM     85  C   UNL A   1      37.563  29.667  32.868  1.00  0.00     0.002 A 
ATOM     86  C   UNL A   1      36.758  31.080  31.073  1.00  0.00     0.091 A 
ATOM     87  F   UNL A   1      38.060  31.288  29.085  1.00  0.00    -0.205 F 
ATOM     88  C   UNL A   1      36.582  30.503  32.340  1.00  0.00     0.022 A 
BRANCH  86  89
ATOM     89  S   UNL A   1      35.499  32.239  30.525  1.00  0.00     0.127 S 
ATOM     90  O   UNL A   1      36.259  33.481  30.422  1.00  0.00    -0.237 OA
ATOM     91  O   UNL A   1      35.091  31.655  29.248  1.00  0.00    -0.237 OA
ATOM     92  O   UNL A   1      34.467  32.215  31.554  1.00  0.00    -0.744 OA
ENDBRANCH  86  89
ENDBRANCH  58  82
BRANCH  70  93
ATOM     93  C   UNL A   1      44.638  33.647  29.300  1.00  0.00     0.023 A 
ATOM     94  C   UNL A   1      45.397  33.939  30.450  1.00  0.00     0.012 A 
ATOM     95  C   UNL A   1      44.387  34.670  28.362  1.00  0.00     0.148 A 
ATOM     96  C   UNL A   1      45.883  35.229  30.670  1.00  0.00     0.002 A 
ATOM     97  C   UNL A   1      44.915  35.939  28.562  1.00  0.00     0.091 A 
ATOM     98  F   UNL A   1      43.649  34.376  27.281  1.00  0.00    -0.205 F 
ATOM     99  C   UNL A   1      45.655  36.224  29.721  1.00  0.00     0.022 A 
BRANCH  97 100
ATOM    100  S   UNL A   1      44.762  37.255  27.348  1.00  0.00     0.127 S 
ATOM    101  O   UNL A   1      45.132  38.431  28.134  1.00  0.00    -0.237 OA
ATOM    102  O   UNL A   1      45.746  36.862  26.339  1.00  0.00    -0.237 OA
ATOM    103  O   UNL A   1      43.379  37.223  26.891  1.00  0.00    -0.744 OA
ENDBRANCH  97 100
ENDBRANCH  70  93
ENDBRANCH  44  45
ENDBRANCH  37  39
ENDBRANCH  36  37
ENDBRANCH  35  36
ENDBRANCH  34  35
ENDBRANCH  33  34
ENDBRANCH  32  33
ENDBRANCH   1  32
TORSDOF 23
ENDMDL
MODEL 3
REMARK VINA RESULT:     -11.4      5.148     11.024
REMARK SMILES C[N@H+]1CC[C@H]2CN(C(=O)c3csc(-c4ccncc4)n3)C[C@@]2(C(=O)OCCOCCOCCOC(=O)c2ccc(-c3c4nc(c(-c5cccc(S(=O)(=O)[O-])c5F)c5ccc([nH]5)c(-c5cccc(S(=O)(=O)[O-])c5F)c5nc(c(-c6cccc(S(=O)(=O)[O-])c6F)c6ccc3[nH]6)C=C5)C=C4)cc2)C1
REMARK SMILES IDX 29 1 28 2 27 3 26 4 25 5 23 6 24 7 22 8 1 9 2 10 3 11 100 12
REMARK SMILES IDX 4 14 5 15 21 16 6 17 7 18 8 19 9 20 10 21 11 22 20 23 12 24
REMARK SMILES IDX 13 25 14 26 15 27 19 28 16 29 18 30 17 31 30 32 31 33 32 34
REMARK SMILES IDX 33 35 34 36 35 37 36 38 37 39 38 40 99 41 39 42 98 43 40 44
REMARK SMILES IDX 41 45 42 46 92 47 43 48 97 49 91 50 93 51 44 52 96 53 90 54
REMARK SMILES IDX 89 55 45 57 77 58 57 59 76 60 58 61 61 62 75 63 94 64 59 65
REMARK SMILES IDX 60 66 74 68 95 69 62 70 46 71 47 72 55 73 48 74 50 75 56 76
REMARK SMILES IDX 49 77 51 78 52 79 53 80 54 81 78 82 79 83 87 84 80 85 82 86
REMARK SMILES IDX 88 87 81 88 83 89 84 90 85 91 86 92 63 93 64 94 72 95 65 96
REMARK SMILES IDX 67 97 73 98 66 99 68 100 69 101 70 102 71 103
REMARK H PARENT 2 13 93 56 61 67
REMARK Flexibility Score: inf
ROOT
ATOM      1  C   UNL A   1      35.772  22.125  25.397  1.00  0.00     0.188 C 
ENDROOT
BRANCH   1   2
ATOM      2  O   UNL A   1      35.160  23.305  24.863  1.00  0.00    -0.376 OA
BRANCH   2   3
ATOM      3  C   UNL A   1      35.041  24.391  25.790  1.00  0.00     0.202 C 
BRANCH   3   4
ATOM      4  C   UNL A   1      33.826  25.293  25.468  1.00  0.00     0.261 C 
BRANCH   4   5
ATOM      5  O   UNL A   1      32.719  24.974  26.336  1.00  0.00    -0.463 OA
BRANCH   5   6
ATOM      6  C   UNL A   1      32.274  23.682  26.597  1.00  0.00     0.320 C 
ATOM      7  O   UNL A   1      32.457  23.073  27.632  1.00  0.00    -0.251 OA
BRANCH   6   8
ATOM      8  C   UNL A   1      31.432  23.278  25.355  1.00  0.00     0.139 C 
ATOM      9  C   UNL A   1      33.000  19.882  25.650  1.00  0.00     0.332 C 
ATOM     10  N   UNL A   1      32.567  21.118  25.016  1.00  0.00    -0.336 N 
ATOM     11  C   UNL A   1      32.503  20.998  23.569  1.00  0.00     0.262 C 
ATOM     12  C   UNL A   1      31.358  21.741  25.583  1.00  0.00     0.283 C 
ATOM     13  H   UNL A   1      33.308  21.783  25.244  1.00  0.00     0.347 HD
ATOM     14  C   UNL A   1      31.685  22.145  23.006  1.00  0.00     0.068 C 
ATOM     15  C   UNL A   1      31.807  23.451  23.834  1.00  0.00     0.039 C 
ATOM     16  C   UNL A   1      30.221  24.250  25.515  1.00  0.00     0.145 C 
ATOM     17  C   UNL A   1      30.748  24.369  23.224  1.00  0.00     0.125 C 
ATOM     18  N   UNL A   1      30.256  25.108  24.332  1.00  0.00    -0.336 N 
BRANCH  18  19
ATOM     19  C   UNL A   1      29.836  26.406  24.126  1.00  0.00     0.273 C 
ATOM     20  O   UNL A   1      28.669  26.656  23.817  1.00  0.00    -0.267 OA
BRANCH  19  21
ATOM     21  C   UNL A   1      30.828  27.482  24.158  1.00  0.00     0.139 A 
ATOM     22  C   UNL A   1      31.470  27.927  23.015  1.00  0.00     0.101 A 
ATOM     23  N   UNL A   1      31.355  27.991  25.347  1.00  0.00    -0.231 NA
ATOM     24  S   UNL A   1      32.733  29.005  23.417  1.00  0.00    -0.122 S 
ATOM     25  C   UNL A   1      32.388  28.765  25.086  1.00  0.00     0.124 A 
BRANCH  25  26
ATOM     26  C   UNL A   1      33.257  29.382  26.085  1.00  0.00     0.013 A 
ATOM     27  C   UNL A   1      32.890  30.584  26.696  1.00  0.00     0.031 A 
ATOM     28  C   UNL A   1      34.464  28.781  26.443  1.00  0.00     0.031 A 
ATOM     29  C   UNL A   1      33.738  31.119  27.651  1.00  0.00     0.111 A 
ATOM     30  C   UNL A   1      35.245  29.399  27.404  1.00  0.00     0.111 A 
ATOM     31  N   UNL A   1      34.903  30.546  28.027  1.00  0.00    -0.265 NA
ENDBRANCH  25  26
ENDBRANCH  19  21
ENDBRANCH  18  19
ENDBRANCH   6   8
ENDBRANCH   5   6
ENDBRANCH   4   5
ENDBRANCH   3   4
ENDBRANCH   2   3
ENDBRANCH   1   2
BRANCH   1  32
ATOM     32  C   UNL A   1      36.834  21.625  24.404  1.00  0.00     0.188 C 
BRANCH  32  33
ATOM     33  O   UNL A   1      38.072  21.160  24.944  1.00  0.00    -0.376 OA
BRANCH  33  34
ATOM     34  C   UNL A   1      38.243  19.751  25.007  1.00  0.00     0.202 C 
BRANCH  34  35
ATOM     35  C   UNL A   1      39.515  19.252  25.713  1.00  0.00     0.261 C 
BRANCH  35  36
ATOM     36  O   UNL A   1      40.578  20.222  25.823  1.00  0.00    -0.460 OA
BRANCH  36  37
ATOM     37  C   UNL A   1      41.092  20.367  27.073  1.00  0.00     0.338 C 
ATOM     38  O   UNL A   1      41.547  19.484  27.780  1.00  0.00    -0.246 OA
BRANCH  37  39
ATOM     39  C   UNL A   1      41.147  21.796  27.465  1.00  0.00     0.060 A 
ATOM     40  C   UNL A   1      40.528  22.739  26.631  1.00  0.00     0.016 A 
ATOM     41  C   UNL A   1      41.912  22.223  28.551  1.00  0.00     0.016 A 
ATOM     42  C   UNL A   1      40.704  24.109  26.857  1.00  0.00     0.010 A 
ATOM     43  C   UNL A   1      42.101  23.596  28.766  1.00  0.00     0.010 A 
ATOM     44  C   UNL A   1      41.527  24.549  27.901  1.00  0.00    -0.014 A 
BRANCH  44  45
ATOM     45  C   UNL A   1      41.945  25.977  27.998  1.00  0.00     0.031 A 
ATOM     46  C   UNL A   1      43.303  26.372  27.483  1.00  0.00     0.074 A 
ATOM     47  C   UNL A   1      41.164  26.910  28.574  1.00  0.00     0.049 A 
ATOM     48  N   UNL A   1      43.929  27.516  27.584  1.00  0.00    -0.248 NA
ATOM     49  C   UNL A   1      44.057  25.335  26.760  1.00  0.00     0.031 C 
ATOM     50  C   UNL A   1      39.818  26.684  29.086  1.00  0.00     0.029 A 
ATOM     51  N   UNL A   1      41.413  28.234  28.855  1.00  0.00    -0.354 N 
ATOM     52  C   UNL A   1      45.165  27.328  26.977  1.00  0.00     0.074 A 
ATOM     53  C   UNL A   1      45.197  25.961  26.503  1.00  0.00     0.031 C 
ATOM     54  C   UNL A   1      39.369  27.818  29.655  1.00  0.00     0.029 A 
ATOM     55  C   UNL A   1      40.416  28.838  29.586  1.00  0.00     0.049 A 
ATOM     56  H   UNL A   1      42.227  28.704  28.562  1.00  0.00     0.167 HD
ATOM     57  C   UNL A   1      46.183  28.208  26.823  1.00  0.00     0.034 A 
ATOM     58  C   UNL A   1      40.368  30.054  30.170  1.00  0.00     0.034 A 
ATOM     59  C   UNL A   1      46.162  29.569  27.287  1.00  0.00     0.049 A 
ATOM     60  C   UNL A   1      41.541  30.997  30.041  1.00  0.00     0.074 A 
ATOM     61  C   UNL A   1      47.142  30.538  27.150  1.00  0.00     0.029 A 
ATOM     62  N   UNL A   1      45.122  30.151  27.994  1.00  0.00    -0.354 N 
ATOM     63  N   UNL A   1      42.664  30.836  29.386  1.00  0.00    -0.248 NA
ATOM     64  C   UNL A   1      41.429  32.302  30.717  1.00  0.00     0.031 C 
ATOM     65  C   UNL A   1      46.710  31.695  27.806  1.00  0.00     0.029 A 
ATOM     66  C   UNL A   1      45.441  31.460  28.312  1.00  0.00     0.049 A 
ATOM     67  H   UNL A   1      44.281  29.701  28.233  1.00  0.00     0.167 HD
ATOM     68  C   UNL A   1      43.368  32.029  29.530  1.00  0.00     0.074 A 
ATOM     69  C   UNL A   1      42.543  32.908  30.329  1.00  0.00     0.031 C 
ATOM     70  C   UNL A   1      44.591  32.360  29.049  1.00  0.00     0.034 A 
BRANCH  57  71
ATOM     71  C   UNL A   1      47.422  27.722  26.120  1.00  0.00     0.023 A 
ATOM     72  C   UNL A   1      48.436  27.074  26.853  1.00  0.00     0.012 A 
ATOM     73  C   UNL A   1      47.559  27.865  24.725  1.00  0.00     0.148 A 
ATOM     74  C   UNL A   1      49.584  26.608  26.214  1.00  0.00     0.002 A 
ATOM     75  C   UNL A   1      48.685  27.357  24.089  1.00  0.00     0.091 A 
ATOM     76  F   UNL A   1      46.592  28.501  24.049  1.00  0.00    -0.205 F 
ATOM     77  C   UNL A   1      49.704  26.741  24.833  1.00  0.00     0.022 A 
BRANCH  75  78
ATOM     78  S   UNL A   1      48.894  27.409  22.307  1.00  0.00     0.127 S 
ATOM     79  O   UNL A   1      50.334  27.633  22.185  1.00  0.00    -0.237 OA
ATOM     80  O   UNL A   1      48.449  26.075  21.904  1.00  0.00    -0.237 OA
ATOM     81  O   UNL A   1      48.050  28.498  21.834  1.00  0.00    -0.744 OA
ENDBRANCH  75  78
ENDBRANCH  57  71
BRANCH  58  82
ATOM     82  C   UNL A   1      39.159  30.470  30.940  1.00  0.00     0.023 A 
ATOM     83  C   UNL A   1      38.925  29.921  32.216  1.00  0.00     0.012 A 
ATOM     84  C   UNL A   1      38.235  31.392  30.410  1.00  0.00     0.148 A 
ATOM     85  C   UNL A   1      37.777  30.257  32.935  1.00  0.00     0.002 A 
ATOM     86  C   UNL A   1      37.123  31.764  31.155  1.00  0.00     0.091 A 
ATOM     87  F   UNL A   1      38.466  31.889  29.186  1.00  0.00    -0.205 F 
ATOM     88  C   UNL A   1      36.880  31.183  32.409  1.00  0.00     0.022 A 
BRANCH  86  89
ATOM     89  S   UNL A   1      35.978  33.037  30.611  1.00  0.00     0.127 S 
ATOM     90  O   UNL A   1      36.354  33.200  29.210  1.00  0.00    -0.237 OA
ATOM     91  O   UNL A   1      34.685  32.391  30.834  1.00  0.00    -0.237 OA
ATOM     92  O   UNL A   1      36.232  34.187  31.469  1.00  0.00    -0.744 OA
ENDBRANCH  86  89
ENDBRANCH  58  82
BRANCH  70  93
ATOM     93  C   UNL A   1      45.110  33.755  29.296  1.00  0.00     0.023 A 
ATOM     94  C   UNL A   1      45.879  34.033  30.444  1.00  0.00     0.012 A 
ATOM     95  C   UNL A   1      44.930  34.763  28.327  1.00  0.00     0.148 A 
ATOM     96  C   UNL A   1      46.442  35.297  30.630  1.00  0.00     0.002 A 
ATOM     97  C   UNL A   1      45.534  36.003  28.495  1.00  0.00     0.091 A 
ATOM     98  F   UNL A   1      44.181  34.484  27.249  1.00  0.00    -0.205 F 
ATOM     99  C   UNL A   1      46.282  36.276  29.651  1.00  0.00     0.022 A 
BRANCH  97 100
ATOM    100  S   UNL A   1      45.470  37.289  27.242  1.00  0.00     0.127 S 
ATOM    101  O   UNL A   1      44.057  37.266  26.863  1.00  0.00    -0.237 OA
ATOM    102  O   UNL A   1      45.879  38.475  27.994  1.00  0.00    -0.237 OA
ATOM    103  O   UNL A   1      46.400  36.883  26.197  1.00  0.00    -0.744 OA
ENDBRANCH  97 100
ENDBRANCH  70  93
ENDBRANCH  44  45
ENDBRANCH  37  39
ENDBRANCH  36  37
ENDBRANCH  35  36
ENDBRANCH  34  35
ENDBRANCH  33  34
ENDBRANCH  32  33
ENDBRANCH   1  32
TORSDOF 23
ENDMDL
