MODEL 1
REMARK VINA RESULT:      -8.9      0.000      0.000
REMARK SMILES CCC[NH2+][C@@H]1COC[C@@H]1C(=O)N[C@@](C)(CC)C(=O)OCCOCCOCCOC(=O)c1ccc(-c2c3nc(c(-c4cccc(S(=O)(=O)[O-])c4F)c4ccc([nH]4)c(-c4cccc(S(=O)(=O)[O-])c4F)c4nc(c(-c5cccc(S(=O)(=O)[O-])c5F)c5ccc2[nH]5)C=C4)C=C3)cc1
REMARK SMILES IDX 23 1 22 2 21 3 20 4 19 5 17 6 18 7 13 8 14 9 12 10 10 11
REMARK SMILES IDX 11 12 9 14 5 15 6 16 7 17 8 18 4 19 3 22 2 23 1 24 15 25
REMARK SMILES IDX 16 26 24 27 25 28 26 29 27 30 28 31 29 32 30 33 31 34 32 35
REMARK SMILES IDX 93 36 33 37 92 38 34 39 35 40 36 41 86 42 37 43 91 44 85 45
REMARK SMILES IDX 87 46 38 47 90 48 84 49 83 50 39 52 71 53 51 54 70 55 52 56
REMARK SMILES IDX 55 57 69 58 88 59 53 60 54 61 68 63 89 64 56 65 40 66 41 67
REMARK SMILES IDX 49 68 42 69 44 70 50 71 43 72 45 73 46 74 47 75 48 76 72 77
REMARK SMILES IDX 73 78 81 79 74 80 76 81 82 82 75 83 77 84 78 85 79 86 80 87
REMARK SMILES IDX 57 88 58 89 66 90 59 91 61 92 67 93 60 94 62 95 63 96 64 97
REMARK SMILES IDX 65 98
REMARK H PARENT 12 13 4 20 4 21 87 51 55 62
REMARK Flexibility Score: inf
ROOT
ATOM      1  C   UNL A   1      30.584  29.397  23.101  1.00  0.00     0.188 C 
ENDROOT
BRANCH   1   2
ATOM      2  O   UNL A   1      29.984  28.199  22.623  1.00  0.00    -0.376 OA
BRANCH   2   3
ATOM      3  C   UNL A   1      28.881  27.737  23.388  1.00  0.00     0.202 C 
BRANCH   3   4
ATOM      4  C   UNL A   1      29.126  26.385  24.068  1.00  0.00     0.261 C 
BRANCH   4   5
ATOM      5  O   UNL A   1      30.120  25.570  23.408  1.00  0.00    -0.462 OA
BRANCH   5   6
ATOM      6  C   UNL A   1      31.347  25.450  23.975  1.00  0.00     0.331 C 
ATOM      7  O   UNL A   1      31.525  25.584  25.179  1.00  0.00    -0.249 OA
BRANCH   6   8
ATOM      8  C   UNL A   1      32.467  25.055  22.936  1.00  0.00     0.135 C 
ATOM      9  C   UNL A   1      33.764  25.251  23.773  1.00  0.00     0.047 C 
BRANCH   8  10
ATOM     10  N   UNL A   1      32.527  23.641  22.469  1.00  0.00    -0.340 N 
ATOM     11  C   UNL A   1      32.557  22.402  23.029  1.00  0.00     0.232 C 
ATOM     12  O   UNL A   1      32.418  21.463  22.241  1.00  0.00    -0.274 OA
ATOM     13  H   UNL A   1      32.550  23.590  21.486  1.00  0.00     0.164 HD
BRANCH  11  14
ATOM     14  C   UNL A   1      32.757  22.174  24.512  1.00  0.00     0.164 C 
ATOM     15  C   UNL A   1      33.981  21.373  24.938  1.00  0.00     0.223 C 
ATOM     16  C   UNL A   1      33.475  19.937  25.057  1.00  0.00     0.225 C 
ATOM     17  O   UNL A   1      32.080  20.023  25.366  1.00  0.00    -0.374 OA
ATOM     18  C   UNL A   1      31.618  21.348  25.101  1.00  0.00     0.180 C 
BRANCH  15  19
ATOM     19  N   UNL A   1      35.249  21.655  24.263  1.00  0.00    -0.341 N 
ATOM     20  H   UNL A   1      35.428  20.903  23.599  1.00  0.00     0.346 HD
ATOM     21  H   UNL A   1      35.138  22.570  23.824  1.00  0.00     0.346 HD
BRANCH  19  22
ATOM     22  C   UNL A   1      36.411  21.768  25.144  1.00  0.00     0.260 C 
BRANCH  22  23
ATOM     23  C   UNL A   1      36.405  23.125  25.853  1.00  0.00     0.058 C 
ATOM     24  C   UNL A   1      37.761  23.817  25.851  1.00  0.00     0.010 C 
ENDBRANCH  22  23
ENDBRANCH  19  22
ENDBRANCH  15  19
ENDBRANCH  11  14
ENDBRANCH   8  10
BRANCH   8  25
ATOM     25  C   UNL A   1      32.632  26.062  21.728  1.00  0.00     0.037 C 
ATOM     26  C   UNL A   1      32.629  25.530  20.287  1.00  0.00     0.007 C 
ENDBRANCH   8  25
ENDBRANCH   6   8
ENDBRANCH   5   6
ENDBRANCH   4   5
ENDBRANCH   3   4
ENDBRANCH   2   3
ENDBRANCH   1   2
BRANCH   1  27
ATOM     27  C   UNL A   1      31.698  29.121  24.109  1.00  0.00     0.188 C 
BRANCH  27  28
ATOM     28  O   UNL A   1      31.489  29.405  25.484  1.00  0.00    -0.376 OA
BRANCH  28  29
ATOM     29  C   UNL A   1      31.801  30.710  25.932  1.00  0.00     0.202 C 
BRANCH  29  30
ATOM     30  C   UNL A   1      32.629  30.815  27.218  1.00  0.00     0.261 C 
BRANCH  30  31
ATOM     31  O   UNL A   1      34.051  30.646  27.062  1.00  0.00    -0.460 OA
BRANCH  31  32
ATOM     32  C   UNL A   1      34.542  29.450  27.459  1.00  0.00     0.338 C 
ATOM     33  O   UNL A   1      34.016  28.348  27.272  1.00  0.00    -0.246 OA
BRANCH  32  34
ATOM     34  C   UNL A   1      35.893  29.588  28.046  1.00  0.00     0.060 A 
ATOM     35  C   UNL A   1      36.957  29.951  27.208  1.00  0.00     0.016 A 
ATOM     36  C   UNL A   1      36.142  29.265  29.382  1.00  0.00     0.016 A 
ATOM     37  C   UNL A   1      38.273  29.943  27.683  1.00  0.00     0.010 A 
ATOM     38  C   UNL A   1      37.464  29.236  29.851  1.00  0.00     0.010 A 
ATOM     39  C   UNL A   1      38.543  29.534  28.995  1.00  0.00    -0.014 A 
BRANCH  39  40
ATOM     40  C   UNL A   1      39.940  29.236  29.423  1.00  0.00     0.031 A 
ATOM     41  C   UNL A   1      40.663  28.078  28.787  1.00  0.00     0.074 A 
ATOM     42  C   UNL A   1      40.566  29.951  30.377  1.00  0.00     0.049 A 
ATOM     43  N   UNL A   1      41.845  27.588  29.055  1.00  0.00    -0.248 NA
ATOM     44  C   UNL A   1      39.957  27.382  27.698  1.00  0.00     0.031 C 
ATOM     45  C   UNL A   1      40.011  31.115  31.051  1.00  0.00     0.029 A 
ATOM     46  N   UNL A   1      41.796  29.778  30.968  1.00  0.00    -0.354 N 
ATOM     47  C   UNL A   1      42.015  26.512  28.194  1.00  0.00     0.074 A 
ATOM     48  C   UNL A   1      40.810  26.413  27.398  1.00  0.00     0.031 C 
ATOM     49  C   UNL A   1      40.865  31.525  32.002  1.00  0.00     0.029 A 
ATOM     50  C   UNL A   1      42.027  30.642  32.015  1.00  0.00     0.049 A 
ATOM     51  H   UNL A   1      42.448  29.102  30.671  1.00  0.00     0.167 HD
ATOM     52  C   UNL A   1      43.082  25.688  28.062  1.00  0.00     0.034 A 
ATOM     53  C   UNL A   1      43.046  30.704  32.898  1.00  0.00     0.034 A 
ATOM     54  C   UNL A   1      44.290  25.790  28.837  1.00  0.00     0.049 A 
ATOM     55  C   UNL A   1      44.200  29.747  32.763  1.00  0.00     0.074 A 
ATOM     56  C   UNL A   1      45.439  25.024  28.740  1.00  0.00     0.029 A 
ATOM     57  N   UNL A   1      44.503  26.700  29.861  1.00  0.00    -0.354 N 
ATOM     58  N   UNL A   1      44.397  28.809  31.867  1.00  0.00    -0.248 NA
ATOM     59  C   UNL A   1      45.295  29.880  33.737  1.00  0.00     0.031 C 
ATOM     60  C   UNL A   1      46.334  25.450  29.726  1.00  0.00     0.029 A 
ATOM     61  C   UNL A   1      45.757  26.504  30.415  1.00  0.00     0.049 A 
ATOM     62  H   UNL A   1      43.857  27.384  30.151  1.00  0.00     0.167 HD
ATOM     63  C   UNL A   1      45.651  28.274  32.140  1.00  0.00     0.074 A 
ATOM     64  C   UNL A   1      46.176  29.001  33.277  1.00  0.00     0.031 C 
ATOM     65  C   UNL A   1      46.303  27.265  31.511  1.00  0.00     0.034 A 
BRANCH  52  66
ATOM     66  C   UNL A   1      42.998  24.604  27.021  1.00  0.00     0.023 A 
ATOM     67  C   UNL A   1      43.667  24.765  25.790  1.00  0.00     0.012 A 
ATOM     68  C   UNL A   1      42.300  23.408  27.278  1.00  0.00     0.148 A 
ATOM     69  C   UNL A   1      43.616  23.765  24.820  1.00  0.00     0.002 A 
ATOM     70  C   UNL A   1      42.291  22.398  26.324  1.00  0.00     0.091 A 
ATOM     71  F   UNL A   1      41.653  23.285  28.446  1.00  0.00    -0.205 F 
ATOM     72  C   UNL A   1      42.937  22.579  25.091  1.00  0.00     0.022 A 
BRANCH  70  73
ATOM     73  S   UNL A   1      41.510  20.806  26.608  1.00  0.00     0.127 S 
ATOM     74  O   UNL A   1      42.036  20.018  25.495  1.00  0.00    -0.237 OA
ATOM     75  O   UNL A   1      42.038  20.435  27.921  1.00  0.00    -0.237 OA
ATOM     76  O   UNL A   1      40.075  21.050  26.578  1.00  0.00    -0.744 OA
ENDBRANCH  70  73
ENDBRANCH  52  66
BRANCH  53  77
ATOM     77  C   UNL A   1      43.045  31.742  33.970  1.00  0.00     0.023 A 
ATOM     78  C   UNL A   1      43.662  32.985  33.730  1.00  0.00     0.012 A 
ATOM     79  C   UNL A   1      42.438  31.509  35.222  1.00  0.00     0.148 A 
ATOM     80  C   UNL A   1      43.711  33.962  34.725  1.00  0.00     0.002 A 
ATOM     81  C   UNL A   1      42.441  32.507  36.190  1.00  0.00     0.091 A 
ATOM     82  F   UNL A   1      41.870  30.315  35.438  1.00  0.00    -0.205 F 
ATOM     83  C   UNL A   1      43.094  33.727  35.951  1.00  0.00     0.022 A 
BRANCH  81  84
ATOM     84  S   UNL A   1      41.574  32.348  37.754  1.00  0.00     0.127 S 
ATOM     85  O   UNL A   1      41.495  33.738  38.197  1.00  0.00    -0.237 OA
ATOM     86  O   UNL A   1      40.299  31.763  37.331  1.00  0.00    -0.237 OA
ATOM     87  O   UNL A   1      42.393  31.472  38.579  1.00  0.00    -0.744 OA
ENDBRANCH  81  84
ENDBRANCH  53  77
BRANCH  65  88
ATOM     88  C   UNL A   1      47.682  26.902  31.999  1.00  0.00     0.023 A 
ATOM     89  C   UNL A   1      47.839  25.918  32.995  1.00  0.00     0.012 A 
ATOM     90  C   UNL A   1      48.827  27.482  31.416  1.00  0.00     0.148 A 
ATOM     91  C   UNL A   1      49.111  25.541  33.427  1.00  0.00     0.002 A 
ATOM     92  C   UNL A   1      50.092  27.065  31.815  1.00  0.00     0.091 A 
ATOM     93  F   UNL A   1      48.659  28.429  30.482  1.00  0.00    -0.205 F 
ATOM     94  C   UNL A   1      50.236  26.104  32.828  1.00  0.00     0.022 A 
BRANCH  92  95
ATOM     95  S   UNL A   1      51.596  27.664  31.034  1.00  0.00     0.127 S 
ATOM     96  O   UNL A   1      52.620  27.215  31.976  1.00  0.00    -0.237 OA
ATOM     97  O   UNL A   1      51.589  26.949  29.756  1.00  0.00    -0.237 OA
ATOM     98  O   UNL A   1      51.442  29.108  30.918  1.00  0.00    -0.744 OA
ENDBRANCH  92  95
ENDBRANCH  65  88
ENDBRANCH  39  40
ENDBRANCH  32  34
ENDBRANCH  31  32
ENDBRANCH  30  31
ENDBRANCH  29  30
ENDBRANCH  28  29
ENDBRANCH  27  28
ENDBRANCH   1  27
TORSDOF 26
ENDMDL
MODEL 2
REMARK VINA RESULT:      -8.6      1.637      7.483
REMARK SMILES CCC[NH2+][C@@H]1COC[C@@H]1C(=O)N[C@@](C)(CC)C(=O)OCCOCCOCCOC(=O)c1ccc(-c2c3nc(c(-c4cccc(S(=O)(=O)[O-])c4F)c4ccc([nH]4)c(-c4cccc(S(=O)(=O)[O-])c4F)c4nc(c(-c5cccc(S(=O)(=O)[O-])c5F)c5ccc2[nH]5)C=C4)C=C3)cc1
REMARK SMILES IDX 23 1 22 2 21 3 20 4 19 5 17 6 18 7 13 8 14 9 12 10 10 11
REMARK SMILES IDX 11 12 9 14 5 15 6 16 7 17 8 18 4 19 3 22 2 23 1 24 15 25
REMARK SMILES IDX 16 26 24 27 25 28 26 29 27 30 28 31 29 32 30 33 31 34 32 35
REMARK SMILES IDX 93 36 33 37 92 38 34 39 35 40 36 41 86 42 37 43 91 44 85 45
REMARK SMILES IDX 87 46 38 47 90 48 84 49 83 50 39 52 71 53 51 54 70 55 52 56
REMARK SMILES IDX 55 57 69 58 88 59 53 60 54 61 68 63 89 64 56 65 40 66 41 67
REMARK SMILES IDX 49 68 42 69 44 70 50 71 43 72 45 73 46 74 47 75 48 76 72 77
REMARK SMILES IDX 73 78 81 79 74 80 76 81 82 82 75 83 77 84 78 85 79 86 80 87
REMARK SMILES IDX 57 88 58 89 66 90 59 91 61 92 67 93 60 94 62 95 63 96 64 97
REMARK SMILES IDX 65 98
REMARK H PARENT 12 13 4 20 4 21 87 51 55 62
REMARK Flexibility Score: inf
ROOT
ATOM      1  C   UNL A   1      30.378  29.302  22.963  1.00  0.00     0.188 C 
ENDROOT
BRANCH   1   2
ATOM      2  O   UNL A   1      29.894  28.024  22.567  1.00  0.00    -0.376 OA
BRANCH   2   3
ATOM      3  C   UNL A   1      28.885  27.482  23.407  1.00  0.00     0.202 C 
BRANCH   3   4
ATOM      4  C   UNL A   1      29.350  26.276  24.230  1.00  0.00     0.261 C 
BRANCH   4   5
ATOM      5  O   UNL A   1      30.334  25.456  23.561  1.00  0.00    -0.462 OA
BRANCH   5   6
ATOM      6  C   UNL A   1      31.603  25.436  24.042  1.00  0.00     0.331 C 
ATOM      7  O   UNL A   1      31.860  25.676  25.215  1.00  0.00    -0.249 OA
BRANCH   6   8
ATOM      8  C   UNL A   1      32.664  25.005  22.957  1.00  0.00     0.135 C 
ATOM      9  C   UNL A   1      33.999  25.132  23.746  1.00  0.00     0.047 C 
BRANCH   8  10
ATOM     10  N   UNL A   1      32.642  23.596  22.472  1.00  0.00    -0.340 N 
ATOM     11  C   UNL A   1      32.599  22.350  23.016  1.00  0.00     0.232 C 
ATOM     12  O   UNL A   1      32.407  21.431  22.216  1.00  0.00    -0.274 OA
ATOM     13  H   UNL A   1      32.664  23.556  21.488  1.00  0.00     0.164 HD
BRANCH  11  14
ATOM     14  C   UNL A   1      32.783  22.092  24.496  1.00  0.00     0.164 C 
ATOM     15  C   UNL A   1      34.044  21.354  24.926  1.00  0.00     0.223 C 
ATOM     16  C   UNL A   1      33.623  19.887  24.995  1.00  0.00     0.225 C 
ATOM     17  O   UNL A   1      32.219  19.881  25.276  1.00  0.00    -0.374 OA
ATOM     18  C   UNL A   1      31.684  21.183  25.037  1.00  0.00     0.180 C 
BRANCH  15  19
ATOM     19  N   UNL A   1      35.306  21.730  24.287  1.00  0.00    -0.341 N 
ATOM     20  H   UNL A   1      35.675  20.909  23.809  1.00  0.00     0.346 HD
ATOM     21  H   UNL A   1      35.085  22.503  23.658  1.00  0.00     0.346 HD
BRANCH  19  22
ATOM     22  C   UNL A   1      36.339  22.228  25.195  1.00  0.00     0.260 C 
BRANCH  22  23
ATOM     23  C   UNL A   1      37.609  21.382  25.062  1.00  0.00     0.058 C 
ATOM     24  C   UNL A   1      38.770  21.894  25.903  1.00  0.00     0.010 C 
ENDBRANCH  22  23
ENDBRANCH  19  22
ENDBRANCH  15  19
ENDBRANCH  11  14
ENDBRANCH   8  10
BRANCH   8  25
ATOM     25  C   UNL A   1      32.828  26.019  21.755  1.00  0.00     0.037 C 
ATOM     26  C   UNL A   1      32.479  25.571  20.327  1.00  0.00     0.007 C 
ENDBRANCH   8  25
ENDBRANCH   6   8
ENDBRANCH   5   6
ENDBRANCH   4   5
ENDBRANCH   3   4
ENDBRANCH   2   3
ENDBRANCH   1   2
BRANCH   1  27
ATOM     27  C   UNL A   1      31.625  29.200  23.839  1.00  0.00     0.188 C 
BRANCH  27  28
ATOM     28  O   UNL A   1      31.513  29.367  25.244  1.00  0.00    -0.376 OA
BRANCH  28  29
ATOM     29  C   UNL A   1      31.712  30.668  25.761  1.00  0.00     0.202 C 
BRANCH  29  30
ATOM     30  C   UNL A   1      32.367  30.766  27.144  1.00  0.00     0.261 C 
BRANCH  30  31
ATOM     31  O   UNL A   1      33.807  30.700  27.159  1.00  0.00    -0.460 OA
BRANCH  31  32
ATOM     32  C   UNL A   1      34.330  29.492  27.474  1.00  0.00     0.338 C 
ATOM     33  O   UNL A   1      33.804  28.394  27.266  1.00  0.00    -0.246 OA
BRANCH  32  34
ATOM     34  C   UNL A   1      35.710  29.619  27.989  1.00  0.00     0.060 A 
ATOM     35  C   UNL A   1      36.756  29.809  27.074  1.00  0.00     0.016 A 
ATOM     36  C   UNL A   1      35.999  29.450  29.346  1.00  0.00     0.016 A 
ATOM     37  C   UNL A   1      38.089  29.779  27.499  1.00  0.00     0.010 A 
ATOM     38  C   UNL A   1      37.337  29.398  29.766  1.00  0.00     0.010 A 
ATOM     39  C   UNL A   1      38.392  29.520  28.841  1.00  0.00    -0.014 A 
BRANCH  39  40
ATOM     40  C   UNL A   1      39.787  29.192  29.253  1.00  0.00     0.031 A 
ATOM     41  C   UNL A   1      40.628  30.267  29.889  1.00  0.00     0.074 A 
ATOM     42  C   UNL A   1      40.327  27.975  29.053  1.00  0.00     0.049 A 
ATOM     43  N   UNL A   1      41.883  30.234  30.253  1.00  0.00    -0.248 NA
ATOM     44  C   UNL A   1      39.960  31.553  30.152  1.00  0.00     0.031 C 
ATOM     45  C   UNL A   1      39.628  26.831  28.488  1.00  0.00     0.029 A 
ATOM     46  N   UNL A   1      41.603  27.511  29.272  1.00  0.00    -0.354 N 
ATOM     47  C   UNL A   1      42.166  31.495  30.760  1.00  0.00     0.074 A 
ATOM     48  C   UNL A   1      40.953  32.277  30.648  1.00  0.00     0.031 C 
ATOM     49  C   UNL A   1      40.489  25.810  28.349  1.00  0.00     0.029 A 
ATOM     50  C   UNL A   1      41.809  26.232  28.805  1.00  0.00     0.049 A 
ATOM     51  H   UNL A   1      42.302  28.041  29.720  1.00  0.00     0.167 HD
ATOM     52  C   UNL A   1      43.324  31.961  31.287  1.00  0.00     0.034 A 
ATOM     53  C   UNL A   1      42.934  25.491  28.731  1.00  0.00     0.034 A 
ATOM     54  C   UNL A   1      44.529  31.185  31.417  1.00  0.00     0.049 A 
ATOM     55  C   UNL A   1      44.222  26.046  29.279  1.00  0.00     0.074 A 
ATOM     56  C   UNL A   1      45.736  31.564  31.979  1.00  0.00     0.029 A 
ATOM     57  N   UNL A   1      44.689  29.884  30.968  1.00  0.00    -0.354 N 
ATOM     58  N   UNL A   1      44.444  27.200  29.862  1.00  0.00    -0.248 NA
ATOM     59  C   UNL A   1      45.411  25.183  29.197  1.00  0.00     0.031 C 
ATOM     60  C   UNL A   1      46.635  30.502  31.841  1.00  0.00     0.029 A 
ATOM     61  C   UNL A   1      45.979  29.449  31.225  1.00  0.00     0.049 A 
ATOM     62  H   UNL A   1      43.988  29.348  30.532  1.00  0.00     0.167 HD
ATOM     63  C   UNL A   1      45.778  27.183  30.254  1.00  0.00     0.074 A 
ATOM     64  C   UNL A   1      46.313  25.898  29.856  1.00  0.00     0.031 C 
ATOM     65  C   UNL A   1      46.495  28.149  30.878  1.00  0.00     0.034 A 
BRANCH  52  66
ATOM     66  C   UNL A   1      43.339  33.382  31.783  1.00  0.00     0.023 A 
ATOM     67  C   UNL A   1      43.761  34.417  30.923  1.00  0.00     0.012 A 
ATOM     68  C   UNL A   1      42.891  33.700  33.080  1.00  0.00     0.148 A 
ATOM     69  C   UNL A   1      43.766  35.742  31.356  1.00  0.00     0.002 A 
ATOM     70  C   UNL A   1      42.857  35.027  33.490  1.00  0.00     0.091 A 
ATOM     71  F   UNL A   1      42.515  32.698  33.889  1.00  0.00    -0.205 F 
ATOM     72  C   UNL A   1      43.305  36.047  32.635  1.00  0.00     0.022 A 
BRANCH  70  73
ATOM     73  S   UNL A   1      42.209  35.529  35.088  1.00  0.00     0.127 S 
ATOM     74  O   UNL A   1      40.959  34.775  35.149  1.00  0.00    -0.237 OA
ATOM     75  O   UNL A   1      43.251  35.060  36.003  1.00  0.00    -0.237 OA
ATOM     76  O   UNL A   1      42.064  36.977  35.026  1.00  0.00    -0.744 OA
ENDBRANCH  70  73
ENDBRANCH  52  66
BRANCH  53  77
ATOM     77  C   UNL A   1      42.890  24.116  28.151  1.00  0.00     0.023 A 
ATOM     78  C   UNL A   1      42.145  23.114  28.804  1.00  0.00     0.012 A 
ATOM     79  C   UNL A   1      43.575  23.796  26.961  1.00  0.00     0.148 A 
ATOM     80  C   UNL A   1      42.114  21.811  28.306  1.00  0.00     0.002 A 
ATOM     81  C   UNL A   1      43.495  22.509  26.440  1.00  0.00     0.091 A 
ATOM     82  F   UNL A   1      44.291  24.758  26.363  1.00  0.00    -0.205 F 
ATOM     83  C   UNL A   1      42.781  21.510  27.122  1.00  0.00     0.022 A 
BRANCH  81  84
ATOM     84  S   UNL A   1      44.218  22.051  24.861  1.00  0.00     0.127 S 
ATOM     85  O   UNL A   1      43.529  22.952  23.942  1.00  0.00    -0.237 OA
ATOM     86  O   UNL A   1      45.633  22.358  25.081  1.00  0.00    -0.237 OA
ATOM     87  O   UNL A   1      43.930  20.635  24.687  1.00  0.00    -0.744 OA
ENDBRANCH  81  84
ENDBRANCH  53  77
BRANCH  65  88
ATOM     88  C   UNL A   1      47.934  27.853  31.219  1.00  0.00     0.023 A 
ATOM     89  C   UNL A   1      48.253  27.232  32.443  1.00  0.00     0.012 A 
ATOM     90  C   UNL A   1      48.962  28.122  30.293  1.00  0.00     0.148 A 
ATOM     91  C   UNL A   1      49.575  26.913  32.754  1.00  0.00     0.002 A 
ATOM     92  C   UNL A   1      50.270  27.756  30.588  1.00  0.00     0.091 A 
ATOM     93  F   UNL A   1      48.643  28.729  29.141  1.00  0.00    -0.205 F 
ATOM     94  C   UNL A   1      50.580  27.163  31.822  1.00  0.00     0.022 A 
BRANCH  92  95
ATOM     95  S   UNL A   1      51.615  27.949  29.411  1.00  0.00     0.127 S 
ATOM     96  O   UNL A   1      51.177  27.087  28.314  1.00  0.00    -0.237 OA
ATOM     97  O   UNL A   1      51.566  29.382  29.116  1.00  0.00    -0.237 OA
ATOM     98  O   UNL A   1      52.821  27.517  30.103  1.00  0.00    -0.744 OA
ENDBRANCH  92  95
ENDBRANCH  65  88
ENDBRANCH  39  40
ENDBRANCH  32  34
ENDBRANCH  31  32
ENDBRANCH  30  31
ENDBRANCH  29  30
ENDBRANCH  28  29
ENDBRANCH  27  28
ENDBRANCH   1  27
TORSDOF 26
ENDMDL
MODEL 3
REMARK VINA RESULT:      -8.5      4.061      9.254
REMARK SMILES CCC[NH2+][C@@H]1COC[C@@H]1C(=O)N[C@@](C)(CC)C(=O)OCCOCCOCCOC(=O)c1ccc(-c2c3nc(c(-c4cccc(S(=O)(=O)[O-])c4F)c4ccc([nH]4)c(-c4cccc(S(=O)(=O)[O-])c4F)c4nc(c(-c5cccc(S(=O)(=O)[O-])c5F)c5ccc2[nH]5)C=C4)C=C3)cc1
REMARK SMILES IDX 23 1 22 2 21 3 20 4 19 5 17 6 18 7 13 8 14 9 12 10 10 11
REMARK SMILES IDX 11 12 9 14 5 15 6 16 7 17 8 18 4 19 3 22 2 23 1 24 15 25
REMARK SMILES IDX 16 26 24 27 25 28 26 29 27 30 28 31 29 32 30 33 31 34 32 35
REMARK SMILES IDX 93 36 33 37 92 38 34 39 35 40 36 41 86 42 37 43 91 44 85 45
REMARK SMILES IDX 87 46 38 47 90 48 84 49 83 50 39 52 71 53 51 54 70 55 52 56
REMARK SMILES IDX 55 57 69 58 88 59 53 60 54 61 68 63 89 64 56 65 40 66 41 67
REMARK SMILES IDX 49 68 42 69 44 70 50 71 43 72 45 73 46 74 47 75 48 76 72 77
REMARK SMILES IDX 73 78 81 79 74 80 76 81 82 82 75 83 77 84 78 85 79 86 80 87
REMARK SMILES IDX 57 88 58 89 66 90 59 91 61 92 67 93 60 94 62 95 63 96 64 97
REMARK SMILES IDX 65 98
REMARK H PARENT 12 13 4 20 4 21 87 51 55 62
REMARK Flexibility Score: inf
ROOT
ATOM      1  C   UNL A   1      36.783  22.232  24.844  1.00  0.00     0.188 C 
ENDROOT
BRANCH   1   2
ATOM      2  O   UNL A   1      35.968  22.589  25.953  1.00  0.00    -0.376 OA
BRANCH   2   3
ATOM      3  C   UNL A   1      35.191  21.528  26.490  1.00  0.00     0.202 C 
BRANCH   3   4
ATOM      4  C   UNL A   1      34.316  20.818  25.451  1.00  0.00     0.261 C 
BRANCH   4   5
ATOM      5  O   UNL A   1      33.632  21.717  24.549  1.00  0.00    -0.462 OA
BRANCH   5   6
ATOM      6  C   UNL A   1      32.467  22.284  24.951  1.00  0.00     0.331 C 
ATOM      7  O   UNL A   1      31.571  21.632  25.473  1.00  0.00    -0.249 OA
BRANCH   6   8
ATOM      8  C   UNL A   1      32.440  23.847  24.739  1.00  0.00     0.135 C 
ATOM      9  C   UNL A   1      33.192  23.999  23.385  1.00  0.00     0.047 C 
BRANCH   8  10
ATOM     10  N   UNL A   1      31.120  24.504  24.515  1.00  0.00    -0.340 N 
ATOM     11  C   UNL A   1      30.635  25.566  23.818  1.00  0.00     0.232 C 
ATOM     12  O   UNL A   1      29.405  25.647  23.767  1.00  0.00    -0.274 OA
ATOM     13  H   UNL A   1      30.404  24.041  25.007  1.00  0.00     0.164 HD
BRANCH  11  14
ATOM     14  C   UNL A   1      31.529  26.591  23.152  1.00  0.00     0.164 C 
ATOM     15  C   UNL A   1      31.700  27.931  23.855  1.00  0.00     0.223 C 
ATOM     16  C   UNL A   1      30.644  28.832  23.219  1.00  0.00     0.225 C 
ATOM     17  O   UNL A   1      30.420  28.326  21.898  1.00  0.00    -0.374 OA
ATOM     18  C   UNL A   1      30.970  27.012  21.797  1.00  0.00     0.180 C 
BRANCH  15  19
ATOM     19  N   UNL A   1      31.884  27.921  25.307  1.00  0.00    -0.341 N 
ATOM     20  H   UNL A   1      30.969  28.034  25.742  1.00  0.00     0.346 HD
ATOM     21  H   UNL A   1      32.334  27.033  25.529  1.00  0.00     0.346 HD
BRANCH  19  22
ATOM     22  C   UNL A   1      32.767  28.964  25.830  1.00  0.00     0.260 C 
BRANCH  22  23
ATOM     23  C   UNL A   1      32.329  29.365  27.242  1.00  0.00     0.058 C 
ATOM     24  C   UNL A   1      31.454  28.324  27.924  1.00  0.00     0.010 C 
ENDBRANCH  22  23
ENDBRANCH  19  22
ENDBRANCH  15  19
ENDBRANCH  11  14
ENDBRANCH   8  10
BRANCH   8  25
ATOM     25  C   UNL A   1      33.319  24.668  25.764  1.00  0.00     0.037 C 
ATOM     26  C   UNL A   1      34.505  25.500  25.254  1.00  0.00     0.007 C 
ENDBRANCH   8  25
ENDBRANCH   6   8
ENDBRANCH   5   6
ENDBRANCH   4   5
ENDBRANCH   3   4
ENDBRANCH   2   3
ENDBRANCH   1   2
BRANCH   1  27
ATOM     27  C   UNL A   1      37.968  21.361  25.258  1.00  0.00     0.188 C 
BRANCH  27  28
ATOM     28  O   UNL A   1      38.069  20.032  24.769  1.00  0.00    -0.376 OA
BRANCH  28  29
ATOM     29  C   UNL A   1      38.897  19.138  25.487  1.00  0.00     0.202 C 
BRANCH  29  30
ATOM     30  C   UNL A   1      40.305  19.635  25.836  1.00  0.00     0.261 C 
BRANCH  30  31
ATOM     31  O   UNL A   1      41.346  18.640  25.796  1.00  0.00    -0.460 OA
BRANCH  31  32
ATOM     32  C   UNL A   1      42.611  19.118  25.866  1.00  0.00     0.338 C 
ATOM     33  O   UNL A   1      43.638  18.506  25.558  1.00  0.00    -0.246 OA
BRANCH  32  34
ATOM     34  C   UNL A   1      42.627  20.550  26.235  1.00  0.00     0.060 A 
ATOM     35  C   UNL A   1      42.799  21.505  25.223  1.00  0.00     0.016 A 
ATOM     36  C   UNL A   1      42.580  20.957  27.571  1.00  0.00     0.016 A 
ATOM     37  C   UNL A   1      42.976  22.856  25.540  1.00  0.00     0.010 A 
ATOM     38  C   UNL A   1      42.780  22.310  27.888  1.00  0.00     0.010 A 
ATOM     39  C   UNL A   1      43.022  23.263  26.879  1.00  0.00    -0.014 A 
BRANCH  39  40
ATOM     40  C   UNL A   1      43.500  24.628  27.241  1.00  0.00     0.031 A 
ATOM     41  C   UNL A   1      42.517  25.611  27.819  1.00  0.00     0.074 A 
ATOM     42  C   UNL A   1      44.774  25.017  27.045  1.00  0.00     0.049 A 
ATOM     43  N   UNL A   1      42.688  26.869  28.133  1.00  0.00    -0.248 NA
ATOM     44  C   UNL A   1      41.160  25.106  28.082  1.00  0.00     0.031 C 
ATOM     45  C   UNL A   1      45.840  24.169  26.533  1.00  0.00     0.029 A 
ATOM     46  N   UNL A   1      45.377  26.240  27.222  1.00  0.00    -0.354 N 
ATOM     47  C   UNL A   1      41.459  27.315  28.601  1.00  0.00     0.074 A 
ATOM     48  C   UNL A   1      40.546  26.194  28.522  1.00  0.00     0.031 C 
ATOM     49  C   UNL A   1      46.955  24.902  26.381  1.00  0.00     0.029 A 
ATOM     50  C   UNL A   1      46.679  26.280  26.774  1.00  0.00     0.049 A 
ATOM     51  H   UNL A   1      44.923  27.013  27.629  1.00  0.00     0.167 HD
ATOM     52  C   UNL A   1      41.120  28.540  29.070  1.00  0.00     0.034 A 
ATOM     53  C   UNL A   1      47.544  27.309  26.670  1.00  0.00     0.034 A 
ATOM     54  C   UNL A   1      42.026  29.653  29.168  1.00  0.00     0.049 A 
ATOM     55  C   UNL A   1      47.131  28.675  27.154  1.00  0.00     0.074 A 
ATOM     56  C   UNL A   1      41.779  30.918  29.671  1.00  0.00     0.029 A 
ATOM     57  N   UNL A   1      43.344  29.645  28.740  1.00  0.00    -0.354 N 
ATOM     58  N   UNL A   1      46.000  29.050  27.702  1.00  0.00    -0.248 NA
ATOM     59  C   UNL A   1      48.126  29.752  27.041  1.00  0.00     0.031 C 
ATOM     60  C   UNL A   1      42.938  31.685  29.520  1.00  0.00     0.029 A 
ATOM     61  C   UNL A   1      43.919  30.887  28.953  1.00  0.00     0.049 A 
ATOM     62  H   UNL A   1      43.804  28.870  28.344  1.00  0.00     0.167 HD
ATOM     63  C   UNL A   1      46.164  30.389  28.040  1.00  0.00     0.074 A 
ATOM     64  C   UNL A   1      47.508  30.758  27.647  1.00  0.00     0.031 C 
ATOM     65  C   UNL A   1      45.275  31.238  28.614  1.00  0.00     0.034 A 
BRANCH  52  66
ATOM     66  C   UNL A   1      39.702  28.737  29.534  1.00  0.00     0.023 A 
ATOM     67  C   UNL A   1      39.321  28.303  30.821  1.00  0.00     0.012 A 
ATOM     68  C   UNL A   1      38.760  29.396  28.720  1.00  0.00     0.148 A 
ATOM     69  C   UNL A   1      38.018  28.492  31.276  1.00  0.00     0.002 A 
ATOM     70  C   UNL A   1      37.475  29.621  29.198  1.00  0.00     0.091 A 
ATOM     71  F   UNL A   1      39.137  29.782  27.492  1.00  0.00    -0.205 F 
ATOM     72  C   UNL A   1      37.098  29.160  30.469  1.00  0.00     0.022 A 
BRANCH  70  73
ATOM     73  S   UNL A   1      36.243  30.538  28.267  1.00  0.00     0.127 S 
ATOM     74  O   UNL A   1      36.202  29.786  27.013  1.00  0.00    -0.237 OA
ATOM     75  O   UNL A   1      35.053  30.393  29.105  1.00  0.00    -0.237 OA
ATOM     76  O   UNL A   1      36.749  31.900  28.162  1.00  0.00    -0.744 OA
ENDBRANCH  70  73
ENDBRANCH  52  66
BRANCH  53  77
ATOM     77  C   UNL A   1      48.914  27.084  26.122  1.00  0.00     0.023 A 
ATOM     78  C   UNL A   1      49.118  27.135  24.729  1.00  0.00     0.012 A 
ATOM     79  C   UNL A   1      50.013  26.822  26.966  1.00  0.00     0.148 A 
ATOM     80  C   UNL A   1      50.379  26.892  24.183  1.00  0.00     0.002 A 
ATOM     81  C   UNL A   1      51.277  26.636  26.420  1.00  0.00     0.091 A 
ATOM     82  F   UNL A   1      49.796  26.762  28.287  1.00  0.00    -0.205 F 
ATOM     83  C   UNL A   1      51.459  26.651  25.028  1.00  0.00     0.022 A 
BRANCH  81  84
ATOM     84  S   UNL A   1      52.753  26.438  27.424  1.00  0.00     0.127 S 
ATOM     85  O   UNL A   1      52.185  26.178  28.745  1.00  0.00    -0.237 OA
ATOM     86  O   UNL A   1      53.392  25.282  26.791  1.00  0.00    -0.237 OA
ATOM     87  O   UNL A   1      53.496  27.683  27.293  1.00  0.00    -0.744 OA
ENDBRANCH  81  84
ENDBRANCH  53  77
BRANCH  65  88
ATOM     88  C   UNL A   1      45.728  32.646  28.902  1.00  0.00     0.023 A 
ATOM     89  C   UNL A   1      46.407  32.935  30.103  1.00  0.00     0.012 A 
ATOM     90  C   UNL A   1      45.548  33.669  27.948  1.00  0.00     0.148 A 
ATOM     91  C   UNL A   1      46.869  34.225  30.365  1.00  0.00     0.002 A 
ATOM     92  C   UNL A   1      46.056  34.939  28.193  1.00  0.00     0.091 A 
ATOM     93  F   UNL A   1      44.886  33.380  26.819  1.00  0.00    -0.205 F 
ATOM     94  C   UNL A   1      46.705  35.223  29.405  1.00  0.00     0.022 A 
BRANCH  92  95
ATOM     95  S   UNL A   1      45.978  36.261  26.978  1.00  0.00     0.127 S 
ATOM     96  O   UNL A   1      46.809  37.289  27.601  1.00  0.00    -0.237 OA
ATOM     97  O   UNL A   1      46.572  35.632  25.796  1.00  0.00    -0.237 OA
ATOM     98  O   UNL A   1      44.568  36.596  26.837  1.00  0.00    -0.744 OA
ENDBRANCH  92  95
ENDBRANCH  65  88
ENDBRANCH  39  40
ENDBRANCH  32  34
ENDBRANCH  31  32
ENDBRANCH  30  31
ENDBRANCH  29  30
ENDBRANCH  28  29
ENDBRANCH  27  28
ENDBRANCH   1  27
TORSDOF 26
ENDMDL
