MODEL 1
REMARK VINA RESULT:      -8.3      0.000      0.000
REMARK SMILES CC(C)(C)c1ccc(OCC(=O)N/N=C/c2ccc(C(=O)OCCOCCOCCOC(=O)c3ccc(-c4c5nc(c(-c6cccc(S(=O)(=O)[O-])c6F)c6ccc([nH]6)c(-c6cccc(S(=O)(=O)[O-])c6F)c6nc(c(-c7cccc(S(=O)(=O)[O-])c7F)c7ccc4[nH]7)C=C6)C=C5)cc3)cc2)cc1
REMARK SMILES IDX 25 1 24 2 23 3 22 4 20 5 21 6 19 7 16 8 17 9 98 10 18 11
REMARK SMILES IDX 97 12 15 13 14 14 13 15 11 16 12 17 10 19 9 20 8 21 5 22
REMARK SMILES IDX 6 23 100 24 7 25 99 26 2 27 1 28 3 29 4 30 26 31 27 32 28 33
REMARK SMILES IDX 29 34 30 35 31 36 32 37 33 38 34 39 35 40 96 41 36 42 95 43
REMARK SMILES IDX 37 44 38 45 39 46 89 47 40 48 94 49 88 50 90 51 41 52 93 53
REMARK SMILES IDX 87 54 86 55 42 57 74 58 54 59 73 60 55 61 58 62 72 63 91 64
REMARK SMILES IDX 56 65 57 66 71 68 92 69 59 70 43 71 44 72 52 73 45 74 47 75
REMARK SMILES IDX 53 76 46 77 48 78 49 79 50 80 51 81 75 82 76 83 84 84 77 85
REMARK SMILES IDX 79 86 85 87 78 88 80 89 81 90 82 91 83 92 60 93 61 94 69 95
REMARK SMILES IDX 62 96 64 97 70 98 63 99 65 100 66 101 67 102 68 103
REMARK H PARENT 13 18 90 56 58 67
REMARK Flexibility Score: inf
ROOT
ATOM      1  O   UNL A   1      37.632  31.015  28.699  1.00  0.00    -0.376 OA
ENDROOT
BRANCH   1   2
ATOM      2  C   UNL A   1      37.825  29.791  28.016  1.00  0.00     0.202 C 
BRANCH   2   3
ATOM      3  C   UNL A   1      39.196  29.097  27.885  1.00  0.00     0.261 C 
BRANCH   3   4
ATOM      4  O   UNL A   1      39.244  27.680  28.075  1.00  0.00    -0.460 OA
BRANCH   4   5
ATOM      5  C   UNL A   1      40.382  27.179  28.607  1.00  0.00     0.338 C 
ATOM      6  O   UNL A   1      41.136  27.735  29.387  1.00  0.00    -0.246 OA
BRANCH   5   7
ATOM      7  C   UNL A   1      40.501  25.758  28.218  1.00  0.00     0.060 A 
ATOM      8  C   UNL A   1      40.787  23.077  27.538  1.00  0.00    -0.005 A 
ATOM      9  C   UNL A   1      41.796  23.713  28.267  1.00  0.00     0.010 A 
ATOM     10  C   UNL A   1      39.626  23.762  27.165  1.00  0.00     0.010 A 
ATOM     11  C   UNL A   1      41.662  25.064  28.587  1.00  0.00     0.016 A 
ATOM     12  C   UNL A   1      39.473  25.104  27.524  1.00  0.00     0.016 A 
BRANCH   8  13
ATOM     13  C   UNL A   1      40.996  21.674  27.141  1.00  0.00     0.141 C 
ATOM     14  N   UNL A   1      42.138  21.112  27.335  1.00  0.00    -0.181 NA
BRANCH  14  15
ATOM     15  N   UNL A   1      42.384  19.795  27.099  1.00  0.00    -0.244 N 
ATOM     16  C   UNL A   1      43.060  19.079  26.149  1.00  0.00     0.277 C 
ATOM     17  O   UNL A   1      43.050  17.843  26.254  1.00  0.00    -0.269 OA
ATOM     18  H   UNL A   1      41.974  19.214  27.780  1.00  0.00     0.193 HD
BRANCH  16  19
ATOM     19  C   UNL A   1      43.845  19.726  25.012  1.00  0.00     0.331 C 
BRANCH  19  20
ATOM     20  O   UNL A   1      44.924  20.568  25.378  1.00  0.00    -0.484 OA
BRANCH  20  21
ATOM     21  C   UNL A   1      44.696  21.912  25.439  1.00  0.00     0.120 A 
ATOM     22  C   UNL A   1      44.468  24.729  25.714  1.00  0.00    -0.042 A 
ATOM     23  C   UNL A   1      45.428  23.998  26.436  1.00  0.00     0.008 A 
ATOM     24  C   UNL A   1      43.618  24.002  24.865  1.00  0.00     0.008 A 
ATOM     25  C   UNL A   1      45.545  22.612  26.293  1.00  0.00     0.047 A 
ATOM     26  C   UNL A   1      43.732  22.613  24.724  1.00  0.00     0.047 A 
BRANCH  22  27
ATOM     27  C   UNL A   1      44.386  26.257  25.855  1.00  0.00    -0.013 C 
ATOM     28  C   UNL A   1      44.400  26.646  27.350  1.00  0.00     0.016 C 
ATOM     29  C   UNL A   1      43.079  26.763  25.210  1.00  0.00     0.016 C 
ATOM     30  C   UNL A   1      45.557  27.005  25.181  1.00  0.00     0.016 C 
ENDBRANCH  22  27
ENDBRANCH  20  21
ENDBRANCH  19  20
ENDBRANCH  16  19
ENDBRANCH  14  15
ENDBRANCH   8  13
ENDBRANCH   5   7
ENDBRANCH   4   5
ENDBRANCH   3   4
ENDBRANCH   2   3
ENDBRANCH   1   2
BRANCH   1  31
ATOM     31  C   UNL A   1      36.393  31.679  28.604  1.00  0.00     0.188 C 
BRANCH  31  32
ATOM     32  C   UNL A   1      36.432  33.112  29.179  1.00  0.00     0.188 C 
BRANCH  32  33
ATOM     33  O   UNL A   1      35.281  33.671  29.803  1.00  0.00    -0.376 OA
BRANCH  33  34
ATOM     34  C   UNL A   1      35.139  33.585  31.215  1.00  0.00     0.202 C 
BRANCH  34  35
ATOM     35  C   UNL A   1      36.342  33.231  32.108  1.00  0.00     0.261 C 
BRANCH  35  36
ATOM     36  O   UNL A   1      36.053  32.445  33.272  1.00  0.00    -0.460 OA
BRANCH  36  37
ATOM     37  C   UNL A   1      37.002  32.473  34.241  1.00  0.00     0.338 C 
ATOM     38  O   UNL A   1      36.881  32.885  35.382  1.00  0.00    -0.246 OA
BRANCH  37  39
ATOM     39  C   UNL A   1      38.203  31.755  33.773  1.00  0.00     0.060 A 
ATOM     40  C   UNL A   1      39.460  32.276  34.108  1.00  0.00     0.016 A 
ATOM     41  C   UNL A   1      38.095  30.623  32.965  1.00  0.00     0.016 A 
ATOM     42  C   UNL A   1      40.618  31.676  33.620  1.00  0.00     0.010 A 
ATOM     43  C   UNL A   1      39.258  30.036  32.456  1.00  0.00     0.010 A 
ATOM     44  C   UNL A   1      40.521  30.575  32.758  1.00  0.00    -0.014 A 
BRANCH  44  45
ATOM     45  C   UNL A   1      41.727  30.091  32.046  1.00  0.00     0.031 A 
ATOM     46  C   UNL A   1      42.392  28.830  32.526  1.00  0.00     0.074 A 
ATOM     47  C   UNL A   1      42.227  30.763  30.994  1.00  0.00     0.049 A 
ATOM     48  N   UNL A   1      43.472  28.244  32.083  1.00  0.00    -0.248 NA
ATOM     49  C   UNL A   1      41.752  28.141  33.658  1.00  0.00     0.031 C 
ATOM     50  C   UNL A   1      41.667  31.990  30.430  1.00  0.00     0.029 A 
ATOM     51  N   UNL A   1      43.340  30.517  30.230  1.00  0.00    -0.354 N 
ATOM     52  C   UNL A   1      43.659  27.132  32.897  1.00  0.00     0.074 A 
ATOM     53  C   UNL A   1      42.586  27.132  33.867  1.00  0.00     0.031 C 
ATOM     54  C   UNL A   1      42.458  32.408  29.427  1.00  0.00     0.029 A 
ATOM     55  C   UNL A   1      43.591  31.492  29.295  1.00  0.00     0.049 A 
ATOM     56  H   UNL A   1      43.905  29.718  30.341  1.00  0.00     0.167 HD
ATOM     57  C   UNL A   1      44.628  26.189  32.834  1.00  0.00     0.034 A 
ATOM     58  C   UNL A   1      44.630  31.640  28.447  1.00  0.00     0.034 A 
ATOM     59  C   UNL A   1      45.689  26.186  31.864  1.00  0.00     0.049 A 
ATOM     60  C   UNL A   1      45.718  30.597  28.425  1.00  0.00     0.074 A 
ATOM     61  C   UNL A   1      46.696  25.252  31.695  1.00  0.00     0.029 A 
ATOM     62  N   UNL A   1      45.892  27.170  30.910  1.00  0.00    -0.354 N 
ATOM     63  N   UNL A   1      45.817  29.489  29.120  1.00  0.00    -0.248 NA
ATOM     64  C   UNL A   1      46.823  30.808  27.477  1.00  0.00     0.031 C 
ATOM     65  C   UNL A   1      47.525  25.687  30.655  1.00  0.00     0.029 A 
ATOM     66  C   UNL A   1      47.015  26.875  30.157  1.00  0.00     0.049 A 
ATOM     67  H   UNL A   1      45.321  27.962  30.786  1.00  0.00     0.167 HD
ATOM     68  C   UNL A   1      46.970  28.855  28.667  1.00  0.00     0.074 A 
ATOM     69  C   UNL A   1      47.526  29.694  27.625  1.00  0.00     0.031 C 
ATOM     70  C   UNL A   1      47.526  27.690  29.084  1.00  0.00     0.034 A 
BRANCH  57  71
ATOM     71  C   UNL A   1      44.570  25.066  33.834  1.00  0.00     0.023 A 
ATOM     72  C   UNL A   1      43.887  23.877  33.508  1.00  0.00     0.012 A 
ATOM     73  C   UNL A   1      45.225  25.169  35.077  1.00  0.00     0.148 A 
ATOM     74  C   UNL A   1      43.829  22.819  34.415  1.00  0.00     0.002 A 
ATOM     75  C   UNL A   1      45.200  24.094  35.958  1.00  0.00     0.091 A 
ATOM     76  F   UNL A   1      45.847  26.317  35.379  1.00  0.00    -0.205 F 
ATOM     77  C   UNL A   1      44.494  22.924  35.633  1.00  0.00     0.022 A 
BRANCH  75  78
ATOM     78  S   UNL A   1      46.088  24.103  37.519  1.00  0.00     0.127 S 
ATOM     79  O   UNL A   1      45.680  22.823  38.097  1.00  0.00    -0.237 OA
ATOM     80  O   UNL A   1      47.483  24.158  37.080  1.00  0.00    -0.237 OA
ATOM     81  O   UNL A   1      45.631  25.286  38.234  1.00  0.00    -0.744 OA
ENDBRANCH  75  78
ENDBRANCH  57  71
BRANCH  58  82
ATOM     82  C   UNL A   1      44.680  32.808  27.523  1.00  0.00     0.023 A 
ATOM     83  C   UNL A   1      44.131  32.693  26.231  1.00  0.00     0.012 A 
ATOM     84  C   UNL A   1      45.264  34.029  27.915  1.00  0.00     0.148 A 
ATOM     85  C   UNL A   1      44.190  33.762  25.336  1.00  0.00     0.002 A 
ATOM     86  C   UNL A   1      45.271  35.106  27.037  1.00  0.00     0.091 A 
ATOM     87  F   UNL A   1      45.796  34.113  29.142  1.00  0.00    -0.205 F 
ATOM     88  C   UNL A   1      44.751  34.969  25.741  1.00  0.00     0.022 A 
BRANCH  86  89
ATOM     89  S   UNL A   1      45.863  36.733  27.512  1.00  0.00     0.127 S 
ATOM     90  O   UNL A   1      45.689  36.704  28.962  1.00  0.00    -0.237 OA
ATOM     91  O   UNL A   1      47.254  36.693  27.057  1.00  0.00    -0.237 OA
ATOM     92  O   UNL A   1      45.024  37.683  26.794  1.00  0.00    -0.744 OA
ENDBRANCH  86  89
ENDBRANCH  58  82
BRANCH  70  93
ATOM     93  C   UNL A   1      48.780  27.220  28.390  1.00  0.00     0.023 A 
ATOM     94  C   UNL A   1      48.684  26.400  27.248  1.00  0.00     0.012 A 
ATOM     95  C   UNL A   1      50.048  27.657  28.822  1.00  0.00     0.148 A 
ATOM     96  C   UNL A   1      49.833  25.997  26.566  1.00  0.00     0.002 A 
ATOM     97  C   UNL A   1      51.184  27.292  28.110  1.00  0.00     0.091 A 
ATOM     98  F   UNL A   1      50.120  28.422  29.920  1.00  0.00    -0.205 F 
ATOM     99  C   UNL A   1      51.080  26.452  26.989  1.00  0.00     0.022 A 
BRANCH  97 100
ATOM    100  S   UNL A   1      52.820  27.909  28.522  1.00  0.00     0.127 S 
ATOM    101  O   UNL A   1      53.039  27.317  29.841  1.00  0.00    -0.237 OA
ATOM    102  O   UNL A   1      53.644  27.342  27.455  1.00  0.00    -0.237 OA
ATOM    103  O   UNL A   1      52.719  29.363  28.498  1.00  0.00    -0.744 OA
ENDBRANCH  97 100
ENDBRANCH  70  93
ENDBRANCH  44  45
ENDBRANCH  37  39
ENDBRANCH  36  37
ENDBRANCH  35  36
ENDBRANCH  34  35
ENDBRANCH  33  34
ENDBRANCH  32  33
ENDBRANCH  31  32
ENDBRANCH   1  31
TORSDOF 26
ENDMDL
MODEL 2
REMARK VINA RESULT:      -7.9      4.695     11.579
REMARK SMILES CC(C)(C)c1ccc(OCC(=O)N/N=C/c2ccc(C(=O)OCCOCCOCCOC(=O)c3ccc(-c4c5nc(c(-c6cccc(S(=O)(=O)[O-])c6F)c6ccc([nH]6)c(-c6cccc(S(=O)(=O)[O-])c6F)c6nc(c(-c7cccc(S(=O)(=O)[O-])c7F)c7ccc4[nH]7)C=C6)C=C5)cc3)cc2)cc1
REMARK SMILES IDX 25 1 24 2 23 3 22 4 20 5 21 6 19 7 16 8 17 9 98 10 18 11
REMARK SMILES IDX 97 12 15 13 14 14 13 15 11 16 12 17 10 19 9 20 8 21 5 22
REMARK SMILES IDX 6 23 100 24 7 25 99 26 2 27 1 28 3 29 4 30 26 31 27 32 28 33
REMARK SMILES IDX 29 34 30 35 31 36 32 37 33 38 34 39 35 40 96 41 36 42 95 43
REMARK SMILES IDX 37 44 38 45 39 46 89 47 40 48 94 49 88 50 90 51 41 52 93 53
REMARK SMILES IDX 87 54 86 55 42 57 74 58 54 59 73 60 55 61 58 62 72 63 91 64
REMARK SMILES IDX 56 65 57 66 71 68 92 69 59 70 43 71 44 72 52 73 45 74 47 75
REMARK SMILES IDX 53 76 46 77 48 78 49 79 50 80 51 81 75 82 76 83 84 84 77 85
REMARK SMILES IDX 79 86 85 87 78 88 80 89 81 90 82 91 83 92 60 93 61 94 69 95
REMARK SMILES IDX 62 96 64 97 70 98 63 99 65 100 66 101 67 102 68 103
REMARK H PARENT 13 18 90 56 58 67
REMARK Flexibility Score: inf
ROOT
ATOM      1  O   UNL A   1      43.991  22.908  27.612  1.00  0.00    -0.376 OA
ENDROOT
BRANCH   1   2
ATOM      2  C   UNL A   1      43.336  23.910  28.367  1.00  0.00     0.202 C 
BRANCH   2   3
ATOM      3  C   UNL A   1      41.810  24.135  28.338  1.00  0.00     0.261 C 
BRANCH   3   4
ATOM      4  O   UNL A   1      41.332  25.463  28.572  1.00  0.00    -0.460 OA
BRANCH   4   5
ATOM      5  C   UNL A   1      40.495  25.978  27.642  1.00  0.00     0.338 C 
ATOM      6  O   UNL A   1      40.246  25.517  26.541  1.00  0.00    -0.246 OA
BRANCH   5   7
ATOM      7  C   UNL A   1      39.783  27.131  28.232  1.00  0.00     0.060 A 
ATOM      8  C   UNL A   1      38.438  29.333  29.267  1.00  0.00    -0.005 A 
ATOM      9  C   UNL A   1      38.931  29.381  27.960  1.00  0.00     0.010 A 
ATOM     10  C   UNL A   1      38.590  28.188  30.053  1.00  0.00     0.010 A 
ATOM     11  C   UNL A   1      39.627  28.285  27.450  1.00  0.00     0.016 A 
ATOM     12  C   UNL A   1      39.249  27.073  29.526  1.00  0.00     0.016 A 
BRANCH   8  13
ATOM     13  C   UNL A   1      37.783  30.537  29.806  1.00  0.00     0.141 C 
ATOM     14  N   UNL A   1      37.537  31.538  29.034  1.00  0.00    -0.181 NA
BRANCH  14  15
ATOM     15  N   UNL A   1      36.842  32.642  29.423  1.00  0.00    -0.244 N 
ATOM     16  C   UNL A   1      35.522  32.994  29.492  1.00  0.00     0.277 C 
ATOM     17  O   UNL A   1      35.258  34.137  29.897  1.00  0.00    -0.269 OA
ATOM     18  H   UNL A   1      37.436  33.364  29.732  1.00  0.00     0.193 HD
BRANCH  16  19
ATOM     19  C   UNL A   1      34.381  32.045  29.139  1.00  0.00     0.331 C 
BRANCH  19  20
ATOM     20  O   UNL A   1      33.909  32.080  27.803  1.00  0.00    -0.484 OA
BRANCH  20  21
ATOM     21  C   UNL A   1      33.544  30.901  27.221  1.00  0.00     0.120 A 
ATOM     22  C   UNL A   1      33.020  28.334  26.127  1.00  0.00    -0.042 A 
ATOM     23  C   UNL A   1      34.256  28.637  26.725  1.00  0.00     0.008 A 
ATOM     24  C   UNL A   1      32.065  29.361  26.081  1.00  0.00     0.008 A 
ATOM     25  C   UNL A   1      34.510  29.899  27.271  1.00  0.00     0.047 A 
ATOM     26  C   UNL A   1      32.319  30.627  26.624  1.00  0.00     0.047 A 
BRANCH  22  27
ATOM     27  C   UNL A   1      32.750  26.927  25.570  1.00  0.00    -0.013 C 
ATOM     28  C   UNL A   1      32.136  27.032  24.156  1.00  0.00     0.016 C 
ATOM     29  C   UNL A   1      31.764  26.188  26.499  1.00  0.00     0.016 C 
ATOM     30  C   UNL A   1      34.018  26.055  25.449  1.00  0.00     0.016 C 
ENDBRANCH  22  27
ENDBRANCH  20  21
ENDBRANCH  19  20
ENDBRANCH  16  19
ENDBRANCH  14  15
ENDBRANCH   8  13
ENDBRANCH   5   7
ENDBRANCH   4   5
ENDBRANCH   3   4
ENDBRANCH   2   3
ENDBRANCH   1   2
BRANCH   1  31
ATOM     31  C   UNL A   1      43.397  22.426  26.429  1.00  0.00     0.188 C 
BRANCH  31  32
ATOM     32  C   UNL A   1      44.430  22.085  25.332  1.00  0.00     0.188 C 
BRANCH  32  33
ATOM     33  O   UNL A   1      44.964  23.110  24.501  1.00  0.00    -0.376 OA
BRANCH  33  34
ATOM     34  C   UNL A   1      46.077  23.871  24.955  1.00  0.00     0.202 C 
BRANCH  34  35
ATOM     35  C   UNL A   1      45.880  25.057  25.916  1.00  0.00     0.261 C 
BRANCH  35  36
ATOM     36  O   UNL A   1      45.284  26.233  25.351  1.00  0.00    -0.460 OA
BRANCH  36  37
ATOM     37  C   UNL A   1      43.957  26.382  25.589  1.00  0.00     0.338 C 
ATOM     38  O   UNL A   1      43.055  25.640  25.241  1.00  0.00    -0.246 OA
BRANCH  37  39
ATOM     39  C   UNL A   1      43.748  27.517  26.509  1.00  0.00     0.060 A 
ATOM     40  C   UNL A   1      42.980  28.600  26.062  1.00  0.00     0.016 A 
ATOM     41  C   UNL A   1      44.350  27.543  27.767  1.00  0.00     0.016 A 
ATOM     42  C   UNL A   1      42.825  29.726  26.868  1.00  0.00     0.010 A 
ATOM     43  C   UNL A   1      44.213  28.684  28.565  1.00  0.00     0.010 A 
ATOM     44  C   UNL A   1      43.474  29.789  28.108  1.00  0.00    -0.014 A 
BRANCH  44  45
ATOM     45  C   UNL A   1      43.514  31.071  28.852  1.00  0.00     0.031 A 
ATOM     46  C   UNL A   1      44.551  32.092  28.474  1.00  0.00     0.074 A 
ATOM     47  C   UNL A   1      42.646  31.321  29.848  1.00  0.00     0.049 A 
ATOM     48  N   UNL A   1      44.795  33.259  29.008  1.00  0.00    -0.248 NA
ATOM     49  C   UNL A   1      45.431  31.748  27.346  1.00  0.00     0.031 C 
ATOM     50  C   UNL A   1      41.591  30.415  30.298  1.00  0.00     0.029 A 
ATOM     51  N   UNL A   1      42.537  32.408  30.679  1.00  0.00    -0.354 N 
ATOM     52  C   UNL A   1      45.873  33.780  28.300  1.00  0.00     0.074 A 
ATOM     53  C   UNL A   1      46.242  32.796  27.306  1.00  0.00     0.031 C 
ATOM     54  C   UNL A   1      40.960  30.971  31.347  1.00  0.00     0.029 A 
ATOM     55  C   UNL A   1      41.582  32.259  31.656  1.00  0.00     0.049 A 
ATOM     56  H   UNL A   1      43.091  33.216  30.586  1.00  0.00     0.167 HD
ATOM     57  C   UNL A   1      46.491  34.975  28.454  1.00  0.00     0.034 A 
ATOM     58  C   UNL A   1      41.264  33.059  32.693  1.00  0.00     0.034 A 
ATOM     59  C   UNL A   1      46.118  35.955  29.437  1.00  0.00     0.049 A 
ATOM     60  C   UNL A   1      41.995  34.366  32.867  1.00  0.00     0.074 A 
ATOM     61  C   UNL A   1      46.658  37.212  29.645  1.00  0.00     0.029 A 
ATOM     62  N   UNL A   1      45.122  35.785  30.386  1.00  0.00    -0.354 N 
ATOM     63  N   UNL A   1      42.931  34.898  32.118  1.00  0.00    -0.248 NA
ATOM     64  C   UNL A   1      41.603  35.200  34.014  1.00  0.00     0.031 C 
ATOM     65  C   UNL A   1      46.007  37.791  30.740  1.00  0.00     0.029 A 
ATOM     66  C   UNL A   1      45.041  36.907  31.193  1.00  0.00     0.049 A 
ATOM     67  H   UNL A   1      44.557  34.984  30.474  1.00  0.00     0.167 HD
ATOM     68  C   UNL A   1      43.211  36.140  32.678  1.00  0.00     0.074 A 
ATOM     69  C   UNL A   1      42.332  36.290  33.820  1.00  0.00     0.031 C 
ATOM     70  C   UNL A   1      44.122  37.068  32.291  1.00  0.00     0.034 A 
BRANCH  57  71
ATOM     71  C   UNL A   1      47.626  35.295  27.519  1.00  0.00     0.023 A 
ATOM     72  C   UNL A   1      47.349  35.834  26.246  1.00  0.00     0.012 A 
ATOM     73  C   UNL A   1      48.964  35.106  27.914  1.00  0.00     0.148 A 
ATOM     74  C   UNL A   1      48.385  36.148  25.367  1.00  0.00     0.002 A 
ATOM     75  C   UNL A   1      49.993  35.463  27.049  1.00  0.00     0.091 A 
ATOM     76  F   UNL A   1      49.207  34.569  29.118  1.00  0.00    -0.205 F 
ATOM     77  C   UNL A   1      49.705  35.973  25.773  1.00  0.00     0.022 A 
BRANCH  75  78
ATOM     78  S   UNL A   1      51.725  35.345  27.508  1.00  0.00     0.127 S 
ATOM     79  O   UNL A   1      51.932  33.897  27.508  1.00  0.00    -0.237 OA
ATOM     80  O   UNL A   1      52.384  36.055  26.410  1.00  0.00    -0.237 OA
ATOM     81  O   UNL A   1      51.842  35.994  28.806  1.00  0.00    -0.744 OA
ENDBRANCH  75  78
ENDBRANCH  57  71
BRANCH  58  82
ATOM     82  C   UNL A   1      40.179  32.666  33.636  1.00  0.00     0.023 A 
ATOM     83  C   UNL A   1      40.454  31.742  34.663  1.00  0.00     0.012 A 
ATOM     84  C   UNL A   1      38.881  33.204  33.525  1.00  0.00     0.148 A 
ATOM     85  C   UNL A   1      39.448  31.335  35.541  1.00  0.00     0.002 A 
ATOM     86  C   UNL A   1      37.899  32.835  34.436  1.00  0.00     0.091 A 
ATOM     87  F   UNL A   1      38.635  34.069  32.531  1.00  0.00    -0.205 F 
ATOM     88  C   UNL A   1      38.176  31.888  35.434  1.00  0.00     0.022 A 
BRANCH  86  89
ATOM     89  S   UNL A   1      36.267  33.583  34.450  1.00  0.00     0.127 S 
ATOM     90  O   UNL A   1      35.519  32.687  33.572  1.00  0.00    -0.237 OA
ATOM     91  O   UNL A   1      35.909  33.498  35.867  1.00  0.00    -0.237 OA
ATOM     92  O   UNL A   1      36.451  34.941  33.958  1.00  0.00    -0.744 OA
ENDBRANCH  86  89
ENDBRANCH  58  82
BRANCH  70  93
ATOM     93  C   UNL A   1      44.194  38.354  33.075  1.00  0.00     0.023 A 
ATOM     94  C   UNL A   1      43.417  39.462  32.681  1.00  0.00     0.012 A 
ATOM     95  C   UNL A   1      44.969  38.437  34.249  1.00  0.00     0.148 A 
ATOM     96  C   UNL A   1      43.437  40.642  33.424  1.00  0.00     0.002 A 
ATOM     97  C   UNL A   1      44.945  39.600  35.011  1.00  0.00     0.091 A 
ATOM     98  F   UNL A   1      45.715  37.380  34.599  1.00  0.00    -0.205 F 
ATOM     99  C   UNL A   1      44.189  40.707  34.594  1.00  0.00     0.022 A 
BRANCH  97 100
ATOM    100  S   UNL A   1      45.806  39.739  36.583  1.00  0.00     0.127 S 
ATOM    101  O   UNL A   1      45.866  41.189  36.762  1.00  0.00    -0.237 OA
ATOM    102  O   UNL A   1      44.895  39.049  37.497  1.00  0.00    -0.237 OA
ATOM    103  O   UNL A   1      47.091  39.078  36.397  1.00  0.00    -0.744 OA
ENDBRANCH  97 100
ENDBRANCH  70  93
ENDBRANCH  44  45
ENDBRANCH  37  39
ENDBRANCH  36  37
ENDBRANCH  35  36
ENDBRANCH  34  35
ENDBRANCH  33  34
ENDBRANCH  32  33
ENDBRANCH  31  32
ENDBRANCH   1  31
TORSDOF 26
ENDMDL
MODEL 3
REMARK VINA RESULT:      -7.8      4.551     11.778
REMARK SMILES CC(C)(C)c1ccc(OCC(=O)N/N=C/c2ccc(C(=O)OCCOCCOCCOC(=O)c3ccc(-c4c5nc(c(-c6cccc(S(=O)(=O)[O-])c6F)c6ccc([nH]6)c(-c6cccc(S(=O)(=O)[O-])c6F)c6nc(c(-c7cccc(S(=O)(=O)[O-])c7F)c7ccc4[nH]7)C=C6)C=C5)cc3)cc2)cc1
REMARK SMILES IDX 25 1 24 2 23 3 22 4 20 5 21 6 19 7 16 8 17 9 98 10 18 11
REMARK SMILES IDX 97 12 15 13 14 14 13 15 11 16 12 17 10 19 9 20 8 21 5 22
REMARK SMILES IDX 6 23 100 24 7 25 99 26 2 27 1 28 3 29 4 30 26 31 27 32 28 33
REMARK SMILES IDX 29 34 30 35 31 36 32 37 33 38 34 39 35 40 96 41 36 42 95 43
REMARK SMILES IDX 37 44 38 45 39 46 89 47 40 48 94 49 88 50 90 51 41 52 93 53
REMARK SMILES IDX 87 54 86 55 42 57 74 58 54 59 73 60 55 61 58 62 72 63 91 64
REMARK SMILES IDX 56 65 57 66 71 68 92 69 59 70 43 71 44 72 52 73 45 74 47 75
REMARK SMILES IDX 53 76 46 77 48 78 49 79 50 80 51 81 75 82 76 83 84 84 77 85
REMARK SMILES IDX 79 86 85 87 78 88 80 89 81 90 82 91 83 92 60 93 61 94 69 95
REMARK SMILES IDX 62 96 64 97 70 98 63 99 65 100 66 101 67 102 68 103
REMARK H PARENT 13 18 90 56 58 67
REMARK Flexibility Score: inf
ROOT
ATOM      1  O   UNL A   1      39.554  27.315  28.059  1.00  0.00    -0.376 OA
ENDROOT
BRANCH   1   2
ATOM      2  C   UNL A   1      39.840  27.074  29.424  1.00  0.00     0.202 C 
BRANCH   2   3
ATOM      3  C   UNL A   1      40.331  28.166  30.396  1.00  0.00     0.261 C 
BRANCH   3   4
ATOM      4  O   UNL A   1      40.333  29.519  29.929  1.00  0.00    -0.460 OA
BRANCH   4   5
ATOM      5  C   UNL A   1      40.091  30.478  30.851  1.00  0.00     0.338 C 
ATOM      6  O   UNL A   1      40.687  30.656  31.900  1.00  0.00    -0.246 OA
BRANCH   5   7
ATOM      7  C   UNL A   1      39.074  31.406  30.315  1.00  0.00     0.060 A 
ATOM      8  C   UNL A   1      37.201  33.214  29.338  1.00  0.00    -0.005 A 
ATOM      9  C   UNL A   1      38.125  33.633  30.300  1.00  0.00     0.010 A 
ATOM     10  C   UNL A   1      37.218  31.907  28.843  1.00  0.00     0.010 A 
ATOM     11  C   UNL A   1      39.049  32.719  30.806  1.00  0.00     0.016 A 
ATOM     12  C   UNL A   1      38.173  31.003  29.320  1.00  0.00     0.016 A 
BRANCH   8  13
ATOM     13  C   UNL A   1      36.184  34.179  28.886  1.00  0.00     0.141 C 
ATOM     14  N   UNL A   1      34.935  33.937  29.079  1.00  0.00    -0.181 NA
BRANCH  14  15
ATOM     15  N   UNL A   1      33.939  34.820  28.792  1.00  0.00    -0.244 N 
ATOM     16  C   UNL A   1      33.125  35.648  29.515  1.00  0.00     0.277 C 
ATOM     17  O   UNL A   1      32.291  36.317  28.887  1.00  0.00    -0.269 OA
ATOM     18  H   UNL A   1      33.761  34.876  27.825  1.00  0.00     0.193 HD
BRANCH  16  19
ATOM     19  C   UNL A   1      33.228  35.813  31.028  1.00  0.00     0.331 C 
BRANCH  19  20
ATOM     20  O   UNL A   1      33.140  34.633  31.807  1.00  0.00    -0.484 OA
BRANCH  20  21
ATOM     21  C   UNL A   1      34.237  34.254  32.525  1.00  0.00     0.120 A 
ATOM     22  C   UNL A   1      36.520  33.225  33.863  1.00  0.00    -0.042 A 
ATOM     23  C   UNL A   1      35.749  32.421  33.005  1.00  0.00     0.008 A 
ATOM     24  C   UNL A   1      36.102  34.553  34.040  1.00  0.00     0.008 A 
ATOM     25  C   UNL A   1      34.630  32.931  32.341  1.00  0.00     0.047 A 
ATOM     26  C   UNL A   1      34.978  35.064  33.377  1.00  0.00     0.047 A 
BRANCH  22  27
ATOM     27  C   UNL A   1      37.771  32.654  34.550  1.00  0.00    -0.013 C 
ATOM     28  C   UNL A   1      37.611  32.741  36.084  1.00  0.00     0.016 C 
ATOM     29  C   UNL A   1      39.010  33.467  34.121  1.00  0.00     0.016 C 
ATOM     30  C   UNL A   1      38.044  31.173  34.206  1.00  0.00     0.016 C 
ENDBRANCH  22  27
ENDBRANCH  20  21
ENDBRANCH  19  20
ENDBRANCH  16  19
ENDBRANCH  14  15
ENDBRANCH   8  13
ENDBRANCH   5   7
ENDBRANCH   4   5
ENDBRANCH   3   4
ENDBRANCH   2   3
ENDBRANCH   1   2
BRANCH   1  31
ATOM     31  C   UNL A   1      40.457  26.877  27.070  1.00  0.00     0.188 C 
BRANCH  31  32
ATOM     32  C   UNL A   1      40.281  25.383  26.716  1.00  0.00     0.188 C 
BRANCH  32  33
ATOM     33  O   UNL A   1      41.360  24.644  26.154  1.00  0.00    -0.376 OA
BRANCH  33  34
ATOM     34  C   UNL A   1      41.485  23.257  26.444  1.00  0.00     0.202 C 
BRANCH  34  35
ATOM     35  C   UNL A   1      42.770  22.489  26.086  1.00  0.00     0.261 C 
BRANCH  35  36
ATOM     36  O   UNL A   1      43.941  23.288  25.870  1.00  0.00    -0.460 OA
BRANCH  36  37
ATOM     37  C   UNL A   1      44.692  23.527  26.974  1.00  0.00     0.338 C 
ATOM     38  O   UNL A   1      45.007  22.730  27.840  1.00  0.00    -0.246 OA
BRANCH  37  39
ATOM     39  C   UNL A   1      45.246  24.893  26.904  1.00  0.00     0.060 A 
ATOM     40  C   UNL A   1      45.333  25.510  25.649  1.00  0.00     0.016 A 
ATOM     41  C   UNL A   1      45.731  25.533  28.045  1.00  0.00     0.016 A 
ATOM     42  C   UNL A   1      45.923  26.766  25.526  1.00  0.00     0.010 A 
ATOM     43  C   UNL A   1      46.345  26.783  27.917  1.00  0.00     0.010 A 
ATOM     44  C   UNL A   1      46.468  27.392  26.655  1.00  0.00    -0.014 A 
BRANCH  44  45
ATOM     45  C   UNL A   1      47.307  28.602  26.491  1.00  0.00     0.031 A 
ATOM     46  C   UNL A   1      46.643  29.951  26.521  1.00  0.00     0.074 A 
ATOM     47  C   UNL A   1      48.636  28.504  26.313  1.00  0.00     0.049 A 
ATOM     48  N   UNL A   1      47.169  31.136  26.362  1.00  0.00    -0.248 NA
ATOM     49  C   UNL A   1      45.191  29.962  26.761  1.00  0.00     0.031 C 
ATOM     50  C   UNL A   1      49.395  27.255  26.276  1.00  0.00     0.029 A 
ATOM     51  N   UNL A   1      49.579  29.480  26.103  1.00  0.00    -0.354 N 
ATOM     52  C   UNL A   1      46.112  32.034  26.454  1.00  0.00     0.074 A 
ATOM     53  C   UNL A   1      44.912  31.255  26.673  1.00  0.00     0.031 C 
ATOM     54  C   UNL A   1      50.685  27.538  26.024  1.00  0.00     0.029 A 
ATOM     55  C   UNL A   1      50.837  28.984  25.859  1.00  0.00     0.049 A 
ATOM     56  H   UNL A   1      49.373  30.442  26.124  1.00  0.00     0.167 HD
ATOM     57  C   UNL A   1      46.137  33.385  26.378  1.00  0.00     0.034 A 
ATOM     58  C   UNL A   1      51.975  29.624  25.518  1.00  0.00     0.034 A 
ATOM     59  C   UNL A   1      47.331  34.158  26.168  1.00  0.00     0.049 A 
ATOM     60  C   UNL A   1      51.968  31.127  25.399  1.00  0.00     0.074 A 
ATOM     61  C   UNL A   1      47.465  35.534  26.115  1.00  0.00     0.029 A 
ATOM     62  N   UNL A   1      48.593  33.625  25.961  1.00  0.00    -0.354 N 
ATOM     63  N   UNL A   1      50.985  31.970  25.607  1.00  0.00    -0.248 NA
ATOM     64  C   UNL A   1      53.238  31.770  25.029  1.00  0.00     0.031 C 
ATOM     65  C   UNL A   1      48.806  35.832  25.848  1.00  0.00     0.029 A 
ATOM     66  C   UNL A   1      49.511  34.642  25.766  1.00  0.00     0.049 A 
ATOM     67  H   UNL A   1      48.806  32.664  25.954  1.00  0.00     0.167 HD
ATOM     68  C   UNL A   1      51.527  33.239  25.432  1.00  0.00     0.074 A 
ATOM     69  C   UNL A   1      52.929  33.056  25.118  1.00  0.00     0.031 C 
ATOM     70  C   UNL A   1      50.916  34.448  25.510  1.00  0.00     0.034 A 
BRANCH  57  71
ATOM     71  C   UNL A   1      44.832  34.116  26.545  1.00  0.00     0.023 A 
ATOM     72  C   UNL A   1      44.088  34.482  25.404  1.00  0.00     0.012 A 
ATOM     73  C   UNL A   1      44.322  34.402  27.825  1.00  0.00     0.148 A 
ATOM     74  C   UNL A   1      42.872  35.150  25.535  1.00  0.00     0.002 A 
ATOM     75  C   UNL A   1      43.087  35.029  27.948  1.00  0.00     0.091 A 
ATOM     76  F   UNL A   1      45.056  34.069  28.896  1.00  0.00    -0.205 F 
ATOM     77  C   UNL A   1      42.367  35.413  26.806  1.00  0.00     0.022 A 
BRANCH  75  78
ATOM     78  S   UNL A   1      42.318  35.344  29.540  1.00  0.00     0.127 S 
ATOM     79  O   UNL A   1      40.925  35.569  29.155  1.00  0.00    -0.237 OA
ATOM     80  O   UNL A   1      42.559  34.089  30.253  1.00  0.00    -0.237 OA
ATOM     81  O   UNL A   1      43.007  36.499  30.098  1.00  0.00    -0.744 OA
ENDBRANCH  75  78
ENDBRANCH  57  71
BRANCH  58  82
ATOM     82  C   UNL A   1      53.228  28.851  25.294  1.00  0.00     0.023 A 
ATOM     83  C   UNL A   1      53.963  28.385  26.401  1.00  0.00     0.012 A 
ATOM     84  C   UNL A   1      53.695  28.572  23.994  1.00  0.00     0.148 A 
ATOM     85  C   UNL A   1      55.156  27.683  26.219  1.00  0.00     0.002 A 
ATOM     86  C   UNL A   1      54.855  27.826  23.819  1.00  0.00     0.091 A 
ATOM     87  F   UNL A   1      52.991  29.039  22.953  1.00  0.00    -0.205 F 
ATOM     88  C   UNL A   1      55.596  27.396  24.931  1.00  0.00     0.022 A 
BRANCH  86  89
ATOM     89  S   UNL A   1      55.433  27.306  22.201  1.00  0.00     0.127 S 
ATOM     90  O   UNL A   1      54.269  26.594  21.681  1.00  0.00    -0.237 OA
ATOM     91  O   UNL A   1      55.711  28.590  21.554  1.00  0.00    -0.237 OA
ATOM     92  O   UNL A   1      56.615  26.492  22.448  1.00  0.00    -0.744 OA
ENDBRANCH  86  89
ENDBRANCH  58  82
BRANCH  70  93
ATOM     93  C   UNL A   1      51.761  35.679  25.298  1.00  0.00     0.023 A 
ATOM     94  C   UNL A   1      52.163  36.039  23.996  1.00  0.00     0.012 A 
ATOM     95  C   UNL A   1      52.087  36.522  26.379  1.00  0.00     0.148 A 
ATOM     96  C   UNL A   1      52.904  37.201  23.779  1.00  0.00     0.002 A 
ATOM     97  C   UNL A   1      52.783  37.703  26.148  1.00  0.00     0.091 A 
ATOM     98  F   UNL A   1      51.712  36.155  27.612  1.00  0.00    -0.205 F 
ATOM     99  C   UNL A   1      53.202  38.038  24.851  1.00  0.00     0.022 A 
BRANCH  97 100
ATOM    100  S   UNL A   1      53.127  38.890  27.454  1.00  0.00     0.127 S 
ATOM    101  O   UNL A   1      53.941  39.879  26.750  1.00  0.00    -0.237 OA
ATOM    102  O   UNL A   1      51.786  39.349  27.816  1.00  0.00    -0.237 OA
ATOM    103  O   UNL A   1      53.814  38.146  28.502  1.00  0.00    -0.744 OA
ENDBRANCH  97 100
ENDBRANCH  70  93
ENDBRANCH  44  45
ENDBRANCH  37  39
ENDBRANCH  36  37
ENDBRANCH  35  36
ENDBRANCH  34  35
ENDBRANCH  33  34
ENDBRANCH  32  33
ENDBRANCH  31  32
ENDBRANCH   1  31
TORSDOF 26
ENDMDL
