MODEL 1
REMARK VINA RESULT:      -9.5      0.000      0.000
REMARK SMILES C[C@H]1[C@@H](C(=O)OCCOCCOCCOC(=O)c2ccc(-c3c4nc(c(-c5cccc(S(=O)(=O)[O-])c5F)c5ccc([nH]5)c(-c5cccc(S(=O)(=O)[O-])c5F)c5nc(c(-c6cccc(S(=O)(=O)[O-])c6F)c6ccc3[nH]6)C=C5)C=C4)cc2)CCN1C(=O)c1cc2cc(F)ccc2s1
REMARK SMILES IDX 11 1 10 2 9 3 8 4 7 5 6 6 4 7 5 8 3 9 1 10 2 11 83 12 81 13
REMARK SMILES IDX 82 14 84 15 85 16 86 17 87 18 95 19 88 20 94 21 89 22 93 23
REMARK SMILES IDX 90 24 92 25 91 26 12 27 13 28 14 29 15 30 16 31 17 32 18 33
REMARK SMILES IDX 19 34 80 35 20 36 79 37 21 38 22 39 23 40 73 41 24 42 78 43
REMARK SMILES IDX 72 44 74 45 25 46 77 47 71 48 70 49 26 51 58 52 38 53 57 54
REMARK SMILES IDX 39 55 42 56 56 57 75 58 40 59 41 60 55 62 76 63 43 64 27 65
REMARK SMILES IDX 28 66 36 67 29 68 31 69 37 70 30 71 32 72 33 73 34 74 35 75
REMARK SMILES IDX 59 76 60 77 68 78 61 79 63 80 69 81 62 82 64 83 65 84 66 85
REMARK SMILES IDX 67 86 44 87 45 88 53 89 46 90 48 91 54 92 47 93 49 94 50 95
REMARK SMILES IDX 51 96 52 97
REMARK H PARENT 74 50 42 61
REMARK Flexibility Score: inf
ROOT
ATOM      1  C   UNL A   1      38.824  23.096  26.638  1.00  0.00     0.188 C 
ENDROOT
BRANCH   1   2
ATOM      2  C   UNL A   1      37.813  23.726  25.665  1.00  0.00     0.188 C 
BRANCH   2   3
ATOM      3  O   UNL A   1      36.464  23.276  25.693  1.00  0.00    -0.376 OA
BRANCH   3   4
ATOM      4  C   UNL A   1      36.213  21.878  25.778  1.00  0.00     0.202 C 
BRANCH   4   5
ATOM      5  C   UNL A   1      35.142  21.349  24.830  1.00  0.00     0.261 C 
BRANCH   5   6
ATOM      6  O   UNL A   1      34.000  20.892  25.581  1.00  0.00    -0.463 OA
BRANCH   6   7
ATOM      7  C   UNL A   1      32.801  21.165  25.020  1.00  0.00     0.311 C 
ATOM      8  O   UNL A   1      31.857  20.380  25.009  1.00  0.00    -0.252 OA
BRANCH   7   9
ATOM      9  C   UNL A   1      32.660  22.583  24.508  1.00  0.00     0.123 C 
ATOM     10  C   UNL A   1      31.862  23.491  26.847  1.00  0.00     0.032 C 
ATOM     11  C   UNL A   1      32.165  23.760  25.380  1.00  0.00     0.096 C 
ATOM     12  N   UNL A   1      31.087  24.386  24.609  1.00  0.00    -0.334 N 
ATOM     13  C   UNL A   1      31.812  22.579  23.233  1.00  0.00     0.039 C 
ATOM     14  C   UNL A   1      30.804  23.689  23.374  1.00  0.00     0.121 C 
BRANCH  12  15
ATOM     15  C   UNL A   1      30.663  25.707  24.678  1.00  0.00     0.264 C 
ATOM     16  O   UNL A   1      29.898  26.066  25.576  1.00  0.00    -0.268 OA
BRANCH  15  17
ATOM     17  C   UNL A   1      31.188  26.699  23.765  1.00  0.00     0.093 A 
ATOM     18  C   UNL A   1      30.543  27.174  22.634  1.00  0.00     0.034 A 
ATOM     19  S   UNL A   1      32.100  27.989  24.455  1.00  0.00    -0.130 S 
ATOM     20  C   UNL A   1      30.130  28.536  22.898  1.00  0.00    -0.004 A 
ATOM     21  C   UNL A   1      30.862  29.092  23.955  1.00  0.00     0.035 A 
ATOM     22  C   UNL A   1      29.057  29.284  22.360  1.00  0.00     0.048 A 
ATOM     23  C   UNL A   1      30.547  30.349  24.505  1.00  0.00     0.022 A 
ATOM     24  C   UNL A   1      28.702  30.493  22.956  1.00  0.00     0.123 A 
ATOM     25  C   UNL A   1      29.423  31.018  24.016  1.00  0.00     0.041 A 
ATOM     26  F   UNL A   1      27.613  31.140  22.517  1.00  0.00    -0.207 F 
ENDBRANCH  15  17
ENDBRANCH  12  15
ENDBRANCH   7   9
ENDBRANCH   6   7
ENDBRANCH   5   6
ENDBRANCH   4   5
ENDBRANCH   3   4
ENDBRANCH   2   3
ENDBRANCH   1   2
BRANCH   1  27
ATOM     27  O   UNL A   1      39.733  22.106  26.180  1.00  0.00    -0.376 OA
BRANCH  27  28
ATOM     28  C   UNL A   1      40.601  21.505  27.132  1.00  0.00     0.202 C 
BRANCH  28  29
ATOM     29  C   UNL A   1      42.042  21.258  26.685  1.00  0.00     0.261 C 
BRANCH  29  30
ATOM     30  O   UNL A   1      42.876  22.406  26.894  1.00  0.00    -0.460 OA
BRANCH  30  31
ATOM     31  C   UNL A   1      43.127  23.155  25.791  1.00  0.00     0.338 C 
ATOM     32  O   UNL A   1      43.016  22.818  24.626  1.00  0.00    -0.246 OA
BRANCH  31  33
ATOM     33  C   UNL A   1      43.389  24.543  26.211  1.00  0.00     0.060 A 
ATOM     34  C   UNL A   1      43.716  24.786  27.551  1.00  0.00     0.016 A 
ATOM     35  C   UNL A   1      43.266  25.594  25.303  1.00  0.00     0.016 A 
ATOM     36  C   UNL A   1      43.898  26.094  28.000  1.00  0.00     0.010 A 
ATOM     37  C   UNL A   1      43.421  26.902  25.757  1.00  0.00     0.010 A 
ATOM     38  C   UNL A   1      43.708  27.157  27.111  1.00  0.00    -0.014 A 
BRANCH  38  39
ATOM     39  C   UNL A   1      43.613  28.550  27.600  1.00  0.00     0.031 A 
ATOM     40  C   UNL A   1      44.859  29.388  27.587  1.00  0.00     0.074 A 
ATOM     41  C   UNL A   1      42.470  29.022  28.125  1.00  0.00     0.049 A 
ATOM     42  N   UNL A   1      45.087  30.541  28.152  1.00  0.00    -0.248 NA
ATOM     43  C   UNL A   1      46.008  28.839  26.845  1.00  0.00     0.031 C 
ATOM     44  C   UNL A   1      41.197  28.307  28.163  1.00  0.00     0.029 A 
ATOM     45  N   UNL A   1      42.217  30.203  28.778  1.00  0.00    -0.354 N 
ATOM     46  C   UNL A   1      46.417  30.836  27.879  1.00  0.00     0.074 A 
ATOM     47  C   UNL A   1      46.943  29.747  27.085  1.00  0.00     0.031 C 
ATOM     48  C   UNL A   1      40.306  29.043  28.851  1.00  0.00     0.029 A 
ATOM     49  C   UNL A   1      40.961  30.256  29.337  1.00  0.00     0.049 A 
ATOM     50  H   UNL A   1      42.868  30.939  28.839  1.00  0.00     0.167 HD
ATOM     51  C   UNL A   1      47.135  31.917  28.259  1.00  0.00     0.034 A 
ATOM     52  C   UNL A   1      40.424  31.158  30.183  1.00  0.00     0.034 A 
ATOM     53  C   UNL A   1      46.599  32.999  29.036  1.00  0.00     0.049 A 
ATOM     54  C   UNL A   1      41.255  32.338  30.621  1.00  0.00     0.074 A 
ATOM     55  C   UNL A   1      47.233  34.156  29.451  1.00  0.00     0.029 A 
ATOM     56  N   UNL A   1      45.303  33.052  29.522  1.00  0.00    -0.354 N 
ATOM     57  N   UNL A   1      42.485  32.651  30.287  1.00  0.00    -0.248 NA
ATOM     58  C   UNL A   1      40.621  33.300  31.536  1.00  0.00     0.031 C 
ATOM     59  C   UNL A   1      46.323  34.900  30.208  1.00  0.00     0.029 A 
ATOM     60  C   UNL A   1      45.116  34.219  30.239  1.00  0.00     0.049 A 
ATOM     61  H   UNL A   1      44.616  32.361  29.379  1.00  0.00     0.167 HD
ATOM     62  C   UNL A   1      42.754  33.865  30.912  1.00  0.00     0.074 A 
ATOM     63  C   UNL A   1      41.559  34.233  31.643  1.00  0.00     0.031 C 
ATOM     64  C   UNL A   1      43.891  34.603  30.894  1.00  0.00     0.034 A 
BRANCH  51  65
ATOM     65  C   UNL A   1      48.575  31.985  27.833  1.00  0.00     0.023 A 
ATOM     66  C   UNL A   1      48.923  32.684  26.660  1.00  0.00     0.012 A 
ATOM     67  C   UNL A   1      49.587  31.395  28.616  1.00  0.00     0.148 A 
ATOM     68  C   UNL A   1      50.256  32.772  26.258  1.00  0.00     0.002 A 
ATOM     69  C   UNL A   1      50.916  31.523  28.231  1.00  0.00     0.091 A 
ATOM     70  F   UNL A   1      49.230  30.711  29.712  1.00  0.00    -0.205 F 
ATOM     71  C   UNL A   1      51.251  32.203  27.048  1.00  0.00     0.022 A 
BRANCH  69  72
ATOM     72  S   UNL A   1      52.272  30.886  29.220  1.00  0.00     0.127 S 
ATOM     73  O   UNL A   1      51.953  31.425  30.542  1.00  0.00    -0.237 OA
ATOM     74  O   UNL A   1      52.094  29.439  29.094  1.00  0.00    -0.237 OA
ATOM     75  O   UNL A   1      53.490  31.402  28.611  1.00  0.00    -0.744 OA
ENDBRANCH  69  72
ENDBRANCH  51  65
BRANCH  52  76
ATOM     76  C   UNL A   1      39.023  30.990  30.663  1.00  0.00     0.023 A 
ATOM     77  C   UNL A   1      38.758  30.104  31.724  1.00  0.00     0.012 A 
ATOM     78  C   UNL A   1      37.957  31.712  30.089  1.00  0.00     0.148 A 
ATOM     79  C   UNL A   1      37.456  29.918  32.188  1.00  0.00     0.002 A 
ATOM     80  C   UNL A   1      36.670  31.561  30.591  1.00  0.00     0.091 A 
ATOM     81  F   UNL A   1      38.226  32.538  29.068  1.00  0.00    -0.205 F 
ATOM     82  C   UNL A   1      36.414  30.654  31.630  1.00  0.00     0.022 A 
BRANCH  80  83
ATOM     83  S   UNL A   1      35.289  32.557  30.017  1.00  0.00     0.127 S 
ATOM     84  O   UNL A   1      34.923  31.873  28.779  1.00  0.00    -0.237 OA
ATOM     85  O   UNL A   1      34.329  32.406  31.111  1.00  0.00    -0.237 OA
ATOM     86  O   UNL A   1      35.815  33.907  29.864  1.00  0.00    -0.744 OA
ENDBRANCH  80  83
ENDBRANCH  52  76
BRANCH  64  87
ATOM     87  C   UNL A   1      43.899  35.919  31.625  1.00  0.00     0.023 A 
ATOM     88  C   UNL A   1      44.084  35.946  33.020  1.00  0.00     0.012 A 
ATOM     89  C   UNL A   1      43.859  37.129  30.903  1.00  0.00     0.148 A 
ATOM     90  C   UNL A   1      44.217  37.163  33.689  1.00  0.00     0.002 A 
ATOM     91  C   UNL A   1      44.038  38.334  31.571  1.00  0.00     0.091 A 
ATOM     92  F   UNL A   1      43.667  37.076  29.577  1.00  0.00    -0.205 F 
ATOM     93  C   UNL A   1      44.209  38.353  32.964  1.00  0.00     0.022 A 
BRANCH  91  94
ATOM     94  S   UNL A   1      44.145  39.907  30.710  1.00  0.00     0.127 S 
ATOM     95  O   UNL A   1      42.780  40.067  30.211  1.00  0.00    -0.237 OA
ATOM     96  O   UNL A   1      44.511  40.824  31.789  1.00  0.00    -0.237 OA
ATOM     97  O   UNL A   1      45.165  39.739  29.685  1.00  0.00    -0.744 OA
ENDBRANCH  91  94
ENDBRANCH  64  87
ENDBRANCH  38  39
ENDBRANCH  31  33
ENDBRANCH  30  31
ENDBRANCH  29  30
ENDBRANCH  28  29
ENDBRANCH  27  28
ENDBRANCH   1  27
TORSDOF 22
ENDMDL
MODEL 2
REMARK VINA RESULT:      -9.4      5.566     11.053
REMARK SMILES C[C@H]1[C@@H](C(=O)OCCOCCOCCOC(=O)c2ccc(-c3c4nc(c(-c5cccc(S(=O)(=O)[O-])c5F)c5ccc([nH]5)c(-c5cccc(S(=O)(=O)[O-])c5F)c5nc(c(-c6cccc(S(=O)(=O)[O-])c6F)c6ccc3[nH]6)C=C5)C=C4)cc2)CCN1C(=O)c1cc2cc(F)ccc2s1
REMARK SMILES IDX 11 1 10 2 9 3 8 4 7 5 6 6 4 7 5 8 3 9 1 10 2 11 83 12 81 13
REMARK SMILES IDX 82 14 84 15 85 16 86 17 87 18 95 19 88 20 94 21 89 22 93 23
REMARK SMILES IDX 90 24 92 25 91 26 12 27 13 28 14 29 15 30 16 31 17 32 18 33
REMARK SMILES IDX 19 34 80 35 20 36 79 37 21 38 22 39 23 40 73 41 24 42 78 43
REMARK SMILES IDX 72 44 74 45 25 46 77 47 71 48 70 49 26 51 58 52 38 53 57 54
REMARK SMILES IDX 39 55 42 56 56 57 75 58 40 59 41 60 55 62 76 63 43 64 27 65
REMARK SMILES IDX 28 66 36 67 29 68 31 69 37 70 30 71 32 72 33 73 34 74 35 75
REMARK SMILES IDX 59 76 60 77 68 78 61 79 63 80 69 81 62 82 64 83 65 84 66 85
REMARK SMILES IDX 67 86 44 87 45 88 53 89 46 90 48 91 54 92 47 93 49 94 50 95
REMARK SMILES IDX 51 96 52 97
REMARK H PARENT 74 50 42 61
REMARK Flexibility Score: inf
ROOT
ATOM      1  C   UNL A   1      36.260  33.726  29.055  1.00  0.00     0.188 C 
ENDROOT
BRANCH   1   2
ATOM      2  C   UNL A   1      36.296  32.233  28.688  1.00  0.00     0.188 C 
BRANCH   2   3
ATOM      3  O   UNL A   1      37.551  31.565  28.655  1.00  0.00    -0.376 OA
BRANCH   3   4
ATOM      4  C   UNL A   1      37.592  30.212  28.217  1.00  0.00     0.202 C 
BRANCH   4   5
ATOM      5  C   UNL A   1      38.988  29.628  28.032  1.00  0.00     0.261 C 
BRANCH   5   6
ATOM      6  O   UNL A   1      38.922  28.188  28.006  1.00  0.00    -0.463 OA
BRANCH   6   7
ATOM      7  C   UNL A   1      39.767  27.561  28.853  1.00  0.00     0.311 C 
ATOM      8  O   UNL A   1      39.628  27.547  30.072  1.00  0.00    -0.252 OA
BRANCH   7   9
ATOM      9  C   UNL A   1      40.850  26.752  28.169  1.00  0.00     0.123 C 
ATOM     10  C   UNL A   1      39.380  24.568  28.131  1.00  0.00     0.032 C 
ATOM     11  C   UNL A   1      40.704  25.252  27.823  1.00  0.00     0.096 C 
ATOM     12  N   UNL A   1      41.900  24.609  28.377  1.00  0.00    -0.334 N 
ATOM     13  C   UNL A   1      42.163  26.911  28.939  1.00  0.00     0.039 C 
ATOM     14  C   UNL A   1      42.750  25.533  29.094  1.00  0.00     0.121 C 
BRANCH  12  15
ATOM     15  C   UNL A   1      42.500  23.435  27.941  1.00  0.00     0.264 C 
ATOM     16  O   UNL A   1      43.231  22.795  28.699  1.00  0.00    -0.268 OA
BRANCH  15  17
ATOM     17  C   UNL A   1      42.199  22.894  26.633  1.00  0.00     0.093 A 
ATOM     18  C   UNL A   1      43.118  22.684  25.617  1.00  0.00     0.034 A 
ATOM     19  S   UNL A   1      41.010  21.648  26.561  1.00  0.00    -0.130 S 
ATOM     20  C   UNL A   1      43.309  21.256  25.482  1.00  0.00    -0.004 A 
ATOM     21  C   UNL A   1      42.242  20.544  26.044  1.00  0.00     0.035 A 
ATOM     22  C   UNL A   1      44.427  20.526  25.014  1.00  0.00     0.048 A 
ATOM     23  C   UNL A   1      42.261  19.143  26.177  1.00  0.00     0.022 A 
ATOM     24  C   UNL A   1      44.474  19.148  25.215  1.00  0.00     0.123 A 
ATOM     25  C   UNL A   1      43.419  18.462  25.794  1.00  0.00     0.041 A 
ATOM     26  F   UNL A   1      45.585  18.479  24.875  1.00  0.00    -0.207 F 
ENDBRANCH  15  17
ENDBRANCH  12  15
ENDBRANCH   7   9
ENDBRANCH   6   7
ENDBRANCH   5   6
ENDBRANCH   4   5
ENDBRANCH   3   4
ENDBRANCH   2   3
ENDBRANCH   1   2
BRANCH   1  27
ATOM     27  O   UNL A   1      35.342  34.199  30.030  1.00  0.00    -0.376 OA
BRANCH  27  28
ATOM     28  C   UNL A   1      34.419  33.269  30.584  1.00  0.00     0.202 C 
BRANCH  28  29
ATOM     29  C   UNL A   1      34.443  33.103  32.103  1.00  0.00     0.261 C 
BRANCH  29  30
ATOM     30  O   UNL A   1      35.353  32.076  32.519  1.00  0.00    -0.460 OA
BRANCH  30  31
ATOM     31  C   UNL A   1      36.201  32.417  33.522  1.00  0.00     0.338 C 
ATOM     32  O   UNL A   1      35.921  32.956  34.577  1.00  0.00    -0.246 OA
BRANCH  31  33
ATOM     33  C   UNL A   1      37.533  31.859  33.226  1.00  0.00     0.060 A 
ATOM     34  C   UNL A   1      38.606  32.213  34.055  1.00  0.00     0.016 A 
ATOM     35  C   UNL A   1      37.727  31.036  32.117  1.00  0.00     0.016 A 
ATOM     36  C   UNL A   1      39.893  31.763  33.762  1.00  0.00     0.010 A 
ATOM     37  C   UNL A   1      39.017  30.609  31.810  1.00  0.00     0.010 A 
ATOM     38  C   UNL A   1      40.107  30.994  32.613  1.00  0.00    -0.014 A 
BRANCH  38  39
ATOM     39  C   UNL A   1      41.475  30.736  32.114  1.00  0.00     0.031 A 
ATOM     40  C   UNL A   1      42.065  31.715  31.140  1.00  0.00     0.074 A 
ATOM     41  C   UNL A   1      42.134  29.614  32.449  1.00  0.00     0.049 A 
ATOM     42  N   UNL A   1      43.136  31.605  30.402  1.00  0.00    -0.248 NA
ATOM     43  C   UNL A   1      41.338  32.984  30.966  1.00  0.00     0.031 C 
ATOM     44  C   UNL A   1      41.668  28.613  33.405  1.00  0.00     0.029 A 
ATOM     45  N   UNL A   1      43.318  29.107  31.975  1.00  0.00    -0.354 N 
ATOM     46  C   UNL A   1      43.186  32.765  29.640  1.00  0.00     0.074 A 
ATOM     47  C   UNL A   1      42.046  33.574  30.014  1.00  0.00     0.031 C 
ATOM     48  C   UNL A   1      42.534  27.583  33.411  1.00  0.00     0.029 A 
ATOM     49  C   UNL A   1      43.585  27.837  32.428  1.00  0.00     0.049 A 
ATOM     50  H   UNL A   1      43.917  29.604  31.371  1.00  0.00     0.167 HD
ATOM     51  C   UNL A   1      44.100  33.123  28.710  1.00  0.00     0.034 A 
ATOM     52  C   UNL A   1      44.542  26.963  32.053  1.00  0.00     0.034 A 
ATOM     53  C   UNL A   1      45.235  32.319  28.356  1.00  0.00     0.049 A 
ATOM     54  C   UNL A   1      45.531  27.371  30.989  1.00  0.00     0.074 A 
ATOM     55  C   UNL A   1      46.238  32.601  27.446  1.00  0.00     0.029 A 
ATOM     56  N   UNL A   1      45.513  31.071  28.889  1.00  0.00    -0.354 N 
ATOM     57  N   UNL A   1      45.620  28.506  30.336  1.00  0.00    -0.248 NA
ATOM     58  C   UNL A   1      46.562  26.389  30.622  1.00  0.00     0.031 C 
ATOM     59  C   UNL A   1      47.113  31.511  27.415  1.00  0.00     0.029 A 
ATOM     60  C   UNL A   1      46.669  30.565  28.325  1.00  0.00     0.049 A 
ATOM     61  H   UNL A   1      44.968  30.613  29.568  1.00  0.00     0.167 HD
ATOM     62  C   UNL A   1      46.740  28.390  29.518  1.00  0.00     0.074 A 
ATOM     63  C   UNL A   1      47.299  27.076  29.759  1.00  0.00     0.031 C 
ATOM     64  C   UNL A   1      47.252  29.285  28.638  1.00  0.00     0.034 A 
BRANCH  51  65
ATOM     65  C   UNL A   1      43.912  34.444  28.017  1.00  0.00     0.023 A 
ATOM     66  C   UNL A   1      43.248  34.492  26.775  1.00  0.00     0.012 A 
ATOM     67  C   UNL A   1      44.351  35.641  28.616  1.00  0.00     0.148 A 
ATOM     68  C   UNL A   1      43.049  35.711  26.126  1.00  0.00     0.002 A 
ATOM     69  C   UNL A   1      44.112  36.854  27.983  1.00  0.00     0.091 A 
ATOM     70  F   UNL A   1      45.006  35.569  29.784  1.00  0.00    -0.205 F 
ATOM     71  C   UNL A   1      43.470  36.890  26.734  1.00  0.00     0.022 A 
BRANCH  69  72
ATOM     72  S   UNL A   1      44.553  38.431  28.721  1.00  0.00     0.127 S 
ATOM     73  O   UNL A   1      45.984  38.504  28.429  1.00  0.00    -0.237 OA
ATOM     74  O   UNL A   1      43.728  39.370  27.961  1.00  0.00    -0.237 OA
ATOM     75  O   UNL A   1      44.207  38.324  30.131  1.00  0.00    -0.744 OA
ENDBRANCH  69  72
ENDBRANCH  51  65
BRANCH  52  76
ATOM     76  C   UNL A   1      44.623  25.622  32.697  1.00  0.00     0.023 A 
ATOM     77  C   UNL A   1      44.122  24.497  32.014  1.00  0.00     0.012 A 
ATOM     78  C   UNL A   1      45.205  25.450  33.969  1.00  0.00     0.148 A 
ATOM     79  C   UNL A   1      44.174  23.230  32.595  1.00  0.00     0.002 A 
ATOM     80  C   UNL A   1      45.300  24.177  34.520  1.00  0.00     0.091 A 
ATOM     81  F   UNL A   1      45.659  26.534  34.612  1.00  0.00    -0.205 F 
ATOM     82  C   UNL A   1      44.772  23.068  33.842  1.00  0.00     0.022 A 
BRANCH  80  83
ATOM     83  S   UNL A   1      46.163  23.857  36.063  1.00  0.00     0.127 S 
ATOM     84  O   UNL A   1      47.467  24.464  35.807  1.00  0.00    -0.237 OA
ATOM     85  O   UNL A   1      45.329  24.573  37.030  1.00  0.00    -0.237 OA
ATOM     86  O   UNL A   1      46.157  22.409  36.224  1.00  0.00    -0.744 OA
ENDBRANCH  80  83
ENDBRANCH  52  76
BRANCH  64  87
ATOM     87  C   UNL A   1      48.517  28.921  27.908  1.00  0.00     0.023 A 
ATOM     88  C   UNL A   1      49.766  29.118  28.528  1.00  0.00     0.012 A 
ATOM     89  C   UNL A   1      48.452  28.259  26.666  1.00  0.00     0.148 A 
ATOM     90  C   UNL A   1      50.936  28.671  27.912  1.00  0.00     0.002 A 
ATOM     91  C   UNL A   1      49.617  27.776  26.082  1.00  0.00     0.091 A 
ATOM     92  F   UNL A   1      47.252  28.096  26.091  1.00  0.00    -0.205 F 
ATOM     93  C   UNL A   1      50.860  27.988  26.700  1.00  0.00     0.022 A 
BRANCH  91  94
ATOM     94  S   UNL A   1      49.606  26.797  24.576  1.00  0.00     0.127 S 
ATOM     95  O   UNL A   1      48.398  25.993  24.752  1.00  0.00    -0.237 OA
ATOM     96  O   UNL A   1      49.509  27.826  23.540  1.00  0.00    -0.237 OA
ATOM     97  O   UNL A   1      50.855  26.048  24.571  1.00  0.00    -0.744 OA
ENDBRANCH  91  94
ENDBRANCH  64  87
ENDBRANCH  38  39
ENDBRANCH  31  33
ENDBRANCH  30  31
ENDBRANCH  29  30
ENDBRANCH  28  29
ENDBRANCH  27  28
ENDBRANCH   1  27
TORSDOF 22
ENDMDL
MODEL 3
REMARK VINA RESULT:      -9.4      5.580     11.136
REMARK SMILES C[C@H]1[C@@H](C(=O)OCCOCCOCCOC(=O)c2ccc(-c3c4nc(c(-c5cccc(S(=O)(=O)[O-])c5F)c5ccc([nH]5)c(-c5cccc(S(=O)(=O)[O-])c5F)c5nc(c(-c6cccc(S(=O)(=O)[O-])c6F)c6ccc3[nH]6)C=C5)C=C4)cc2)CCN1C(=O)c1cc2cc(F)ccc2s1
REMARK SMILES IDX 11 1 10 2 9 3 8 4 7 5 6 6 4 7 5 8 3 9 1 10 2 11 83 12 81 13
REMARK SMILES IDX 82 14 84 15 85 16 86 17 87 18 95 19 88 20 94 21 89 22 93 23
REMARK SMILES IDX 90 24 92 25 91 26 12 27 13 28 14 29 15 30 16 31 17 32 18 33
REMARK SMILES IDX 19 34 80 35 20 36 79 37 21 38 22 39 23 40 73 41 24 42 78 43
REMARK SMILES IDX 72 44 74 45 25 46 77 47 71 48 70 49 26 51 58 52 38 53 57 54
REMARK SMILES IDX 39 55 42 56 56 57 75 58 40 59 41 60 55 62 76 63 43 64 27 65
REMARK SMILES IDX 28 66 36 67 29 68 31 69 37 70 30 71 32 72 33 73 34 74 35 75
REMARK SMILES IDX 59 76 60 77 68 78 61 79 63 80 69 81 62 82 64 83 65 84 66 85
REMARK SMILES IDX 67 86 44 87 45 88 53 89 46 90 48 91 54 92 47 93 49 94 50 95
REMARK SMILES IDX 51 96 52 97
REMARK H PARENT 74 50 42 61
REMARK Flexibility Score: inf
ROOT
ATOM      1  C   UNL A   1      34.295  34.761  33.064  1.00  0.00     0.188 C 
ENDROOT
BRANCH   1   2
ATOM      2  C   UNL A   1      33.755  36.103  32.540  1.00  0.00     0.188 C 
BRANCH   2   3
ATOM      3  O   UNL A   1      33.736  36.334  31.138  1.00  0.00    -0.376 OA
BRANCH   3   4
ATOM      4  C   UNL A   1      32.906  35.515  30.323  1.00  0.00     0.202 C 
BRANCH   4   5
ATOM      5  C   UNL A   1      33.614  34.812  29.170  1.00  0.00     0.261 C 
BRANCH   5   6
ATOM      6  O   UNL A   1      34.337  33.665  29.659  1.00  0.00    -0.463 OA
BRANCH   6   7
ATOM      7  C   UNL A   1      35.074  33.015  28.733  1.00  0.00     0.311 C 
ATOM      8  O   UNL A   1      35.383  33.494  27.646  1.00  0.00    -0.252 OA
BRANCH   7   9
ATOM      9  C   UNL A   1      35.611  31.674  29.190  1.00  0.00     0.123 C 
ATOM     10  C   UNL A   1      37.938  32.693  29.886  1.00  0.00     0.032 C 
ATOM     11  C   UNL A   1      37.042  31.471  29.740  1.00  0.00     0.096 C 
ATOM     12  N   UNL A   1      37.600  30.359  28.964  1.00  0.00    -0.334 N 
ATOM     13  C   UNL A   1      35.403  30.640  28.081  1.00  0.00     0.039 C 
ATOM     14  C   UNL A   1      36.698  29.884  27.940  1.00  0.00     0.121 C 
BRANCH  12  15
ATOM     15  C   UNL A   1      38.598  29.478  29.359  1.00  0.00     0.264 C 
ATOM     16  O   UNL A   1      38.349  28.582  30.168  1.00  0.00    -0.268 OA
BRANCH  15  17
ATOM     17  C   UNL A   1      39.912  29.533  28.756  1.00  0.00     0.093 A 
ATOM     18  C   UNL A   1      41.107  29.245  29.398  1.00  0.00     0.034 A 
ATOM     19  S   UNL A   1      40.038  29.021  27.115  1.00  0.00    -0.130 S 
ATOM     20  C   UNL A   1      41.599  27.989  28.877  1.00  0.00    -0.004 A 
ATOM     21  C   UNL A   1      41.019  27.692  27.636  1.00  0.00     0.035 A 
ATOM     22  C   UNL A   1      42.427  27.013  29.480  1.00  0.00     0.048 A 
ATOM     23  C   UNL A   1      41.217  26.455  26.993  1.00  0.00     0.022 A 
ATOM     24  C   UNL A   1      42.559  25.764  28.876  1.00  0.00     0.123 A 
ATOM     25  C   UNL A   1      41.960  25.478  27.660  1.00  0.00     0.041 A 
ATOM     26  F   UNL A   1      43.248  24.804  29.510  1.00  0.00    -0.207 F 
ENDBRANCH  15  17
ENDBRANCH  12  15
ENDBRANCH   7   9
ENDBRANCH   6   7
ENDBRANCH   5   6
ENDBRANCH   4   5
ENDBRANCH   3   4
ENDBRANCH   2   3
ENDBRANCH   1   2
BRANCH   1  27
ATOM     27  O   UNL A   1      35.584  34.695  33.657  1.00  0.00    -0.376 OA
BRANCH  27  28
ATOM     28  C   UNL A   1      35.665  34.404  35.046  1.00  0.00     0.202 C 
BRANCH  28  29
ATOM     29  C   UNL A   1      36.930  33.691  35.523  1.00  0.00     0.261 C 
BRANCH  29  30
ATOM     30  O   UNL A   1      36.822  32.265  35.407  1.00  0.00    -0.460 OA
BRANCH  30  31
ATOM     31  C   UNL A   1      37.827  31.555  35.979  1.00  0.00     0.338 C 
ATOM     32  O   UNL A   1      37.782  30.906  37.009  1.00  0.00    -0.246 OA
BRANCH  31  33
ATOM     33  C   UNL A   1      38.973  31.525  35.053  1.00  0.00     0.060 A 
ATOM     34  C   UNL A   1      38.811  30.903  33.808  1.00  0.00     0.016 A 
ATOM     35  C   UNL A   1      40.203  32.063  35.429  1.00  0.00     0.016 A 
ATOM     36  C   UNL A   1      39.894  30.791  32.936  1.00  0.00     0.010 A 
ATOM     37  C   UNL A   1      41.292  31.928  34.570  1.00  0.00     0.010 A 
ATOM     38  C   UNL A   1      41.148  31.267  33.335  1.00  0.00    -0.014 A 
BRANCH  38  39
ATOM     39  C   UNL A   1      42.369  30.923  32.575  1.00  0.00     0.031 A 
ATOM     40  C   UNL A   1      42.800  31.852  31.477  1.00  0.00     0.074 A 
ATOM     41  C   UNL A   1      43.021  29.770  32.798  1.00  0.00     0.049 A 
ATOM     42  N   UNL A   1      43.689  31.670  30.539  1.00  0.00    -0.248 NA
ATOM     43  C   UNL A   1      42.122  33.159  31.421  1.00  0.00     0.031 C 
ATOM     44  C   UNL A   1      42.707  28.811  33.855  1.00  0.00     0.029 A 
ATOM     45  N   UNL A   1      44.054  29.188  32.106  1.00  0.00    -0.354 N 
ATOM     46  C   UNL A   1      43.646  32.814  29.754  1.00  0.00     0.074 A 
ATOM     47  C   UNL A   1      42.651  33.692  30.330  1.00  0.00     0.031 C 
ATOM     48  C   UNL A   1      43.499  27.733  33.712  1.00  0.00     0.029 A 
ATOM     49  C   UNL A   1      44.339  27.911  32.529  1.00  0.00     0.049 A 
ATOM     50  H   UNL A   1      44.542  29.640  31.380  1.00  0.00     0.167 HD
ATOM     51  C   UNL A   1      44.368  33.104  28.648  1.00  0.00     0.034 A 
ATOM     52  C   UNL A   1      45.150  26.978  31.990  1.00  0.00     0.034 A 
ATOM     53  C   UNL A   1      45.361  32.231  28.091  1.00  0.00     0.049 A 
ATOM     54  C   UNL A   1      45.921  27.312  30.737  1.00  0.00     0.074 A 
ATOM     55  C   UNL A   1      46.171  32.441  26.990  1.00  0.00     0.029 A 
ATOM     56  N   UNL A   1      45.674  30.976  28.589  1.00  0.00    -0.354 N 
ATOM     57  N   UNL A   1      45.936  28.430  30.050  1.00  0.00    -0.248 NA
ATOM     58  C   UNL A   1      46.801  26.266  30.193  1.00  0.00     0.031 C 
ATOM     59  C   UNL A   1      46.961  31.301  26.809  1.00  0.00     0.029 A 
ATOM     60  C   UNL A   1      46.661  30.395  27.815  1.00  0.00     0.049 A 
ATOM     61  H   UNL A   1      45.255  30.560  29.377  1.00  0.00     0.167 HD
ATOM     62  C   UNL A   1      46.857  28.237  29.025  1.00  0.00     0.074 A 
ATOM     63  C   UNL A   1      47.382  26.897  29.181  1.00  0.00     0.031 C 
ATOM     64  C   UNL A   1      47.226  29.088  28.036  1.00  0.00     0.034 A 
BRANCH  51  65
ATOM     65  C   UNL A   1      44.114  34.424  27.974  1.00  0.00     0.023 A 
ATOM     66  C   UNL A   1      43.149  34.511  26.951  1.00  0.00     0.012 A 
ATOM     67  C   UNL A   1      44.797  35.586  28.384  1.00  0.00     0.148 A 
ATOM     68  C   UNL A   1      42.887  35.730  26.326  1.00  0.00     0.002 A 
ATOM     69  C   UNL A   1      44.501  36.804  27.785  1.00  0.00     0.091 A 
ATOM     70  F   UNL A   1      45.731  35.475  29.339  1.00  0.00    -0.205 F 
ATOM     71  C   UNL A   1      43.553  36.876  26.750  1.00  0.00     0.022 A 
BRANCH  69  72
ATOM     72  S   UNL A   1      45.255  38.346  28.312  1.00  0.00     0.127 S 
ATOM     73  O   UNL A   1      45.033  39.198  27.145  1.00  0.00    -0.237 OA
ATOM     74  O   UNL A   1      44.452  38.698  29.484  1.00  0.00    -0.237 OA
ATOM     75  O   UNL A   1      46.647  38.033  28.603  1.00  0.00    -0.744 OA
ENDBRANCH  69  72
ENDBRANCH  51  65
BRANCH  52  76
ATOM     76  C   UNL A   1      45.288  25.643  32.638  1.00  0.00     0.023 A 
ATOM     77  C   UNL A   1      44.388  24.615  32.300  1.00  0.00     0.012 A 
ATOM     78  C   UNL A   1      46.311  25.380  33.571  1.00  0.00     0.148 A 
ATOM     79  C   UNL A   1      44.485  23.358  32.898  1.00  0.00     0.002 A 
ATOM     80  C   UNL A   1      46.434  24.111  34.124  1.00  0.00     0.091 A 
ATOM     81  F   UNL A   1      47.148  26.376  33.895  1.00  0.00    -0.205 F 
ATOM     82  C   UNL A   1      45.514  23.103  33.801  1.00  0.00     0.022 A 
BRANCH  80  83
ATOM     83  S   UNL A   1      47.800  23.657  35.200  1.00  0.00     0.127 S 
ATOM     84  O   UNL A   1      48.936  24.264  34.512  1.00  0.00    -0.237 OA
ATOM     85  O   UNL A   1      47.423  24.305  36.457  1.00  0.00    -0.237 OA
ATOM     86  O   UNL A   1      47.792  22.201  35.251  1.00  0.00    -0.744 OA
ENDBRANCH  80  83
ENDBRANCH  52  76
BRANCH  64  87
ATOM     87  C   UNL A   1      48.294  28.641  27.074  1.00  0.00     0.023 A 
ATOM     88  C   UNL A   1      49.634  28.567  27.497  1.00  0.00     0.012 A 
ATOM     89  C   UNL A   1      47.940  28.166  25.794  1.00  0.00     0.148 A 
ATOM     90  C   UNL A   1      50.611  28.037  26.654  1.00  0.00     0.002 A 
ATOM     91  C   UNL A   1      48.910  27.598  24.979  1.00  0.00     0.091 A 
ATOM     92  F   UNL A   1      46.659  28.262  25.410  1.00  0.00    -0.205 F 
ATOM     93  C   UNL A   1      50.247  27.540  25.404  1.00  0.00     0.022 A 
BRANCH  91  94
ATOM     94  S   UNL A   1      48.519  26.840  23.398  1.00  0.00     0.127 S 
ATOM     95  O   UNL A   1      47.582  27.807  22.828  1.00  0.00    -0.237 OA
ATOM     96  O   UNL A   1      49.827  26.798  22.744  1.00  0.00    -0.237 OA
ATOM     97  O   UNL A   1      47.953  25.534  23.705  1.00  0.00    -0.744 OA
ENDBRANCH  91  94
ENDBRANCH  64  87
ENDBRANCH  38  39
ENDBRANCH  31  33
ENDBRANCH  30  31
ENDBRANCH  29  30
ENDBRANCH  28  29
ENDBRANCH  27  28
ENDBRANCH   1  27
TORSDOF 22
ENDMDL
