MODEL 1
REMARK VINA RESULT:      -9.5      0.000      0.000
REMARK SMILES Cc1ccc(-c2[nH]c3ccccc3c2[C@@H]2c3ccccc3C(=O)N2[C@H](C)C(=O)OCCOCCOCCOC(=O)c2ccc(-c3c4nc(c(-c5cccc(S(=O)(=O)[O-])c5F)c5ccc([nH]5)c(-c5cccc(S(=O)(=O)[O-])c5F)c5nc(c(-c6cccc(S(=O)(=O)[O-])c6F)c6ccc3[nH]6)C=C5)C=C4)cc2)cc1
REMARK SMILES IDX 33 1 32 2 31 3 30 4 29 5 27 6 28 7 25 8 26 9 24 10 15 11
REMARK SMILES IDX 16 12 17 13 21 14 22 15 18 16 20 17 23 18 19 19 14 20 6 21
REMARK SMILES IDX 7 22 8 23 13 25 9 26 12 27 10 28 11 29 5 30 1 31 2 32 3 33
REMARK SMILES IDX 105 34 4 35 104 36 34 37 35 38 36 39 37 40 38 41 39 42 40 43
REMARK SMILES IDX 41 44 42 45 103 46 43 47 102 48 44 49 45 50 46 51 96 52
REMARK SMILES IDX 47 53 101 54 95 55 97 56 48 57 100 58 94 59 93 60 49 62
REMARK SMILES IDX 81 63 61 64 80 65 62 66 65 67 79 68 98 69 63 70 64 71 78 73
REMARK SMILES IDX 99 74 66 75 50 76 51 77 59 78 52 79 54 80 60 81 53 82 55 83
REMARK SMILES IDX 56 84 57 85 58 86 82 87 83 88 91 89 84 90 86 91 92 92 85 93
REMARK SMILES IDX 87 94 88 95 89 96 90 97 67 98 68 99 76 100 69 101 71 102
REMARK SMILES IDX 77 103 70 104 72 105 73 106 74 107 75 108
REMARK H PARENT 7 24 97 61 65 72
REMARK Flexibility Score: inf
ROOT
ATOM      1  C   UNL A   1      43.951  22.893  30.340  1.00  0.00     0.188 C 
ENDROOT
BRANCH   1   2
ATOM      2  O   UNL A   1      44.404  23.874  31.278  1.00  0.00    -0.376 OA
BRANCH   2   3
ATOM      3  C   UNL A   1      44.517  23.848  32.714  1.00  0.00     0.202 C 
BRANCH   3   4
ATOM      4  C   UNL A   1      43.908  24.828  34.037  1.00  0.00     0.261 C 
BRANCH   4   5
ATOM      5  O   UNL A   1      43.017  26.345  33.942  1.00  0.00    -0.462 OA
BRANCH   5   6
ATOM      6  C   UNL A   1      42.146  27.323  34.497  1.00  0.00     0.328 C 
ATOM      7  O   UNL A   1      40.917  27.234  34.549  1.00  0.00    -0.250 OA
BRANCH   6   8
ATOM      8  C   UNL A   1      42.715  28.535  35.322  1.00  0.00     0.193 C 
ATOM      9  C   UNL A   1      41.737  29.558  35.897  1.00  0.00     0.044 C 
BRANCH   8  10
ATOM     10  N   UNL A   1      43.616  28.195  36.452  1.00  0.00    -0.314 N 
ATOM     11  C   UNL A   1      45.036  28.527  36.689  1.00  0.00     0.151 C 
ATOM     12  C   UNL A   1      45.458  27.351  37.555  1.00  0.00    -0.008 A 
ATOM     13  C   UNL A   1      46.274  27.240  38.666  1.00  0.00     0.007 A 
ATOM     14  C   UNL A   1      44.457  26.394  37.515  1.00  0.00     0.045 A 
ATOM     15  C   UNL A   1      43.235  27.112  37.216  1.00  0.00     0.255 C 
ATOM     16  C   UNL A   1      46.160  26.086  39.491  1.00  0.00     0.000 A 
ATOM     17  C   UNL A   1      44.418  25.164  38.138  1.00  0.00     0.014 A 
ATOM     18  O   UNL A   1      42.147  26.703  37.530  1.00  0.00    -0.269 OA
ATOM     19  C   UNL A   1      45.303  25.014  39.175  1.00  0.00     0.001 A 
BRANCH  11  20
ATOM     20  C   UNL A   1      45.868  28.665  35.414  1.00  0.00     0.013 A 
ATOM     21  C   UNL A   1      45.759  29.750  34.532  1.00  0.00     0.052 A 
ATOM     22  N   UNL A   1      46.013  29.273  33.263  1.00  0.00    -0.354 N 
ATOM     23  C   UNL A   1      46.489  27.987  33.317  1.00  0.00     0.046 A 
ATOM     24  H   UNL A   1      45.871  29.784  32.434  1.00  0.00     0.167 HD
ATOM     25  C   UNL A   1      46.618  27.670  34.673  1.00  0.00     0.006 A 
ATOM     26  C   UNL A   1      46.774  27.082  32.282  1.00  0.00     0.027 A 
ATOM     27  C   UNL A   1      47.239  26.445  34.983  1.00  0.00     0.011 A 
ATOM     28  C   UNL A   1      47.274  25.827  32.636  1.00  0.00     0.002 A 
ATOM     29  C   UNL A   1      47.545  25.528  33.967  1.00  0.00     0.001 A 
BRANCH  21  30
ATOM     30  C   UNL A   1      45.235  31.095  34.743  1.00  0.00    -0.002 A 
ATOM     31  C   UNL A   1      43.678  35.053  35.455  1.00  0.00     0.044 C 
ATOM     32  C   UNL A   1      44.239  33.689  35.201  1.00  0.00    -0.051 A 
ATOM     33  C   UNL A   1      45.447  33.282  35.776  1.00  0.00     0.004 A 
ATOM     34  C   UNL A   1      43.549  32.798  34.380  1.00  0.00     0.004 A 
ATOM     35  C   UNL A   1      45.939  31.993  35.549  1.00  0.00     0.010 A 
ATOM     36  C   UNL A   1      44.055  31.523  34.137  1.00  0.00     0.010 A 
ENDBRANCH  21  30
ENDBRANCH  11  20
ENDBRANCH   8  10
ENDBRANCH   6   8
ENDBRANCH   5   6
ENDBRANCH   4   5
ENDBRANCH   3   4
ENDBRANCH   2   3
ENDBRANCH   1   2
BRANCH   1  37
ATOM     37  C   UNL A   1      43.766  23.189  28.868  1.00  0.00     0.188 C 
BRANCH  37  38
ATOM     38  O   UNL A   1      42.421  22.966  28.521  1.00  0.00    -0.376 OA
BRANCH  38  39
ATOM     39  C   UNL A   1      42.118  21.731  27.914  1.00  0.00     0.202 C 
BRANCH  39  40
ATOM     40  C   UNL A   1      42.131  21.715  26.365  1.00  0.00     0.261 C 
BRANCH  40  41
ATOM     41  O   UNL A   1      41.587  22.921  25.758  1.00  0.00    -0.460 OA
BRANCH  41  42
ATOM     42  C   UNL A   1      42.453  23.935  25.369  1.00  0.00     0.338 C 
ATOM     43  O   UNL A   1      43.612  23.735  25.055  1.00  0.00    -0.246 OA
BRANCH  42  44
ATOM     44  C   UNL A   1      41.808  25.282  25.591  1.00  0.00     0.060 A 
ATOM     45  C   UNL A   1      42.279  26.595  25.414  1.00  0.00     0.016 A 
ATOM     46  C   UNL A   1      40.718  25.208  26.360  1.00  0.00     0.016 A 
ATOM     47  C   UNL A   1      41.739  27.757  26.193  1.00  0.00     0.010 A 
ATOM     48  C   UNL A   1      40.510  26.258  27.248  1.00  0.00     0.010 A 
ATOM     49  C   UNL A   1      40.839  27.627  27.264  1.00  0.00    -0.014 A 
BRANCH  49  50
ATOM     50  C   UNL A   1      40.422  28.761  28.469  1.00  0.00     0.031 A 
ATOM     51  C   UNL A   1      39.199  29.923  28.759  1.00  0.00     0.074 A 
ATOM     52  C   UNL A   1      41.184  28.638  29.583  1.00  0.00     0.049 A 
ATOM     53  N   UNL A   1      39.371  31.048  29.448  1.00  0.00    -0.248 NA
ATOM     54  C   UNL A   1      37.763  29.959  28.342  1.00  0.00     0.031 C 
ATOM     55  C   UNL A   1      41.028  29.240  30.910  1.00  0.00     0.029 A 
ATOM     56  N   UNL A   1      42.348  27.877  29.719  1.00  0.00    -0.354 N 
ATOM     57  C   UNL A   1      38.173  31.809  29.445  1.00  0.00     0.074 A 
ATOM     58  C   UNL A   1      37.317  31.173  28.569  1.00  0.00     0.031 C 
ATOM     59  C   UNL A   1      42.189  29.106  31.579  1.00  0.00     0.029 A 
ATOM     60  C   UNL A   1      43.149  28.533  30.651  1.00  0.00     0.049 A 
ATOM     61  H   UNL A   1      42.561  27.039  29.248  1.00  0.00     0.167 HD
ATOM     62  C   UNL A   1      37.839  32.914  30.161  1.00  0.00     0.034 A 
ATOM     63  C   UNL A   1      44.313  29.096  30.225  1.00  0.00     0.034 A 
ATOM     64  C   UNL A   1      38.966  33.226  31.001  1.00  0.00     0.049 A 
ATOM     65  C   UNL A   1      44.273  30.600  30.411  1.00  0.00     0.074 A 
ATOM     66  C   UNL A   1      39.299  32.749  32.254  1.00  0.00     0.029 A 
ATOM     67  N   UNL A   1      40.145  33.653  30.397  1.00  0.00    -0.354 N 
ATOM     68  N   UNL A   1      43.184  31.310  30.575  1.00  0.00    -0.248 NA
ATOM     69  C   UNL A   1      45.483  31.403  30.499  1.00  0.00     0.031 C 
ATOM     70  C   UNL A   1      40.718  32.721  32.322  1.00  0.00     0.029 A 
ATOM     71  C   UNL A   1      41.238  33.299  31.173  1.00  0.00     0.049 A 
ATOM     72  H   UNL A   1      40.195  34.137  29.540  1.00  0.00     0.167 HD
ATOM     73  C   UNL A   1      43.512  32.632  30.700  1.00  0.00     0.074 A 
ATOM     74  C   UNL A   1      44.968  32.626  30.703  1.00  0.00     0.031 C 
ATOM     75  C   UNL A   1      42.594  33.648  30.767  1.00  0.00     0.034 A 
BRANCH  62  76
ATOM     76  C   UNL A   1      36.452  33.654  30.124  1.00  0.00     0.023 A 
ATOM     77  C   UNL A   1      35.841  33.820  28.865  1.00  0.00     0.012 A 
ATOM     78  C   UNL A   1      35.680  34.195  31.213  1.00  0.00     0.148 A 
ATOM     79  C   UNL A   1      34.562  34.406  28.706  1.00  0.00     0.002 A 
ATOM     80  C   UNL A   1      34.353  34.644  31.072  1.00  0.00     0.091 A 
ATOM     81  F   UNL A   1      36.249  34.461  32.396  1.00  0.00    -0.205 F 
ATOM     82  C   UNL A   1      33.795  34.769  29.808  1.00  0.00     0.022 A 
BRANCH  80  83
ATOM     83  S   UNL A   1      33.278  34.960  32.504  1.00  0.00     0.127 S 
ATOM     84  O   UNL A   1      33.960  36.061  33.181  1.00  0.00    -0.237 OA
ATOM     85  O   UNL A   1      32.008  35.328  31.877  1.00  0.00    -0.237 OA
ATOM     86  O   UNL A   1      33.237  33.704  33.251  1.00  0.00    -0.744 OA
ENDBRANCH  80  83
ENDBRANCH  62  76
BRANCH  63  87
ATOM     87  C   UNL A   1      45.020  28.323  29.135  1.00  0.00     0.023 A 
ATOM     88  C   UNL A   1      44.620  26.968  28.926  1.00  0.00     0.012 A 
ATOM     89  C   UNL A   1      45.837  28.907  28.157  1.00  0.00     0.148 A 
ATOM     90  C   UNL A   1      44.915  26.272  27.750  1.00  0.00     0.002 A 
ATOM     91  C   UNL A   1      46.137  28.200  26.980  1.00  0.00     0.091 A 
ATOM     92  F   UNL A   1      46.268  30.162  28.335  1.00  0.00    -0.205 F 
ATOM     93  C   UNL A   1      45.670  26.893  26.769  1.00  0.00     0.022 A 
BRANCH  91  94
ATOM     94  S   UNL A   1      46.893  29.050  25.582  1.00  0.00     0.127 S 
ATOM     95  O   UNL A   1      46.029  30.220  25.402  1.00  0.00    -0.237 OA
ATOM     96  O   UNL A   1      48.226  29.348  26.075  1.00  0.00    -0.237 OA
ATOM     97  O   UNL A   1      46.785  28.046  24.528  1.00  0.00    -0.744 OA
ENDBRANCH  91  94
ENDBRANCH  63  87
BRANCH  75  98
ATOM     98  C   UNL A   1      42.947  35.101  30.510  1.00  0.00     0.023 A 
ATOM     99  C   UNL A   1      43.570  35.894  31.495  1.00  0.00     0.012 A 
ATOM    100  C   UNL A   1      42.808  35.688  29.227  1.00  0.00     0.148 A 
ATOM    101  C   UNL A   1      43.918  37.227  31.269  1.00  0.00     0.002 A 
ATOM    102  C   UNL A   1      43.296  36.965  28.966  1.00  0.00     0.091 A 
ATOM    103  F   UNL A   1      42.187  35.026  28.241  1.00  0.00    -0.205 F 
ATOM    104  C   UNL A   1      43.801  37.759  29.995  1.00  0.00     0.022 A 
BRANCH 102 105
ATOM    105  S   UNL A   1      43.457  37.545  27.272  1.00  0.00     0.127 S 
ATOM    106  O   UNL A   1      44.116  36.417  26.619  1.00  0.00    -0.237 OA
ATOM    107  O   UNL A   1      42.064  37.751  26.870  1.00  0.00    -0.237 OA
ATOM    108  O   UNL A   1      44.231  38.777  27.374  1.00  0.00    -0.744 OA
ENDBRANCH 102 105
ENDBRANCH  75  98
ENDBRANCH  49  50
ENDBRANCH  42  44
ENDBRANCH  41  42
ENDBRANCH  40  41
ENDBRANCH  39  40
ENDBRANCH  38  39
ENDBRANCH  37  38
ENDBRANCH   1  37
TORSDOF 23
ENDMDL
MODEL 2
REMARK VINA RESULT:      -9.3      3.247     11.088
REMARK SMILES Cc1ccc(-c2[nH]c3ccccc3c2[C@@H]2c3ccccc3C(=O)N2[C@H](C)C(=O)OCCOCCOCCOC(=O)c2ccc(-c3c4nc(c(-c5cccc(S(=O)(=O)[O-])c5F)c5ccc([nH]5)c(-c5cccc(S(=O)(=O)[O-])c5F)c5nc(c(-c6cccc(S(=O)(=O)[O-])c6F)c6ccc3[nH]6)C=C5)C=C4)cc2)cc1
REMARK SMILES IDX 33 1 32 2 31 3 30 4 29 5 27 6 28 7 25 8 26 9 24 10 15 11
REMARK SMILES IDX 16 12 17 13 21 14 22 15 18 16 20 17 23 18 19 19 14 20 6 21
REMARK SMILES IDX 7 22 8 23 13 25 9 26 12 27 10 28 11 29 5 30 1 31 2 32 3 33
REMARK SMILES IDX 105 34 4 35 104 36 34 37 35 38 36 39 37 40 38 41 39 42 40 43
REMARK SMILES IDX 41 44 42 45 103 46 43 47 102 48 44 49 45 50 46 51 96 52
REMARK SMILES IDX 47 53 101 54 95 55 97 56 48 57 100 58 94 59 93 60 49 62
REMARK SMILES IDX 81 63 61 64 80 65 62 66 65 67 79 68 98 69 63 70 64 71 78 73
REMARK SMILES IDX 99 74 66 75 50 76 51 77 59 78 52 79 54 80 60 81 53 82 55 83
REMARK SMILES IDX 56 84 57 85 58 86 82 87 83 88 91 89 84 90 86 91 92 92 85 93
REMARK SMILES IDX 87 94 88 95 89 96 90 97 67 98 68 99 76 100 69 101 71 102
REMARK SMILES IDX 77 103 70 104 72 105 73 106 74 107 75 108
REMARK H PARENT 7 24 97 61 65 72
REMARK Flexibility Score: inf
ROOT
ATOM      1  C   UNL A   1      40.335  28.353  31.654  1.00  0.00     0.188 C 
ENDROOT
BRANCH   1   2
ATOM      2  O   UNL A   1      41.076  29.371  30.975  1.00  0.00    -0.376 OA
BRANCH   2   3
ATOM      3  C   UNL A   1      42.077  29.303  29.942  1.00  0.00     0.202 C 
BRANCH   3   4
ATOM      4  C   UNL A   1      43.308  28.145  29.464  1.00  0.00     0.261 C 
BRANCH   4   5
ATOM      5  O   UNL A   1      43.263  26.391  29.615  1.00  0.00    -0.462 OA
BRANCH   5   6
ATOM      6  C   UNL A   1      43.651  25.086  29.198  1.00  0.00     0.328 C 
ATOM      7  O   UNL A   1      42.893  24.119  29.091  1.00  0.00    -0.250 OA
BRANCH   6   8
ATOM      8  C   UNL A   1      45.082  24.822  28.603  1.00  0.00     0.193 C 
ATOM      9  C   UNL A   1      45.431  23.415  28.123  1.00  0.00     0.044 C 
BRANCH   8  10
ATOM     10  N   UNL A   1      45.509  25.717  27.497  1.00  0.00    -0.314 N 
ATOM     11  C   UNL A   1      44.795  26.156  26.281  1.00  0.00     0.151 C 
ATOM     12  C   UNL A   1      45.966  26.406  25.343  1.00  0.00    -0.008 A 
ATOM     13  C   UNL A   1      46.232  27.383  24.403  1.00  0.00     0.007 A 
ATOM     14  C   UNL A   1      47.110  25.875  25.918  1.00  0.00     0.045 A 
ATOM     15  C   UNL A   1      46.870  25.874  27.347  1.00  0.00     0.255 C 
ATOM     16  C   UNL A   1      47.575  27.577  23.972  1.00  0.00     0.000 A 
ATOM     17  C   UNL A   1      48.395  25.859  25.419  1.00  0.00     0.014 A 
ATOM     18  O   UNL A   1      47.761  25.904  28.156  1.00  0.00    -0.269 OA
ATOM     19  C   UNL A   1      48.633  26.757  24.410  1.00  0.00     0.001 A 
BRANCH  11  20
ATOM     20  C   UNL A   1      43.796  25.136  25.737  1.00  0.00     0.013 A 
ATOM     21  C   UNL A   1      42.416  25.198  25.980  1.00  0.00     0.052 A 
ATOM     22  N   UNL A   1      41.949  23.901  26.029  1.00  0.00    -0.354 N 
ATOM     23  C   UNL A   1      42.920  23.024  25.615  1.00  0.00     0.046 A 
ATOM     24  H   UNL A   1      41.046  23.641  26.320  1.00  0.00     0.167 HD
ATOM     25  C   UNL A   1      44.011  23.802  25.213  1.00  0.00     0.006 A 
ATOM     26  C   UNL A   1      42.928  21.619  25.605  1.00  0.00     0.027 A 
ATOM     27  C   UNL A   1      45.083  23.125  24.601  1.00  0.00     0.011 A 
ATOM     28  C   UNL A   1      44.062  20.980  25.101  1.00  0.00     0.002 A 
ATOM     29  C   UNL A   1      45.109  21.722  24.566  1.00  0.00     0.001 A 
BRANCH  21  30
ATOM     30  C   UNL A   1      41.572  26.319  26.379  1.00  0.00    -0.002 A 
ATOM     31  C   UNL A   1      39.153  29.675  27.596  1.00  0.00     0.044 C 
ATOM     32  C   UNL A   1      39.988  28.515  27.151  1.00  0.00    -0.051 A 
ATOM     33  C   UNL A   1      40.985  28.666  26.183  1.00  0.00     0.004 A 
ATOM     34  C   UNL A   1      39.776  27.256  27.710  1.00  0.00     0.004 A 
ATOM     35  C   UNL A   1      41.772  27.576  25.803  1.00  0.00     0.010 A 
ATOM     36  C   UNL A   1      40.546  26.166  27.311  1.00  0.00     0.010 A 
ENDBRANCH  21  30
ENDBRANCH  11  20
ENDBRANCH   8  10
ENDBRANCH   6   8
ENDBRANCH   5   6
ENDBRANCH   4   5
ENDBRANCH   3   4
ENDBRANCH   2   3
ENDBRANCH   1   2
BRANCH   1  37
ATOM     37  C   UNL A   1      39.072  28.639  32.436  1.00  0.00     0.188 C 
BRANCH  37  38
ATOM     38  O   UNL A   1      37.959  28.258  31.664  1.00  0.00    -0.376 OA
BRANCH  38  39
ATOM     39  C   UNL A   1      37.684  29.034  30.521  1.00  0.00     0.202 C 
BRANCH  39  40
ATOM     40  C   UNL A   1      36.530  30.057  30.658  1.00  0.00     0.261 C 
BRANCH  40  41
ATOM     41  O   UNL A   1      36.716  31.266  29.868  1.00  0.00    -0.460 OA
BRANCH  41  42
ATOM     42  C   UNL A   1      36.492  32.503  30.458  1.00  0.00     0.338 C 
ATOM     43  O   UNL A   1      35.401  33.042  30.479  1.00  0.00    -0.246 OA
BRANCH  42  44
ATOM     44  C   UNL A   1      37.805  33.129  30.864  1.00  0.00     0.060 A 
ATOM     45  C   UNL A   1      38.721  33.938  30.170  1.00  0.00     0.016 A 
ATOM     46  C   UNL A   1      38.317  32.575  31.968  1.00  0.00     0.016 A 
ATOM     47  C   UNL A   1      40.179  33.989  30.517  1.00  0.00     0.010 A 
ATOM     48  C   UNL A   1      39.700  32.436  32.010  1.00  0.00     0.010 A 
ATOM     49  C   UNL A   1      40.788  33.132  31.449  1.00  0.00    -0.014 A 
BRANCH  49  50
ATOM     50  C   UNL A   1      42.444  32.799  31.689  1.00  0.00     0.031 A 
ATOM     51  C   UNL A   1      43.798  32.320  30.756  1.00  0.00     0.074 A 
ATOM     52  C   UNL A   1      42.863  33.124  32.936  1.00  0.00     0.049 A 
ATOM     53  N   UNL A   1      44.813  31.594  31.214  1.00  0.00    -0.248 NA
ATOM     54  C   UNL A   1      44.140  32.575  29.322  1.00  0.00     0.031 C 
ATOM     55  C   UNL A   1      44.217  33.212  33.490  1.00  0.00     0.029 A 
ATOM     56  N   UNL A   1      42.056  33.457  34.028  1.00  0.00    -0.354 N 
ATOM     57  C   UNL A   1      45.732  31.325  30.165  1.00  0.00     0.074 A 
ATOM     58  C   UNL A   1      45.133  31.777  29.007  1.00  0.00     0.031 C 
ATOM     59  C   UNL A   1      44.130  33.233  34.833  1.00  0.00     0.029 A 
ATOM     60  C   UNL A   1      42.731  33.029  35.170  1.00  0.00     0.049 A 
ATOM     61  H   UNL A   1      41.182  33.908  33.996  1.00  0.00     0.167 HD
ATOM     62  C   UNL A   1      46.979  30.788  30.213  1.00  0.00     0.034 A 
ATOM     63  C   UNL A   1      42.203  32.001  35.889  1.00  0.00     0.034 A 
ATOM     64  C   UNL A   1      47.263  30.512  31.598  1.00  0.00     0.049 A 
ATOM     65  C   UNL A   1      43.141  30.810  35.877  1.00  0.00     0.074 A 
ATOM     66  C   UNL A   1      47.788  31.332  32.577  1.00  0.00     0.029 A 
ATOM     67  N   UNL A   1      46.528  29.521  32.240  1.00  0.00    -0.354 N 
ATOM     68  N   UNL A   1      44.107  30.621  35.013  1.00  0.00    -0.248 NA
ATOM     69  C   UNL A   1      43.094  29.777  36.900  1.00  0.00     0.031 C 
ATOM     70  C   UNL A   1      47.202  30.932  33.809  1.00  0.00     0.029 A 
ATOM     71  C   UNL A   1      46.434  29.796  33.596  1.00  0.00     0.049 A 
ATOM     72  H   UNL A   1      46.130  28.737  31.796  1.00  0.00     0.167 HD
ATOM     73  C   UNL A   1      44.744  29.442  35.288  1.00  0.00     0.074 A 
ATOM     74  C   UNL A   1      44.106  28.984  36.513  1.00  0.00     0.031 C 
ATOM     75  C   UNL A   1      45.724  28.898  34.499  1.00  0.00     0.034 A 
BRANCH  62  76
ATOM     76  C   UNL A   1      47.944  30.585  28.989  1.00  0.00     0.023 A 
ATOM     77  C   UNL A   1      47.734  29.451  28.180  1.00  0.00     0.012 A 
ATOM     78  C   UNL A   1      49.038  31.413  28.545  1.00  0.00     0.148 A 
ATOM     79  C   UNL A   1      48.489  29.193  27.011  1.00  0.00     0.002 A 
ATOM     80  C   UNL A   1      49.689  31.234  27.310  1.00  0.00     0.091 A 
ATOM     81  F   UNL A   1      49.611  32.299  29.370  1.00  0.00    -0.205 F 
ATOM     82  C   UNL A   1      49.428  30.107  26.545  1.00  0.00     0.022 A 
BRANCH  80  83
ATOM     83  S   UNL A   1      50.789  32.498  26.603  1.00  0.00     0.127 S 
ATOM     84  O   UNL A   1      49.955  33.697  26.619  1.00  0.00    -0.237 OA
ATOM     85  O   UNL A   1      51.902  32.522  27.553  1.00  0.00    -0.237 OA
ATOM     86  O   UNL A   1      51.148  32.010  25.273  1.00  0.00    -0.744 OA
ENDBRANCH  80  83
ENDBRANCH  62  76
BRANCH  63  87
ATOM     87  C   UNL A   1      40.692  31.982  35.936  1.00  0.00     0.023 A 
ATOM     88  C   UNL A   1      40.021  31.019  35.122  1.00  0.00     0.012 A 
ATOM     89  C   UNL A   1      39.924  32.649  36.902  1.00  0.00     0.148 A 
ATOM     90  C   UNL A   1      38.690  30.651  35.338  1.00  0.00     0.002 A 
ATOM     91  C   UNL A   1      38.584  32.280  37.109  1.00  0.00     0.091 A 
ATOM     92  F   UNL A   1      40.505  33.589  37.658  1.00  0.00    -0.205 F 
ATOM     93  C   UNL A   1      37.970  31.278  36.341  1.00  0.00     0.022 A 
BRANCH  91  94
ATOM     94  S   UNL A   1      37.694  32.883  38.556  1.00  0.00     0.127 S 
ATOM     95  O   UNL A   1      38.022  31.887  39.582  1.00  0.00    -0.237 OA
ATOM     96  O   UNL A   1      38.284  34.192  38.769  1.00  0.00    -0.237 OA
ATOM     97  O   UNL A   1      36.311  32.845  38.093  1.00  0.00    -0.744 OA
ENDBRANCH  91  94
ENDBRANCH  63  87
BRANCH  75  98
ATOM     98  C   UNL A   1      46.139  27.440  34.581  1.00  0.00     0.023 A 
ATOM     99  C   UNL A   1      47.256  27.033  35.338  1.00  0.00     0.012 A 
ATOM    100  C   UNL A   1      45.342  26.404  34.031  1.00  0.00     0.148 A 
ATOM    101  C   UNL A   1      47.641  25.695  35.440  1.00  0.00     0.002 A 
ATOM    102  C   UNL A   1      45.645  25.066  34.264  1.00  0.00     0.091 A 
ATOM    103  F   UNL A   1      44.286  26.697  33.259  1.00  0.00    -0.205 F 
ATOM    104  C   UNL A   1      46.823  24.706  34.920  1.00  0.00     0.022 A 
BRANCH 102 105
ATOM    105  S   UNL A   1      44.440  23.786  33.891  1.00  0.00     0.127 S 
ATOM    106  O   UNL A   1      43.220  24.325  34.486  1.00  0.00    -0.237 OA
ATOM    107  O   UNL A   1      44.442  23.760  32.427  1.00  0.00    -0.237 OA
ATOM    108  O   UNL A   1      44.981  22.578  34.505  1.00  0.00    -0.744 OA
ENDBRANCH 102 105
ENDBRANCH  75  98
ENDBRANCH  49  50
ENDBRANCH  42  44
ENDBRANCH  41  42
ENDBRANCH  40  41
ENDBRANCH  39  40
ENDBRANCH  38  39
ENDBRANCH  37  38
ENDBRANCH   1  37
TORSDOF 23
ENDMDL
MODEL 3
REMARK VINA RESULT:      -9.2      3.606     11.851
REMARK SMILES Cc1ccc(-c2[nH]c3ccccc3c2[C@@H]2c3ccccc3C(=O)N2[C@H](C)C(=O)OCCOCCOCCOC(=O)c2ccc(-c3c4nc(c(-c5cccc(S(=O)(=O)[O-])c5F)c5ccc([nH]5)c(-c5cccc(S(=O)(=O)[O-])c5F)c5nc(c(-c6cccc(S(=O)(=O)[O-])c6F)c6ccc3[nH]6)C=C5)C=C4)cc2)cc1
REMARK SMILES IDX 33 1 32 2 31 3 30 4 29 5 27 6 28 7 25 8 26 9 24 10 15 11
REMARK SMILES IDX 16 12 17 13 21 14 22 15 18 16 20 17 23 18 19 19 14 20 6 21
REMARK SMILES IDX 7 22 8 23 13 25 9 26 12 27 10 28 11 29 5 30 1 31 2 32 3 33
REMARK SMILES IDX 105 34 4 35 104 36 34 37 35 38 36 39 37 40 38 41 39 42 40 43
REMARK SMILES IDX 41 44 42 45 103 46 43 47 102 48 44 49 45 50 46 51 96 52
REMARK SMILES IDX 47 53 101 54 95 55 97 56 48 57 100 58 94 59 93 60 49 62
REMARK SMILES IDX 81 63 61 64 80 65 62 66 65 67 79 68 98 69 63 70 64 71 78 73
REMARK SMILES IDX 99 74 66 75 50 76 51 77 59 78 52 79 54 80 60 81 53 82 55 83
REMARK SMILES IDX 56 84 57 85 58 86 82 87 83 88 91 89 84 90 86 91 92 92 85 93
REMARK SMILES IDX 87 94 88 95 89 96 90 97 67 98 68 99 76 100 69 101 71 102
REMARK SMILES IDX 77 103 70 104 72 105 73 106 74 107 75 108
REMARK H PARENT 7 24 97 61 65 72
REMARK Flexibility Score: inf
ROOT
ATOM      1  C   UNL A   1      36.716  31.781  28.975  1.00  0.00     0.188 C 
ENDROOT
BRANCH   1   2
ATOM      2  O   UNL A   1      37.708  31.034  28.266  1.00  0.00    -0.376 OA
BRANCH   2   3
ATOM      3  C   UNL A   1      38.053  29.636  28.287  1.00  0.00     0.202 C 
BRANCH   3   4
ATOM      4  C   UNL A   1      39.396  28.667  27.704  1.00  0.00     0.261 C 
BRANCH   4   5
ATOM      5  O   UNL A   1      40.715  29.166  26.648  1.00  0.00    -0.462 OA
BRANCH   5   6
ATOM      6  C   UNL A   1      41.919  28.903  25.936  1.00  0.00     0.328 C 
ATOM      7  O   UNL A   1      41.986  28.584  24.746  1.00  0.00    -0.250 OA
BRANCH   6   8
ATOM      8  C   UNL A   1      43.320  29.231  26.570  1.00  0.00     0.193 C 
ATOM      9  C   UNL A   1      43.796  30.682  26.591  1.00  0.00     0.044 C 
BRANCH   8  10
ATOM     10  N   UNL A   1      43.547  28.738  27.952  1.00  0.00    -0.314 N 
ATOM     11  C   UNL A   1      43.844  27.381  28.456  1.00  0.00     0.151 C 
ATOM     12  C   UNL A   1      43.258  27.469  29.857  1.00  0.00    -0.008 A 
ATOM     13  C   UNL A   1      43.677  26.997  31.087  1.00  0.00     0.007 A 
ATOM     14  C   UNL A   1      42.500  28.625  29.945  1.00  0.00     0.045 A 
ATOM     15  C   UNL A   1      43.050  29.535  28.961  1.00  0.00     0.255 C 
ATOM     16  C   UNL A   1      43.131  27.575  32.268  1.00  0.00     0.000 A 
ATOM     17  C   UNL A   1      41.779  29.100  31.020  1.00  0.00     0.014 A 
ATOM     18  O   UNL A   1      42.948  30.731  29.053  1.00  0.00    -0.269 OA
ATOM     19  C   UNL A   1      42.120  28.555  32.230  1.00  0.00     0.001 A 
BRANCH  11  20
ATOM     20  C   UNL A   1      43.236  26.255  27.620  1.00  0.00     0.013 A 
ATOM     21  C   UNL A   1      43.739  25.859  26.372  1.00  0.00     0.052 A 
ATOM     22  N   UNL A   1      42.668  25.434  25.614  1.00  0.00    -0.354 N 
ATOM     23  C   UNL A   1      41.539  25.335  26.388  1.00  0.00     0.046 A 
ATOM     24  H   UNL A   1      42.707  25.230  24.652  1.00  0.00     0.167 HD
ATOM     25  C   UNL A   1      41.930  25.630  27.699  1.00  0.00     0.006 A 
ATOM     26  C   UNL A   1      40.213  25.050  26.025  1.00  0.00     0.027 A 
ATOM     27  C   UNL A   1      40.966  25.443  28.707  1.00  0.00     0.011 A 
ATOM     28  C   UNL A   1      39.258  24.993  27.042  1.00  0.00     0.002 A 
ATOM     29  C   UNL A   1      39.637  25.145  28.371  1.00  0.00     0.001 A 
BRANCH  21  30
ATOM     30  C   UNL A   1      45.057  26.052  25.775  1.00  0.00    -0.002 A 
ATOM     31  C   UNL A   1      48.988  26.625  24.098  1.00  0.00     0.044 C 
ATOM     32  C   UNL A   1      47.622  26.405  24.670  1.00  0.00    -0.051 A 
ATOM     33  C   UNL A   1      47.320  25.256  25.407  1.00  0.00     0.004 A 
ATOM     34  C   UNL A   1      46.627  27.360  24.473  1.00  0.00     0.004 A 
ATOM     35  C   UNL A   1      46.047  25.083  25.957  1.00  0.00     0.010 A 
ATOM     36  C   UNL A   1      45.352  27.173  25.002  1.00  0.00     0.010 A 
ENDBRANCH  21  30
ENDBRANCH  11  20
ENDBRANCH   8  10
ENDBRANCH   6   8
ENDBRANCH   5   6
ENDBRANCH   4   5
ENDBRANCH   3   4
ENDBRANCH   2   3
ENDBRANCH   1   2
BRANCH   1  37
ATOM     37  C   UNL A   1      36.032  31.263  30.221  1.00  0.00     0.188 C 
BRANCH  37  38
ATOM     38  O   UNL A   1      35.517  32.353  30.948  1.00  0.00    -0.376 OA
BRANCH  38  39
ATOM     39  C   UNL A   1      36.279  33.538  30.939  1.00  0.00     0.202 C 
BRANCH  39  40
ATOM     40  C   UNL A   1      37.592  33.507  31.758  1.00  0.00     0.261 C 
BRANCH  40  41
ATOM     41  O   UNL A   1      38.559  34.520  31.363  1.00  0.00    -0.460 OA
BRANCH  41  42
ATOM     42  C   UNL A   1      39.522  34.206  30.413  1.00  0.00     0.338 C 
ATOM     43  O   UNL A   1      39.251  33.926  29.261  1.00  0.00    -0.246 OA
BRANCH  42  44
ATOM     44  C   UNL A   1      40.875  34.074  31.070  1.00  0.00     0.060 A 
ATOM     45  C   UNL A   1      42.168  34.435  30.651  1.00  0.00     0.016 A 
ATOM     46  C   UNL A   1      40.870  33.205  32.085  1.00  0.00     0.016 A 
ATOM     47  C   UNL A   1      43.401  33.741  31.149  1.00  0.00     0.010 A 
ATOM     48  C   UNL A   1      42.009  32.421  32.239  1.00  0.00     0.010 A 
ATOM     49  C   UNL A   1      43.376  32.584  31.945  1.00  0.00    -0.014 A 
BRANCH  49  50
ATOM     50  C   UNL A   1      44.629  31.476  32.281  1.00  0.00     0.031 A 
ATOM     51  C   UNL A   1      45.723  30.485  31.413  1.00  0.00     0.074 A 
ATOM     52  C   UNL A   1      44.964  31.453  33.594  1.00  0.00     0.049 A 
ATOM     53  N   UNL A   1      46.202  29.324  31.850  1.00  0.00    -0.248 NA
ATOM     54  C   UNL A   1      46.350  30.663  30.066  1.00  0.00     0.031 C 
ATOM     55  C   UNL A   1      46.105  30.833  34.272  1.00  0.00     0.029 A 
ATOM     56  N   UNL A   1      44.256  32.041  34.646  1.00  0.00    -0.354 N 
ATOM     57  C   UNL A   1      47.032  28.736  30.859  1.00  0.00     0.074 A 
ATOM     58  C   UNL A   1      46.890  29.514  29.729  1.00  0.00     0.031 C 
ATOM     59  C   UNL A   1      45.842  30.781  35.591  1.00  0.00     0.029 A 
ATOM     60  C   UNL A   1      44.478  31.248  35.770  1.00  0.00     0.049 A 
ATOM     61  H   UNL A   1      43.709  32.858  34.602  1.00  0.00     0.167 HD
ATOM     62  C   UNL A   1      47.861  27.663  30.939  1.00  0.00     0.034 A 
ATOM     63  C   UNL A   1      43.432  30.545  36.285  1.00  0.00     0.034 A 
ATOM     64  C   UNL A   1      47.778  27.169  32.290  1.00  0.00     0.049 A 
ATOM     65  C   UNL A   1      43.695  29.055  36.185  1.00  0.00     0.074 A 
ATOM     66  C   UNL A   1      48.474  27.550  33.420  1.00  0.00     0.029 A 
ATOM     67  N   UNL A   1      46.579  26.604  32.716  1.00  0.00    -0.354 N 
ATOM     68  N   UNL A   1      44.576  28.498  35.392  1.00  0.00    -0.248 NA
ATOM     69  C   UNL A   1      43.022  28.090  37.042  1.00  0.00     0.031 C 
ATOM     70  C   UNL A   1      47.596  27.380  34.524  1.00  0.00     0.029 A 
ATOM     71  C   UNL A   1      46.427  26.776  34.083  1.00  0.00     0.049 A 
ATOM     72  H   UNL A   1      45.932  26.149  32.130  1.00  0.00     0.167 HD
ATOM     73  C   UNL A   1      44.540  27.139  35.550  1.00  0.00     0.074 A 
ATOM     74  C   UNL A   1      43.591  26.944  36.636  1.00  0.00     0.031 C 
ATOM     75  C   UNL A   1      45.256  26.258  34.782  1.00  0.00     0.034 A 
BRANCH  62  76
ATOM     76  C   UNL A   1      48.788  27.124  29.789  1.00  0.00     0.023 A 
ATOM     77  C   UNL A   1      48.613  25.783  29.393  1.00  0.00     0.012 A 
ATOM     78  C   UNL A   1      49.812  27.814  29.047  1.00  0.00     0.148 A 
ATOM     79  C   UNL A   1      49.335  25.200  28.324  1.00  0.00     0.002 A 
ATOM     80  C   UNL A   1      50.423  27.281  27.896  1.00  0.00     0.091 A 
ATOM     81  F   UNL A   1      50.363  28.940  29.516  1.00  0.00    -0.205 F 
ATOM     82  C   UNL A   1      50.199  25.959  27.542  1.00  0.00     0.022 A 
BRANCH  80  83
ATOM     83  S   UNL A   1      51.418  28.302  26.766  1.00  0.00     0.127 S 
ATOM     84  O   UNL A   1      52.455  28.837  27.645  1.00  0.00    -0.237 OA
ATOM     85  O   UNL A   1      51.897  27.324  25.788  1.00  0.00    -0.237 OA
ATOM     86  O   UNL A   1      50.497  29.295  26.218  1.00  0.00    -0.744 OA
ENDBRANCH  80  83
ENDBRANCH  62  76
BRANCH  63  87
ATOM     87  C   UNL A   1      42.098  31.251  36.194  1.00  0.00     0.023 A 
ATOM     88  C   UNL A   1      41.126  30.708  35.300  1.00  0.00     0.012 A 
ATOM     89  C   UNL A   1      41.658  32.225  37.102  1.00  0.00     0.148 A 
ATOM     90  C   UNL A   1      39.767  31.026  35.386  1.00  0.00     0.002 A 
ATOM     91  C   UNL A   1      40.292  32.547  37.179  1.00  0.00     0.091 A 
ATOM     92  F   UNL A   1      42.547  32.790  37.930  1.00  0.00    -0.205 F 
ATOM     93  C   UNL A   1      39.347  31.943  36.334  1.00  0.00     0.022 A 
BRANCH  91  94
ATOM     94  S   UNL A   1      39.671  33.534  38.553  1.00  0.00     0.127 S 
ATOM     95  O   UNL A   1      38.386  34.028  38.048  1.00  0.00    -0.237 OA
ATOM     96  O   UNL A   1      39.570  32.559  39.624  1.00  0.00    -0.237 OA
ATOM     97  O   UNL A   1      40.707  34.554  38.680  1.00  0.00    -0.744 OA
ENDBRANCH  91  94
ENDBRANCH  63  87
BRANCH  75  98
ATOM     98  C   UNL A   1      44.926  24.780  34.690  1.00  0.00     0.023 A 
ATOM     99  C   UNL A   1      44.085  24.274  33.679  1.00  0.00     0.012 A 
ATOM    100  C   UNL A   1      45.564  23.820  35.515  1.00  0.00     0.148 A 
ATOM    101  C   UNL A   1      43.786  22.914  33.569  1.00  0.00     0.002 A 
ATOM    102  C   UNL A   1      45.381  22.457  35.303  1.00  0.00     0.091 A 
ATOM    103  F   UNL A   1      46.346  24.210  36.532  1.00  0.00    -0.205 F 
ATOM    104  C   UNL A   1      44.452  22.000  34.368  1.00  0.00     0.022 A 
BRANCH 102 105
ATOM    105  S   UNL A   1      46.468  21.262  36.092  1.00  0.00     0.127 S 
ATOM    106  O   UNL A   1      46.133  21.422  37.504  1.00  0.00    -0.237 OA
ATOM    107  O   UNL A   1      46.032  19.994  35.503  1.00  0.00    -0.237 OA
ATOM    108  O   UNL A   1      47.813  21.667  35.696  1.00  0.00    -0.744 OA
ENDBRANCH 102 105
ENDBRANCH  75  98
ENDBRANCH  49  50
ENDBRANCH  42  44
ENDBRANCH  41  42
ENDBRANCH  40  41
ENDBRANCH  39  40
ENDBRANCH  38  39
ENDBRANCH  37  38
ENDBRANCH   1  37
TORSDOF 23
ENDMDL
