MODEL 1
REMARK VINA RESULT:     -10.1      0.000      0.000
REMARK SMILES COc1ccc2[nH]cc([C@H](C(=O)OCCOCCOCCOC(=O)c3ccc(-c4c5nc(c(-c6cccc(S(=O)(=O)[O-])c6F)c6ccc([nH]6)c(-c6cccc(S(=O)(=O)[O-])c6F)c6nc(c(-c7cccc(S(=O)(=O)[O-])c7F)c7ccc4[nH]7)C=C6)C=C5)cc3)[NH+]3CC[NH+](Cc4cccc5ccccc45)CC3)c2c1
REMARK SMILES IDX 17 1 16 2 15 3 14 4 13 5 11 6 12 7 10 8 9 9 3 10 4 11 106 12
REMARK SMILES IDX 5 13 105 14 6 15 7 16 8 17 2 19 1 20 88 21 89 22 104 23
REMARK SMILES IDX 90 25 103 26 91 27 92 29 93 30 94 31 102 32 95 33 97 34
REMARK SMILES IDX 101 35 96 36 98 37 100 38 99 39 18 40 19 41 20 42 21 43
REMARK SMILES IDX 22 44 23 45 24 46 25 47 26 48 87 49 27 50 86 51 28 52 29 53
REMARK SMILES IDX 30 54 80 55 31 56 85 57 79 58 81 59 32 60 84 61 78 62 77 63
REMARK SMILES IDX 33 65 65 66 45 67 64 68 46 69 49 70 63 71 82 72 47 73 48 74
REMARK SMILES IDX 62 76 83 77 50 78 34 79 35 80 43 81 36 82 38 83 44 84 37 85
REMARK SMILES IDX 39 86 40 87 41 88 42 89 66 90 67 91 75 92 68 93 70 94 76 95
REMARK SMILES IDX 69 96 71 97 72 98 73 99 74 100 51 101 52 102 60 103 53 104
REMARK SMILES IDX 55 105 61 106 54 107 56 108 57 109 58 110 59 111
REMARK H PARENT 7 18 88 24 91 28 81 64 49 75
REMARK Flexibility Score: inf
ROOT
ATOM      1  C   UNL A   1      35.738  22.417  25.300  1.00  0.00     0.188 C 
ENDROOT
BRANCH   1   2
ATOM      2  O   UNL A   1      34.502  22.588  24.629  1.00  0.00    -0.376 OA
BRANCH   2   3
ATOM      3  C   UNL A   1      34.545  22.813  23.219  1.00  0.00     0.202 C 
BRANCH   3   4
ATOM      4  C   UNL A   1      33.434  23.653  22.558  1.00  0.00     0.261 C 
BRANCH   4   5
ATOM      5  O   UNL A   1      33.237  24.910  23.231  1.00  0.00    -0.459 OA
BRANCH   5   6
ATOM      6  C   UNL A   1      32.030  25.131  23.851  1.00  0.00     0.370 C 
ATOM      7  O   UNL A   1      31.394  24.242  24.409  1.00  0.00    -0.245 OA
BRANCH   6   8
ATOM      8  C   UNL A   1      31.549  26.624  23.727  1.00  0.00     0.328 C 
BRANCH   8   9
ATOM      9  C   UNL A   1      30.038  26.792  23.688  1.00  0.00     0.046 A 
ATOM     10  C   UNL A   1      28.636  30.196  22.587  1.00  0.00     0.119 A 
ATOM     11  C   UNL A   1      27.326  29.922  22.936  1.00  0.00     0.048 A 
ATOM     12  C   UNL A   1      29.604  29.230  22.840  1.00  0.00     0.057 A 
ATOM     13  C   UNL A   1      26.928  28.644  23.364  1.00  0.00     0.030 A 
ATOM     14  C   UNL A   1      29.274  27.949  23.315  1.00  0.00     0.013 A 
ATOM     15  C   UNL A   1      27.925  27.674  23.531  1.00  0.00     0.046 A 
ATOM     16  N   UNL A   1      27.842  26.370  23.947  1.00  0.00    -0.361 N 
ATOM     17  C   UNL A   1      29.101  25.843  24.084  1.00  0.00     0.094 A 
ATOM     18  H   UNL A   1      27.005  25.884  24.120  1.00  0.00     0.166 HD
BRANCH  10  19
ATOM     19  O   UNL A   1      29.133  31.342  22.037  1.00  0.00    -0.497 OA
ATOM     20  C   UNL A   1      28.392  31.966  20.994  1.00  0.00     0.278 C 
ENDBRANCH  10  19
ENDBRANCH   8   9
BRANCH   8  21
ATOM     21  N   UNL A   1      32.211  27.403  24.773  1.00  0.00    -0.310 N 
ATOM     22  C   UNL A   1      31.628  27.750  26.052  1.00  0.00     0.325 C 
ATOM     23  C   UNL A   1      33.139  28.419  24.299  1.00  0.00     0.325 C 
ATOM     24  H   UNL A   1      32.671  26.554  25.103  1.00  0.00     0.349 HD
ATOM     25  C   UNL A   1      32.740  28.046  27.104  1.00  0.00     0.324 C 
ATOM     26  C   UNL A   1      34.322  28.508  25.282  1.00  0.00     0.324 C 
ATOM     27  N   UNL A   1      33.971  28.748  26.687  1.00  0.00    -0.322 N 
ATOM     28  H   UNL A   1      34.714  28.293  27.217  1.00  0.00     0.348 HD
BRANCH  27  29
ATOM     29  C   UNL A   1      34.119  30.124  27.160  1.00  0.00     0.300 C 
BRANCH  29  30
ATOM     30  C   UNL A   1      35.345  30.355  28.019  1.00  0.00     0.014 A 
ATOM     31  C   UNL A   1      36.300  29.323  28.079  1.00  0.00     0.010 A 
ATOM     32  C   UNL A   1      35.647  31.635  28.552  1.00  0.00    -0.010 A 
ATOM     33  C   UNL A   1      37.595  29.589  28.500  1.00  0.00     0.001 A 
ATOM     34  C   UNL A   1      36.992  31.919  28.874  1.00  0.00    -0.018 A 
ATOM     35  C   UNL A   1      34.693  32.663  28.732  1.00  0.00     0.009 A 
ATOM     36  C   UNL A   1      37.951  30.893  28.835  1.00  0.00     0.009 A 
ATOM     37  C   UNL A   1      37.360  33.237  29.197  1.00  0.00     0.009 A 
ATOM     38  C   UNL A   1      35.065  33.956  29.097  1.00  0.00     0.001 A 
ATOM     39  C   UNL A   1      36.406  34.250  29.293  1.00  0.00     0.001 A 
ENDBRANCH  29  30
ENDBRANCH  27  29
ENDBRANCH   8  21
ENDBRANCH   6   8
ENDBRANCH   5   6
ENDBRANCH   4   5
ENDBRANCH   3   4
ENDBRANCH   2   3
ENDBRANCH   1   2
BRANCH   1  40
ATOM     40  C   UNL A   1      36.898  23.320  24.904  1.00  0.00     0.188 C 
BRANCH  40  41
ATOM     41  O   UNL A   1      37.581  23.992  25.931  1.00  0.00    -0.376 OA
BRANCH  41  42
ATOM     42  C   UNL A   1      38.690  23.472  26.631  1.00  0.00     0.202 C 
BRANCH  42  43
ATOM     43  C   UNL A   1      40.148  23.865  26.357  1.00  0.00     0.261 C 
BRANCH  43  44
ATOM     44  O   UNL A   1      40.656  25.034  26.992  1.00  0.00    -0.460 OA
BRANCH  44  45
ATOM     45  C   UNL A   1      41.416  25.872  26.250  1.00  0.00     0.338 C 
ATOM     46  O   UNL A   1      41.761  25.726  25.088  1.00  0.00    -0.246 OA
BRANCH  45  47
ATOM     47  C   UNL A   1      41.645  27.090  27.065  1.00  0.00     0.060 A 
ATOM     48  C   UNL A   1      40.925  28.255  26.774  1.00  0.00     0.016 A 
ATOM     49  C   UNL A   1      42.531  27.067  28.150  1.00  0.00     0.016 A 
ATOM     50  C   UNL A   1      41.122  29.407  27.543  1.00  0.00     0.010 A 
ATOM     51  C   UNL A   1      42.728  28.221  28.913  1.00  0.00     0.010 A 
ATOM     52  C   UNL A   1      42.054  29.408  28.594  1.00  0.00    -0.014 A 
BRANCH  52  53
ATOM     53  C   UNL A   1      42.414  30.676  29.282  1.00  0.00     0.031 A 
ATOM     54  C   UNL A   1      43.522  31.514  28.735  1.00  0.00     0.074 A 
ATOM     55  C   UNL A   1      41.836  31.045  30.438  1.00  0.00     0.049 A 
ATOM     56  N   UNL A   1      43.993  32.642  29.192  1.00  0.00    -0.248 NA
ATOM     57  C   UNL A   1      44.230  30.985  27.560  1.00  0.00     0.031 C 
ATOM     58  C   UNL A   1      40.889  30.217  31.158  1.00  0.00     0.029 A 
ATOM     59  N   UNL A   1      41.968  32.165  31.227  1.00  0.00    -0.354 N 
ATOM     60  C   UNL A   1      45.104  32.921  28.415  1.00  0.00     0.074 A 
ATOM     61  C   UNL A   1      45.220  31.856  27.440  1.00  0.00     0.031 C 
ATOM     62  C   UNL A   1      40.495  30.868  32.263  1.00  0.00     0.029 A 
ATOM     63  C   UNL A   1      41.131  32.170  32.322  1.00  0.00     0.049 A 
ATOM     64  H   UNL A   1      42.598  32.894  31.027  1.00  0.00     0.167 HD
ATOM     65  C   UNL A   1      45.963  33.960  28.524  1.00  0.00     0.034 A 
ATOM     66  C   UNL A   1      40.886  33.107  33.261  1.00  0.00     0.034 A 
ATOM     67  C   UNL A   1      45.852  35.002  29.510  1.00  0.00     0.049 A 
ATOM     68  C   UNL A   1      41.742  34.338  33.257  1.00  0.00     0.074 A 
ATOM     69  C   UNL A   1      46.650  36.120  29.664  1.00  0.00     0.029 A 
ATOM     70  N   UNL A   1      44.904  35.045  30.522  1.00  0.00    -0.354 N 
ATOM     71  N   UNL A   1      42.704  34.657  32.427  1.00  0.00    -0.248 NA
ATOM     72  C   UNL A   1      41.512  35.320  34.325  1.00  0.00     0.031 C 
ATOM     73  C   UNL A   1      46.205  36.824  30.789  1.00  0.00     0.029 A 
ATOM     74  C   UNL A   1      45.097  36.172  31.305  1.00  0.00     0.049 A 
ATOM     75  H   UNL A   1      44.198  34.373  30.664  1.00  0.00     0.167 HD
ATOM     76  C   UNL A   1      43.211  35.862  32.883  1.00  0.00     0.074 A 
ATOM     77  C   UNL A   1      42.404  36.253  34.023  1.00  0.00     0.031 C 
ATOM     78  C   UNL A   1      44.277  36.559  32.424  1.00  0.00     0.034 A 
BRANCH  65  79
ATOM     79  C   UNL A   1      47.111  33.995  27.556  1.00  0.00     0.023 A 
ATOM     80  C   UNL A   1      46.995  34.719  26.352  1.00  0.00     0.012 A 
ATOM     81  C   UNL A   1      48.309  33.315  27.845  1.00  0.00     0.148 A 
ATOM     82  C   UNL A   1      48.041  34.732  25.431  1.00  0.00     0.002 A 
ATOM     83  C   UNL A   1      49.366  33.377  26.947  1.00  0.00     0.091 A 
ATOM     84  F   UNL A   1      48.386  32.609  28.981  1.00  0.00    -0.205 F 
ATOM     85  C   UNL A   1      49.228  34.071  25.733  1.00  0.00     0.022 A 
BRANCH  83  86
ATOM     86  S   UNL A   1      50.963  32.629  27.278  1.00  0.00     0.127 S 
ATOM     87  O   UNL A   1      51.461  33.469  28.367  1.00  0.00    -0.237 OA
ATOM     88  O   UNL A   1      50.586  31.273  27.676  1.00  0.00    -0.237 OA
ATOM     89  O   UNL A   1      51.715  32.714  26.034  1.00  0.00    -0.744 OA
ENDBRANCH  83  86
ENDBRANCH  65  79
BRANCH  66  90
ATOM     90  C   UNL A   1      39.760  32.960  34.238  1.00  0.00     0.023 A 
ATOM     91  C   UNL A   1      40.037  32.517  35.550  1.00  0.00     0.012 A 
ATOM     92  C   UNL A   1      38.432  33.280  33.908  1.00  0.00     0.148 A 
ATOM     93  C   UNL A   1      39.017  32.372  36.495  1.00  0.00     0.002 A 
ATOM     94  C   UNL A   1      37.435  33.223  34.878  1.00  0.00     0.091 A 
ATOM     95  F   UNL A   1      38.161  33.654  32.650  1.00  0.00    -0.205 F 
ATOM     96  C   UNL A   1      37.718  32.745  36.165  1.00  0.00     0.022 A 
BRANCH  94  97
ATOM     97  S   UNL A   1      35.795  33.888  34.573  1.00  0.00     0.127 S 
ATOM     98  O   UNL A   1      35.289  34.080  35.928  1.00  0.00    -0.237 OA
ATOM     99  O   UNL A   1      36.092  35.121  33.843  1.00  0.00    -0.237 OA
ATOM    100  O   UNL A   1      35.123  32.873  33.769  1.00  0.00    -0.744 OA
ENDBRANCH  94  97
ENDBRANCH  66  90
BRANCH  78 101
ATOM    101  C   UNL A   1      44.622  37.831  33.146  1.00  0.00     0.023 A 
ATOM    102  C   UNL A   1      45.620  37.833  34.142  1.00  0.00     0.012 A 
ATOM    103  C   UNL A   1      43.982  39.035  32.801  1.00  0.00     0.148 A 
ATOM    104  C   UNL A   1      45.950  39.012  34.809  1.00  0.00     0.002 A 
ATOM    105  C   UNL A   1      44.353  40.215  33.431  1.00  0.00     0.091 A 
ATOM    106  F   UNL A   1      43.018  39.001  31.869  1.00  0.00    -0.205 F 
ATOM    107  C   UNL A   1      45.325  40.204  34.445  1.00  0.00     0.022 A 
BRANCH 105 108
ATOM    108  S   UNL A   1      43.669  41.806  32.963  1.00  0.00     0.127 S 
ATOM    109  O   UNL A   1      42.264  41.645  33.332  1.00  0.00    -0.237 OA
ATOM    110  O   UNL A   1      44.424  42.726  33.814  1.00  0.00    -0.237 OA
ATOM    111  O   UNL A   1      43.926  41.952  31.536  1.00  0.00    -0.744 OA
ENDBRANCH 105 108
ENDBRANCH  78 101
ENDBRANCH  52  53
ENDBRANCH  45  47
ENDBRANCH  44  45
ENDBRANCH  43  44
ENDBRANCH  42  43
ENDBRANCH  41  42
ENDBRANCH  40  41
ENDBRANCH   1  40
TORSDOF 25
ENDMDL
MODEL 2
REMARK VINA RESULT:      -9.5      3.915      4.922
REMARK SMILES COc1ccc2[nH]cc([C@H](C(=O)OCCOCCOCCOC(=O)c3ccc(-c4c5nc(c(-c6cccc(S(=O)(=O)[O-])c6F)c6ccc([nH]6)c(-c6cccc(S(=O)(=O)[O-])c6F)c6nc(c(-c7cccc(S(=O)(=O)[O-])c7F)c7ccc4[nH]7)C=C6)C=C5)cc3)[NH+]3CC[NH+](Cc4cccc5ccccc45)CC3)c2c1
REMARK SMILES IDX 17 1 16 2 15 3 14 4 13 5 11 6 12 7 10 8 9 9 3 10 4 11 106 12
REMARK SMILES IDX 5 13 105 14 6 15 7 16 8 17 2 19 1 20 88 21 89 22 104 23
REMARK SMILES IDX 90 25 103 26 91 27 92 29 93 30 94 31 102 32 95 33 97 34
REMARK SMILES IDX 101 35 96 36 98 37 100 38 99 39 18 40 19 41 20 42 21 43
REMARK SMILES IDX 22 44 23 45 24 46 25 47 26 48 87 49 27 50 86 51 28 52 29 53
REMARK SMILES IDX 30 54 80 55 31 56 85 57 79 58 81 59 32 60 84 61 78 62 77 63
REMARK SMILES IDX 33 65 65 66 45 67 64 68 46 69 49 70 63 71 82 72 47 73 48 74
REMARK SMILES IDX 62 76 83 77 50 78 34 79 35 80 43 81 36 82 38 83 44 84 37 85
REMARK SMILES IDX 39 86 40 87 41 88 42 89 66 90 67 91 75 92 68 93 70 94 76 95
REMARK SMILES IDX 69 96 71 97 72 98 73 99 74 100 51 101 52 102 60 103 53 104
REMARK SMILES IDX 55 105 61 106 54 107 56 108 57 109 58 110 59 111
REMARK H PARENT 7 18 88 24 91 28 81 64 49 75
REMARK Flexibility Score: inf
ROOT
ATOM      1  C   UNL A   1      33.367  21.228  24.753  1.00  0.00     0.188 C 
ENDROOT
BRANCH   1   2
ATOM      2  O   UNL A   1      32.350  22.122  24.336  1.00  0.00    -0.376 OA
BRANCH   2   3
ATOM      3  C   UNL A   1      32.316  22.483  22.956  1.00  0.00     0.202 C 
BRANCH   3   4
ATOM      4  C   UNL A   1      32.579  23.948  22.555  1.00  0.00     0.261 C 
BRANCH   4   5
ATOM      5  O   UNL A   1      33.139  24.711  23.639  1.00  0.00    -0.459 OA
BRANCH   5   6
ATOM      6  C   UNL A   1      32.274  25.335  24.507  1.00  0.00     0.370 C 
ATOM      7  O   UNL A   1      31.926  24.837  25.574  1.00  0.00    -0.245 OA
BRANCH   6   8
ATOM      8  C   UNL A   1      31.761  26.719  23.963  1.00  0.00     0.328 C 
BRANCH   8   9
ATOM      9  C   UNL A   1      30.250  26.817  23.830  1.00  0.00     0.046 A 
ATOM     10  C   UNL A   1      28.779  30.051  22.367  1.00  0.00     0.119 A 
ATOM     11  C   UNL A   1      27.463  29.750  22.668  1.00  0.00     0.048 A 
ATOM     12  C   UNL A   1      29.768  29.153  22.753  1.00  0.00     0.057 A 
ATOM     13  C   UNL A   1      27.092  28.495  23.184  1.00  0.00     0.030 A 
ATOM     14  C   UNL A   1      29.463  27.903  23.319  1.00  0.00     0.013 A 
ATOM     15  C   UNL A   1      28.116  27.588  23.486  1.00  0.00     0.046 A 
ATOM     16  N   UNL A   1      28.061  26.321  24.008  1.00  0.00    -0.361 N 
ATOM     17  C   UNL A   1      29.330  25.864  24.256  1.00  0.00     0.094 A 
ATOM     18  H   UNL A   1      27.236  25.815  24.178  1.00  0.00     0.166 HD
BRANCH  10  19
ATOM     19  O   UNL A   1      29.261  31.167  21.747  1.00  0.00    -0.497 OA
ATOM     20  C   UNL A   1      28.959  32.437  22.315  1.00  0.00     0.278 C 
ENDBRANCH  10  19
ENDBRANCH   8   9
BRANCH   8  21
ATOM     21  N   UNL A   1      32.361  27.777  24.776  1.00  0.00    -0.310 N 
ATOM     22  C   UNL A   1      33.749  27.831  25.184  1.00  0.00     0.325 C 
ATOM     23  C   UNL A   1      31.475  28.382  25.759  1.00  0.00     0.325 C 
ATOM     24  H   UNL A   1      32.484  28.342  23.936  1.00  0.00     0.349 HD
ATOM     25  C   UNL A   1      34.172  29.296  25.510  1.00  0.00     0.324 C 
ATOM     26  C   UNL A   1      31.814  29.881  25.874  1.00  0.00     0.324 C 
ATOM     27  N   UNL A   1      33.214  30.201  26.179  1.00  0.00    -0.322 N 
ATOM     28  H   UNL A   1      33.370  31.107  25.736  1.00  0.00     0.348 HD
BRANCH  27  29
ATOM     29  C   UNL A   1      33.509  30.535  27.571  1.00  0.00     0.300 C 
BRANCH  29  30
ATOM     30  C   UNL A   1      34.503  31.666  27.739  1.00  0.00     0.014 A 
ATOM     31  C   UNL A   1      33.989  32.969  27.874  1.00  0.00     0.010 A 
ATOM     32  C   UNL A   1      35.877  31.415  27.990  1.00  0.00    -0.010 A 
ATOM     33  C   UNL A   1      34.771  33.980  28.414  1.00  0.00     0.001 A 
ATOM     34  C   UNL A   1      36.628  32.420  28.638  1.00  0.00    -0.018 A 
ATOM     35  C   UNL A   1      36.529  30.199  27.678  1.00  0.00     0.009 A 
ATOM     36  C   UNL A   1      36.061  33.688  28.849  1.00  0.00     0.009 A 
ATOM     37  C   UNL A   1      37.925  32.125  29.093  1.00  0.00     0.009 A 
ATOM     38  C   UNL A   1      37.833  29.936  28.097  1.00  0.00     0.001 A 
ATOM     39  C   UNL A   1      38.516  30.888  28.838  1.00  0.00     0.001 A 
ENDBRANCH  29  30
ENDBRANCH  27  29
ENDBRANCH   8  21
ENDBRANCH   6   8
ENDBRANCH   5   6
ENDBRANCH   4   5
ENDBRANCH   3   4
ENDBRANCH   2   3
ENDBRANCH   1   2
BRANCH   1  40
ATOM     40  C   UNL A   1      34.814  21.615  24.480  1.00  0.00     0.188 C 
BRANCH  40  41
ATOM     41  O   UNL A   1      35.750  21.401  25.507  1.00  0.00    -0.376 OA
BRANCH  41  42
ATOM     42  C   UNL A   1      37.052  20.896  25.312  1.00  0.00     0.202 C 
BRANCH  42  43
ATOM     43  C   UNL A   1      38.320  21.762  25.285  1.00  0.00     0.261 C 
BRANCH  43  44
ATOM     44  O   UNL A   1      38.551  22.645  26.378  1.00  0.00    -0.460 OA
BRANCH  44  45
ATOM     45  C   UNL A   1      38.167  23.934  26.236  1.00  0.00     0.338 C 
ATOM     46  O   UNL A   1      37.117  24.348  25.771  1.00  0.00    -0.246 OA
BRANCH  45  47
ATOM     47  C   UNL A   1      39.205  24.773  26.883  1.00  0.00     0.060 A 
ATOM     48  C   UNL A   1      39.855  24.295  28.027  1.00  0.00     0.016 A 
ATOM     49  C   UNL A   1      39.576  26.005  26.330  1.00  0.00     0.016 A 
ATOM     50  C   UNL A   1      40.847  25.070  28.641  1.00  0.00     0.010 A 
ATOM     51  C   UNL A   1      40.563  26.778  26.947  1.00  0.00     0.010 A 
ATOM     52  C   UNL A   1      41.179  26.334  28.126  1.00  0.00    -0.014 A 
BRANCH  52  53
ATOM     53  C   UNL A   1      42.080  27.243  28.882  1.00  0.00     0.031 A 
ATOM     54  C   UNL A   1      43.551  27.184  28.633  1.00  0.00     0.074 A 
ATOM     55  C   UNL A   1      41.621  28.052  29.853  1.00  0.00     0.049 A 
ATOM     56  N   UNL A   1      44.501  27.883  29.194  1.00  0.00    -0.248 NA
ATOM     57  C   UNL A   1      44.018  26.170  27.678  1.00  0.00     0.031 C 
ATOM     58  C   UNL A   1      40.246  28.052  30.308  1.00  0.00     0.029 A 
ATOM     59  N   UNL A   1      42.237  28.992  30.647  1.00  0.00    -0.354 N 
ATOM     60  C   UNL A   1      45.685  27.340  28.725  1.00  0.00     0.074 A 
ATOM     61  C   UNL A   1      45.332  26.272  27.812  1.00  0.00     0.031 C 
ATOM     62  C   UNL A   1      40.109  28.971  31.276  1.00  0.00     0.029 A 
ATOM     63  C   UNL A   1      41.371  29.651  31.493  1.00  0.00     0.049 A 
ATOM     64  H   UNL A   1      43.203  29.177  30.613  1.00  0.00     0.167 HD
ATOM     65  C   UNL A   1      46.951  27.688  29.047  1.00  0.00     0.034 A 
ATOM     66  C   UNL A   1      41.555  30.687  32.337  1.00  0.00     0.034 A 
ATOM     67  C   UNL A   1      47.293  28.737  29.971  1.00  0.00     0.049 A 
ATOM     68  C   UNL A   1      42.958  31.172  32.550  1.00  0.00     0.074 A 
ATOM     69  C   UNL A   1      48.551  29.191  30.322  1.00  0.00     0.029 A 
ATOM     70  N   UNL A   1      46.381  29.479  30.708  1.00  0.00    -0.354 N 
ATOM     71  N   UNL A   1      44.061  30.741  31.991  1.00  0.00    -0.248 NA
ATOM     72  C   UNL A   1      43.154  32.256  33.523  1.00  0.00     0.031 C 
ATOM     73  C   UNL A   1      48.402  30.185  31.295  1.00  0.00     0.029 A 
ATOM     74  C   UNL A   1      47.050  30.387  31.513  1.00  0.00     0.049 A 
ATOM     75  H   UNL A   1      45.403  29.374  30.667  1.00  0.00     0.167 HD
ATOM     76  C   UNL A   1      45.085  31.479  32.560  1.00  0.00     0.074 A 
ATOM     77  C   UNL A   1      44.466  32.437  33.456  1.00  0.00     0.031 C 
ATOM     78  C   UNL A   1      46.421  31.346  32.385  1.00  0.00     0.034 A 
BRANCH  65  79
ATOM     79  C   UNL A   1      48.056  26.900  28.403  1.00  0.00     0.023 A 
ATOM     80  C   UNL A   1      48.380  25.616  28.888  1.00  0.00     0.012 A 
ATOM     81  C   UNL A   1      48.769  27.430  27.312  1.00  0.00     0.148 A 
ATOM     82  C   UNL A   1      49.424  24.888  28.320  1.00  0.00     0.002 A 
ATOM     83  C   UNL A   1      49.772  26.677  26.717  1.00  0.00     0.091 A 
ATOM     84  F   UNL A   1      48.464  28.664  26.887  1.00  0.00    -0.205 F 
ATOM     85  C   UNL A   1      50.112  25.414  27.230  1.00  0.00     0.022 A 
BRANCH  83  86
ATOM     86  S   UNL A   1      50.662  27.228  25.259  1.00  0.00     0.127 S 
ATOM     87  O   UNL A   1      51.628  28.160  25.839  1.00  0.00    -0.237 OA
ATOM     88  O   UNL A   1      51.238  25.978  24.766  1.00  0.00    -0.237 OA
ATOM     89  O   UNL A   1      49.667  27.830  24.383  1.00  0.00    -0.744 OA
ENDBRANCH  83  86
ENDBRANCH  65  79
BRANCH  66  90
ATOM     90  C   UNL A   1      40.399  31.375  32.996  1.00  0.00     0.023 A 
ATOM     91  C   UNL A   1      39.492  32.114  32.206  1.00  0.00     0.012 A 
ATOM     92  C   UNL A   1      40.161  31.285  34.378  1.00  0.00     0.148 A 
ATOM     93  C   UNL A   1      38.397  32.766  32.781  1.00  0.00     0.002 A 
ATOM     94  C   UNL A   1      39.019  31.858  34.932  1.00  0.00     0.091 A 
ATOM     95  F   UNL A   1      41.047  30.624  35.136  1.00  0.00    -0.205 F 
ATOM     96  C   UNL A   1      38.148  32.620  34.141  1.00  0.00     0.022 A 
BRANCH  94  97
ATOM     97  S   UNL A   1      38.537  31.527  36.630  1.00  0.00     0.127 S 
ATOM     98  O   UNL A   1      38.410  30.073  36.631  1.00  0.00    -0.237 OA
ATOM     99  O   UNL A   1      39.678  32.049  37.382  1.00  0.00    -0.237 OA
ATOM    100  O   UNL A   1      37.306  32.284  36.824  1.00  0.00    -0.744 OA
ENDBRANCH  94  97
ENDBRANCH  66  90
BRANCH  78 101
ATOM    101  C   UNL A   1      47.306  32.273  33.170  1.00  0.00     0.023 A 
ATOM    102  C   UNL A   1      47.699  33.512  32.623  1.00  0.00     0.012 A 
ATOM    103  C   UNL A   1      47.710  31.929  34.473  1.00  0.00     0.148 A 
ATOM    104  C   UNL A   1      48.513  34.379  33.350  1.00  0.00     0.002 A 
ATOM    105  C   UNL A   1      48.476  32.821  35.212  1.00  0.00     0.091 A 
ATOM    106  F   UNL A   1      47.344  30.735  34.960  1.00  0.00    -0.205 F 
ATOM    107  C   UNL A   1      48.890  34.039  34.648  1.00  0.00     0.022 A 
BRANCH 105 108
ATOM    108  S   UNL A   1      48.929  32.507  36.919  1.00  0.00     0.127 S 
ATOM    109  O   UNL A   1      47.628  32.231  37.525  1.00  0.00    -0.237 OA
ATOM    110  O   UNL A   1      49.807  31.343  36.795  1.00  0.00    -0.237 OA
ATOM    111  O   UNL A   1      49.591  33.717  37.390  1.00  0.00    -0.744 OA
ENDBRANCH 105 108
ENDBRANCH  78 101
ENDBRANCH  52  53
ENDBRANCH  45  47
ENDBRANCH  44  45
ENDBRANCH  43  44
ENDBRANCH  42  43
ENDBRANCH  41  42
ENDBRANCH  40  41
ENDBRANCH   1  40
TORSDOF 25
ENDMDL
MODEL 3
REMARK VINA RESULT:      -9.0      7.023     14.858
REMARK SMILES COc1ccc2[nH]cc([C@H](C(=O)OCCOCCOCCOC(=O)c3ccc(-c4c5nc(c(-c6cccc(S(=O)(=O)[O-])c6F)c6ccc([nH]6)c(-c6cccc(S(=O)(=O)[O-])c6F)c6nc(c(-c7cccc(S(=O)(=O)[O-])c7F)c7ccc4[nH]7)C=C6)C=C5)cc3)[NH+]3CC[NH+](Cc4cccc5ccccc45)CC3)c2c1
REMARK SMILES IDX 17 1 16 2 15 3 14 4 13 5 11 6 12 7 10 8 9 9 3 10 4 11 106 12
REMARK SMILES IDX 5 13 105 14 6 15 7 16 8 17 2 19 1 20 88 21 89 22 104 23
REMARK SMILES IDX 90 25 103 26 91 27 92 29 93 30 94 31 102 32 95 33 97 34
REMARK SMILES IDX 101 35 96 36 98 37 100 38 99 39 18 40 19 41 20 42 21 43
REMARK SMILES IDX 22 44 23 45 24 46 25 47 26 48 87 49 27 50 86 51 28 52 29 53
REMARK SMILES IDX 30 54 80 55 31 56 85 57 79 58 81 59 32 60 84 61 78 62 77 63
REMARK SMILES IDX 33 65 65 66 45 67 64 68 46 69 49 70 63 71 82 72 47 73 48 74
REMARK SMILES IDX 62 76 83 77 50 78 34 79 35 80 43 81 36 82 38 83 44 84 37 85
REMARK SMILES IDX 39 86 40 87 41 88 42 89 66 90 67 91 75 92 68 93 70 94 76 95
REMARK SMILES IDX 69 96 71 97 72 98 73 99 74 100 51 101 52 102 60 103 53 104
REMARK SMILES IDX 55 105 61 106 54 107 56 108 57 109 58 110 59 111
REMARK H PARENT 7 18 88 24 91 28 81 64 49 75
REMARK Flexibility Score: inf
ROOT
ATOM      1  C   UNL A   1      49.465  40.639  28.486  1.00  0.00     0.188 C 
ENDROOT
BRANCH   1   2
ATOM      2  O   UNL A   1      49.520  41.859  27.769  1.00  0.00    -0.376 OA
BRANCH   2   3
ATOM      3  C   UNL A   1      48.299  42.578  27.600  1.00  0.00     0.202 C 
BRANCH   3   4
ATOM      4  C   UNL A   1      47.317  42.143  26.494  1.00  0.00     0.261 C 
BRANCH   4   5
ATOM      5  O   UNL A   1      46.993  43.227  25.604  1.00  0.00    -0.459 OA
BRANCH   5   6
ATOM      6  C   UNL A   1      45.665  43.486  25.355  1.00  0.00     0.370 C 
ATOM      7  O   UNL A   1      45.067  44.438  25.847  1.00  0.00    -0.245 OA
BRANCH   6   8
ATOM      8  C   UNL A   1      45.004  42.412  24.413  1.00  0.00     0.328 C 
BRANCH   8   9
ATOM      9  C   UNL A   1      43.625  41.954  24.860  1.00  0.00     0.046 A 
ATOM     10  C   UNL A   1      43.390  39.765  28.009  1.00  0.00     0.119 A 
ATOM     11  C   UNL A   1      42.055  39.444  27.852  1.00  0.00     0.048 A 
ATOM     12  C   UNL A   1      43.999  40.558  27.042  1.00  0.00     0.057 A 
ATOM     13  C   UNL A   1      41.265  40.039  26.852  1.00  0.00     0.030 A 
ATOM     14  C   UNL A   1      43.273  41.142  25.990  1.00  0.00     0.013 A 
ATOM     15  C   UNL A   1      41.901  40.894  25.944  1.00  0.00     0.046 A 
ATOM     16  N   UNL A   1      41.404  41.590  24.873  1.00  0.00    -0.361 N 
ATOM     17  C   UNL A   1      42.429  42.195  24.192  1.00  0.00     0.094 A 
ATOM     18  H   UNL A   1      40.453  41.648  24.628  1.00  0.00     0.166 HD
BRANCH  10  19
ATOM     19  O   UNL A   1      44.234  39.369  29.006  1.00  0.00    -0.497 OA
ATOM     20  C   UNL A   1      45.600  39.136  28.680  1.00  0.00     0.278 C 
ENDBRANCH  10  19
ENDBRANCH   8   9
BRANCH   8  21
ATOM     21  N   UNL A   1      45.052  42.920  23.042  1.00  0.00    -0.310 N 
ATOM     22  C   UNL A   1      46.088  42.619  22.076  1.00  0.00     0.325 C 
ATOM     23  C   UNL A   1      44.493  44.250  22.852  1.00  0.00     0.325 C 
ATOM     24  H   UNL A   1      44.426  42.170  22.751  1.00  0.00     0.349 HD
ATOM     25  C   UNL A   1      45.561  42.816  20.623  1.00  0.00     0.324 C 
ATOM     26  C   UNL A   1      43.803  44.305  21.476  1.00  0.00     0.324 C 
ATOM     27  N   UNL A   1      44.634  43.928  20.326  1.00  0.00    -0.322 N 
ATOM     28  H   UNL A   1      43.975  43.536  19.653  1.00  0.00     0.348 HD
BRANCH  27  29
ATOM     29  C   UNL A   1      45.184  45.032  19.541  1.00  0.00     0.300 C 
BRANCH  29  30
ATOM     30  C   UNL A   1      44.378  45.374  18.304  1.00  0.00     0.014 A 
ATOM     31  C   UNL A   1      43.910  44.304  17.518  1.00  0.00     0.010 A 
ATOM     32  C   UNL A   1      43.907  46.691  18.066  1.00  0.00    -0.010 A 
ATOM     33  C   UNL A   1      42.866  44.495  16.625  1.00  0.00     0.001 A 
ATOM     34  C   UNL A   1      42.775  46.851  17.237  1.00  0.00    -0.018 A 
ATOM     35  C   UNL A   1      44.468  47.851  18.650  1.00  0.00     0.009 A 
ATOM     36  C   UNL A   1      42.264  45.747  16.533  1.00  0.00     0.009 A 
ATOM     37  C   UNL A   1      42.154  48.109  17.154  1.00  0.00     0.009 A 
ATOM     38  C   UNL A   1      43.867  49.102  18.523  1.00  0.00     0.001 A 
ATOM     39  C   UNL A   1      42.688  49.222  17.804  1.00  0.00     0.001 A 
ENDBRANCH  29  30
ENDBRANCH  27  29
ENDBRANCH   8  21
ENDBRANCH   6   8
ENDBRANCH   5   6
ENDBRANCH   4   5
ENDBRANCH   3   4
ENDBRANCH   2   3
ENDBRANCH   1   2
BRANCH   1  40
ATOM     40  C   UNL A   1      49.745  39.349  27.726  1.00  0.00     0.188 C 
BRANCH  40  41
ATOM     41  O   UNL A   1      48.646  38.541  27.388  1.00  0.00    -0.376 OA
BRANCH  41  42
ATOM     42  C   UNL A   1      48.674  37.512  26.425  1.00  0.00     0.202 C 
BRANCH  42  43
ATOM     43  C   UNL A   1      47.423  36.880  25.797  1.00  0.00     0.261 C 
BRANCH  43  44
ATOM     44  O   UNL A   1      47.234  35.476  25.949  1.00  0.00    -0.460 OA
BRANCH  44  45
ATOM     45  C   UNL A   1      45.997  34.980  25.720  1.00  0.00     0.338 C 
ATOM     46  O   UNL A   1      45.564  34.525  24.673  1.00  0.00    -0.246 OA
BRANCH  45  47
ATOM     47  C   UNL A   1      45.288  34.956  27.022  1.00  0.00     0.060 A 
ATOM     48  C   UNL A   1      44.248  35.864  27.252  1.00  0.00     0.016 A 
ATOM     49  C   UNL A   1      45.613  34.003  27.996  1.00  0.00     0.016 A 
ATOM     50  C   UNL A   1      43.561  35.844  28.472  1.00  0.00     0.010 A 
ATOM     51  C   UNL A   1      44.929  33.989  29.214  1.00  0.00     0.010 A 
ATOM     52  C   UNL A   1      43.923  34.931  29.475  1.00  0.00    -0.014 A 
BRANCH  52  53
ATOM     53  C   UNL A   1      43.339  35.035  30.838  1.00  0.00     0.031 A 
ATOM     54  C   UNL A   1      42.076  34.302  31.148  1.00  0.00     0.074 A 
ATOM     55  C   UNL A   1      43.860  35.847  31.774  1.00  0.00     0.049 A 
ATOM     56  N   UNL A   1      41.404  34.272  32.267  1.00  0.00    -0.248 NA
ATOM     57  C   UNL A   1      41.457  33.558  30.042  1.00  0.00     0.031 C 
ATOM     58  C   UNL A   1      44.967  36.747  31.523  1.00  0.00     0.029 A 
ATOM     59  N   UNL A   1      43.531  36.080  33.090  1.00  0.00    -0.354 N 
ATOM     60  C   UNL A   1      40.242  33.576  31.982  1.00  0.00     0.074 A 
ATOM     61  C   UNL A   1      40.314  33.178  30.591  1.00  0.00     0.031 C 
ATOM     62  C   UNL A   1      45.253  37.411  32.653  1.00  0.00     0.029 A 
ATOM     63  C   UNL A   1      44.376  36.967  33.720  1.00  0.00     0.049 A 
ATOM     64  H   UNL A   1      42.766  35.653  33.537  1.00  0.00     0.167 HD
ATOM     65  C   UNL A   1      39.200  33.316  32.803  1.00  0.00     0.034 A 
ATOM     66  C   UNL A   1      44.456  37.373  35.005  1.00  0.00     0.034 A 
ATOM     67  C   UNL A   1      39.128  33.733  34.178  1.00  0.00     0.049 A 
ATOM     68  C   UNL A   1      43.376  36.928  35.944  1.00  0.00     0.074 A 
ATOM     69  C   UNL A   1      38.130  33.472  35.100  1.00  0.00     0.029 A 
ATOM     70  N   UNL A   1      40.073  34.517  34.824  1.00  0.00    -0.354 N 
ATOM     71  N   UNL A   1      42.351  36.152  35.696  1.00  0.00    -0.248 NA
ATOM     72  C   UNL A   1      43.435  37.432  37.323  1.00  0.00     0.031 C 
ATOM     73  C   UNL A   1      38.456  34.124  36.294  1.00  0.00     0.029 A 
ATOM     74  C   UNL A   1      39.682  34.749  36.134  1.00  0.00     0.049 A 
ATOM     75  H   UNL A   1      40.900  34.859  34.413  1.00  0.00     0.167 HD
ATOM     76  C   UNL A   1      41.629  36.091  36.876  1.00  0.00     0.074 A 
ATOM     77  C   UNL A   1      42.371  36.854  37.862  1.00  0.00     0.031 C 
ATOM     78  C   UNL A   1      40.437  35.493  37.109  1.00  0.00     0.034 A 
BRANCH  65  79
ATOM     79  C   UNL A   1      38.044  32.559  32.213  1.00  0.00     0.023 A 
ATOM     80  C   UNL A   1      37.891  31.183  32.483  1.00  0.00     0.012 A 
ATOM     81  C   UNL A   1      37.105  33.214  31.395  1.00  0.00     0.148 A 
ATOM     82  C   UNL A   1      36.843  30.463  31.915  1.00  0.00     0.002 A 
ATOM     83  C   UNL A   1      36.033  32.502  30.876  1.00  0.00     0.091 A 
ATOM     84  F   UNL A   1      37.286  34.515  31.128  1.00  0.00    -0.205 F 
ATOM     85  C   UNL A   1      35.909  31.124  31.122  1.00  0.00     0.022 A 
BRANCH  83  86
ATOM     86  S   UNL A   1      34.732  33.275  29.911  1.00  0.00     0.127 S 
ATOM     87  O   UNL A   1      33.929  33.911  30.955  1.00  0.00    -0.237 OA
ATOM     88  O   UNL A   1      35.489  34.204  29.072  1.00  0.00    -0.237 OA
ATOM     89  O   UNL A   1      34.071  32.198  29.188  1.00  0.00    -0.744 OA
ENDBRANCH  83  86
ENDBRANCH  65  79
BRANCH  66  90
ATOM     90  C   UNL A   1      45.611  38.190  35.497  1.00  0.00     0.023 A 
ATOM     91  C   UNL A   1      45.551  39.597  35.408  1.00  0.00     0.012 A 
ATOM     92  C   UNL A   1      46.750  37.605  36.079  1.00  0.00     0.148 A 
ATOM     93  C   UNL A   1      46.605  40.396  35.863  1.00  0.00     0.002 A 
ATOM     94  C   UNL A   1      47.754  38.408  36.613  1.00  0.00     0.091 A 
ATOM     95  F   UNL A   1      46.830  36.268  36.120  1.00  0.00    -0.205 F 
ATOM     96  C   UNL A   1      47.698  39.803  36.484  1.00  0.00     0.022 A 
BRANCH  94  97
ATOM     97  S   UNL A   1      49.078  37.711  37.607  1.00  0.00     0.127 S 
ATOM     98  O   UNL A   1      49.922  38.877  37.848  1.00  0.00    -0.237 OA
ATOM     99  O   UNL A   1      48.355  37.218  38.780  1.00  0.00    -0.237 OA
ATOM    100  O   UNL A   1      49.652  36.656  36.780  1.00  0.00    -0.744 OA
ENDBRANCH  94  97
ENDBRANCH  66  90
BRANCH  78 101
ATOM    101  C   UNL A   1      39.867  35.624  38.493  1.00  0.00     0.023 A 
ATOM    102  C   UNL A   1      39.268  36.833  38.902  1.00  0.00     0.012 A 
ATOM    103  C   UNL A   1      39.890  34.527  39.373  1.00  0.00     0.148 A 
ATOM    104  C   UNL A   1      38.730  36.957  40.182  1.00  0.00     0.002 A 
ATOM    105  C   UNL A   1      39.305  34.640  40.626  1.00  0.00     0.091 A 
ATOM    106  F   UNL A   1      40.488  33.397  38.969  1.00  0.00    -0.205 F 
ATOM    107  C   UNL A   1      38.738  35.857  41.039  1.00  0.00     0.022 A 
BRANCH 105 108
ATOM    108  S   UNL A   1      39.187  33.252  41.757  1.00  0.00     0.127 S 
ATOM    109  O   UNL A   1      39.845  33.785  42.949  1.00  0.00    -0.237 OA
ATOM    110  O   UNL A   1      37.740  33.079  41.882  1.00  0.00    -0.237 OA
ATOM    111  O   UNL A   1      39.876  32.144  41.109  1.00  0.00    -0.744 OA
ENDBRANCH 105 108
ENDBRANCH  78 101
ENDBRANCH  52  53
ENDBRANCH  45  47
ENDBRANCH  44  45
ENDBRANCH  43  44
ENDBRANCH  42  43
ENDBRANCH  41  42
ENDBRANCH  40  41
ENDBRANCH   1  40
TORSDOF 25
ENDMDL
