MODEL 1
REMARK VINA RESULT:     -10.8      0.000      0.000
REMARK SMILES C[C@@H](C(=O)NCc1ccco1)[N@H+]1CCCC[C@@H]1C(=O)OCCOCCOCCOC(=O)c1ccc(-c2c3nc(c(-c4cccc(S(=O)(=O)[O-])c4F)c4ccc([nH]4)c(-c4cccc(S(=O)(=O)[O-])c4F)c4nc(c(-c5cccc(S(=O)(=O)[O-])c5F)c5ccc2[nH]5)C=C4)C=C3)cc1
REMARK SMILES IDX 24 1 23 2 22 3 21 4 20 5 18 6 19 7 17 8 12 9 13 10 14 12
REMARK SMILES IDX 16 13 15 14 2 15 1 16 3 17 4 18 5 19 6 21 7 22 8 23 11 24
REMARK SMILES IDX 9 25 10 26 25 27 26 28 27 29 28 30 29 31 30 32 31 33 32 34
REMARK SMILES IDX 33 35 94 36 34 37 93 38 35 39 36 40 37 41 87 42 38 43 92 44
REMARK SMILES IDX 86 45 88 46 39 47 91 48 85 49 84 50 40 52 72 53 52 54 71 55
REMARK SMILES IDX 53 56 56 57 70 58 89 59 54 60 55 61 69 63 90 64 57 65 41 66
REMARK SMILES IDX 42 67 50 68 43 69 45 70 51 71 44 72 46 73 47 74 48 75 49 76
REMARK SMILES IDX 73 77 74 78 82 79 75 80 77 81 83 82 76 83 78 84 79 85 80 86
REMARK SMILES IDX 81 87 58 88 59 89 67 90 60 91 62 92 68 93 61 94 63 95 64 96
REMARK SMILES IDX 65 97 66 98
REMARK H PARENT 12 11 5 20 88 51 56 62
REMARK Flexibility Score: inf
ROOT
ATOM      1  C   UNL A   1      32.672  21.728  25.235  1.00  0.00     0.188 C 
ENDROOT
BRANCH   1   2
ATOM      2  O   UNL A   1      32.817  21.772  26.634  1.00  0.00    -0.376 OA
BRANCH   2   3
ATOM      3  C   UNL A   1      32.337  22.890  27.365  1.00  0.00     0.202 C 
BRANCH   3   4
ATOM      4  C   UNL A   1      32.164  24.304  26.785  1.00  0.00     0.261 C 
BRANCH   4   5
ATOM      5  O   UNL A   1      30.827  24.819  26.629  1.00  0.00    -0.459 OA
BRANCH   5   6
ATOM      6  C   UNL A   1      30.571  25.398  25.423  1.00  0.00     0.365 C 
ATOM      7  O   UNL A   1      29.462  25.814  25.084  1.00  0.00    -0.245 OA
BRANCH   6   8
ATOM      8  C   UNL A   1      31.760  25.486  24.453  1.00  0.00     0.295 C 
ATOM      9  N   UNL A   1      32.217  26.887  24.149  1.00  0.00    -0.313 N 
ATOM     10  C   UNL A   1      33.538  26.798  23.487  1.00  0.00     0.263 C 
ATOM     11  H   UNL A   1      31.529  27.322  23.535  1.00  0.00     0.349 HD
ATOM     12  C   UNL A   1      33.489  26.003  22.181  1.00  0.00     0.062 C 
ATOM     13  C   UNL A   1      31.590  24.704  23.136  1.00  0.00     0.078 C 
ATOM     14  C   UNL A   1      32.914  24.616  22.387  1.00  0.00     0.013 C 
BRANCH   9  15
ATOM     15  C   UNL A   1      32.262  27.789  25.352  1.00  0.00     0.271 C 
ATOM     16  C   UNL A   1      33.596  27.685  26.105  1.00  0.00     0.086 C 
BRANCH  15  17
ATOM     17  C   UNL A   1      32.162  29.285  24.949  1.00  0.00     0.278 C 
ATOM     18  O   UNL A   1      32.943  30.144  25.367  1.00  0.00    -0.268 OA
ATOM     19  N   UNL A   1      31.194  29.681  24.074  1.00  0.00    -0.344 N 
ATOM     20  H   UNL A   1      31.403  30.487  23.550  1.00  0.00     0.164 HD
BRANCH  19  21
ATOM     21  C   UNL A   1      29.901  29.085  23.807  1.00  0.00     0.191 C 
BRANCH  21  22
ATOM     22  C   UNL A   1      29.178  30.113  23.012  1.00  0.00     0.122 A 
ATOM     23  C   UNL A   1      28.637  31.346  23.311  1.00  0.00     0.047 A 
ATOM     24  O   UNL A   1      29.140  29.908  21.661  1.00  0.00    -0.467 OA
ATOM     25  C   UNL A   1      28.318  31.954  22.074  1.00  0.00     0.042 A 
ATOM     26  C   UNL A   1      28.627  31.032  21.102  1.00  0.00     0.195 A 
ENDBRANCH  21  22
ENDBRANCH  19  21
ENDBRANCH  15  17
ENDBRANCH   9  15
ENDBRANCH   6   8
ENDBRANCH   5   6
ENDBRANCH   4   5
ENDBRANCH   3   4
ENDBRANCH   2   3
ENDBRANCH   1   2
BRANCH   1  27
ATOM     27  C   UNL A   1      33.358  20.587  24.491  1.00  0.00     0.188 C 
BRANCH  27  28
ATOM     28  O   UNL A   1      34.742  20.593  24.226  1.00  0.00    -0.376 OA
BRANCH  28  29
ATOM     29  C   UNL A   1      35.655  20.531  25.307  1.00  0.00     0.202 C 
BRANCH  29  30
ATOM     30  C   UNL A   1      36.531  21.721  25.747  1.00  0.00     0.261 C 
BRANCH  30  31
ATOM     31  O   UNL A   1      37.812  21.875  25.128  1.00  0.00    -0.460 OA
BRANCH  31  32
ATOM     32  C   UNL A   1      38.883  21.495  25.870  1.00  0.00     0.338 C 
ATOM     33  O   UNL A   1      39.436  20.406  25.854  1.00  0.00    -0.246 OA
BRANCH  32  34
ATOM     34  C   UNL A   1      39.450  22.702  26.524  1.00  0.00     0.060 A 
ATOM     35  C   UNL A   1      38.937  23.962  26.169  1.00  0.00     0.016 A 
ATOM     36  C   UNL A   1      40.440  22.599  27.500  1.00  0.00     0.016 A 
ATOM     37  C   UNL A   1      39.424  25.121  26.775  1.00  0.00     0.010 A 
ATOM     38  C   UNL A   1      40.957  23.764  28.077  1.00  0.00     0.010 A 
ATOM     39  C   UNL A   1      40.475  25.031  27.693  1.00  0.00    -0.014 A 
BRANCH  39  40
ATOM     40  C   UNL A   1      41.227  26.252  28.073  1.00  0.00     0.031 A 
ATOM     41  C   UNL A   1      40.476  27.346  28.784  1.00  0.00     0.074 A 
ATOM     42  C   UNL A   1      42.534  26.405  27.792  1.00  0.00     0.049 A 
ATOM     43  N   UNL A   1      40.879  28.536  29.138  1.00  0.00    -0.248 NA
ATOM     44  C   UNL A   1      39.075  27.055  29.134  1.00  0.00     0.031 C 
ATOM     45  C   UNL A   1      43.384  25.415  27.135  1.00  0.00     0.029 A 
ATOM     46  N   UNL A   1      43.366  27.480  28.002  1.00  0.00    -0.354 N 
ATOM     47  C   UNL A   1      39.774  29.152  29.714  1.00  0.00     0.074 A 
ATOM     48  C   UNL A   1      38.683  28.205  29.659  1.00  0.00     0.031 C 
ATOM     49  C   UNL A   1      44.608  25.944  26.956  1.00  0.00     0.029 A 
ATOM     50  C   UNL A   1      44.618  27.319  27.457  1.00  0.00     0.049 A 
ATOM     51  H   UNL A   1      43.091  28.286  28.494  1.00  0.00     0.167 HD
ATOM     52  C   UNL A   1      39.675  30.392  30.247  1.00  0.00     0.034 A 
ATOM     53  C   UNL A   1      45.640  28.193  27.345  1.00  0.00     0.034 A 
ATOM     54  C   UNL A   1      40.761  31.330  30.315  1.00  0.00     0.049 A 
ATOM     55  C   UNL A   1      45.493  29.585  27.911  1.00  0.00     0.074 A 
ATOM     56  C   UNL A   1      40.771  32.593  30.878  1.00  0.00     0.029 A 
ATOM     57  N   UNL A   1      42.024  31.117  29.787  1.00  0.00    -0.354 N 
ATOM     58  N   UNL A   1      44.477  30.117  28.547  1.00  0.00    -0.248 NA
ATOM     59  C   UNL A   1      46.646  30.487  27.771  1.00  0.00     0.031 C 
ATOM     60  C   UNL A   1      42.028  33.161  30.655  1.00  0.00     0.029 A 
ATOM     61  C   UNL A   1      42.817  32.231  29.996  1.00  0.00     0.049 A 
ATOM     62  H   UNL A   1      42.315  30.294  29.332  1.00  0.00     0.167 HD
ATOM     63  C   UNL A   1      44.883  31.396  28.916  1.00  0.00     0.074 A 
ATOM     64  C   UNL A   1      46.245  31.553  28.450  1.00  0.00     0.031 C 
ATOM     65  C   UNL A   1      44.189  32.358  29.575  1.00  0.00     0.034 A 
BRANCH  52  66
ATOM     66  C   UNL A   1      38.340  30.808  30.804  1.00  0.00     0.023 A 
ATOM     67  C   UNL A   1      38.019  30.531  32.148  1.00  0.00     0.012 A 
ATOM     68  C   UNL A   1      37.423  31.520  30.006  1.00  0.00     0.148 A 
ATOM     69  C   UNL A   1      36.793  30.928  32.681  1.00  0.00     0.002 A 
ATOM     70  C   UNL A   1      36.225  31.956  30.559  1.00  0.00     0.091 A 
ATOM     71  F   UNL A   1      37.736  31.752  28.724  1.00  0.00    -0.205 F 
ATOM     72  C   UNL A   1      35.904  31.650  31.891  1.00  0.00     0.022 A 
BRANCH  70  73
ATOM     73  S   UNL A   1      35.050  32.963  29.648  1.00  0.00     0.127 S 
ATOM     74  O   UNL A   1      34.502  31.993  28.701  1.00  0.00    -0.237 OA
ATOM     75  O   UNL A   1      34.123  33.377  30.703  1.00  0.00    -0.237 OA
ATOM     76  O   UNL A   1      35.820  34.047  29.056  1.00  0.00    -0.744 OA
ENDBRANCH  70  73
ENDBRANCH  52  66
BRANCH  53  77
ATOM     77  C   UNL A   1      46.907  27.784  26.674  1.00  0.00     0.023 A 
ATOM     78  C   UNL A   1      47.982  27.301  27.447  1.00  0.00     0.012 A 
ATOM     79  C   UNL A   1      47.057  27.880  25.276  1.00  0.00     0.148 A 
ATOM     80  C   UNL A   1      49.193  26.957  26.845  1.00  0.00     0.002 A 
ATOM     81  C   UNL A   1      48.245  27.480  24.678  1.00  0.00     0.091 A 
ATOM     82  F   UNL A   1      46.030  28.359  24.560  1.00  0.00    -0.205 F 
ATOM     83  C   UNL A   1      49.322  27.037  25.462  1.00  0.00     0.022 A 
BRANCH  81  84
ATOM     84  S   UNL A   1      48.462  27.429  22.895  1.00  0.00     0.127 S 
ATOM     85  O   UNL A   1      47.385  28.304  22.438  1.00  0.00    -0.237 OA
ATOM     86  O   UNL A   1      49.809  27.979  22.744  1.00  0.00    -0.237 OA
ATOM     87  O   UNL A   1      48.336  26.027  22.521  1.00  0.00    -0.744 OA
ENDBRANCH  81  84
ENDBRANCH  53  77
BRANCH  65  88
ATOM     88  C   UNL A   1      44.897  33.653  29.891  1.00  0.00     0.023 A 
ATOM     89  C   UNL A   1      45.644  33.783  31.078  1.00  0.00     0.012 A 
ATOM     90  C   UNL A   1      44.884  34.716  28.965  1.00  0.00     0.148 A 
ATOM     91  C   UNL A   1      46.337  34.962  31.354  1.00  0.00     0.002 A 
ATOM     92  C   UNL A   1      45.620  35.866  29.222  1.00  0.00     0.091 A 
ATOM     93  F   UNL A   1      44.156  34.580  27.846  1.00  0.00    -0.205 F 
ATOM     94  C   UNL A   1      46.335  35.997  30.423  1.00  0.00     0.022 A 
BRANCH  92  95
ATOM     95  S   UNL A   1      45.757  37.209  28.036  1.00  0.00     0.127 S 
ATOM     96  O   UNL A   1      44.358  37.434  27.677  1.00  0.00    -0.237 OA
ATOM     97  O   UNL A   1      46.358  38.273  28.843  1.00  0.00    -0.237 OA
ATOM     98  O   UNL A   1      46.605  36.713  26.960  1.00  0.00    -0.744 OA
ENDBRANCH  92  95
ENDBRANCH  65  88
ENDBRANCH  39  40
ENDBRANCH  32  34
ENDBRANCH  31  32
ENDBRANCH  30  31
ENDBRANCH  29  30
ENDBRANCH  28  29
ENDBRANCH  27  28
ENDBRANCH   1  27
TORSDOF 24
ENDMDL
MODEL 2
REMARK VINA RESULT:     -10.2      3.308      9.233
REMARK SMILES C[C@@H](C(=O)NCc1ccco1)[N@H+]1CCCC[C@@H]1C(=O)OCCOCCOCCOC(=O)c1ccc(-c2c3nc(c(-c4cccc(S(=O)(=O)[O-])c4F)c4ccc([nH]4)c(-c4cccc(S(=O)(=O)[O-])c4F)c4nc(c(-c5cccc(S(=O)(=O)[O-])c5F)c5ccc2[nH]5)C=C4)C=C3)cc1
REMARK SMILES IDX 24 1 23 2 22 3 21 4 20 5 18 6 19 7 17 8 12 9 13 10 14 12
REMARK SMILES IDX 16 13 15 14 2 15 1 16 3 17 4 18 5 19 6 21 7 22 8 23 11 24
REMARK SMILES IDX 9 25 10 26 25 27 26 28 27 29 28 30 29 31 30 32 31 33 32 34
REMARK SMILES IDX 33 35 94 36 34 37 93 38 35 39 36 40 37 41 87 42 38 43 92 44
REMARK SMILES IDX 86 45 88 46 39 47 91 48 85 49 84 50 40 52 72 53 52 54 71 55
REMARK SMILES IDX 53 56 56 57 70 58 89 59 54 60 55 61 69 63 90 64 57 65 41 66
REMARK SMILES IDX 42 67 50 68 43 69 45 70 51 71 44 72 46 73 47 74 48 75 49 76
REMARK SMILES IDX 73 77 74 78 82 79 75 80 77 81 83 82 76 83 78 84 79 85 80 86
REMARK SMILES IDX 81 87 58 88 59 89 67 90 60 91 62 92 68 93 61 94 63 95 64 96
REMARK SMILES IDX 65 97 66 98
REMARK H PARENT 12 11 5 20 88 51 56 62
REMARK Flexibility Score: inf
ROOT
ATOM      1  C   UNL A   1      39.242  21.769  25.992  1.00  0.00     0.188 C 
ENDROOT
BRANCH   1   2
ATOM      2  O   UNL A   1      37.947  21.594  25.468  1.00  0.00    -0.376 OA
BRANCH   2   3
ATOM      3  C   UNL A   1      36.993  22.640  25.566  1.00  0.00     0.202 C 
BRANCH   3   4
ATOM      4  C   UNL A   1      36.569  23.547  24.398  1.00  0.00     0.261 C 
BRANCH   4   5
ATOM      5  O   UNL A   1      35.815  22.962  23.318  1.00  0.00    -0.459 OA
BRANCH   5   6
ATOM      6  C   UNL A   1      34.506  23.337  23.261  1.00  0.00     0.365 C 
ATOM      7  O   UNL A   1      33.675  22.813  22.518  1.00  0.00    -0.245 OA
BRANCH   6   8
ATOM      8  C   UNL A   1      34.101  24.507  24.172  1.00  0.00     0.295 C 
ATOM      9  N   UNL A   1      33.033  24.173  25.179  1.00  0.00    -0.313 N 
ATOM     10  C   UNL A   1      32.991  25.271  26.171  1.00  0.00     0.263 C 
ATOM     11  H   UNL A   1      32.144  24.091  24.687  1.00  0.00     0.349 HD
ATOM     12  C   UNL A   1      32.665  26.625  25.539  1.00  0.00     0.062 C 
ATOM     13  C   UNL A   1      33.727  25.809  23.438  1.00  0.00     0.078 C 
ATOM     14  C   UNL A   1      33.627  26.970  24.420  1.00  0.00     0.013 C 
BRANCH   9  15
ATOM     15  C   UNL A   1      33.215  22.836  25.842  1.00  0.00     0.271 C 
ATOM     16  C   UNL A   1      33.414  22.964  27.359  1.00  0.00     0.086 C 
BRANCH  15  17
ATOM     17  C   UNL A   1      31.951  21.947  25.692  1.00  0.00     0.278 C 
ATOM     18  O   UNL A   1      30.807  22.377  25.859  1.00  0.00    -0.268 OA
ATOM     19  N   UNL A   1      32.091  20.639  25.333  1.00  0.00    -0.344 N 
ATOM     20  H   UNL A   1      31.319  20.244  24.867  1.00  0.00     0.164 HD
BRANCH  19  21
ATOM     21  C   UNL A   1      33.213  19.746  25.539  1.00  0.00     0.191 C 
BRANCH  21  22
ATOM     22  C   UNL A   1      33.059  18.709  24.484  1.00  0.00     0.122 A 
ATOM     23  C   UNL A   1      32.479  18.697  23.233  1.00  0.00     0.047 A 
ATOM     24  O   UNL A   1      33.745  17.544  24.686  1.00  0.00    -0.467 OA
ATOM     25  C   UNL A   1      32.891  17.494  22.613  1.00  0.00     0.042 A 
ATOM     26  C   UNL A   1      33.645  16.820  23.544  1.00  0.00     0.195 A 
ENDBRANCH  21  22
ENDBRANCH  19  21
ENDBRANCH  15  17
ENDBRANCH   9  15
ENDBRANCH   6   8
ENDBRANCH   5   6
ENDBRANCH   4   5
ENDBRANCH   3   4
ENDBRANCH   2   3
ENDBRANCH   1   2
BRANCH   1  27
ATOM     27  C   UNL A   1      40.111  20.525  26.151  1.00  0.00     0.188 C 
BRANCH  27  28
ATOM     28  O   UNL A   1      40.830  20.262  27.332  1.00  0.00    -0.376 OA
BRANCH  28  29
ATOM     29  C   UNL A   1      42.065  19.573  27.253  1.00  0.00     0.202 C 
BRANCH  29  30
ATOM     30  C   UNL A   1      42.506  18.759  26.019  1.00  0.00     0.261 C 
BRANCH  30  31
ATOM     31  O   UNL A   1      42.932  19.480  24.858  1.00  0.00    -0.460 OA
BRANCH  31  32
ATOM     32  C   UNL A   1      44.274  19.571  24.672  1.00  0.00     0.338 C 
ATOM     33  O   UNL A   1      45.005  18.721  24.188  1.00  0.00    -0.246 OA
BRANCH  32  34
ATOM     34  C   UNL A   1      44.683  20.979  24.910  1.00  0.00     0.060 A 
ATOM     35  C   UNL A   1      45.173  21.332  26.179  1.00  0.00     0.016 A 
ATOM     36  C   UNL A   1      44.628  21.930  23.892  1.00  0.00     0.016 A 
ATOM     37  C   UNL A   1      45.590  22.637  26.440  1.00  0.00     0.010 A 
ATOM     38  C   UNL A   1      45.007  23.249  24.166  1.00  0.00     0.010 A 
ATOM     39  C   UNL A   1      45.458  23.615  25.449  1.00  0.00    -0.014 A 
BRANCH  39  40
ATOM     40  C   UNL A   1      45.563  25.050  25.812  1.00  0.00     0.031 A 
ATOM     41  C   UNL A   1      46.935  25.668  25.838  1.00  0.00     0.074 A 
ATOM     42  C   UNL A   1      44.483  25.790  26.122  1.00  0.00     0.049 A 
ATOM     43  N   UNL A   1      47.299  26.867  26.208  1.00  0.00    -0.248 NA
ATOM     44  C   UNL A   1      48.047  24.811  25.394  1.00  0.00     0.031 C 
ATOM     45  C   UNL A   1      43.099  25.324  26.109  1.00  0.00     0.029 A 
ATOM     46  N   UNL A   1      44.396  27.096  26.544  1.00  0.00    -0.354 N 
ATOM     47  C   UNL A   1      48.683  26.895  26.081  1.00  0.00     0.074 A 
ATOM     48  C   UNL A   1      49.093  25.594  25.604  1.00  0.00     0.031 C 
ATOM     49  C   UNL A   1      42.302  26.315  26.546  1.00  0.00     0.029 A 
ATOM     50  C   UNL A   1      43.123  27.475  26.898  1.00  0.00     0.049 A 
ATOM     51  H   UNL A   1      45.171  27.701  26.589  1.00  0.00     0.167 HD
ATOM     52  C   UNL A   1      49.538  27.914  26.333  1.00  0.00     0.034 A 
ATOM     53  C   UNL A   1      42.678  28.611  27.474  1.00  0.00     0.034 A 
ATOM     54  C   UNL A   1      49.131  29.212  26.795  1.00  0.00     0.049 A 
ATOM     55  C   UNL A   1      43.656  29.719  27.784  1.00  0.00     0.074 A 
ATOM     56  C   UNL A   1      49.919  30.324  27.034  1.00  0.00     0.029 A 
ATOM     57  N   UNL A   1      47.829  29.570  27.106  1.00  0.00    -0.354 N 
ATOM     58  N   UNL A   1      44.947  29.770  27.560  1.00  0.00    -0.248 NA
ATOM     59  C   UNL A   1      43.109  30.939  28.397  1.00  0.00     0.031 C 
ATOM     60  C   UNL A   1      49.098  31.341  27.529  1.00  0.00     0.029 A 
ATOM     61  C   UNL A   1      47.792  30.879  27.551  1.00  0.00     0.049 A 
ATOM     62  H   UNL A   1      47.045  28.980  27.021  1.00  0.00     0.167 HD
ATOM     63  C   UNL A   1      45.356  31.037  27.967  1.00  0.00     0.074 A 
ATOM     64  C   UNL A   1      44.173  31.729  28.433  1.00  0.00     0.031 C 
ATOM     65  C   UNL A   1      46.601  31.577  27.962  1.00  0.00     0.034 A 
BRANCH  52  66
ATOM     66  C   UNL A   1      51.005  27.665  26.112  1.00  0.00     0.023 A 
ATOM     67  C   UNL A   1      51.828  27.294  27.195  1.00  0.00     0.012 A 
ATOM     68  C   UNL A   1      51.559  27.749  24.819  1.00  0.00     0.148 A 
ATOM     69  C   UNL A   1      53.185  27.041  27.000  1.00  0.00     0.002 A 
ATOM     70  C   UNL A   1      52.901  27.447  24.625  1.00  0.00     0.091 A 
ATOM     71  F   UNL A   1      50.765  28.127  23.808  1.00  0.00    -0.205 F 
ATOM     72  C   UNL A   1      53.717  27.106  25.716  1.00  0.00     0.022 A 
BRANCH  70  73
ATOM     73  S   UNL A   1      53.661  27.421  22.999  1.00  0.00     0.127 S 
ATOM     74  O   UNL A   1      53.274  28.729  22.472  1.00  0.00    -0.237 OA
ATOM     75  O   UNL A   1      55.081  27.292  23.329  1.00  0.00    -0.237 OA
ATOM     76  O   UNL A   1      53.091  26.276  22.304  1.00  0.00    -0.744 OA
ENDBRANCH  70  73
ENDBRANCH  52  66
BRANCH  53  77
ATOM     77  C   UNL A   1      41.231  28.774  27.795  1.00  0.00     0.023 A 
ATOM     78  C   UNL A   1      40.333  29.172  26.784  1.00  0.00     0.012 A 
ATOM     79  C   UNL A   1      40.741  28.547  29.096  1.00  0.00     0.148 A 
ATOM     80  C   UNL A   1      38.982  29.375  27.072  1.00  0.00     0.002 A 
ATOM     81  C   UNL A   1      39.385  28.694  29.361  1.00  0.00     0.091 A 
ATOM     82  F   UNL A   1      41.614  28.188  30.048  1.00  0.00    -0.205 F 
ATOM     83  C   UNL A   1      38.507  29.128  28.356  1.00  0.00     0.022 A 
BRANCH  81  84
ATOM     84  S   UNL A   1      38.660  28.280  30.952  1.00  0.00     0.127 S 
ATOM     85  O   UNL A   1      38.719  26.820  30.936  1.00  0.00    -0.237 OA
ATOM     86  O   UNL A   1      39.590  28.925  31.879  1.00  0.00    -0.237 OA
ATOM     87  O   UNL A   1      37.323  28.856  30.939  1.00  0.00    -0.744 OA
ENDBRANCH  81  84
ENDBRANCH  53  77
BRANCH  65  88
ATOM     88  C   UNL A   1      46.756  33.007  28.421  1.00  0.00     0.023 A 
ATOM     89  C   UNL A   1      46.958  33.297  29.785  1.00  0.00     0.012 A 
ATOM     90  C   UNL A   1      46.780  34.058  27.481  1.00  0.00     0.148 A 
ATOM     91  C   UNL A   1      47.146  34.613  30.209  1.00  0.00     0.002 A 
ATOM     92  C   UNL A   1      47.021  35.358  27.905  1.00  0.00     0.091 A 
ATOM     93  F   UNL A   1      46.571  33.765  26.189  1.00  0.00    -0.205 F 
ATOM     94  C   UNL A   1      47.190  35.640  29.270  1.00  0.00     0.022 A 
BRANCH  92  95
ATOM     95  S   UNL A   1      47.194  36.731  26.759  1.00  0.00     0.127 S 
ATOM     96  O   UNL A   1      45.816  36.917  26.306  1.00  0.00    -0.237 OA
ATOM     97  O   UNL A   1      47.699  37.797  27.626  1.00  0.00    -0.237 OA
ATOM     98  O   UNL A   1      48.132  36.288  25.736  1.00  0.00    -0.744 OA
ENDBRANCH  92  95
ENDBRANCH  65  88
ENDBRANCH  39  40
ENDBRANCH  32  34
ENDBRANCH  31  32
ENDBRANCH  30  31
ENDBRANCH  29  30
ENDBRANCH  28  29
ENDBRANCH  27  28
ENDBRANCH   1  27
TORSDOF 24
ENDMDL
MODEL 3
REMARK VINA RESULT:     -10.2      6.323      9.630
REMARK SMILES C[C@@H](C(=O)NCc1ccco1)[N@H+]1CCCC[C@@H]1C(=O)OCCOCCOCCOC(=O)c1ccc(-c2c3nc(c(-c4cccc(S(=O)(=O)[O-])c4F)c4ccc([nH]4)c(-c4cccc(S(=O)(=O)[O-])c4F)c4nc(c(-c5cccc(S(=O)(=O)[O-])c5F)c5ccc2[nH]5)C=C4)C=C3)cc1
REMARK SMILES IDX 24 1 23 2 22 3 21 4 20 5 18 6 19 7 17 8 12 9 13 10 14 12
REMARK SMILES IDX 16 13 15 14 2 15 1 16 3 17 4 18 5 19 6 21 7 22 8 23 11 24
REMARK SMILES IDX 9 25 10 26 25 27 26 28 27 29 28 30 29 31 30 32 31 33 32 34
REMARK SMILES IDX 33 35 94 36 34 37 93 38 35 39 36 40 37 41 87 42 38 43 92 44
REMARK SMILES IDX 86 45 88 46 39 47 91 48 85 49 84 50 40 52 72 53 52 54 71 55
REMARK SMILES IDX 53 56 56 57 70 58 89 59 54 60 55 61 69 63 90 64 57 65 41 66
REMARK SMILES IDX 42 67 50 68 43 69 45 70 51 71 44 72 46 73 47 74 48 75 49 76
REMARK SMILES IDX 73 77 74 78 82 79 75 80 77 81 83 82 76 83 78 84 79 85 80 86
REMARK SMILES IDX 81 87 58 88 59 89 67 90 60 91 62 92 68 93 61 94 63 95 64 96
REMARK SMILES IDX 65 97 66 98
REMARK H PARENT 12 11 5 20 88 51 56 62
REMARK Flexibility Score: inf
ROOT
ATOM      1  C   UNL A   1      34.264  31.329  27.498  1.00  0.00     0.188 C 
ENDROOT
BRANCH   1   2
ATOM      2  O   UNL A   1      32.870  31.198  27.352  1.00  0.00    -0.376 OA
BRANCH   2   3
ATOM      3  C   UNL A   1      32.335  30.187  26.512  1.00  0.00     0.202 C 
BRANCH   3   4
ATOM      4  C   UNL A   1      32.254  28.697  26.882  1.00  0.00     0.261 C 
BRANCH   4   5
ATOM      5  O   UNL A   1      33.179  27.787  26.255  1.00  0.00    -0.459 OA
BRANCH   5   6
ATOM      6  C   UNL A   1      32.768  26.489  26.210  1.00  0.00     0.365 C 
ATOM      7  O   UNL A   1      31.740  26.077  26.749  1.00  0.00    -0.245 OA
BRANCH   6   8
ATOM      8  C   UNL A   1      33.691  25.516  25.459  1.00  0.00     0.295 C 
ATOM      9  N   UNL A   1      33.215  25.142  24.081  1.00  0.00    -0.313 N 
ATOM     10  C   UNL A   1      34.341  24.485  23.378  1.00  0.00     0.263 C 
ATOM     11  H   UNL A   1      32.424  24.506  24.177  1.00  0.00     0.349 HD
ATOM     12  C   UNL A   1      34.824  23.222  24.091  1.00  0.00     0.062 C 
ATOM     13  C   UNL A   1      34.069  24.240  26.236  1.00  0.00     0.078 C 
ATOM     14  C   UNL A   1      35.200  23.497  25.533  1.00  0.00     0.013 C 
BRANCH   9  15
ATOM     15  C   UNL A   1      32.669  26.297  23.288  1.00  0.00     0.271 C 
ATOM     16  C   UNL A   1      33.047  26.212  21.803  1.00  0.00     0.086 C 
BRANCH  15  17
ATOM     17  C   UNL A   1      31.117  26.310  23.292  1.00  0.00     0.278 C 
ATOM     18  O   UNL A   1      30.439  25.280  23.335  1.00  0.00    -0.268 OA
ATOM     19  N   UNL A   1      30.456  27.503  23.276  1.00  0.00    -0.344 N 
ATOM     20  H   UNL A   1      29.557  27.493  23.678  1.00  0.00     0.164 HD
BRANCH  19  21
ATOM     21  C   UNL A   1      30.887  28.784  22.753  1.00  0.00     0.191 C 
BRANCH  21  22
ATOM     22  C   UNL A   1      29.622  29.522  22.497  1.00  0.00     0.122 A 
ATOM     23  C   UNL A   1      28.643  30.053  23.311  1.00  0.00     0.047 A 
ATOM     24  O   UNL A   1      29.407  29.911  21.204  1.00  0.00    -0.467 OA
ATOM     25  C   UNL A   1      27.832  30.865  22.484  1.00  0.00     0.042 A 
ATOM     26  C   UNL A   1      28.327  30.730  21.209  1.00  0.00     0.195 A 
ENDBRANCH  21  22
ENDBRANCH  19  21
ENDBRANCH  15  17
ENDBRANCH   9  15
ENDBRANCH   6   8
ENDBRANCH   5   6
ENDBRANCH   4   5
ENDBRANCH   3   4
ENDBRANCH   2   3
ENDBRANCH   1   2
BRANCH   1  27
ATOM     27  C   UNL A   1      34.793  31.745  28.868  1.00  0.00     0.188 C 
BRANCH  27  28
ATOM     28  O   UNL A   1      34.294  32.870  29.552  1.00  0.00    -0.376 OA
BRANCH  28  29
ATOM     29  C   UNL A   1      34.151  34.097  28.858  1.00  0.00     0.202 C 
BRANCH  29  30
ATOM     30  C   UNL A   1      33.237  35.242  29.337  1.00  0.00     0.261 C 
BRANCH  30  31
ATOM     31  O   UNL A   1      32.490  35.044  30.542  1.00  0.00    -0.460 OA
BRANCH  31  32
ATOM     32  C   UNL A   1      32.892  35.766  31.619  1.00  0.00     0.338 C 
ATOM     33  O   UNL A   1      32.327  36.734  32.104  1.00  0.00    -0.246 OA
BRANCH  32  34
ATOM     34  C   UNL A   1      33.999  35.033  32.285  1.00  0.00     0.060 A 
ATOM     35  C   UNL A   1      35.301  35.555  32.195  1.00  0.00     0.016 A 
ATOM     36  C   UNL A   1      33.759  33.875  33.023  1.00  0.00     0.016 A 
ATOM     37  C   UNL A   1      36.367  34.912  32.825  1.00  0.00     0.010 A 
ATOM     38  C   UNL A   1      34.834  33.207  33.619  1.00  0.00     0.010 A 
ATOM     39  C   UNL A   1      36.146  33.704  33.495  1.00  0.00    -0.014 A 
BRANCH  39  40
ATOM     40  C   UNL A   1      37.299  32.843  33.860  1.00  0.00     0.031 A 
ATOM     41  C   UNL A   1      38.083  33.206  35.092  1.00  0.00     0.074 A 
ATOM     42  C   UNL A   1      37.656  31.776  33.123  1.00  0.00     0.049 A 
ATOM     43  N   UNL A   1      39.176  32.673  35.568  1.00  0.00    -0.248 NA
ATOM     44  C   UNL A   1      37.564  34.332  35.888  1.00  0.00     0.031 C 
ATOM     45  C   UNL A   1      36.968  31.300  31.925  1.00  0.00     0.029 A 
ATOM     46  N   UNL A   1      38.721  30.918  33.265  1.00  0.00    -0.354 N 
ATOM     47  C   UNL A   1      39.499  33.421  36.694  1.00  0.00     0.074 A 
ATOM     48  C   UNL A   1      38.490  34.447  36.828  1.00  0.00     0.031 C 
ATOM     49  C   UNL A   1      37.652  30.259  31.417  1.00  0.00     0.029 A 
ATOM     50  C   UNL A   1      38.841  30.016  32.234  1.00  0.00     0.049 A 
ATOM     51  H   UNL A   1      39.338  30.946  34.032  1.00  0.00     0.167 HD
ATOM     52  C   UNL A   1      40.540  33.266  37.546  1.00  0.00     0.034 A 
ATOM     53  C   UNL A   1      39.818  29.125  31.963  1.00  0.00     0.034 A 
ATOM     54  C   UNL A   1      41.537  32.239  37.423  1.00  0.00     0.049 A 
ATOM     55  C   UNL A   1      40.990  28.997  32.906  1.00  0.00     0.074 A 
ATOM     56  C   UNL A   1      42.603  31.972  38.263  1.00  0.00     0.029 A 
ATOM     57  N   UNL A   1      41.604  31.321  36.387  1.00  0.00    -0.354 N 
ATOM     58  N   UNL A   1      41.227  29.641  34.024  1.00  0.00    -0.248 NA
ATOM     59  C   UNL A   1      42.014  27.998  32.565  1.00  0.00     0.031 C 
ATOM     60  C   UNL A   1      43.339  30.920  37.712  1.00  0.00     0.029 A 
ATOM     61  C   UNL A   1      42.703  30.498  36.556  1.00  0.00     0.049 A 
ATOM     62  H   UNL A   1      40.964  31.263  35.641  1.00  0.00     0.167 HD
ATOM     63  C   UNL A   1      42.401  29.096  34.537  1.00  0.00     0.074 A 
ATOM     64  C   UNL A   1      42.817  28.058  33.618  1.00  0.00     0.031 C 
ATOM     65  C   UNL A   1      43.079  29.431  35.664  1.00  0.00     0.034 A 
BRANCH  52  66
ATOM     66  C   UNL A   1      40.652  34.234  38.694  1.00  0.00     0.023 A 
ATOM     67  C   UNL A   1      41.520  35.340  38.599  1.00  0.00     0.012 A 
ATOM     68  C   UNL A   1      39.858  34.072  39.846  1.00  0.00     0.148 A 
ATOM     69  C   UNL A   1      41.619  36.255  39.648  1.00  0.00     0.002 A 
ATOM     70  C   UNL A   1      39.926  35.015  40.864  1.00  0.00     0.091 A 
ATOM     71  F   UNL A   1      39.058  33.000  39.926  1.00  0.00    -0.205 F 
ATOM     72  C   UNL A   1      40.815  36.098  40.773  1.00  0.00     0.022 A 
BRANCH  70  73
ATOM     73  S   UNL A   1      38.871  34.947  42.316  1.00  0.00     0.127 S 
ATOM     74  O   UNL A   1      37.563  35.266  41.745  1.00  0.00    -0.237 OA
ATOM     75  O   UNL A   1      39.029  33.556  42.742  1.00  0.00    -0.237 OA
ATOM     76  O   UNL A   1      39.402  35.932  43.247  1.00  0.00    -0.744 OA
ENDBRANCH  70  73
ENDBRANCH  52  66
BRANCH  53  77
ATOM     77  C   UNL A   1      39.734  28.268  30.746  1.00  0.00     0.023 A 
ATOM     78  C   UNL A   1      38.959  27.091  30.773  1.00  0.00     0.012 A 
ATOM     79  C   UNL A   1      40.426  28.605  29.566  1.00  0.00     0.148 A 
ATOM     80  C   UNL A   1      38.904  26.249  29.660  1.00  0.00     0.002 A 
ATOM     81  C   UNL A   1      40.320  27.793  28.444  1.00  0.00     0.091 A 
ATOM     82  F   UNL A   1      41.174  29.718  29.566  1.00  0.00    -0.205 F 
ATOM     83  C   UNL A   1      39.576  26.604  28.495  1.00  0.00     0.022 A 
BRANCH  81  84
ATOM     84  S   UNL A   1      41.047  28.231  26.860  1.00  0.00     0.127 S 
ATOM     85  O   UNL A   1      42.365  28.716  27.260  1.00  0.00    -0.237 OA
ATOM     86  O   UNL A   1      41.048  26.942  26.168  1.00  0.00    -0.237 OA
ATOM     87  O   UNL A   1      40.158  29.228  26.280  1.00  0.00    -0.744 OA
ENDBRANCH  81  84
ENDBRANCH  53  77
BRANCH  65  88
ATOM     88  C   UNL A   1      44.314  28.637  36.011  1.00  0.00     0.023 A 
ATOM     89  C   UNL A   1      45.582  29.071  35.577  1.00  0.00     0.012 A 
ATOM     90  C   UNL A   1      44.221  27.500  36.839  1.00  0.00     0.148 A 
ATOM     91  C   UNL A   1      46.732  28.366  35.932  1.00  0.00     0.002 A 
ATOM     92  C   UNL A   1      45.375  26.834  37.232  1.00  0.00     0.091 A 
ATOM     93  F   UNL A   1      43.004  27.092  37.230  1.00  0.00    -0.205 F 
ATOM     94  C   UNL A   1      46.631  27.257  36.768  1.00  0.00     0.022 A 
BRANCH  92  95
ATOM     95  S   UNL A   1      45.350  25.456  38.386  1.00  0.00     0.127 S 
ATOM     96  O   UNL A   1      44.610  26.024  39.512  1.00  0.00    -0.237 OA
ATOM     97  O   UNL A   1      44.622  24.435  37.631  1.00  0.00    -0.237 OA
ATOM     98  O   UNL A   1      46.744  25.132  38.657  1.00  0.00    -0.744 OA
ENDBRANCH  92  95
ENDBRANCH  65  88
ENDBRANCH  39  40
ENDBRANCH  32  34
ENDBRANCH  31  32
ENDBRANCH  30  31
ENDBRANCH  29  30
ENDBRANCH  28  29
ENDBRANCH  27  28
ENDBRANCH   1  27
TORSDOF 24
ENDMDL
