MODEL 1
REMARK VINA RESULT:      -7.2      0.000      0.000
REMARK SMILES Cc1ccc(CNC(=O)c2csc(/C=C/C(=O)OCCOCCOCCOC(=O)c3ccc(-c4c5nc(c(-c6cccc(S(=O)(=O)[O-])c6F)c6ccc([nH]6)c(-c6cccc(S(=O)(=O)[O-])c6F)c6nc(c(-c7cccc(S(=O)(=O)[O-])c7F)c7ccc4[nH]7)C=C6)C=C5)cc3)c2)s1
REMARK SMILES IDX 22 1 21 2 20 3 19 4 18 5 16 6 17 7 15 8 14 9 13 10 10 11
REMARK SMILES IDX 11 12 93 13 12 14 8 15 7 16 9 18 6 19 5 20 1 21 2 22 3 23
REMARK SMILES IDX 94 24 4 25 23 26 24 27 25 28 26 29 27 30 28 31 29 32 30 33
REMARK SMILES IDX 31 34 92 35 32 36 91 37 33 38 34 39 35 40 85 41 36 42 90 43
REMARK SMILES IDX 84 44 86 45 37 46 89 47 83 48 82 49 38 51 70 52 50 53 69 54
REMARK SMILES IDX 51 55 54 56 68 57 87 58 52 59 53 60 67 62 88 63 55 64 39 65
REMARK SMILES IDX 40 66 48 67 41 68 43 69 49 70 42 71 44 72 45 73 46 74 47 75
REMARK SMILES IDX 71 76 72 77 80 78 73 79 75 80 81 81 74 82 76 83 77 84 78 85
REMARK SMILES IDX 79 86 56 87 57 88 65 89 58 90 60 91 66 92 59 93 61 94 62 95
REMARK SMILES IDX 63 96 64 97
REMARK H PARENT 7 17 86 50 54 61
REMARK Flexibility Score: inf
ROOT
ATOM      1  C   UNL A   1      45.338  21.032  24.416  1.00  0.00     0.188 C 
ENDROOT
BRANCH   1   2
ATOM      2  O   UNL A   1      45.300  22.442  24.389  1.00  0.00    -0.376 OA
BRANCH   2   3
ATOM      3  C   UNL A   1      46.491  23.204  24.298  1.00  0.00     0.202 C 
BRANCH   3   4
ATOM      4  C   UNL A   1      46.727  24.568  24.972  1.00  0.00     0.261 C 
BRANCH   4   5
ATOM      5  O   UNL A   1      48.063  24.865  25.391  1.00  0.00    -0.460 OA
BRANCH   5   6
ATOM      6  C   UNL A   1      48.161  25.702  26.454  1.00  0.00     0.330 C 
ATOM      7  O   UNL A   1      48.813  26.732  26.508  1.00  0.00    -0.247 OA
BRANCH   6   8
ATOM      8  C   UNL A   1      47.275  25.295  27.563  1.00  0.00     0.095 C 
ATOM      9  C   UNL A   1      47.283  25.849  28.785  1.00  0.00     0.026 C 
BRANCH   9  10
ATOM     10  C   UNL A   1      46.368  25.457  29.809  1.00  0.00     0.028 A 
ATOM     11  C   UNL A   1      45.128  25.562  31.813  1.00  0.00     0.051 A 
ATOM     12  C   UNL A   1      44.452  24.580  31.117  1.00  0.00     0.079 A 
ATOM     13  C   UNL A   1      46.327  25.926  31.112  1.00  0.00     0.033 A 
ATOM     14  S   UNL A   1      45.139  24.271  29.586  1.00  0.00    -0.144 S 
BRANCH  11  15
ATOM     15  C   UNL A   1      44.637  26.086  33.084  1.00  0.00     0.252 C 
ATOM     16  N   UNL A   1      43.856  27.216  33.076  1.00  0.00    -0.347 N 
ATOM     17  H   UNL A   1      43.630  27.583  33.961  1.00  0.00     0.164 HD
ATOM     18  O   UNL A   1      44.861  25.527  34.154  1.00  0.00    -0.269 OA
BRANCH  16  19
ATOM     19  C   UNL A   1      43.317  27.940  31.945  1.00  0.00     0.163 C 
BRANCH  19  20
ATOM     20  C   UNL A   1      42.003  28.565  32.283  1.00  0.00     0.024 A 
ATOM     21  C   UNL A   1      39.487  30.892  34.188  1.00  0.00     0.056 C 
ATOM     22  C   UNL A   1      40.223  29.900  33.356  1.00  0.00     0.002 A 
ATOM     23  C   UNL A   1      39.714  28.897  32.559  1.00  0.00     0.015 A 
ATOM     24  S   UNL A   1      41.931  29.917  33.335  1.00  0.00    -0.144 S 
ATOM     25  C   UNL A   1      40.741  28.130  31.935  1.00  0.00     0.017 A 
ENDBRANCH  19  20
ENDBRANCH  16  19
ENDBRANCH  11  15
ENDBRANCH   9  10
ENDBRANCH   6   8
ENDBRANCH   5   6
ENDBRANCH   4   5
ENDBRANCH   3   4
ENDBRANCH   2   3
ENDBRANCH   1   2
BRANCH   1  26
ATOM     26  C   UNL A   1      44.425  20.295  25.413  1.00  0.00     0.188 C 
BRANCH  26  27
ATOM     27  O   UNL A   1      43.039  20.241  25.160  1.00  0.00    -0.376 OA
BRANCH  27  28
ATOM     28  C   UNL A   1      42.196  21.304  25.577  1.00  0.00     0.202 C 
BRANCH  28  29
ATOM     29  C   UNL A   1      41.878  21.697  27.037  1.00  0.00     0.261 C 
BRANCH  29  30
ATOM     30  O   UNL A   1      40.510  21.834  27.419  1.00  0.00    -0.460 OA
BRANCH  30  31
ATOM     31  C   UNL A   1      39.807  22.775  26.744  1.00  0.00     0.338 C 
ATOM     32  O   UNL A   1      38.800  22.604  26.070  1.00  0.00    -0.246 OA
BRANCH  31  33
ATOM     33  C   UNL A   1      40.339  24.104  27.090  1.00  0.00     0.060 A 
ATOM     34  C   UNL A   1      40.763  24.339  28.405  1.00  0.00     0.016 A 
ATOM     35  C   UNL A   1      40.387  25.117  26.134  1.00  0.00     0.016 A 
ATOM     36  C   UNL A   1      41.226  25.601  28.773  1.00  0.00     0.010 A 
ATOM     37  C   UNL A   1      40.829  26.388  26.510  1.00  0.00     0.010 A 
ATOM     38  C   UNL A   1      41.224  26.642  27.837  1.00  0.00    -0.014 A 
BRANCH  38  39
ATOM     39  C   UNL A   1      41.482  28.033  28.280  1.00  0.00     0.031 A 
ATOM     40  C   UNL A   1      42.905  28.516  28.345  1.00  0.00     0.074 A 
ATOM     41  C   UNL A   1      40.473  28.850  28.626  1.00  0.00     0.049 A 
ATOM     42  N   UNL A   1      43.372  29.667  28.750  1.00  0.00    -0.248 NA
ATOM     43  C   UNL A   1      43.939  27.569  27.898  1.00  0.00     0.031 C 
ATOM     44  C   UNL A   1      39.053  28.504  28.591  1.00  0.00     0.029 A 
ATOM     45  N   UNL A   1      40.496  30.137  29.105  1.00  0.00    -0.354 N 
ATOM     46  C   UNL A   1      44.754  29.575  28.637  1.00  0.00     0.074 A 
ATOM     47  C   UNL A   1      45.050  28.250  28.138  1.00  0.00     0.031 C 
ATOM     48  C   UNL A   1      38.341  29.544  29.057  1.00  0.00     0.029 A 
ATOM     49  C   UNL A   1      39.254  30.615  29.451  1.00  0.00     0.049 A 
ATOM     50  H   UNL A   1      41.321  30.666  29.192  1.00  0.00     0.167 HD
ATOM     51  C   UNL A   1      45.692  30.513  28.912  1.00  0.00     0.034 A 
ATOM     52  C   UNL A   1      38.900  31.775  30.041  1.00  0.00     0.034 A 
ATOM     53  C   UNL A   1      45.394  31.831  29.401  1.00  0.00     0.049 A 
ATOM     54  C   UNL A   1      39.967  32.785  30.379  1.00  0.00     0.074 A 
ATOM     55  C   UNL A   1      46.270  32.867  29.671  1.00  0.00     0.029 A 
ATOM     56  N   UNL A   1      44.123  32.291  29.714  1.00  0.00    -0.354 N 
ATOM     57  N   UNL A   1      41.260  32.728  30.165  1.00  0.00    -0.248 NA
ATOM     58  C   UNL A   1      39.521  34.035  31.014  1.00  0.00     0.031 C 
ATOM     59  C   UNL A   1      45.534  33.940  30.184  1.00  0.00     0.029 A 
ATOM     60  C   UNL A   1      44.193  33.589  30.192  1.00  0.00     0.049 A 
ATOM     61  H   UNL A   1      43.294  31.771  29.611  1.00  0.00     0.167 HD
ATOM     62  C   UNL A   1      41.775  33.945  30.601  1.00  0.00     0.074 A 
ATOM     63  C   UNL A   1      40.651  34.727  31.075  1.00  0.00     0.031 C 
ATOM     64  C   UNL A   1      43.062  34.375  30.617  1.00  0.00     0.034 A 
BRANCH  51  65
ATOM     65  C   UNL A   1      47.133  30.141  28.679  1.00  0.00     0.023 A 
ATOM     66  C   UNL A   1      47.754  30.471  27.455  1.00  0.00     0.012 A 
ATOM     67  C   UNL A   1      47.883  29.498  29.682  1.00  0.00     0.148 A 
ATOM     68  C   UNL A   1      49.084  30.128  27.220  1.00  0.00     0.002 A 
ATOM     69  C   UNL A   1      49.223  29.203  29.458  1.00  0.00     0.091 A 
ATOM     70  F   UNL A   1      47.271  29.172  30.829  1.00  0.00    -0.205 F 
ATOM     71  C   UNL A   1      49.820  29.504  28.222  1.00  0.00     0.022 A 
BRANCH  69  72
ATOM     72  S   UNL A   1      50.278  28.473  30.715  1.00  0.00     0.127 S 
ATOM     73  O   UNL A   1      51.558  28.391  30.015  1.00  0.00    -0.237 OA
ATOM     74  O   UNL A   1      50.228  29.477  31.778  1.00  0.00    -0.237 OA
ATOM     75  O   UNL A   1      49.670  27.196  31.057  1.00  0.00    -0.744 OA
ENDBRANCH  69  72
ENDBRANCH  51  65
BRANCH  52  76
ATOM     76  C   UNL A   1      37.465  32.060  30.325  1.00  0.00     0.023 A 
ATOM     77  C   UNL A   1      36.932  31.739  31.588  1.00  0.00     0.012 A 
ATOM     78  C   UNL A   1      36.632  32.654  29.358  1.00  0.00     0.148 A 
ATOM     79  C   UNL A   1      35.586  31.975  31.872  1.00  0.00     0.002 A 
ATOM     80  C   UNL A   1      35.306  32.937  29.666  1.00  0.00     0.091 A 
ATOM     81  F   UNL A   1      37.157  32.940  28.158  1.00  0.00    -0.205 F 
ATOM     82  C   UNL A   1      34.777  32.581  30.916  1.00  0.00     0.022 A 
BRANCH  80  83
ATOM     83  S   UNL A   1      34.219  33.819  28.542  1.00  0.00     0.127 S 
ATOM     84  O   UNL A   1      33.740  34.912  29.385  1.00  0.00    -0.237 OA
ATOM     85  O   UNL A   1      35.145  34.219  27.482  1.00  0.00    -0.237 OA
ATOM     86  O   UNL A   1      33.208  32.856  28.129  1.00  0.00    -0.744 OA
ENDBRANCH  80  83
ENDBRANCH  52  76
BRANCH  64  87
ATOM     87  C   UNL A   1      43.333  35.771  31.120  1.00  0.00     0.023 A 
ATOM     88  C   UNL A   1      43.489  36.007  32.501  1.00  0.00     0.012 A 
ATOM     89  C   UNL A   1      43.507  36.838  30.215  1.00  0.00     0.148 A 
ATOM     90  C   UNL A   1      43.776  37.288  32.974  1.00  0.00     0.002 A 
ATOM     91  C   UNL A   1      43.845  38.099  30.689  1.00  0.00     0.091 A 
ATOM     92  F   UNL A   1      43.340  36.598  28.905  1.00  0.00    -0.205 F 
ATOM     93  C   UNL A   1      43.966  38.329  32.069  1.00  0.00     0.022 A 
BRANCH  91  94
ATOM     94  S   UNL A   1      44.207  39.478  29.595  1.00  0.00     0.127 S 
ATOM     95  O   UNL A   1      44.462  40.556  30.549  1.00  0.00    -0.237 OA
ATOM     96  O   UNL A   1      45.393  39.003  28.882  1.00  0.00    -0.237 OA
ATOM     97  O   UNL A   1      43.027  39.651  28.760  1.00  0.00    -0.744 OA
ENDBRANCH  91  94
ENDBRANCH  64  87
ENDBRANCH  38  39
ENDBRANCH  31  33
ENDBRANCH  30  31
ENDBRANCH  29  30
ENDBRANCH  28  29
ENDBRANCH  27  28
ENDBRANCH  26  27
ENDBRANCH   1  26
TORSDOF 24
ENDMDL
MODEL 2
REMARK VINA RESULT:      -7.1      3.489      7.736
REMARK SMILES Cc1ccc(CNC(=O)c2csc(/C=C/C(=O)OCCOCCOCCOC(=O)c3ccc(-c4c5nc(c(-c6cccc(S(=O)(=O)[O-])c6F)c6ccc([nH]6)c(-c6cccc(S(=O)(=O)[O-])c6F)c6nc(c(-c7cccc(S(=O)(=O)[O-])c7F)c7ccc4[nH]7)C=C6)C=C5)cc3)c2)s1
REMARK SMILES IDX 22 1 21 2 20 3 19 4 18 5 16 6 17 7 15 8 14 9 13 10 10 11
REMARK SMILES IDX 11 12 93 13 12 14 8 15 7 16 9 18 6 19 5 20 1 21 2 22 3 23
REMARK SMILES IDX 94 24 4 25 23 26 24 27 25 28 26 29 27 30 28 31 29 32 30 33
REMARK SMILES IDX 31 34 92 35 32 36 91 37 33 38 34 39 35 40 85 41 36 42 90 43
REMARK SMILES IDX 84 44 86 45 37 46 89 47 83 48 82 49 38 51 70 52 50 53 69 54
REMARK SMILES IDX 51 55 54 56 68 57 87 58 52 59 53 60 67 62 88 63 55 64 39 65
REMARK SMILES IDX 40 66 48 67 41 68 43 69 49 70 42 71 44 72 45 73 46 74 47 75
REMARK SMILES IDX 71 76 72 77 80 78 73 79 75 80 81 81 74 82 76 83 77 84 78 85
REMARK SMILES IDX 79 86 56 87 57 88 65 89 58 90 60 91 66 92 59 93 61 94 62 95
REMARK SMILES IDX 63 96 64 97
REMARK H PARENT 7 17 86 50 54 61
REMARK Flexibility Score: inf
ROOT
ATOM      1  C   UNL A   1      42.151  20.035  27.010  1.00  0.00     0.188 C 
ENDROOT
BRANCH   1   2
ATOM      2  O   UNL A   1      40.962  20.756  26.766  1.00  0.00    -0.376 OA
BRANCH   2   3
ATOM      3  C   UNL A   1      40.633  21.901  27.531  1.00  0.00     0.202 C 
BRANCH   3   4
ATOM      4  C   UNL A   1      40.357  23.303  26.958  1.00  0.00     0.261 C 
BRANCH   4   5
ATOM      5  O   UNL A   1      41.176  24.375  27.437  1.00  0.00    -0.460 OA
BRANCH   5   6
ATOM      6  C   UNL A   1      40.856  25.603  26.959  1.00  0.00     0.330 C 
ATOM      7  O   UNL A   1      40.696  25.906  25.787  1.00  0.00    -0.247 OA
BRANCH   6   8
ATOM      8  C   UNL A   1      40.594  26.570  28.043  1.00  0.00     0.095 C 
ATOM      9  C   UNL A   1      39.517  27.367  28.109  1.00  0.00     0.026 C 
BRANCH   9  10
ATOM     10  C   UNL A   1      39.282  28.248  29.209  1.00  0.00     0.028 A 
ATOM     11  C   UNL A   1      38.333  29.077  31.203  1.00  0.00     0.051 A 
ATOM     12  C   UNL A   1      39.475  29.847  31.095  1.00  0.00     0.079 A 
ATOM     13  C   UNL A   1      38.157  28.288  30.016  1.00  0.00     0.033 A 
ATOM     14  S   UNL A   1      40.391  29.467  29.706  1.00  0.00    -0.144 S 
BRANCH  11  15
ATOM     15  C   UNL A   1      37.472  29.132  32.380  1.00  0.00     0.252 C 
ATOM     16  N   UNL A   1      36.647  30.217  32.546  1.00  0.00    -0.347 N 
ATOM     17  H   UNL A   1      36.159  30.253  33.400  1.00  0.00     0.164 HD
ATOM     18  O   UNL A   1      37.428  28.221  33.203  1.00  0.00    -0.269 OA
BRANCH  16  19
ATOM     19  C   UNL A   1      36.395  31.315  31.638  1.00  0.00     0.163 C 
BRANCH  19  20
ATOM     20  C   UNL A   1      35.873  32.508  32.369  1.00  0.00     0.024 A 
ATOM     21  C   UNL A   1      34.406  36.116  32.824  1.00  0.00     0.056 C 
ATOM     22  C   UNL A   1      34.995  34.751  32.917  1.00  0.00     0.002 A 
ATOM     23  C   UNL A   1      35.507  34.107  34.023  1.00  0.00     0.015 A 
ATOM     24  S   UNL A   1      35.112  33.784  31.513  1.00  0.00    -0.144 S 
ATOM     25  C   UNL A   1      36.008  32.810  33.708  1.00  0.00     0.017 A 
ENDBRANCH  19  20
ENDBRANCH  16  19
ENDBRANCH  11  15
ENDBRANCH   9  10
ENDBRANCH   6   8
ENDBRANCH   5   6
ENDBRANCH   4   5
ENDBRANCH   3   4
ENDBRANCH   2   3
ENDBRANCH   1   2
BRANCH   1  26
ATOM     26  C   UNL A   1      42.790  19.264  25.840  1.00  0.00     0.188 C 
BRANCH  26  27
ATOM     27  O   UNL A   1      43.949  19.784  25.230  1.00  0.00    -0.376 OA
BRANCH  27  28
ATOM     28  C   UNL A   1      44.188  21.183  25.228  1.00  0.00     0.202 C 
BRANCH  28  29
ATOM     29  C   UNL A   1      45.036  21.965  26.255  1.00  0.00     0.261 C 
BRANCH  29  30
ATOM     30  O   UNL A   1      46.283  22.513  25.828  1.00  0.00    -0.460 OA
BRANCH  30  31
ATOM     31  C   UNL A   1      46.199  23.646  25.090  1.00  0.00     0.338 C 
ATOM     32  O   UNL A   1      46.237  23.739  23.869  1.00  0.00    -0.246 OA
BRANCH  31  33
ATOM     33  C   UNL A   1      45.866  24.769  25.981  1.00  0.00     0.060 A 
ATOM     34  C   UNL A   1      46.822  25.199  26.912  1.00  0.00     0.016 A 
ATOM     35  C   UNL A   1      44.609  25.371  25.922  1.00  0.00     0.016 A 
ATOM     36  C   UNL A   1      46.516  26.229  27.800  1.00  0.00     0.010 A 
ATOM     37  C   UNL A   1      44.297  26.386  26.828  1.00  0.00     0.010 A 
ATOM     38  C   UNL A   1      45.239  26.800  27.789  1.00  0.00    -0.014 A 
BRANCH  38  39
ATOM     39  C   UNL A   1      44.831  27.718  28.880  1.00  0.00     0.031 A 
ATOM     40  C   UNL A   1      44.802  29.196  28.605  1.00  0.00     0.074 A 
ATOM     41  C   UNL A   1      44.501  27.247  30.095  1.00  0.00     0.049 A 
ATOM     42  N   UNL A   1      44.530  30.184  29.415  1.00  0.00    -0.248 NA
ATOM     43  C   UNL A   1      45.129  29.613  27.232  1.00  0.00     0.031 C 
ATOM     44  C   UNL A   1      44.477  25.837  30.479  1.00  0.00     0.029 A 
ATOM     45  N   UNL A   1      44.149  27.917  31.241  1.00  0.00    -0.354 N 
ATOM     46  C   UNL A   1      44.683  31.342  28.662  1.00  0.00     0.074 A 
ATOM     47  C   UNL A   1      45.084  30.933  27.334  1.00  0.00     0.031 C 
ATOM     48  C   UNL A   1      44.155  25.748  31.782  1.00  0.00     0.029 A 
ATOM     49  C   UNL A   1      43.982  27.092  32.328  1.00  0.00     0.049 A 
ATOM     50  H   UNL A   1      44.029  28.893  31.281  1.00  0.00     0.167 HD
ATOM     51  C   UNL A   1      44.494  32.629  29.038  1.00  0.00     0.034 A 
ATOM     52  C   UNL A   1      43.742  27.392  33.620  1.00  0.00     0.034 A 
ATOM     53  C   UNL A   1      44.089  33.032  30.358  1.00  0.00     0.049 A 
ATOM     54  C   UNL A   1      43.580  28.836  34.024  1.00  0.00     0.074 A 
ATOM     55  C   UNL A   1      43.831  34.308  30.826  1.00  0.00     0.029 A 
ATOM     56  N   UNL A   1      43.901  32.169  31.427  1.00  0.00    -0.354 N 
ATOM     57  N   UNL A   1      43.619  29.914  33.279  1.00  0.00    -0.248 NA
ATOM     58  C   UNL A   1      43.311  29.102  35.446  1.00  0.00     0.031 C 
ATOM     59  C   UNL A   1      43.526  34.219  32.189  1.00  0.00     0.029 A 
ATOM     60  C   UNL A   1      43.550  32.884  32.558  1.00  0.00     0.049 A 
ATOM     61  H   UNL A   1      44.003  31.190  31.386  1.00  0.00     0.167 HD
ATOM     62  C   UNL A   1      43.341  30.980  34.130  1.00  0.00     0.074 A 
ATOM     63  C   UNL A   1      43.118  30.414  35.445  1.00  0.00     0.031 C 
ATOM     64  C   UNL A   1      43.284  32.306  33.853  1.00  0.00     0.034 A 
BRANCH  51  65
ATOM     65  C   UNL A   1      44.719  33.696  27.999  1.00  0.00     0.023 A 
ATOM     66  C   UNL A   1      43.652  34.105  27.171  1.00  0.00     0.012 A 
ATOM     67  C   UNL A   1      45.975  34.318  27.863  1.00  0.00     0.148 A 
ATOM     68  C   UNL A   1      43.843  35.085  26.199  1.00  0.00     0.002 A 
ATOM     69  C   UNL A   1      46.145  35.329  26.924  1.00  0.00     0.091 A 
ATOM     70  F   UNL A   1      46.982  33.901  28.643  1.00  0.00    -0.205 F 
ATOM     71  C   UNL A   1      45.085  35.703  26.082  1.00  0.00     0.022 A 
BRANCH  69  72
ATOM     72  S   UNL A   1      47.682  36.242  26.752  1.00  0.00     0.127 S 
ATOM     73  O   UNL A   1      47.407  37.064  25.575  1.00  0.00    -0.237 OA
ATOM     74  O   UNL A   1      47.743  36.982  28.012  1.00  0.00    -0.237 OA
ATOM     75  O   UNL A   1      48.726  35.241  26.584  1.00  0.00    -0.744 OA
ENDBRANCH  69  72
ENDBRANCH  51  65
BRANCH  52  76
ATOM     76  C   UNL A   1      43.609  26.301  34.628  1.00  0.00     0.023 A 
ATOM     77  C   UNL A   1      42.329  25.821  34.964  1.00  0.00     0.012 A 
ATOM     78  C   UNL A   1      44.740  25.735  35.245  1.00  0.00     0.148 A 
ATOM     79  C   UNL A   1      42.176  24.818  35.921  1.00  0.00     0.002 A 
ATOM     80  C   UNL A   1      44.584  24.697  36.157  1.00  0.00     0.091 A 
ATOM     81  F   UNL A   1      45.948  26.216  34.921  1.00  0.00    -0.205 F 
ATOM     82  C   UNL A   1      43.301  24.250  36.510  1.00  0.00     0.022 A 
BRANCH  80  83
ATOM     83  S   UNL A   1      45.977  23.826  36.881  1.00  0.00     0.127 S 
ATOM     84  O   UNL A   1      46.861  23.665  35.729  1.00  0.00    -0.237 OA
ATOM     85  O   UNL A   1      46.441  24.786  37.884  1.00  0.00    -0.237 OA
ATOM     86  O   UNL A   1      45.433  22.593  37.432  1.00  0.00    -0.744 OA
ENDBRANCH  80  83
ENDBRANCH  52  76
BRANCH  64  87
ATOM     87  C   UNL A   1      42.923  33.247  34.976  1.00  0.00     0.023 A 
ATOM     88  C   UNL A   1      43.935  33.805  35.782  1.00  0.00     0.012 A 
ATOM     89  C   UNL A   1      41.584  33.635  35.183  1.00  0.00     0.148 A 
ATOM     90  C   UNL A   1      43.616  34.705  36.800  1.00  0.00     0.002 A 
ATOM     91  C   UNL A   1      41.280  34.572  36.163  1.00  0.00     0.091 A 
ATOM     92  F   UNL A   1      40.632  33.082  34.416  1.00  0.00    -0.205 F 
ATOM     93  C   UNL A   1      42.292  35.097  36.981  1.00  0.00     0.022 A 
BRANCH  91  94
ATOM     94  S   UNL A   1      39.618  35.212  36.405  1.00  0.00     0.127 S 
ATOM     95  O   UNL A   1      39.664  36.456  35.639  1.00  0.00    -0.237 OA
ATOM     96  O   UNL A   1      38.792  34.160  35.810  1.00  0.00    -0.237 OA
ATOM     97  O   UNL A   1      39.452  35.371  37.843  1.00  0.00    -0.744 OA
ENDBRANCH  91  94
ENDBRANCH  64  87
ENDBRANCH  38  39
ENDBRANCH  31  33
ENDBRANCH  30  31
ENDBRANCH  29  30
ENDBRANCH  28  29
ENDBRANCH  27  28
ENDBRANCH  26  27
ENDBRANCH   1  26
TORSDOF 24
ENDMDL
MODEL 3
REMARK VINA RESULT:      -6.7      4.857     10.320
REMARK SMILES Cc1ccc(CNC(=O)c2csc(/C=C/C(=O)OCCOCCOCCOC(=O)c3ccc(-c4c5nc(c(-c6cccc(S(=O)(=O)[O-])c6F)c6ccc([nH]6)c(-c6cccc(S(=O)(=O)[O-])c6F)c6nc(c(-c7cccc(S(=O)(=O)[O-])c7F)c7ccc4[nH]7)C=C6)C=C5)cc3)c2)s1
REMARK SMILES IDX 22 1 21 2 20 3 19 4 18 5 16 6 17 7 15 8 14 9 13 10 10 11
REMARK SMILES IDX 11 12 93 13 12 14 8 15 7 16 9 18 6 19 5 20 1 21 2 22 3 23
REMARK SMILES IDX 94 24 4 25 23 26 24 27 25 28 26 29 27 30 28 31 29 32 30 33
REMARK SMILES IDX 31 34 92 35 32 36 91 37 33 38 34 39 35 40 85 41 36 42 90 43
REMARK SMILES IDX 84 44 86 45 37 46 89 47 83 48 82 49 38 51 70 52 50 53 69 54
REMARK SMILES IDX 51 55 54 56 68 57 87 58 52 59 53 60 67 62 88 63 55 64 39 65
REMARK SMILES IDX 40 66 48 67 41 68 43 69 49 70 42 71 44 72 45 73 46 74 47 75
REMARK SMILES IDX 71 76 72 77 80 78 73 79 75 80 81 81 74 82 76 83 77 84 78 85
REMARK SMILES IDX 79 86 56 87 57 88 65 89 58 90 60 91 66 92 59 93 61 94 62 95
REMARK SMILES IDX 63 96 64 97
REMARK H PARENT 7 17 86 50 54 61
REMARK Flexibility Score: inf
ROOT
ATOM      1  C   UNL A   1      43.891  25.936  26.323  1.00  0.00     0.188 C 
ENDROOT
BRANCH   1   2
ATOM      2  O   UNL A   1      44.425  25.757  27.617  1.00  0.00    -0.376 OA
BRANCH   2   3
ATOM      3  C   UNL A   1      45.329  26.696  28.171  1.00  0.00     0.202 C 
BRANCH   3   4
ATOM      4  C   UNL A   1      46.658  26.347  28.865  1.00  0.00     0.261 C 
BRANCH   4   5
ATOM      5  O   UNL A   1      46.652  26.292  30.295  1.00  0.00    -0.460 OA
BRANCH   5   6
ATOM      6  C   UNL A   1      46.596  27.495  30.918  1.00  0.00     0.330 C 
ATOM      7  O   UNL A   1      47.252  28.486  30.641  1.00  0.00    -0.247 OA
BRANCH   6   8
ATOM      8  C   UNL A   1      45.536  27.539  31.945  1.00  0.00     0.095 C 
ATOM      9  C   UNL A   1      45.093  26.473  32.628  1.00  0.00     0.026 C 
BRANCH   9  10
ATOM     10  C   UNL A   1      44.103  26.577  33.652  1.00  0.00     0.028 A 
ATOM     11  C   UNL A   1      42.328  27.478  34.917  1.00  0.00     0.051 A 
ATOM     12  C   UNL A   1      42.324  26.160  35.330  1.00  0.00     0.079 A 
ATOM     13  C   UNL A   1      43.470  27.730  34.084  1.00  0.00     0.033 A 
ATOM     14  S   UNL A   1      43.537  25.232  34.568  1.00  0.00    -0.144 S 
BRANCH  11  15
ATOM     15  C   UNL A   1      41.293  28.420  35.331  1.00  0.00     0.252 C 
ATOM     16  N   UNL A   1      40.537  29.038  34.365  1.00  0.00    -0.347 N 
ATOM     17  H   UNL A   1      39.920  29.734  34.689  1.00  0.00     0.164 HD
ATOM     18  O   UNL A   1      41.046  28.645  36.513  1.00  0.00    -0.269 OA
BRANCH  16  19
ATOM     19  C   UNL A   1      40.520  28.807  32.937  1.00  0.00     0.163 C 
BRANCH  19  20
ATOM     20  C   UNL A   1      39.157  29.035  32.371  1.00  0.00     0.024 A 
ATOM     21  C   UNL A   1      36.431  29.560  29.603  1.00  0.00     0.056 C 
ATOM     22  C   UNL A   1      37.273  29.430  30.824  1.00  0.00     0.002 A 
ATOM     23  C   UNL A   1      36.946  29.729  32.130  1.00  0.00     0.015 A 
ATOM     24  S   UNL A   1      38.877  28.860  30.689  1.00  0.00    -0.144 S 
ATOM     25  C   UNL A   1      38.032  29.495  33.024  1.00  0.00     0.017 A 
ENDBRANCH  19  20
ENDBRANCH  16  19
ENDBRANCH  11  15
ENDBRANCH   9  10
ENDBRANCH   6   8
ENDBRANCH   5   6
ENDBRANCH   4   5
ENDBRANCH   3   4
ENDBRANCH   2   3
ENDBRANCH   1   2
BRANCH   1  26
ATOM     26  C   UNL A   1      44.346  27.161  25.509  1.00  0.00     0.188 C 
BRANCH  26  27
ATOM     27  O   UNL A   1      45.574  27.107  24.819  1.00  0.00    -0.376 OA
BRANCH  27  28
ATOM     28  C   UNL A   1      46.439  28.232  24.814  1.00  0.00     0.202 C 
BRANCH  28  29
ATOM     29  C   UNL A   1      46.375  29.436  25.779  1.00  0.00     0.261 C 
BRANCH  29  30
ATOM     30  O   UNL A   1      45.133  29.726  26.420  1.00  0.00    -0.460 OA
BRANCH  30  31
ATOM     31  C   UNL A   1      44.792  31.036  26.464  1.00  0.00     0.338 C 
ATOM     32  O   UNL A   1      44.995  31.883  25.602  1.00  0.00    -0.246 OA
BRANCH  31  33
ATOM     33  C   UNL A   1      43.956  31.270  27.653  1.00  0.00     0.060 A 
ATOM     34  C   UNL A   1      43.935  32.552  28.221  1.00  0.00     0.016 A 
ATOM     35  C   UNL A   1      43.228  30.227  28.222  1.00  0.00     0.016 A 
ATOM     36  C   UNL A   1      43.190  32.790  29.375  1.00  0.00     0.010 A 
ATOM     37  C   UNL A   1      42.501  30.462  29.392  1.00  0.00     0.010 A 
ATOM     38  C   UNL A   1      42.502  31.737  29.988  1.00  0.00    -0.014 A 
BRANCH  38  39
ATOM     39  C   UNL A   1      41.913  31.925  31.336  1.00  0.00     0.031 A 
ATOM     40  C   UNL A   1      40.479  32.365  31.440  1.00  0.00     0.074 A 
ATOM     41  C   UNL A   1      42.641  31.719  32.446  1.00  0.00     0.049 A 
ATOM     42  N   UNL A   1      39.772  32.643  32.503  1.00  0.00    -0.248 NA
ATOM     43  C   UNL A   1      39.746  32.517  30.172  1.00  0.00     0.031 C 
ATOM     44  C   UNL A   1      44.034  31.278  32.475  1.00  0.00     0.029 A 
ATOM     45  N   UNL A   1      42.310  31.882  33.769  1.00  0.00    -0.354 N 
ATOM     46  C   UNL A   1      38.523  33.031  32.036  1.00  0.00     0.074 A 
ATOM     47  C   UNL A   1      38.573  32.966  30.591  1.00  0.00     0.031 C 
ATOM     48  C   UNL A   1      44.449  31.232  33.754  1.00  0.00     0.029 A 
ATOM     49  C   UNL A   1      43.362  31.670  34.627  1.00  0.00     0.049 A 
ATOM     50  H   UNL A   1      41.406  32.127  34.073  1.00  0.00     0.167 HD
ATOM     51  C   UNL A   1      37.428  33.397  32.744  1.00  0.00     0.034 A 
ATOM     52  C   UNL A   1      43.443  31.834  35.963  1.00  0.00     0.034 A 
ATOM     53  C   UNL A   1      37.380  33.455  34.180  1.00  0.00     0.049 A 
ATOM     54  C   UNL A   1      42.224  32.287  36.726  1.00  0.00     0.074 A 
ATOM     55  C   UNL A   1      36.306  33.773  34.992  1.00  0.00     0.029 A 
ATOM     56  N   UNL A   1      38.455  33.206  35.019  1.00  0.00    -0.354 N 
ATOM     57  N   UNL A   1      41.017  32.545  36.282  1.00  0.00    -0.248 NA
ATOM     58  C   UNL A   1      42.370  32.441  38.182  1.00  0.00     0.031 C 
ATOM     59  C   UNL A   1      36.743  33.756  36.321  1.00  0.00     0.029 A 
ATOM     60  C   UNL A   1      38.078  33.383  36.339  1.00  0.00     0.049 A 
ATOM     61  H   UNL A   1      39.355  32.943  34.719  1.00  0.00     0.167 HD
ATOM     62  C   UNL A   1      40.252  32.853  37.403  1.00  0.00     0.074 A 
ATOM     63  C   UNL A   1      41.129  32.731  38.550  1.00  0.00     0.031 C 
ATOM     64  C   UNL A   1      38.947  33.213  37.477  1.00  0.00     0.034 A 
BRANCH  51  65
ATOM     65  C   UNL A   1      36.188  33.758  31.968  1.00  0.00     0.023 A 
ATOM     66  C   UNL A   1      35.709  32.888  30.966  1.00  0.00     0.012 A 
ATOM     67  C   UNL A   1      35.477  34.940  32.253  1.00  0.00     0.148 A 
ATOM     68  C   UNL A   1      34.568  33.209  30.234  1.00  0.00     0.002 A 
ATOM     69  C   UNL A   1      34.313  35.229  31.551  1.00  0.00     0.091 A 
ATOM     70  F   UNL A   1      35.960  35.766  33.192  1.00  0.00    -0.205 F 
ATOM     71  C   UNL A   1      33.866  34.372  30.532  1.00  0.00     0.022 A 
BRANCH  69  72
ATOM     72  S   UNL A   1      33.293  36.662  31.915  1.00  0.00     0.127 S 
ATOM     73  O   UNL A   1      32.391  36.682  30.766  1.00  0.00    -0.237 OA
ATOM     74  O   UNL A   1      32.664  36.278  33.178  1.00  0.00    -0.237 OA
ATOM     75  O   UNL A   1      34.207  37.792  32.011  1.00  0.00    -0.744 OA
ENDBRANCH  69  72
ENDBRANCH  51  65
BRANCH  52  76
ATOM     76  C   UNL A   1      44.720  31.542  36.676  1.00  0.00     0.023 A 
ATOM     77  C   UNL A   1      45.727  32.524  36.723  1.00  0.00     0.012 A 
ATOM     78  C   UNL A   1      44.936  30.304  37.309  1.00  0.00     0.148 A 
ATOM     79  C   UNL A   1      46.940  32.267  37.363  1.00  0.00     0.002 A 
ATOM     80  C   UNL A   1      46.125  30.074  37.993  1.00  0.00     0.091 A 
ATOM     81  F   UNL A   1      43.969  29.377  37.240  1.00  0.00    -0.205 F 
ATOM     82  C   UNL A   1      47.135  31.048  38.005  1.00  0.00     0.022 A 
BRANCH  80  83
ATOM     83  S   UNL A   1      46.422  28.581  38.945  1.00  0.00     0.127 S 
ATOM     84  O   UNL A   1      47.322  27.838  38.066  1.00  0.00    -0.237 OA
ATOM     85  O   UNL A   1      47.045  29.117  40.155  1.00  0.00    -0.237 OA
ATOM     86  O   UNL A   1      45.113  27.978  39.157  1.00  0.00    -0.744 OA
ENDBRANCH  80  83
ENDBRANCH  52  76
BRANCH  64  87
ATOM     87  C   UNL A   1      38.360  33.459  38.845  1.00  0.00     0.023 A 
ATOM     88  C   UNL A   1      38.791  34.561  39.610  1.00  0.00     0.012 A 
ATOM     89  C   UNL A   1      37.327  32.638  39.340  1.00  0.00     0.148 A 
ATOM     90  C   UNL A   1      38.229  34.820  40.861  1.00  0.00     0.002 A 
ATOM     91  C   UNL A   1      36.735  32.933  40.562  1.00  0.00     0.091 A 
ATOM     92  F   UNL A   1      36.939  31.585  38.605  1.00  0.00    -0.205 F 
ATOM     93  C   UNL A   1      37.194  34.015  41.330  1.00  0.00     0.022 A 
BRANCH  91  94
ATOM     94  S   UNL A   1      35.330  32.013  41.203  1.00  0.00     0.127 S 
ATOM     95  O   UNL A   1      35.417  30.769  40.441  1.00  0.00    -0.237 OA
ATOM     96  O   UNL A   1      35.667  31.884  42.621  1.00  0.00    -0.237 OA
ATOM     97  O   UNL A   1      34.155  32.830  40.932  1.00  0.00    -0.744 OA
ENDBRANCH  91  94
ENDBRANCH  64  87
ENDBRANCH  38  39
ENDBRANCH  31  33
ENDBRANCH  30  31
ENDBRANCH  29  30
ENDBRANCH  28  29
ENDBRANCH  27  28
ENDBRANCH  26  27
ENDBRANCH   1  26
TORSDOF 24
ENDMDL
