MODEL 1
REMARK VINA RESULT:      -9.4      0.000      0.000
REMARK SMILES C=CCN(CC(=O)OCCOCCOCCOC(=O)c1ccc(-c2c3nc(c(-c4cccc(S(=O)(=O)[O-])c4F)c4ccc([nH]4)c(-c4cccc(S(=O)(=O)[O-])c4F)c4nc(c(-c5cccc(S(=O)(=O)[O-])c5F)c5ccc2[nH]5)C=C4)C=C3)cc1)C(=O)[C@@H]1Oc2ccccc2O[C@H]1C
REMARK SMILES IDX 12 1 11 2 10 3 9 4 8 5 6 6 7 7 5 8 4 9 3 10 2 11 1 12 83 13
REMARK SMILES IDX 84 14 85 15 86 16 94 17 87 18 93 19 95 20 88 21 92 22 89 23
REMARK SMILES IDX 91 24 90 25 13 26 14 27 15 28 16 29 17 30 18 31 19 32 20 33
REMARK SMILES IDX 21 34 82 35 22 36 81 37 23 38 24 39 25 40 75 41 26 42 80 43
REMARK SMILES IDX 74 44 76 45 27 46 79 47 73 48 72 49 28 51 60 52 40 53 59 54
REMARK SMILES IDX 41 55 44 56 58 57 77 58 42 59 43 60 57 62 78 63 45 64 29 65
REMARK SMILES IDX 30 66 38 67 31 68 33 69 39 70 32 71 34 72 35 73 36 74 37 75
REMARK SMILES IDX 61 76 62 77 70 78 63 79 65 80 71 81 64 82 66 83 67 84 68 85
REMARK SMILES IDX 69 86 46 87 47 88 55 89 48 90 50 91 56 92 49 93 51 94 52 95
REMARK SMILES IDX 53 96 54 97
REMARK H PARENT 76 50 44 61
REMARK Flexibility Score: inf
ROOT
ATOM      1  C   UNL A   1      34.278  25.268  25.252  1.00  0.00     0.188 C 
ENDROOT
BRANCH   1   2
ATOM      2  O   UNL A   1      33.871  26.356  26.080  1.00  0.00    -0.376 OA
BRANCH   2   3
ATOM      3  C   UNL A   1      34.400  27.638  25.745  1.00  0.00     0.202 C 
BRANCH   3   4
ATOM      4  C   UNL A   1      33.855  28.836  26.544  1.00  0.00     0.261 C 
BRANCH   4   5
ATOM      5  O   UNL A   1      33.301  29.926  25.763  1.00  0.00    -0.462 OA
BRANCH   5   6
ATOM      6  C   UNL A   1      31.990  30.170  26.105  1.00  0.00     0.325 C 
ATOM      7  O   UNL A   1      31.606  30.245  27.271  1.00  0.00    -0.250 OA
BRANCH   6   8
ATOM      8  C   UNL A   1      31.060  30.535  24.935  1.00  0.00     0.242 C 
BRANCH   8   9
ATOM      9  N   UNL A   1      30.374  29.469  24.200  1.00  0.00    -0.325 N 
BRANCH   9  10
ATOM     10  C   UNL A   1      29.599  29.843  23.022  1.00  0.00     0.147 C 
BRANCH  10  11
ATOM     11  C   UNL A   1      28.276  30.405  23.468  1.00  0.00    -0.014 C 
ATOM     12  C   UNL A   1      27.813  31.626  23.166  1.00  0.00     0.006 C 
ENDBRANCH  10  11
ENDBRANCH   9  10
BRANCH   9  13
ATOM     13  C   UNL A   1      30.850  28.163  24.345  1.00  0.00     0.268 C 
ATOM     14  O   UNL A   1      30.947  27.633  25.454  1.00  0.00    -0.270 OA
BRANCH  13  15
ATOM     15  C   UNL A   1      30.943  27.318  23.064  1.00  0.00     0.302 C 
ATOM     16  O   UNL A   1      30.312  26.036  23.144  1.00  0.00    -0.473 OA
ATOM     17  C   UNL A   1      32.455  27.286  22.790  1.00  0.00     0.221 C 
ATOM     18  C   UNL A   1      31.113  24.976  22.813  1.00  0.00     0.162 A 
ATOM     19  O   UNL A   1      32.745  26.361  21.741  1.00  0.00    -0.482 OA
ATOM     20  C   UNL A   1      33.026  28.669  22.465  1.00  0.00     0.057 C 
ATOM     21  C   UNL A   1      30.704  23.711  23.225  1.00  0.00     0.050 A 
ATOM     22  C   UNL A   1      32.345  25.128  22.186  1.00  0.00     0.161 A 
ATOM     23  C   UNL A   1      31.581  22.630  23.133  1.00  0.00     0.004 A 
ATOM     24  C   UNL A   1      33.217  24.049  22.062  1.00  0.00     0.050 A 
ATOM     25  C   UNL A   1      32.849  22.805  22.576  1.00  0.00     0.004 A 
ENDBRANCH  13  15
ENDBRANCH   9  13
ENDBRANCH   8   9
ENDBRANCH   6   8
ENDBRANCH   5   6
ENDBRANCH   4   5
ENDBRANCH   3   4
ENDBRANCH   2   3
ENDBRANCH   1   2
BRANCH   1  26
ATOM     26  C   UNL A   1      34.232  23.889  25.935  1.00  0.00     0.188 C 
BRANCH  26  27
ATOM     27  O   UNL A   1      34.837  22.813  25.212  1.00  0.00    -0.376 OA
BRANCH  27  28
ATOM     28  C   UNL A   1      36.013  22.274  25.834  1.00  0.00     0.202 C 
BRANCH  28  29
ATOM     29  C   UNL A   1      37.110  23.304  26.165  1.00  0.00     0.261 C 
BRANCH  29  30
ATOM     30  O   UNL A   1      38.349  22.811  25.619  1.00  0.00    -0.460 OA
BRANCH  30  31
ATOM     31  C   UNL A   1      39.393  22.673  26.474  1.00  0.00     0.338 C 
ATOM     32  O   UNL A   1      40.021  21.655  26.711  1.00  0.00    -0.246 OA
BRANCH  31  33
ATOM     33  C   UNL A   1      39.740  24.027  26.975  1.00  0.00     0.060 A 
ATOM     34  C   UNL A   1      40.175  25.000  26.068  1.00  0.00     0.016 A 
ATOM     35  C   UNL A   1      39.550  24.361  28.320  1.00  0.00     0.016 A 
ATOM     36  C   UNL A   1      40.336  26.326  26.490  1.00  0.00     0.010 A 
ATOM     37  C   UNL A   1      39.761  25.674  28.752  1.00  0.00     0.010 A 
ATOM     38  C   UNL A   1      40.141  26.669  27.839  1.00  0.00    -0.014 A 
BRANCH  38  39
ATOM     39  C   UNL A   1      40.534  28.014  28.330  1.00  0.00     0.031 A 
ATOM     40  C   UNL A   1      42.001  28.340  28.368  1.00  0.00     0.074 A 
ATOM     41  C   UNL A   1      39.628  28.917  28.753  1.00  0.00     0.049 A 
ATOM     42  N   UNL A   1      42.598  29.444  28.734  1.00  0.00    -0.248 NA
ATOM     43  C   UNL A   1      42.919  27.276  27.923  1.00  0.00     0.031 C 
ATOM     44  C   UNL A   1      38.178  28.731  28.761  1.00  0.00     0.029 A 
ATOM     45  N   UNL A   1      39.804  30.178  29.274  1.00  0.00    -0.354 N 
ATOM     46  C   UNL A   1      43.954  29.212  28.551  1.00  0.00     0.074 A 
ATOM     47  C   UNL A   1      44.098  27.861  28.056  1.00  0.00     0.031 C 
ATOM     48  C   UNL A   1      37.598  29.830  29.280  1.00  0.00     0.029 A 
ATOM     49  C   UNL A   1      38.632  30.795  29.651  1.00  0.00     0.049 A 
ATOM     50  H   UNL A   1      40.688  30.601  29.368  1.00  0.00     0.167 HD
ATOM     51  C   UNL A   1      44.994  30.050  28.762  1.00  0.00     0.034 A 
ATOM     52  C   UNL A   1      38.427  31.997  30.230  1.00  0.00     0.034 A 
ATOM     53  C   UNL A   1      44.869  31.373  29.301  1.00  0.00     0.049 A 
ATOM     54  C   UNL A   1      39.616  32.887  30.518  1.00  0.00     0.074 A 
ATOM     55  C   UNL A   1      45.868  32.281  29.599  1.00  0.00     0.029 A 
ATOM     56  N   UNL A   1      43.666  31.971  29.642  1.00  0.00    -0.354 N 
ATOM     57  N   UNL A   1      40.882  32.697  30.232  1.00  0.00    -0.248 NA
ATOM     58  C   UNL A   1      39.342  34.171  31.183  1.00  0.00     0.031 C 
ATOM     59  C   UNL A   1      45.268  33.428  30.130  1.00  0.00     0.029 A 
ATOM     60  C   UNL A   1      43.895  33.237  30.148  1.00  0.00     0.049 A 
ATOM     61  H   UNL A   1      42.779  31.555  29.539  1.00  0.00     0.167 HD
ATOM     62  C   UNL A   1      41.546  33.850  30.644  1.00  0.00     0.074 A 
ATOM     63  C   UNL A   1      40.539  34.743  31.178  1.00  0.00     0.031 C 
ATOM     64  C   UNL A   1      42.870  34.138  30.607  1.00  0.00     0.034 A 
BRANCH  51  65
ATOM     65  C   UNL A   1      46.358  29.546  28.382  1.00  0.00     0.023 A 
ATOM     66  C   UNL A   1      46.823  29.760  27.068  1.00  0.00     0.012 A 
ATOM     67  C   UNL A   1      47.171  28.868  29.307  1.00  0.00     0.148 A 
ATOM     68  C   UNL A   1      48.069  29.280  26.672  1.00  0.00     0.002 A 
ATOM     69  C   UNL A   1      48.426  28.421  28.913  1.00  0.00     0.091 A 
ATOM     70  F   UNL A   1      46.693  28.652  30.541  1.00  0.00    -0.205 F 
ATOM     71  C   UNL A   1      48.872  28.617  27.596  1.00  0.00     0.022 A 
BRANCH  69  72
ATOM     72  S   UNL A   1      49.556  27.593  30.037  1.00  0.00     0.127 S 
ATOM     73  O   UNL A   1      50.490  26.963  29.103  1.00  0.00    -0.237 OA
ATOM     74  O   UNL A   1      50.113  28.715  30.792  1.00  0.00    -0.237 OA
ATOM     75  O   UNL A   1      48.744  26.673  30.821  1.00  0.00    -0.744 OA
ENDBRANCH  69  72
ENDBRANCH  51  65
BRANCH  52  76
ATOM     76  C   UNL A   1      37.047  32.476  30.548  1.00  0.00     0.023 A 
ATOM     77  C   UNL A   1      36.529  32.281  31.844  1.00  0.00     0.012 A 
ATOM     78  C   UNL A   1      36.225  33.071  29.571  1.00  0.00     0.148 A 
ATOM     79  C   UNL A   1      35.211  32.627  32.150  1.00  0.00     0.002 A 
ATOM     80  C   UNL A   1      34.929  33.462  29.896  1.00  0.00     0.091 A 
ATOM     81  F   UNL A   1      36.715  33.223  28.331  1.00  0.00    -0.205 F 
ATOM     82  C   UNL A   1      34.413  33.224  31.178  1.00  0.00     0.022 A 
BRANCH  80  83
ATOM     83  S   UNL A   1      33.879  34.337  28.728  1.00  0.00     0.127 S 
ATOM     84  O   UNL A   1      33.567  33.291  27.759  1.00  0.00    -0.237 OA
ATOM     85  O   UNL A   1      32.755  34.749  29.571  1.00  0.00    -0.237 OA
ATOM     86  O   UNL A   1      34.692  35.444  28.241  1.00  0.00    -0.744 OA
ENDBRANCH  80  83
ENDBRANCH  52  76
BRANCH  64  87
ATOM     87  C   UNL A   1      43.315  35.482  31.122  1.00  0.00     0.023 A 
ATOM     88  C   UNL A   1      43.593  36.520  30.211  1.00  0.00     0.012 A 
ATOM     89  C   UNL A   1      43.365  35.744  32.506  1.00  0.00     0.148 A 
ATOM     90  C   UNL A   1      43.943  37.790  30.670  1.00  0.00     0.002 A 
ATOM     91  C   UNL A   1      43.669  37.023  32.954  1.00  0.00     0.091 A 
ATOM     92  F   UNL A   1      43.117  34.738  33.358  1.00  0.00    -0.205 F 
ATOM     93  C   UNL A   1      43.967  38.045  32.039  1.00  0.00     0.022 A 
BRANCH  91  94
ATOM     94  S   UNL A   1      43.623  37.457  34.698  1.00  0.00     0.127 S 
ATOM     95  O   UNL A   1      44.698  36.628  35.241  1.00  0.00    -0.237 OA
ATOM     96  O   UNL A   1      43.913  38.892  34.675  1.00  0.00    -0.237 OA
ATOM     97  O   UNL A   1      42.279  37.125  35.150  1.00  0.00    -0.744 OA
ENDBRANCH  91  94
ENDBRANCH  64  87
ENDBRANCH  38  39
ENDBRANCH  31  33
ENDBRANCH  30  31
ENDBRANCH  29  30
ENDBRANCH  28  29
ENDBRANCH  27  28
ENDBRANCH  26  27
ENDBRANCH   1  26
TORSDOF 25
ENDMDL
MODEL 2
REMARK VINA RESULT:      -8.5      3.429      9.035
REMARK SMILES C=CCN(CC(=O)OCCOCCOCCOC(=O)c1ccc(-c2c3nc(c(-c4cccc(S(=O)(=O)[O-])c4F)c4ccc([nH]4)c(-c4cccc(S(=O)(=O)[O-])c4F)c4nc(c(-c5cccc(S(=O)(=O)[O-])c5F)c5ccc2[nH]5)C=C4)C=C3)cc1)C(=O)[C@@H]1Oc2ccccc2O[C@H]1C
REMARK SMILES IDX 12 1 11 2 10 3 9 4 8 5 6 6 7 7 5 8 4 9 3 10 2 11 1 12 83 13
REMARK SMILES IDX 84 14 85 15 86 16 94 17 87 18 93 19 95 20 88 21 92 22 89 23
REMARK SMILES IDX 91 24 90 25 13 26 14 27 15 28 16 29 17 30 18 31 19 32 20 33
REMARK SMILES IDX 21 34 82 35 22 36 81 37 23 38 24 39 25 40 75 41 26 42 80 43
REMARK SMILES IDX 74 44 76 45 27 46 79 47 73 48 72 49 28 51 60 52 40 53 59 54
REMARK SMILES IDX 41 55 44 56 58 57 77 58 42 59 43 60 57 62 78 63 45 64 29 65
REMARK SMILES IDX 30 66 38 67 31 68 33 69 39 70 32 71 34 72 35 73 36 74 37 75
REMARK SMILES IDX 61 76 62 77 70 78 63 79 65 80 71 81 64 82 66 83 67 84 68 85
REMARK SMILES IDX 69 86 46 87 47 88 55 89 48 90 50 91 56 92 49 93 51 94 52 95
REMARK SMILES IDX 53 96 54 97
REMARK H PARENT 76 50 44 61
REMARK Flexibility Score: inf
ROOT
ATOM      1  C   UNL A   1      33.829  29.341  25.978  1.00  0.00     0.188 C 
ENDROOT
BRANCH   1   2
ATOM      2  O   UNL A   1      33.142  28.097  25.851  1.00  0.00    -0.376 OA
BRANCH   2   3
ATOM      3  C   UNL A   1      32.005  27.914  26.693  1.00  0.00     0.202 C 
BRANCH   3   4
ATOM      4  C   UNL A   1      31.418  26.492  26.755  1.00  0.00     0.261 C 
BRANCH   4   5
ATOM      5  O   UNL A   1      31.910  25.554  25.764  1.00  0.00    -0.462 OA
BRANCH   5   6
ATOM      6  C   UNL A   1      31.819  24.257  26.214  1.00  0.00     0.325 C 
ATOM      7  O   UNL A   1      31.431  23.967  27.345  1.00  0.00    -0.250 OA
BRANCH   6   8
ATOM      8  C   UNL A   1      32.054  23.171  25.150  1.00  0.00     0.242 C 
BRANCH   8   9
ATOM      9  N   UNL A   1      33.419  22.717  24.871  1.00  0.00    -0.325 N 
BRANCH   9  10
ATOM     10  C   UNL A   1      34.399  23.716  24.461  1.00  0.00     0.147 C 
BRANCH  10  11
ATOM     11  C   UNL A   1      35.197  24.137  25.666  1.00  0.00    -0.014 C 
ATOM     12  C   UNL A   1      36.509  23.926  25.836  1.00  0.00     0.006 C 
ENDBRANCH  10  11
ENDBRANCH   9  10
BRANCH   9  13
ATOM     13  C   UNL A   1      33.838  21.513  25.445  1.00  0.00     0.268 C 
ATOM     14  O   UNL A   1      33.781  21.326  26.661  1.00  0.00    -0.270 OA
BRANCH  13  15
ATOM     15  C   UNL A   1      34.067  20.336  24.482  1.00  0.00     0.302 C 
ATOM     16  O   UNL A   1      32.970  19.422  24.380  1.00  0.00    -0.473 OA
ATOM     17  C   UNL A   1      35.379  19.726  25.001  1.00  0.00     0.221 C 
ATOM     18  C   UNL A   1      33.287  18.110  24.612  1.00  0.00     0.162 A 
ATOM     19  O   UNL A   1      35.637  18.483  24.345  1.00  0.00    -0.482 OA
ATOM     20  C   UNL A   1      36.571  20.674  24.851  1.00  0.00     0.057 C 
ATOM     21  C   UNL A   1      32.241  17.240  24.904  1.00  0.00     0.050 A 
ATOM     22  C   UNL A   1      34.598  17.649  24.667  1.00  0.00     0.161 A 
ATOM     23  C   UNL A   1      32.513  15.958  25.382  1.00  0.00     0.004 A 
ATOM     24  C   UNL A   1      34.879  16.361  25.114  1.00  0.00     0.050 A 
ATOM     25  C   UNL A   1      33.834  15.527  25.512  1.00  0.00     0.004 A 
ENDBRANCH  13  15
ENDBRANCH   9  13
ENDBRANCH   8   9
ENDBRANCH   6   8
ENDBRANCH   5   6
ENDBRANCH   4   5
ENDBRANCH   3   4
ENDBRANCH   2   3
ENDBRANCH   1   2
BRANCH   1  26
ATOM     26  C   UNL A   1      33.267  30.277  27.061  1.00  0.00     0.188 C 
BRANCH  26  27
ATOM     27  O   UNL A   1      34.237  30.953  27.868  1.00  0.00    -0.376 OA
BRANCH  27  28
ATOM     28  C   UNL A   1      34.070  32.378  27.920  1.00  0.00     0.202 C 
BRANCH  28  29
ATOM     29  C   UNL A   1      34.220  33.004  29.320  1.00  0.00     0.261 C 
BRANCH  29  30
ATOM     30  O   UNL A   1      34.767  31.995  30.191  1.00  0.00    -0.460 OA
BRANCH  30  31
ATOM     31  C   UNL A   1      35.568  32.415  31.203  1.00  0.00     0.338 C 
ATOM     32  O   UNL A   1      35.219  32.928  32.253  1.00  0.00    -0.246 OA
BRANCH  31  33
ATOM     33  C   UNL A   1      36.957  32.010  30.869  1.00  0.00     0.060 A 
ATOM     34  C   UNL A   1      37.869  31.784  31.906  1.00  0.00     0.016 A 
ATOM     35  C   UNL A   1      37.332  31.769  29.543  1.00  0.00     0.016 A 
ATOM     36  C   UNL A   1      39.126  31.233  31.622  1.00  0.00     0.010 A 
ATOM     37  C   UNL A   1      38.606  31.268  29.256  1.00  0.00     0.010 A 
ATOM     38  C   UNL A   1      39.506  30.983  30.293  1.00  0.00    -0.014 A 
BRANCH  38  39
ATOM     39  C   UNL A   1      40.911  30.620  29.976  1.00  0.00     0.031 A 
ATOM     40  C   UNL A   1      41.904  31.740  29.839  1.00  0.00     0.074 A 
ATOM     41  C   UNL A   1      41.299  29.344  29.790  1.00  0.00     0.049 A 
ATOM     42  N   UNL A   1      43.185  31.688  29.587  1.00  0.00    -0.248 NA
ATOM     43  C   UNL A   1      41.379  33.105  30.021  1.00  0.00     0.031 C 
ATOM     44  C   UNL A   1      40.439  28.166  29.901  1.00  0.00     0.029 A 
ATOM     45  N   UNL A   1      42.528  28.827  29.452  1.00  0.00    -0.354 N 
ATOM     46  C   UNL A   1      43.620  33.007  29.594  1.00  0.00     0.074 A 
ATOM     47  C   UNL A   1      42.468  33.839  29.860  1.00  0.00     0.031 C 
ATOM     48  C   UNL A   1      41.164  27.067  29.617  1.00  0.00     0.029 A 
ATOM     49  C   UNL A   1      42.535  27.459  29.294  1.00  0.00     0.049 A 
ATOM     50  H   UNL A   1      43.331  29.385  29.334  1.00  0.00     0.167 HD
ATOM     51  C   UNL A   1      44.869  33.489  29.409  1.00  0.00     0.034 A 
ATOM     52  C   UNL A   1      43.534  26.628  28.929  1.00  0.00     0.034 A 
ATOM     53  C   UNL A   1      46.009  32.678  29.093  1.00  0.00     0.049 A 
ATOM     54  C   UNL A   1      44.908  27.205  28.661  1.00  0.00     0.074 A 
ATOM     55  C   UNL A   1      47.308  33.079  28.838  1.00  0.00     0.029 A 
ATOM     56  N   UNL A   1      45.981  31.298  28.971  1.00  0.00    -0.354 N 
ATOM     57  N   UNL A   1      45.327  28.442  28.785  1.00  0.00    -0.248 NA
ATOM     58  C   UNL A   1      45.954  26.262  28.231  1.00  0.00     0.031 C 
ATOM     59  C   UNL A   1      48.065  31.938  28.551  1.00  0.00     0.029 A 
ATOM     60  C   UNL A   1      47.240  30.828  28.644  1.00  0.00     0.049 A 
ATOM     61  H   UNL A   1      45.184  30.735  29.099  1.00  0.00     0.167 HD
ATOM     62  C   UNL A   1      46.687  28.418  28.488  1.00  0.00     0.074 A 
ATOM     63  C   UNL A   1      47.028  27.040  28.202  1.00  0.00     0.031 C 
ATOM     64  C   UNL A   1      47.572  29.443  28.433  1.00  0.00     0.034 A 
BRANCH  51  65
ATOM     65  C   UNL A   1      45.053  34.972  29.567  1.00  0.00     0.023 A 
ATOM     66  C   UNL A   1      45.386  35.487  30.836  1.00  0.00     0.012 A 
ATOM     67  C   UNL A   1      44.897  35.848  28.479  1.00  0.00     0.148 A 
ATOM     68  C   UNL A   1      45.535  36.859  31.027  1.00  0.00     0.002 A 
ATOM     69  C   UNL A   1      45.079  37.212  28.670  1.00  0.00     0.091 A 
ATOM     70  F   UNL A   1      44.552  35.336  27.289  1.00  0.00    -0.205 F 
ATOM     71  C   UNL A   1      45.387  37.720  29.943  1.00  0.00     0.022 A 
BRANCH  69  72
ATOM     72  S   UNL A   1      44.953  38.404  27.331  1.00  0.00     0.127 S 
ATOM     73  O   UNL A   1      45.997  37.934  26.420  1.00  0.00    -0.237 OA
ATOM     74  O   UNL A   1      43.586  38.188  26.856  1.00  0.00    -0.237 OA
ATOM     75  O   UNL A   1      45.191  39.709  27.931  1.00  0.00    -0.744 OA
ENDBRANCH  69  72
ENDBRANCH  51  65
BRANCH  52  76
ATOM     76  C   UNL A   1      43.316  25.154  28.830  1.00  0.00     0.023 A 
ATOM     77  C   UNL A   1      43.753  24.318  29.878  1.00  0.00     0.012 A 
ATOM     78  C   UNL A   1      42.730  24.565  27.693  1.00  0.00     0.148 A 
ATOM     79  C   UNL A   1      43.653  22.928  29.777  1.00  0.00     0.002 A 
ATOM     80  C   UNL A   1      42.586  23.182  27.620  1.00  0.00     0.091 A 
ATOM     81  F   UNL A   1      42.345  25.365  26.687  1.00  0.00    -0.205 F 
ATOM     82  C   UNL A   1      43.064  22.361  28.651  1.00  0.00     0.022 A 
BRANCH  80  83
ATOM     83  S   UNL A   1      41.736  22.385  26.251  1.00  0.00     0.127 S 
ATOM     84  O   UNL A   1      42.644  22.645  25.139  1.00  0.00    -0.237 OA
ATOM     85  O   UNL A   1      41.683  20.989  26.690  1.00  0.00    -0.237 OA
ATOM     86  O   UNL A   1      40.433  23.035  26.182  1.00  0.00    -0.744 OA
ENDBRANCH  80  83
ENDBRANCH  52  76
BRANCH  64  87
ATOM     87  C   UNL A   1      49.003  29.123  28.087  1.00  0.00     0.023 A 
ATOM     88  C   UNL A   1      49.430  29.200  26.748  1.00  0.00     0.012 A 
ATOM     89  C   UNL A   1      49.943  28.838  29.098  1.00  0.00     0.148 A 
ATOM     90  C   UNL A   1      50.766  28.971  26.416  1.00  0.00     0.002 A 
ATOM     91  C   UNL A   1      51.279  28.656  28.765  1.00  0.00     0.091 A 
ATOM     92  F   UNL A   1      49.513  28.748  30.366  1.00  0.00    -0.205 F 
ATOM     93  C   UNL A   1      51.691  28.713  27.424  1.00  0.00     0.022 A 
BRANCH  91  94
ATOM     94  S   UNL A   1      52.549  28.419  30.015  1.00  0.00     0.127 S 
ATOM     95  O   UNL A   1      52.395  29.625  30.829  1.00  0.00    -0.237 OA
ATOM     96  O   UNL A   1      52.121  27.183  30.671  1.00  0.00    -0.237 OA
ATOM     97  O   UNL A   1      53.804  28.306  29.285  1.00  0.00    -0.744 OA
ENDBRANCH  91  94
ENDBRANCH  64  87
ENDBRANCH  38  39
ENDBRANCH  31  33
ENDBRANCH  30  31
ENDBRANCH  29  30
ENDBRANCH  28  29
ENDBRANCH  27  28
ENDBRANCH  26  27
ENDBRANCH   1  26
TORSDOF 25
ENDMDL
MODEL 3
REMARK VINA RESULT:      -8.5      4.471      8.037
REMARK SMILES C=CCN(CC(=O)OCCOCCOCCOC(=O)c1ccc(-c2c3nc(c(-c4cccc(S(=O)(=O)[O-])c4F)c4ccc([nH]4)c(-c4cccc(S(=O)(=O)[O-])c4F)c4nc(c(-c5cccc(S(=O)(=O)[O-])c5F)c5ccc2[nH]5)C=C4)C=C3)cc1)C(=O)[C@@H]1Oc2ccccc2O[C@H]1C
REMARK SMILES IDX 12 1 11 2 10 3 9 4 8 5 6 6 7 7 5 8 4 9 3 10 2 11 1 12 83 13
REMARK SMILES IDX 84 14 85 15 86 16 94 17 87 18 93 19 95 20 88 21 92 22 89 23
REMARK SMILES IDX 91 24 90 25 13 26 14 27 15 28 16 29 17 30 18 31 19 32 20 33
REMARK SMILES IDX 21 34 82 35 22 36 81 37 23 38 24 39 25 40 75 41 26 42 80 43
REMARK SMILES IDX 74 44 76 45 27 46 79 47 73 48 72 49 28 51 60 52 40 53 59 54
REMARK SMILES IDX 41 55 44 56 58 57 77 58 42 59 43 60 57 62 78 63 45 64 29 65
REMARK SMILES IDX 30 66 38 67 31 68 33 69 39 70 32 71 34 72 35 73 36 74 37 75
REMARK SMILES IDX 61 76 62 77 70 78 63 79 65 80 71 81 64 82 66 83 67 84 68 85
REMARK SMILES IDX 69 86 46 87 47 88 55 89 48 90 50 91 56 92 49 93 51 94 52 95
REMARK SMILES IDX 53 96 54 97
REMARK H PARENT 76 50 44 61
REMARK Flexibility Score: inf
ROOT
ATOM      1  C   UNL A   1      32.930  28.938  25.385  1.00  0.00     0.188 C 
ENDROOT
BRANCH   1   2
ATOM      2  O   UNL A   1      33.999  28.746  24.460  1.00  0.00    -0.376 OA
BRANCH   2   3
ATOM      3  C   UNL A   1      33.680  28.040  23.262  1.00  0.00     0.202 C 
BRANCH   3   4
ATOM      4  C   UNL A   1      33.563  26.509  23.378  1.00  0.00     0.261 C 
BRANCH   4   5
ATOM      5  O   UNL A   1      32.249  25.948  23.128  1.00  0.00    -0.462 OA
BRANCH   5   6
ATOM      6  C   UNL A   1      31.818  25.191  24.195  1.00  0.00     0.325 C 
ATOM      7  O   UNL A   1      31.948  25.548  25.364  1.00  0.00    -0.250 OA
BRANCH   6   8
ATOM      8  C   UNL A   1      30.988  23.948  23.829  1.00  0.00     0.242 C 
BRANCH   8   9
ATOM      9  N   UNL A   1      31.499  22.616  24.161  1.00  0.00    -0.325 N 
BRANCH   9  10
ATOM     10  C   UNL A   1      32.479  22.019  23.260  1.00  0.00     0.147 C 
BRANCH  10  11
ATOM     11  C   UNL A   1      33.122  23.111  22.448  1.00  0.00    -0.014 C 
ATOM     12  C   UNL A   1      34.430  23.199  22.169  1.00  0.00     0.006 C 
ENDBRANCH  10  11
ENDBRANCH   9  10
BRANCH   9  13
ATOM     13  C   UNL A   1      31.417  22.196  25.492  1.00  0.00     0.268 C 
ATOM     14  O   UNL A   1      30.341  21.872  25.998  1.00  0.00    -0.270 OA
BRANCH  13  15
ATOM     15  C   UNL A   1      32.744  21.854  26.189  1.00  0.00     0.302 C 
ATOM     16  O   UNL A   1      33.643  22.957  26.342  1.00  0.00    -0.473 OA
ATOM     17  C   UNL A   1      33.279  20.689  25.343  1.00  0.00     0.221 C 
ATOM     18  C   UNL A   1      34.901  22.751  25.844  1.00  0.00     0.162 A 
ATOM     19  O   UNL A   1      34.619  20.376  25.726  1.00  0.00    -0.482 OA
ATOM     20  C   UNL A   1      32.391  19.444  25.422  1.00  0.00     0.057 C 
ATOM     21  C   UNL A   1      35.691  23.873  25.613  1.00  0.00     0.050 A 
ATOM     22  C   UNL A   1      35.369  21.495  25.471  1.00  0.00     0.161 A 
ATOM     23  C   UNL A   1      36.878  23.755  24.890  1.00  0.00     0.004 A 
ATOM     24  C   UNL A   1      36.567  21.362  24.775  1.00  0.00     0.050 A 
ATOM     25  C   UNL A   1      37.303  22.501  24.447  1.00  0.00     0.004 A 
ENDBRANCH  13  15
ENDBRANCH   9  13
ENDBRANCH   8   9
ENDBRANCH   6   8
ENDBRANCH   5   6
ENDBRANCH   4   5
ENDBRANCH   3   4
ENDBRANCH   2   3
ENDBRANCH   1   2
BRANCH   1  26
ATOM     26  C   UNL A   1      33.367  29.425  26.778  1.00  0.00     0.188 C 
BRANCH  26  27
ATOM     27  O   UNL A   1      32.527  30.411  27.386  1.00  0.00    -0.376 OA
BRANCH  27  28
ATOM     28  C   UNL A   1      32.037  31.409  26.478  1.00  0.00     0.202 C 
BRANCH  28  29
ATOM     29  C   UNL A   1      31.912  32.827  27.067  1.00  0.00     0.261 C 
BRANCH  29  30
ATOM     30  O   UNL A   1      32.931  32.970  28.075  1.00  0.00    -0.460 OA
BRANCH  30  31
ATOM     31  C   UNL A   1      34.048  33.661  27.736  1.00  0.00     0.338 C 
ATOM     32  O   UNL A   1      34.115  34.647  27.022  1.00  0.00    -0.246 OA
BRANCH  31  33
ATOM     33  C   UNL A   1      35.178  33.086  28.507  1.00  0.00     0.060 A 
ATOM     34  C   UNL A   1      34.966  31.934  29.274  1.00  0.00     0.016 A 
ATOM     35  C   UNL A   1      36.464  33.629  28.405  1.00  0.00     0.016 A 
ATOM     36  C   UNL A   1      36.054  31.278  29.864  1.00  0.00     0.010 A 
ATOM     37  C   UNL A   1      37.542  33.003  29.038  1.00  0.00     0.010 A 
ATOM     38  C   UNL A   1      37.347  31.816  29.759  1.00  0.00    -0.014 A 
BRANCH  38  39
ATOM     39  C   UNL A   1      38.456  31.254  30.572  1.00  0.00     0.031 A 
ATOM     40  C   UNL A   1      39.305  30.183  29.946  1.00  0.00     0.074 A 
ATOM     41  C   UNL A   1      38.698  31.657  31.835  1.00  0.00     0.049 A 
ATOM     42  N   UNL A   1      40.338  29.549  30.434  1.00  0.00    -0.248 NA
ATOM     43  C   UNL A   1      38.941  29.779  28.576  1.00  0.00     0.031 C 
ATOM     44  C   UNL A   1      37.956  32.691  32.556  1.00  0.00     0.029 A 
ATOM     45  N   UNL A   1      39.638  31.228  32.742  1.00  0.00    -0.354 N 
ATOM     46  C   UNL A   1      40.754  28.685  29.430  1.00  0.00     0.074 A 
ATOM     47  C   UNL A   1      39.858  28.862  28.310  1.00  0.00     0.031 C 
ATOM     48  C   UNL A   1      38.458  32.801  33.801  1.00  0.00     0.029 A 
ATOM     49  C   UNL A   1      39.548  31.842  33.971  1.00  0.00     0.049 A 
ATOM     50  H   UNL A   1      40.313  30.544  32.532  1.00  0.00     0.167 HD
ATOM     51  C   UNL A   1      41.799  27.826  29.429  1.00  0.00     0.034 A 
ATOM     52  C   UNL A   1      40.265  31.645  35.099  1.00  0.00     0.034 A 
ATOM     53  C   UNL A   1      42.663  27.605  30.551  1.00  0.00     0.049 A 
ATOM     54  C   UNL A   1      41.385  30.627  35.089  1.00  0.00     0.074 A 
ATOM     55  C   UNL A   1      43.719  26.719  30.665  1.00  0.00     0.029 A 
ATOM     56  N   UNL A   1      42.558  28.265  31.766  1.00  0.00    -0.354 N 
ATOM     57  N   UNL A   1      41.837  29.902  34.095  1.00  0.00    -0.248 NA
ATOM     58  C   UNL A   1      42.111  30.425  36.353  1.00  0.00     0.031 C 
ATOM     59  C   UNL A   1      44.248  26.837  31.955  1.00  0.00     0.029 A 
ATOM     60  C   UNL A   1      43.531  27.808  32.636  1.00  0.00     0.049 A 
ATOM     61  H   UNL A   1      41.891  28.958  31.976  1.00  0.00     0.167 HD
ATOM     62  C   UNL A   1      42.922  29.190  34.601  1.00  0.00     0.074 A 
ATOM     63  C   UNL A   1      43.074  29.589  35.985  1.00  0.00     0.031 C 
ATOM     64  C   UNL A   1      43.708  28.272  33.988  1.00  0.00     0.034 A 
BRANCH  51  65
ATOM     65  C   UNL A   1      42.061  27.081  28.151  1.00  0.00     0.023 A 
ATOM     66  C   UNL A   1      42.652  27.766  27.070  1.00  0.00     0.012 A 
ATOM     67  C   UNL A   1      41.727  25.722  28.015  1.00  0.00     0.148 A 
ATOM     68  C   UNL A   1      42.882  27.115  25.860  1.00  0.00     0.002 A 
ATOM     69  C   UNL A   1      41.989  25.071  26.816  1.00  0.00     0.091 A 
ATOM     70  F   UNL A   1      41.139  25.102  29.048  1.00  0.00    -0.205 F 
ATOM     71  C   UNL A   1      42.557  25.767  25.736  1.00  0.00     0.022 A 
BRANCH  69  72
ATOM     72  S   UNL A   1      41.647  23.326  26.566  1.00  0.00     0.127 S 
ATOM     73  O   UNL A   1      40.185  23.317  26.510  1.00  0.00    -0.237 OA
ATOM     74  O   UNL A   1      42.308  23.066  25.286  1.00  0.00    -0.237 OA
ATOM     75  O   UNL A   1      42.230  22.633  27.706  1.00  0.00    -0.744 OA
ENDBRANCH  69  72
ENDBRANCH  51  65
BRANCH  52  76
ATOM     76  C   UNL A   1      39.998  32.444  36.333  1.00  0.00     0.023 A 
ATOM     77  C   UNL A   1      40.826  33.543  36.638  1.00  0.00     0.012 A 
ATOM     78  C   UNL A   1      38.971  32.098  37.233  1.00  0.00     0.148 A 
ATOM     79  C   UNL A   1      40.667  34.253  37.830  1.00  0.00     0.002 A 
ATOM     80  C   UNL A   1      38.784  32.841  38.396  1.00  0.00     0.091 A 
ATOM     81  F   UNL A   1      38.208  31.032  36.951  1.00  0.00    -0.205 F 
ATOM     82  C   UNL A   1      39.642  33.906  38.706  1.00  0.00     0.022 A 
BRANCH  80  83
ATOM     83  S   UNL A   1      37.416  32.525  39.517  1.00  0.00     0.127 S 
ATOM     84  O   UNL A   1      36.267  32.596  38.620  1.00  0.00    -0.237 OA
ATOM     85  O   UNL A   1      37.726  31.183  40.014  1.00  0.00    -0.237 OA
ATOM     86  O   UNL A   1      37.505  33.568  40.530  1.00  0.00    -0.744 OA
ENDBRANCH  80  83
ENDBRANCH  52  76
BRANCH  64  87
ATOM     87  C   UNL A   1      44.829  27.657  34.785  1.00  0.00     0.023 A 
ATOM     88  C   UNL A   1      46.077  28.307  34.850  1.00  0.00     0.012 A 
ATOM     89  C   UNL A   1      44.617  26.488  35.543  1.00  0.00     0.148 A 
ATOM     90  C   UNL A   1      47.105  27.787  35.636  1.00  0.00     0.002 A 
ATOM     91  C   UNL A   1      45.631  26.002  36.359  1.00  0.00     0.091 A 
ATOM     92  F   UNL A   1      43.429  25.871  35.452  1.00  0.00    -0.205 F 
ATOM     93  C   UNL A   1      46.879  26.645  36.400  1.00  0.00     0.022 A 
BRANCH  91  94
ATOM     94  S   UNL A   1      45.385  24.594  37.449  1.00  0.00     0.127 S 
ATOM     95  O   UNL A   1      46.735  24.381  37.971  1.00  0.00    -0.237 OA
ATOM     96  O   UNL A   1      44.430  25.115  38.428  1.00  0.00    -0.237 OA
ATOM     97  O   UNL A   1      44.859  23.531  36.605  1.00  0.00    -0.744 OA
ENDBRANCH  91  94
ENDBRANCH  64  87
ENDBRANCH  38  39
ENDBRANCH  31  33
ENDBRANCH  30  31
ENDBRANCH  29  30
ENDBRANCH  28  29
ENDBRANCH  27  28
ENDBRANCH  26  27
ENDBRANCH   1  26
TORSDOF 25
ENDMDL
