MODEL 1
REMARK VINA RESULT:     -11.0      0.000      0.000
REMARK SMILES Cc1ccc(Cl)c(NC(=O)C[N@@H+]2CCC[C@H]2C(=O)OCCOCCOCCOC(=O)c2ccc(-c3c4nc(c(-c5cccc(S(=O)(=O)[O-])c5F)c5ccc([nH]5)c(-c5cccc(S(=O)(=O)[O-])c5F)c5nc(c(-c6cccc(S(=O)(=O)[O-])c6F)c6ccc3[nH]6)C=C5)C=C4)cc2)c1Cl
REMARK SMILES IDX 23 1 22 2 21 3 20 4 19 5 17 6 18 7 16 8 12 9 13 10 14 12
REMARK SMILES IDX 15 13 11 14 9 15 8 16 10 18 7 19 1 20 2 21 3 22 94 23 4 24
REMARK SMILES IDX 95 25 5 26 6 27 24 28 25 29 26 30 27 31 28 32 29 33 30 34
REMARK SMILES IDX 31 35 32 36 93 37 33 38 92 39 34 40 35 41 36 42 86 43 37 44
REMARK SMILES IDX 91 45 85 46 87 47 38 48 90 49 84 50 83 51 39 53 71 54 51 55
REMARK SMILES IDX 70 56 52 57 55 58 69 59 88 60 53 61 54 62 68 64 89 65 56 66
REMARK SMILES IDX 40 67 41 68 49 69 42 70 44 71 50 72 43 73 45 74 46 75 47 76
REMARK SMILES IDX 48 77 72 78 73 79 81 80 74 81 76 82 82 83 75 84 77 85 78 86
REMARK SMILES IDX 79 87 80 88 57 89 58 90 66 91 59 92 61 93 67 94 60 95 62 96
REMARK SMILES IDX 63 97 64 98 65 99
REMARK H PARENT 12 11 8 17 87 52 55 63
REMARK Flexibility Score: inf
ROOT
ATOM      1  C   UNL A   1      38.550  19.579  24.987  1.00  0.00     0.188 C 
ENDROOT
BRANCH   1   2
ATOM      2  O   UNL A   1      37.485  20.456  24.647  1.00  0.00    -0.376 OA
BRANCH   2   3
ATOM      3  C   UNL A   1      37.201  21.584  25.461  1.00  0.00     0.202 C 
BRANCH   3   4
ATOM      4  C   UNL A   1      35.840  21.641  26.164  1.00  0.00     0.261 C 
BRANCH   4   5
ATOM      5  O   UNL A   1      34.753  21.920  25.272  1.00  0.00    -0.459 OA
BRANCH   5   6
ATOM      6  C   UNL A   1      33.980  20.855  24.901  1.00  0.00     0.365 C 
ATOM      7  O   UNL A   1      34.327  19.683  24.948  1.00  0.00    -0.245 OA
BRANCH   6   8
ATOM      8  C   UNL A   1      32.577  21.347  24.498  1.00  0.00     0.295 C 
ATOM      9  N   UNL A   1      32.492  22.825  24.615  1.00  0.00    -0.315 N 
ATOM     10  C   UNL A   1      32.865  23.299  23.260  1.00  0.00     0.263 C 
ATOM     11  H   UNL A   1      33.090  23.174  25.363  1.00  0.00     0.349 HD
ATOM     12  C   UNL A   1      32.222  22.313  22.298  1.00  0.00     0.068 C 
ATOM     13  C   UNL A   1      32.289  20.986  23.036  1.00  0.00     0.083 C 
BRANCH   9  14
ATOM     14  C   UNL A   1      31.121  23.292  24.937  1.00  0.00     0.364 C 
BRANCH  14  15
ATOM     15  C   UNL A   1      31.025  24.140  26.205  1.00  0.00     0.279 C 
ATOM     16  N   UNL A   1      31.163  25.497  26.256  1.00  0.00    -0.319 N 
ATOM     17  H   UNL A   1      31.076  25.833  27.178  1.00  0.00     0.170 HD
ATOM     18  O   UNL A   1      30.750  23.596  27.286  1.00  0.00    -0.268 OA
BRANCH  16  19
ATOM     19  C   UNL A   1      31.399  26.554  25.339  1.00  0.00     0.079 A 
ATOM     20  C   UNL A   1      29.734  29.418  23.406  1.00  0.00     0.046 C 
ATOM     21  C   UNL A   1      30.780  28.469  23.935  1.00  0.00    -0.030 A 
ATOM     22  C   UNL A   1      32.121  28.869  23.887  1.00  0.00     0.006 A 
ATOM     23  C   UNL A   1      30.451  27.246  24.565  1.00  0.00     0.069 A 
ATOM     24  C   UNL A   1      33.106  28.084  24.466  1.00  0.00     0.023 A 
ATOM     25  Cl  UNL A   1      29.014  26.441  24.004  1.00  0.00    -0.082 Cl
ATOM     26  C   UNL A   1      32.746  26.961  25.211  1.00  0.00     0.066 A 
ATOM     27  Cl  UNL A   1      34.027  26.103  26.009  1.00  0.00    -0.082 Cl
ENDBRANCH  16  19
ENDBRANCH  14  15
ENDBRANCH   9  14
ENDBRANCH   6   8
ENDBRANCH   5   6
ENDBRANCH   4   5
ENDBRANCH   3   4
ENDBRANCH   2   3
ENDBRANCH   1   2
BRANCH   1  28
ATOM     28  C   UNL A   1      39.798  20.116  25.714  1.00  0.00     0.188 C 
BRANCH  28  29
ATOM     29  O   UNL A   1      40.796  19.149  25.974  1.00  0.00    -0.376 OA
BRANCH  29  30
ATOM     30  C   UNL A   1      42.010  19.638  26.520  1.00  0.00     0.202 C 
BRANCH  30  31
ATOM     31  C   UNL A   1      42.803  20.581  25.606  1.00  0.00     0.261 C 
BRANCH  31  32
ATOM     32  O   UNL A   1      42.170  21.846  25.331  1.00  0.00    -0.460 OA
BRANCH  32  33
ATOM     33  C   UNL A   1      42.969  22.922  25.183  1.00  0.00     0.338 C 
ATOM     34  O   UNL A   1      43.840  23.081  24.339  1.00  0.00    -0.246 OA
BRANCH  33  35
ATOM     35  C   UNL A   1      42.513  23.972  26.116  1.00  0.00     0.060 A 
ATOM     36  C   UNL A   1      42.910  25.295  25.899  1.00  0.00     0.016 A 
ATOM     37  C   UNL A   1      41.718  23.653  27.216  1.00  0.00     0.016 A 
ATOM     38  C   UNL A   1      42.540  26.302  26.790  1.00  0.00     0.010 A 
ATOM     39  C   UNL A   1      41.333  24.668  28.102  1.00  0.00     0.010 A 
ATOM     40  C   UNL A   1      41.756  25.997  27.907  1.00  0.00    -0.014 A 
BRANCH  40  41
ATOM     41  C   UNL A   1      41.436  27.046  28.910  1.00  0.00     0.031 A 
ATOM     42  C   UNL A   1      42.323  27.208  30.115  1.00  0.00     0.074 A 
ATOM     43  C   UNL A   1      40.363  27.847  28.757  1.00  0.00     0.049 A 
ATOM     44  N   UNL A   1      42.142  27.936  31.185  1.00  0.00    -0.248 NA
ATOM     45  C   UNL A   1      43.582  26.446  30.111  1.00  0.00     0.031 C 
ATOM     46  C   UNL A   1      39.455  27.835  27.612  1.00  0.00     0.029 A 
ATOM     47  N   UNL A   1      39.841  28.806  29.590  1.00  0.00    -0.354 N 
ATOM     48  C   UNL A   1      43.230  27.677  32.009  1.00  0.00     0.074 A 
ATOM     49  C   UNL A   1      44.076  26.736  31.306  1.00  0.00     0.031 C 
ATOM     50  C   UNL A   1      38.470  28.724  27.825  1.00  0.00     0.029 A 
ATOM     51  C   UNL A   1      38.643  29.321  29.147  1.00  0.00     0.049 A 
ATOM     52  H   UNL A   1      40.279  29.098  30.422  1.00  0.00     0.167 HD
ATOM     53  C   UNL A   1      43.501  28.178  33.238  1.00  0.00     0.034 A 
ATOM     54  C   UNL A   1      37.758  30.134  29.758  1.00  0.00     0.034 A 
ATOM     55  C   UNL A   1      42.675  29.136  33.919  1.00  0.00     0.049 A 
ATOM     56  C   UNL A   1      38.052  30.630  31.150  1.00  0.00     0.074 A 
ATOM     57  C   UNL A   1      42.879  29.722  35.157  1.00  0.00     0.029 A 
ATOM     58  N   UNL A   1      41.481  29.645  33.431  1.00  0.00    -0.354 N 
ATOM     59  N   UNL A   1      39.109  30.420  31.896  1.00  0.00    -0.248 NA
ATOM     60  C   UNL A   1      37.035  31.485  31.781  1.00  0.00     0.031 C 
ATOM     61  C   UNL A   1      41.793  30.560  35.429  1.00  0.00     0.029 A 
ATOM     62  C   UNL A   1      40.931  30.525  34.346  1.00  0.00     0.049 A 
ATOM     63  H   UNL A   1      41.083  29.412  32.561  1.00  0.00     0.167 HD
ATOM     64  C   UNL A   1      38.900  31.140  33.067  1.00  0.00     0.074 A 
ATOM     65  C   UNL A   1      37.624  31.810  32.924  1.00  0.00     0.031 C 
ATOM     66  C   UNL A   1      39.685  31.228  34.169  1.00  0.00     0.034 A 
BRANCH  53  67
ATOM     67  C   UNL A   1      44.748  27.693  33.931  1.00  0.00     0.023 A 
ATOM     68  C   UNL A   1      44.695  26.560  34.767  1.00  0.00     0.012 A 
ATOM     69  C   UNL A   1      45.983  28.333  33.709  1.00  0.00     0.148 A 
ATOM     70  C   UNL A   1      45.847  26.092  35.400  1.00  0.00     0.002 A 
ATOM     71  C   UNL A   1      47.133  27.834  34.307  1.00  0.00     0.091 A 
ATOM     72  F   UNL A   1      46.008  29.421  32.927  1.00  0.00    -0.205 F 
ATOM     73  C   UNL A   1      47.066  26.722  35.161  1.00  0.00     0.022 A 
BRANCH  71  74
ATOM     74  S   UNL A   1      48.763  28.528  34.002  1.00  0.00     0.127 S 
ATOM     75  O   UNL A   1      48.424  29.819  33.404  1.00  0.00    -0.237 OA
ATOM     76  O   UNL A   1      49.320  28.607  35.352  1.00  0.00    -0.237 OA
ATOM     77  O   UNL A   1      49.440  27.590  33.119  1.00  0.00    -0.744 OA
ENDBRANCH  71  74
ENDBRANCH  53  67
BRANCH  54  78
ATOM     78  C   UNL A   1      36.496  30.525  29.065  1.00  0.00     0.023 A 
ATOM     79  C   UNL A   1      35.640  29.527  28.562  1.00  0.00     0.012 A 
ATOM     80  C   UNL A   1      36.141  31.880  28.907  1.00  0.00     0.148 A 
ATOM     81  C   UNL A   1      34.465  29.872  27.891  1.00  0.00     0.002 A 
ATOM     82  C   UNL A   1      34.941  32.213  28.289  1.00  0.00     0.091 A 
ATOM     83  F   UNL A   1      36.980  32.815  29.372  1.00  0.00    -0.205 F 
ATOM     84  C   UNL A   1      34.110  31.212  27.764  1.00  0.00     0.022 A 
BRANCH  82  85
ATOM     85  S   UNL A   1      34.345  33.906  28.192  1.00  0.00     0.127 S 
ATOM     86  O   UNL A   1      35.226  34.473  27.174  1.00  0.00    -0.237 OA
ATOM     87  O   UNL A   1      32.958  33.711  27.770  1.00  0.00    -0.237 OA
ATOM     88  O   UNL A   1      34.497  34.452  29.534  1.00  0.00    -0.744 OA
ENDBRANCH  82  85
ENDBRANCH  54  78
BRANCH  66  89
ATOM     89  C   UNL A   1      39.221  32.114  35.297  1.00  0.00     0.023 A 
ATOM     90  C   UNL A   1      39.370  33.512  35.202  1.00  0.00     0.012 A 
ATOM     91  C   UNL A   1      38.560  31.562  36.413  1.00  0.00     0.148 A 
ATOM     92  C   UNL A   1      38.893  34.345  36.214  1.00  0.00     0.002 A 
ATOM     93  C   UNL A   1      38.043  32.401  37.393  1.00  0.00     0.091 A 
ATOM     94  F   UNL A   1      38.444  30.230  36.492  1.00  0.00    -0.205 F 
ATOM     95  C   UNL A   1      38.220  33.791  37.302  1.00  0.00     0.022 A 
BRANCH  93  96
ATOM     96  S   UNL A   1      37.077  31.789  38.777  1.00  0.00     0.127 S 
ATOM     97  O   UNL A   1      36.891  30.386  38.413  1.00  0.00    -0.237 OA
ATOM     98  O   UNL A   1      37.980  32.013  39.907  1.00  0.00    -0.237 OA
ATOM     99  O   UNL A   1      35.861  32.590  38.806  1.00  0.00    -0.744 OA
ENDBRANCH  93  96
ENDBRANCH  66  89
ENDBRANCH  40  41
ENDBRANCH  33  35
ENDBRANCH  32  33
ENDBRANCH  31  32
ENDBRANCH  30  31
ENDBRANCH  29  30
ENDBRANCH  28  29
ENDBRANCH   1  28
TORSDOF 23
ENDMDL
MODEL 2
REMARK VINA RESULT:     -11.0      2.511      3.148
REMARK SMILES Cc1ccc(Cl)c(NC(=O)C[N@@H+]2CCC[C@H]2C(=O)OCCOCCOCCOC(=O)c2ccc(-c3c4nc(c(-c5cccc(S(=O)(=O)[O-])c5F)c5ccc([nH]5)c(-c5cccc(S(=O)(=O)[O-])c5F)c5nc(c(-c6cccc(S(=O)(=O)[O-])c6F)c6ccc3[nH]6)C=C5)C=C4)cc2)c1Cl
REMARK SMILES IDX 23 1 22 2 21 3 20 4 19 5 17 6 18 7 16 8 12 9 13 10 14 12
REMARK SMILES IDX 15 13 11 14 9 15 8 16 10 18 7 19 1 20 2 21 3 22 94 23 4 24
REMARK SMILES IDX 95 25 5 26 6 27 24 28 25 29 26 30 27 31 28 32 29 33 30 34
REMARK SMILES IDX 31 35 32 36 93 37 33 38 92 39 34 40 35 41 36 42 86 43 37 44
REMARK SMILES IDX 91 45 85 46 87 47 38 48 90 49 84 50 83 51 39 53 71 54 51 55
REMARK SMILES IDX 70 56 52 57 55 58 69 59 88 60 53 61 54 62 68 64 89 65 56 66
REMARK SMILES IDX 40 67 41 68 49 69 42 70 44 71 50 72 43 73 45 74 46 75 47 76
REMARK SMILES IDX 48 77 72 78 73 79 81 80 74 81 76 82 82 83 75 84 77 85 78 86
REMARK SMILES IDX 79 87 80 88 57 89 58 90 66 91 59 92 61 93 67 94 60 95 62 96
REMARK SMILES IDX 63 97 64 98 65 99
REMARK H PARENT 12 11 8 17 87 52 55 63
REMARK Flexibility Score: inf
ROOT
ATOM      1  C   UNL A   1      41.231  20.715  27.326  1.00  0.00     0.188 C 
ENDROOT
BRANCH   1   2
ATOM      2  O   UNL A   1      39.917  21.234  27.176  1.00  0.00    -0.376 OA
BRANCH   2   3
ATOM      3  C   UNL A   1      39.589  22.034  26.049  1.00  0.00     0.202 C 
BRANCH   3   4
ATOM      4  C   UNL A   1      38.358  22.941  26.143  1.00  0.00     0.261 C 
BRANCH   4   5
ATOM      5  O   UNL A   1      37.435  22.757  25.061  1.00  0.00    -0.459 OA
BRANCH   5   6
ATOM      6  C   UNL A   1      36.529  21.742  25.199  1.00  0.00     0.365 C 
ATOM      7  O   UNL A   1      36.779  20.552  25.061  1.00  0.00    -0.245 OA
BRANCH   6   8
ATOM      8  C   UNL A   1      35.169  22.316  25.639  1.00  0.00     0.295 C 
ATOM      9  N   UNL A   1      34.087  21.823  24.750  1.00  0.00    -0.315 N 
ATOM     10  C   UNL A   1      33.606  20.602  25.438  1.00  0.00     0.263 C 
ATOM     11  H   UNL A   1      34.425  21.668  23.801  1.00  0.00     0.349 HD
ATOM     12  C   UNL A   1      33.635  20.936  26.921  1.00  0.00     0.068 C 
ATOM     13  C   UNL A   1      34.837  21.855  27.064  1.00  0.00     0.083 C 
BRANCH   9  14
ATOM     14  C   UNL A   1      32.966  22.790  24.629  1.00  0.00     0.364 C 
BRANCH  14  15
ATOM     15  C   UNL A   1      32.344  22.862  23.235  1.00  0.00     0.279 C 
ATOM     16  N   UNL A   1      31.772  23.974  22.686  1.00  0.00    -0.319 N 
ATOM     17  H   UNL A   1      31.425  23.790  21.783  1.00  0.00     0.170 HD
ATOM     18  O   UNL A   1      32.387  21.870  22.493  1.00  0.00    -0.268 OA
BRANCH  16  19
ATOM     19  C   UNL A   1      31.543  25.322  23.065  1.00  0.00     0.079 A 
ATOM     20  C   UNL A   1      31.220  27.694  26.061  1.00  0.00     0.046 C 
ATOM     21  C   UNL A   1      31.269  27.180  24.645  1.00  0.00    -0.030 A 
ATOM     22  C   UNL A   1      31.532  28.094  23.618  1.00  0.00     0.006 A 
ATOM     23  C   UNL A   1      31.160  25.805  24.328  1.00  0.00     0.069 A 
ATOM     24  C   UNL A   1      31.703  27.652  22.315  1.00  0.00     0.023 A 
ATOM     25  Cl  UNL A   1      30.160  24.839  25.376  1.00  0.00    -0.082 Cl
ATOM     26  C   UNL A   1      31.742  26.283  22.048  1.00  0.00     0.066 A 
ATOM     27  Cl  UNL A   1      32.086  25.810  20.414  1.00  0.00    -0.082 Cl
ENDBRANCH  16  19
ENDBRANCH  14  15
ENDBRANCH   9  14
ENDBRANCH   6   8
ENDBRANCH   5   6
ENDBRANCH   4   5
ENDBRANCH   3   4
ENDBRANCH   2   3
ENDBRANCH   1   2
BRANCH   1  28
ATOM     28  C   UNL A   1      41.651  19.434  26.581  1.00  0.00     0.188 C 
BRANCH  28  29
ATOM     29  O   UNL A   1      42.334  19.654  25.362  1.00  0.00    -0.376 OA
BRANCH  29  30
ATOM     30  C   UNL A   1      43.736  19.842  25.460  1.00  0.00     0.202 C 
BRANCH  30  31
ATOM     31  C   UNL A   1      44.218  21.281  25.236  1.00  0.00     0.261 C 
BRANCH  31  32
ATOM     32  O   UNL A   1      43.504  22.290  25.976  1.00  0.00    -0.460 OA
BRANCH  32  33
ATOM     33  C   UNL A   1      43.361  23.501  25.398  1.00  0.00     0.338 C 
ATOM     34  O   UNL A   1      43.312  23.743  24.200  1.00  0.00    -0.246 OA
BRANCH  33  35
ATOM     35  C   UNL A   1      43.105  24.495  26.459  1.00  0.00     0.060 A 
ATOM     36  C   UNL A   1      42.324  24.128  27.560  1.00  0.00     0.016 A 
ATOM     37  C   UNL A   1      43.610  25.790  26.362  1.00  0.00     0.016 A 
ATOM     38  C   UNL A   1      42.020  25.057  28.554  1.00  0.00     0.010 A 
ATOM     39  C   UNL A   1      43.317  26.719  27.370  1.00  0.00     0.010 A 
ATOM     40  C   UNL A   1      42.505  26.366  28.464  1.00  0.00    -0.014 A 
BRANCH  40  41
ATOM     41  C   UNL A   1      42.107  27.385  29.470  1.00  0.00     0.031 A 
ATOM     42  C   UNL A   1      42.830  27.440  30.788  1.00  0.00     0.074 A 
ATOM     43  C   UNL A   1      41.107  28.253  29.220  1.00  0.00     0.049 A 
ATOM     44  N   UNL A   1      42.545  28.127  31.863  1.00  0.00    -0.248 NA
ATOM     45  C   UNL A   1      44.038  26.607  30.910  1.00  0.00     0.031 C 
ATOM     46  C   UNL A   1      40.362  28.347  27.966  1.00  0.00     0.029 A 
ATOM     47  N   UNL A   1      40.527  29.202  30.026  1.00  0.00    -0.354 N 
ATOM     48  C   UNL A   1      43.497  27.769  32.807  1.00  0.00     0.074 A 
ATOM     49  C   UNL A   1      44.381  26.813  32.173  1.00  0.00     0.031 C 
ATOM     50  C   UNL A   1      39.405  29.280  28.094  1.00  0.00     0.029 A 
ATOM     51  C   UNL A   1      39.429  29.805  29.457  1.00  0.00     0.049 A 
ATOM     52  H   UNL A   1      40.864  29.430  30.923  1.00  0.00     0.167 HD
ATOM     53  C   UNL A   1      43.626  28.196  34.086  1.00  0.00     0.034 A 
ATOM     54  C   UNL A   1      38.512  30.640  29.988  1.00  0.00     0.034 A 
ATOM     55  C   UNL A   1      42.765  29.168  34.703  1.00  0.00     0.049 A 
ATOM     56  C   UNL A   1      38.641  31.054  31.431  1.00  0.00     0.074 A 
ATOM     57  C   UNL A   1      42.831  29.684  35.986  1.00  0.00     0.029 A 
ATOM     58  N   UNL A   1      41.676  29.767  34.089  1.00  0.00    -0.354 N 
ATOM     59  N   UNL A   1      39.576  30.749  32.298  1.00  0.00    -0.248 NA
ATOM     60  C   UNL A   1      37.594  31.937  31.966  1.00  0.00     0.031 C 
ATOM     61  C   UNL A   1      41.763  30.571  36.157  1.00  0.00     0.029 A 
ATOM     62  C   UNL A   1      41.054  30.635  34.969  1.00  0.00     0.049 A 
ATOM     63  H   UNL A   1      41.388  29.599  33.162  1.00  0.00     0.167 HD
ATOM     64  C   UNL A   1      39.248  31.425  33.468  1.00  0.00     0.074 A 
ATOM     65  C   UNL A   1      38.040  32.174  33.193  1.00  0.00     0.031 C 
ATOM     66  C   UNL A   1      39.882  31.417  34.666  1.00  0.00     0.034 A 
BRANCH  53  67
ATOM     67  C   UNL A   1      44.741  27.608  34.911  1.00  0.00     0.023 A 
ATOM     68  C   UNL A   1      45.969  28.288  35.023  1.00  0.00     0.012 A 
ATOM     69  C   UNL A   1      44.548  26.403  35.618  1.00  0.00     0.148 A 
ATOM     70  C   UNL A   1      47.003  27.760  35.799  1.00  0.00     0.002 A 
ATOM     71  C   UNL A   1      45.566  25.909  36.423  1.00  0.00     0.091 A 
ATOM     72  F   UNL A   1      43.379  25.762  35.480  1.00  0.00    -0.205 F 
ATOM     73  C   UNL A   1      46.797  26.579  36.506  1.00  0.00     0.022 A 
BRANCH  71  74
ATOM     74  S   UNL A   1      45.372  24.435  37.432  1.00  0.00     0.127 S 
ATOM     75  O   UNL A   1      46.693  24.326  38.049  1.00  0.00    -0.237 OA
ATOM     76  O   UNL A   1      44.300  24.827  38.347  1.00  0.00    -0.237 OA
ATOM     77  O   UNL A   1      45.023  23.361  36.513  1.00  0.00    -0.744 OA
ENDBRANCH  71  74
ENDBRANCH  53  67
BRANCH  54  78
ATOM     78  C   UNL A   1      37.377  31.135  29.156  1.00  0.00     0.023 A 
ATOM     79  C   UNL A   1      37.305  32.499  28.816  1.00  0.00     0.012 A 
ATOM     80  C   UNL A   1      36.372  30.259  28.700  1.00  0.00     0.148 A 
ATOM     81  C   UNL A   1      36.239  32.987  28.057  1.00  0.00     0.002 A 
ATOM     82  C   UNL A   1      35.345  30.741  27.896  1.00  0.00     0.091 A 
ATOM     83  F   UNL A   1      36.445  28.969  29.054  1.00  0.00    -0.205 F 
ATOM     84  C   UNL A   1      35.267  32.108  27.589  1.00  0.00     0.022 A 
BRANCH  82  85
ATOM     85  S   UNL A   1      34.120  29.662  27.147  1.00  0.00     0.127 S 
ATOM     86  O   UNL A   1      33.689  28.862  28.291  1.00  0.00    -0.237 OA
ATOM     87  O   UNL A   1      33.132  30.624  26.659  1.00  0.00    -0.237 OA
ATOM     88  O   UNL A   1      34.825  28.937  26.099  1.00  0.00    -0.744 OA
ENDBRANCH  82  85
ENDBRANCH  54  78
BRANCH  66  89
ATOM     89  C   UNL A   1      39.316  32.276  35.769  1.00  0.00     0.023 A 
ATOM     90  C   UNL A   1      38.353  31.745  36.651  1.00  0.00     0.012 A 
ATOM     91  C   UNL A   1      39.803  33.581  35.980  1.00  0.00     0.148 A 
ATOM     92  C   UNL A   1      37.863  32.511  37.708  1.00  0.00     0.002 A 
ATOM     93  C   UNL A   1      39.347  34.321  37.065  1.00  0.00     0.091 A 
ATOM     94  F   UNL A   1      40.705  34.073  35.120  1.00  0.00    -0.205 F 
ATOM     95  C   UNL A   1      38.369  33.792  37.922  1.00  0.00     0.022 A 
BRANCH  93  96
ATOM     96  S   UNL A   1      40.010  35.937  37.478  1.00  0.00     0.127 S 
ATOM     97  O   UNL A   1      39.717  36.699  36.265  1.00  0.00    -0.237 OA
ATOM     98  O   UNL A   1      39.208  36.312  38.643  1.00  0.00    -0.237 OA
ATOM     99  O   UNL A   1      41.425  35.734  37.756  1.00  0.00    -0.744 OA
ENDBRANCH  93  96
ENDBRANCH  66  89
ENDBRANCH  40  41
ENDBRANCH  33  35
ENDBRANCH  32  33
ENDBRANCH  31  32
ENDBRANCH  30  31
ENDBRANCH  29  30
ENDBRANCH  28  29
ENDBRANCH   1  28
TORSDOF 23
ENDMDL
MODEL 3
REMARK VINA RESULT:     -10.9      5.630      7.733
REMARK SMILES Cc1ccc(Cl)c(NC(=O)C[N@@H+]2CCC[C@H]2C(=O)OCCOCCOCCOC(=O)c2ccc(-c3c4nc(c(-c5cccc(S(=O)(=O)[O-])c5F)c5ccc([nH]5)c(-c5cccc(S(=O)(=O)[O-])c5F)c5nc(c(-c6cccc(S(=O)(=O)[O-])c6F)c6ccc3[nH]6)C=C5)C=C4)cc2)c1Cl
REMARK SMILES IDX 23 1 22 2 21 3 20 4 19 5 17 6 18 7 16 8 12 9 13 10 14 12
REMARK SMILES IDX 15 13 11 14 9 15 8 16 10 18 7 19 1 20 2 21 3 22 94 23 4 24
REMARK SMILES IDX 95 25 5 26 6 27 24 28 25 29 26 30 27 31 28 32 29 33 30 34
REMARK SMILES IDX 31 35 32 36 93 37 33 38 92 39 34 40 35 41 36 42 86 43 37 44
REMARK SMILES IDX 91 45 85 46 87 47 38 48 90 49 84 50 83 51 39 53 71 54 51 55
REMARK SMILES IDX 70 56 52 57 55 58 69 59 88 60 53 61 54 62 68 64 89 65 56 66
REMARK SMILES IDX 40 67 41 68 49 69 42 70 44 71 50 72 43 73 45 74 46 75 47 76
REMARK SMILES IDX 48 77 72 78 73 79 81 80 74 81 76 82 82 83 75 84 77 85 78 86
REMARK SMILES IDX 79 87 80 88 57 89 58 90 66 91 59 92 61 93 67 94 60 95 62 96
REMARK SMILES IDX 63 97 64 98 65 99
REMARK H PARENT 12 11 8 17 87 52 55 63
REMARK Flexibility Score: inf
ROOT
ATOM      1  C   UNL A   1      39.966  21.828  26.688  1.00  0.00     0.188 C 
ENDROOT
BRANCH   1   2
ATOM      2  O   UNL A   1      40.125  23.198  27.033  1.00  0.00    -0.376 OA
BRANCH   2   3
ATOM      3  C   UNL A   1      39.000  24.063  27.061  1.00  0.00     0.202 C 
BRANCH   3   4
ATOM      4  C   UNL A   1      38.037  24.032  25.869  1.00  0.00     0.261 C 
BRANCH   4   5
ATOM      5  O   UNL A   1      36.764  23.451  26.184  1.00  0.00    -0.459 OA
BRANCH   5   6
ATOM      6  C   UNL A   1      35.967  23.118  25.125  1.00  0.00     0.365 C 
ATOM      7  O   UNL A   1      36.367  22.822  24.008  1.00  0.00    -0.245 OA
BRANCH   6   8
ATOM      8  C   UNL A   1      34.493  23.088  25.575  1.00  0.00     0.295 C 
ATOM      9  N   UNL A   1      33.778  21.959  24.929  1.00  0.00    -0.315 N 
ATOM     10  C   UNL A   1      33.925  20.854  25.906  1.00  0.00     0.263 C 
ATOM     11  H   UNL A   1      34.157  21.757  24.004  1.00  0.00     0.349 HD
ATOM     12  C   UNL A   1      33.782  21.504  27.273  1.00  0.00     0.068 C 
ATOM     13  C   UNL A   1      34.407  22.877  27.091  1.00  0.00     0.083 C 
BRANCH   9  14
ATOM     14  C   UNL A   1      32.335  22.242  24.724  1.00  0.00     0.364 C 
BRANCH  14  15
ATOM     15  C   UNL A   1      31.954  22.562  23.279  1.00  0.00     0.279 C 
ATOM     16  N   UNL A   1      31.953  23.808  22.723  1.00  0.00    -0.319 N 
ATOM     17  H   UNL A   1      31.662  23.783  21.782  1.00  0.00     0.170 HD
ATOM     18  O   UNL A   1      31.667  21.638  22.503  1.00  0.00    -0.268 OA
BRANCH  16  19
ATOM     19  C   UNL A   1      32.257  25.132  23.135  1.00  0.00     0.079 A 
ATOM     20  C   UNL A   1      32.989  27.347  26.178  1.00  0.00     0.046 C 
ATOM     21  C   UNL A   1      32.771  26.903  24.754  1.00  0.00    -0.030 A 
ATOM     22  C   UNL A   1      33.298  27.693  23.726  1.00  0.00     0.006 A 
ATOM     23  C   UNL A   1      32.146  25.676  24.426  1.00  0.00     0.069 A 
ATOM     24  C   UNL A   1      33.225  27.266  22.409  1.00  0.00     0.023 A 
ATOM     25  Cl  UNL A   1      30.918  25.108  25.520  1.00  0.00    -0.082 Cl
ATOM     26  C   UNL A   1      32.742  25.989  22.121  1.00  0.00     0.066 A 
ATOM     27  Cl  UNL A   1      32.800  25.482  20.462  1.00  0.00    -0.082 Cl
ENDBRANCH  16  19
ENDBRANCH  14  15
ENDBRANCH   9  14
ENDBRANCH   6   8
ENDBRANCH   5   6
ENDBRANCH   4   5
ENDBRANCH   3   4
ENDBRANCH   2   3
ENDBRANCH   1   2
BRANCH   1  28
ATOM     28  C   UNL A   1      40.918  20.765  27.267  1.00  0.00     0.188 C 
BRANCH  28  29
ATOM     29  O   UNL A   1      41.783  20.165  26.322  1.00  0.00    -0.376 OA
BRANCH  29  30
ATOM     30  C   UNL A   1      42.331  18.909  26.688  1.00  0.00     0.202 C 
BRANCH  30  31
ATOM     31  C   UNL A   1      43.285  18.289  25.660  1.00  0.00     0.261 C 
BRANCH  31  32
ATOM     32  O   UNL A   1      43.541  19.096  24.495  1.00  0.00    -0.460 OA
BRANCH  32  33
ATOM     33  C   UNL A   1      44.798  19.552  24.318  1.00  0.00     0.338 C 
ATOM     34  O   UNL A   1      45.729  18.959  23.792  1.00  0.00    -0.246 OA
BRANCH  33  35
ATOM     35  C   UNL A   1      44.837  20.972  24.722  1.00  0.00     0.060 A 
ATOM     36  C   UNL A   1      44.635  21.961  23.753  1.00  0.00     0.016 A 
ATOM     37  C   UNL A   1      45.096  21.333  26.044  1.00  0.00     0.016 A 
ATOM     38  C   UNL A   1      44.718  23.311  24.091  1.00  0.00     0.010 A 
ATOM     39  C   UNL A   1      45.162  22.690  26.385  1.00  0.00     0.010 A 
ATOM     40  C   UNL A   1      44.993  23.690  25.409  1.00  0.00    -0.014 A 
BRANCH  40  41
ATOM     41  C   UNL A   1      45.174  25.124  25.756  1.00  0.00     0.031 A 
ATOM     42  C   UNL A   1      46.552  25.725  25.706  1.00  0.00     0.074 A 
ATOM     43  C   UNL A   1      44.125  25.886  26.120  1.00  0.00     0.049 A 
ATOM     44  N   UNL A   1      46.962  26.894  26.124  1.00  0.00    -0.248 NA
ATOM     45  C   UNL A   1      47.609  24.896  25.105  1.00  0.00     0.031 C 
ATOM     46  C   UNL A   1      42.731  25.447  26.156  1.00  0.00     0.029 A 
ATOM     47  N   UNL A   1      44.077  27.188  26.559  1.00  0.00    -0.354 N 
ATOM     48  C   UNL A   1      48.331  26.921  25.892  1.00  0.00     0.074 A 
ATOM     49  C   UNL A   1      48.681  25.655  25.282  1.00  0.00     0.031 C 
ATOM     50  C   UNL A   1      41.967  26.450  26.620  1.00  0.00     0.029 A 
ATOM     51  C   UNL A   1      42.824  27.579  26.972  1.00  0.00     0.049 A 
ATOM     52  H   UNL A   1      44.862  27.782  26.576  1.00  0.00     0.167 HD
ATOM     53  C   UNL A   1      49.217  27.909  26.162  1.00  0.00     0.034 A 
ATOM     54  C   UNL A   1      42.421  28.695  27.613  1.00  0.00     0.034 A 
ATOM     55  C   UNL A   1      48.862  29.176  26.740  1.00  0.00     0.049 A 
ATOM     56  C   UNL A   1      43.435  29.754  27.958  1.00  0.00     0.074 A 
ATOM     57  C   UNL A   1      49.686  30.252  27.027  1.00  0.00     0.029 A 
ATOM     58  N   UNL A   1      47.582  29.541  27.128  1.00  0.00    -0.354 N 
ATOM     59  N   UNL A   1      44.717  29.791  27.687  1.00  0.00    -0.248 NA
ATOM     60  C   UNL A   1      42.945  30.933  28.689  1.00  0.00     0.031 C 
ATOM     61  C   UNL A   1      48.908  31.253  27.618  1.00  0.00     0.029 A 
ATOM     62  C   UNL A   1      47.594  30.816  27.665  1.00  0.00     0.049 A 
ATOM     63  H   UNL A   1      46.782  28.974  27.035  1.00  0.00     0.167 HD
ATOM     64  C   UNL A   1      45.179  31.005  28.183  1.00  0.00     0.074 A 
ATOM     65  C   UNL A   1      44.035  31.686  28.753  1.00  0.00     0.031 C 
ATOM     66  C   UNL A   1      46.439  31.506  28.180  1.00  0.00     0.034 A 
BRANCH  53  67
ATOM     67  C   UNL A   1      50.667  27.656  25.838  1.00  0.00     0.023 A 
ATOM     68  C   UNL A   1      51.550  27.224  26.847  1.00  0.00     0.012 A 
ATOM     69  C   UNL A   1      51.139  27.798  24.518  1.00  0.00     0.148 A 
ATOM     70  C   UNL A   1      52.891  26.970  26.554  1.00  0.00     0.002 A 
ATOM     71  C   UNL A   1      52.463  27.500  24.226  1.00  0.00     0.091 A 
ATOM     72  F   UNL A   1      50.287  28.230  23.578  1.00  0.00    -0.205 F 
ATOM     73  C   UNL A   1      53.343  27.098  25.244  1.00  0.00     0.022 A 
BRANCH  71  74
ATOM     74  S   UNL A   1      53.124  27.559  22.556  1.00  0.00     0.127 S 
ATOM     75  O   UNL A   1      51.899  27.578  21.757  1.00  0.00    -0.237 OA
ATOM     76  O   UNL A   1      53.867  28.819  22.564  1.00  0.00    -0.237 OA
ATOM     77  O   UNL A   1      53.947  26.368  22.407  1.00  0.00    -0.744 OA
ENDBRANCH  71  74
ENDBRANCH  53  67
BRANCH  54  78
ATOM     78  C   UNL A   1      40.987  28.868  27.988  1.00  0.00     0.023 A 
ATOM     79  C   UNL A   1      40.050  29.239  27.005  1.00  0.00     0.012 A 
ATOM     80  C   UNL A   1      40.549  28.664  29.312  1.00  0.00     0.148 A 
ATOM     81  C   UNL A   1      38.707  29.428  27.338  1.00  0.00     0.002 A 
ATOM     82  C   UNL A   1      39.202  28.797  29.624  1.00  0.00     0.091 A 
ATOM     83  F   UNL A   1      41.460  28.334  30.238  1.00  0.00    -0.205 F 
ATOM     84  C   UNL A   1      38.282  29.197  28.643  1.00  0.00     0.022 A 
BRANCH  82  85
ATOM     85  S   UNL A   1      38.545  28.400  31.249  1.00  0.00     0.127 S 
ATOM     86  O   UNL A   1      38.738  26.952  31.301  1.00  0.00    -0.237 OA
ATOM     87  O   UNL A   1      39.427  29.172  32.125  1.00  0.00    -0.237 OA
ATOM     88  O   UNL A   1      37.162  28.852  31.234  1.00  0.00    -0.744 OA
ENDBRANCH  82  85
ENDBRANCH  54  78
BRANCH  66  89
ATOM     89  C   UNL A   1      46.653  32.877  28.770  1.00  0.00     0.023 A 
ATOM     90  C   UNL A   1      47.066  33.010  30.110  1.00  0.00     0.012 A 
ATOM     91  C   UNL A   1      46.526  34.028  27.967  1.00  0.00     0.148 A 
ATOM     92  C   UNL A   1      47.322  34.270  30.651  1.00  0.00     0.002 A 
ATOM     93  C   UNL A   1      46.831  35.276  28.497  1.00  0.00     0.091 A 
ATOM     94  F   UNL A   1      46.116  33.881  26.700  1.00  0.00    -0.205 F 
ATOM     95  C   UNL A   1      47.217  35.400  29.842  1.00  0.00     0.022 A 
BRANCH  93  96
ATOM     96  S   UNL A   1      46.820  36.775  27.508  1.00  0.00     0.127 S 
ATOM     97  O   UNL A   1      45.400  36.909  27.186  1.00  0.00    -0.237 OA
ATOM     98  O   UNL A   1      47.329  37.771  28.450  1.00  0.00    -0.237 OA
ATOM     99  O   UNL A   1      47.693  36.514  26.371  1.00  0.00    -0.744 OA
ENDBRANCH  93  96
ENDBRANCH  66  89
ENDBRANCH  40  41
ENDBRANCH  33  35
ENDBRANCH  32  33
ENDBRANCH  31  32
ENDBRANCH  30  31
ENDBRANCH  29  30
ENDBRANCH  28  29
ENDBRANCH   1  28
TORSDOF 23
ENDMDL
