MODEL 1
REMARK VINA RESULT:      -8.7      0.000      0.000
REMARK SMILES CCCS[C@@H]1CC[C@@]([NH2+]CC)(C(=O)OCCOCCOCCOC(=O)c2ccc(-c3c4nc(c(-c5cccc(S(=O)(=O)[O-])c5F)c5ccc([nH]5)c(-c5cccc(S(=O)(=O)[O-])c5F)c5nc(c(-c6cccc(S(=O)(=O)[O-])c6F)c6ccc3[nH]6)C=C5)C=C4)cc2)C1
REMARK SMILES IDX 18 1 17 2 16 3 15 4 14 5 12 6 13 7 8 8 5 9 6 10 89 11 7 12
REMARK SMILES IDX 4 13 3 14 2 15 1 16 9 17 10 20 11 21 19 22 20 23 21 24 22 25
REMARK SMILES IDX 23 26 24 27 25 28 26 29 27 30 88 31 28 32 87 33 29 34 30 35
REMARK SMILES IDX 31 36 81 37 32 38 86 39 80 40 82 41 33 42 85 43 79 44 78 45
REMARK SMILES IDX 34 47 66 48 46 49 65 50 47 51 50 52 64 53 83 54 48 55 49 56
REMARK SMILES IDX 63 58 84 59 51 60 35 61 36 62 44 63 37 64 39 65 45 66 38 67
REMARK SMILES IDX 40 68 41 69 42 70 43 71 67 72 68 73 76 74 69 75 71 76 77 77
REMARK SMILES IDX 70 78 72 79 73 80 74 81 75 82 52 83 53 84 61 85 54 86 56 87
REMARK SMILES IDX 62 88 55 89 57 90 58 91 59 92 60 93
REMARK H PARENT 9 18 9 19 82 46 50 57
REMARK Flexibility Score: inf
ROOT
ATOM      1  C   UNL A   1      29.992  27.941  23.887  1.00  0.00     0.188 C 
ENDROOT
BRANCH   1   2
ATOM      2  O   UNL A   1      30.171  26.950  22.890  1.00  0.00    -0.376 OA
BRANCH   2   3
ATOM      3  C   UNL A   1      31.277  26.065  22.957  1.00  0.00     0.202 C 
BRANCH   3   4
ATOM      4  C   UNL A   1      31.107  24.546  22.778  1.00  0.00     0.261 C 
BRANCH   4   5
ATOM      5  O   UNL A   1      32.228  23.693  23.091  1.00  0.00    -0.459 OA
BRANCH   5   6
ATOM      6  C   UNL A   1      33.354  24.350  23.484  1.00  0.00     0.368 C 
ATOM      7  O   UNL A   1      33.900  25.201  22.785  1.00  0.00    -0.245 OA
BRANCH   6   8
ATOM      8  C   UNL A   1      33.948  23.883  24.857  1.00  0.00     0.195 C 
ATOM      9  C   UNL A   1      34.814  21.643  24.436  1.00  0.00     0.053 C 
ATOM     10  C   UNL A   1      36.002  22.467  24.924  1.00  0.00     0.022 C 
ATOM     11  C   UNL A   1      33.647  22.388  25.055  1.00  0.00     0.095 C 
ATOM     12  C   UNL A   1      35.494  23.923  24.989  1.00  0.00     0.082 C 
BRANCH   9  13
ATOM     13  S   UNL A   1      34.862  19.921  25.021  1.00  0.00    -0.158 SA
BRANCH  13  14
ATOM     14  C   UNL A   1      33.112  19.387  24.822  1.00  0.00     0.069 C 
BRANCH  14  15
ATOM     15  C   UNL A   1      32.751  18.516  23.617  1.00  0.00     0.007 C 
ATOM     16  C   UNL A   1      33.741  17.379  23.375  1.00  0.00     0.005 C 
ENDBRANCH  14  15
ENDBRANCH  13  14
ENDBRANCH   9  13
BRANCH   8  17
ATOM     17  N   UNL A   1      33.365  24.693  25.963  1.00  0.00    -0.332 N 
ATOM     18  H   UNL A   1      34.067  24.754  26.702  1.00  0.00     0.347 HD
ATOM     19  H   UNL A   1      32.507  24.207  26.220  1.00  0.00     0.347 HD
BRANCH  17  20
ATOM     20  C   UNL A   1      32.942  26.062  25.644  1.00  0.00     0.257 C 
ATOM     21  C   UNL A   1      33.918  27.190  25.959  1.00  0.00     0.071 C 
ENDBRANCH  17  20
ENDBRANCH   8  17
ENDBRANCH   6   8
ENDBRANCH   5   6
ENDBRANCH   4   5
ENDBRANCH   3   4
ENDBRANCH   2   3
ENDBRANCH   1   2
BRANCH   1  22
ATOM     22  C   UNL A   1      29.885  29.417  23.476  1.00  0.00     0.188 C 
BRANCH  22  23
ATOM     23  O   UNL A   1      30.491  30.329  24.356  1.00  0.00    -0.376 OA
BRANCH  23  24
ATOM     24  C   UNL A   1      31.465  29.874  25.273  1.00  0.00     0.202 C 
BRANCH  24  25
ATOM     25  C   UNL A   1      31.899  30.654  26.531  1.00  0.00     0.261 C 
BRANCH  25  26
ATOM     26  O   UNL A   1      33.245  30.501  27.000  1.00  0.00    -0.460 OA
BRANCH  26  27
ATOM     27  C   UNL A   1      33.915  31.626  27.328  1.00  0.00     0.338 C 
ATOM     28  O   UNL A   1      33.481  32.773  27.269  1.00  0.00    -0.246 OA
BRANCH  27  29
ATOM     29  C   UNL A   1      35.181  31.249  28.001  1.00  0.00     0.060 A 
ATOM     30  C   UNL A   1      35.316  29.938  28.470  1.00  0.00     0.016 A 
ATOM     31  C   UNL A   1      36.225  32.164  28.177  1.00  0.00     0.016 A 
ATOM     32  C   UNL A   1      36.472  29.555  29.153  1.00  0.00     0.010 A 
ATOM     33  C   UNL A   1      37.379  31.781  28.878  1.00  0.00     0.010 A 
ATOM     34  C   UNL A   1      37.499  30.480  29.395  1.00  0.00    -0.014 A 
BRANCH  34  35
ATOM     35  C   UNL A   1      38.563  30.124  30.373  1.00  0.00     0.031 A 
ATOM     36  C   UNL A   1      39.681  29.240  29.907  1.00  0.00     0.074 A 
ATOM     37  C   UNL A   1      38.577  30.589  31.636  1.00  0.00     0.049 A 
ATOM     38  N   UNL A   1      40.766  28.875  30.536  1.00  0.00    -0.248 NA
ATOM     39  C   UNL A   1      39.539  28.673  28.557  1.00  0.00     0.031 C 
ATOM     40  C   UNL A   1      37.527  31.394  32.239  1.00  0.00     0.029 A 
ATOM     41  N   UNL A   1      39.517  30.467  32.632  1.00  0.00    -0.354 N 
ATOM     42  C   UNL A   1      41.415  27.997  29.679  1.00  0.00     0.074 A 
ATOM     43  C   UNL A   1      40.612  27.903  28.479  1.00  0.00     0.031 C 
ATOM     44  C   UNL A   1      37.905  31.760  33.476  1.00  0.00     0.029 A 
ATOM     45  C   UNL A   1      39.205  31.164  33.779  1.00  0.00     0.049 A 
ATOM     46  H   UNL A   1      40.337  29.932  32.536  1.00  0.00     0.167 HD
ATOM     47  C   UNL A   1      42.566  27.312  29.877  1.00  0.00     0.034 A 
ATOM     48  C   UNL A   1      39.883  31.299  34.939  1.00  0.00     0.034 A 
ATOM     49  C   UNL A   1      43.355  27.377  31.077  1.00  0.00     0.049 A 
ATOM     50  C   UNL A   1      41.192  30.570  35.115  1.00  0.00     0.074 A 
ATOM     51  C   UNL A   1      44.538  26.719  31.363  1.00  0.00     0.029 A 
ATOM     52  N   UNL A   1      43.032  28.120  32.202  1.00  0.00    -0.354 N 
ATOM     53  N   UNL A   1      41.847  29.825  34.255  1.00  0.00    -0.248 NA
ATOM     54  C   UNL A   1      41.859  30.700  36.420  1.00  0.00     0.031 C 
ATOM     55  C   UNL A   1      44.911  27.035  32.674  1.00  0.00     0.029 A 
ATOM     56  C   UNL A   1      43.987  27.932  33.187  1.00  0.00     0.049 A 
ATOM     57  H   UNL A   1      42.238  28.697  32.287  1.00  0.00     0.167 HD
ATOM     58  C   UNL A   1      43.002  29.408  34.911  1.00  0.00     0.074 A 
ATOM     59  C   UNL A   1      42.981  30.021  36.224  1.00  0.00     0.031 C 
ATOM     60  C   UNL A   1      43.978  28.572  34.478  1.00  0.00     0.034 A 
BRANCH  47  61
ATOM     61  C   UNL A   1      43.010  26.398  28.768  1.00  0.00     0.023 A 
ATOM     62  C   UNL A   1      42.457  25.106  28.654  1.00  0.00     0.012 A 
ATOM     63  C   UNL A   1      43.984  26.821  27.845  1.00  0.00     0.148 A 
ATOM     64  C   UNL A   1      42.901  24.232  27.663  1.00  0.00     0.002 A 
ATOM     65  C   UNL A   1      44.383  25.963  26.828  1.00  0.00     0.091 A 
ATOM     66  F   UNL A   1      44.519  28.041  27.993  1.00  0.00    -0.205 F 
ATOM     67  C   UNL A   1      43.855  24.665  26.745  1.00  0.00     0.022 A 
BRANCH  65  68
ATOM     68  S   UNL A   1      45.548  26.457  25.555  1.00  0.00     0.127 S 
ATOM     69  O   UNL A   1      46.759  26.694  26.340  1.00  0.00    -0.237 OA
ATOM     70  O   UNL A   1      45.595  25.265  24.707  1.00  0.00    -0.237 OA
ATOM     71  O   UNL A   1      44.974  27.634  24.918  1.00  0.00    -0.744 OA
ENDBRANCH  65  68
ENDBRANCH  47  61
BRANCH  48  72
ATOM     72  C   UNL A   1      39.360  32.174  36.032  1.00  0.00     0.023 A 
ATOM     73  C   UNL A   1      38.347  31.692  36.888  1.00  0.00     0.012 A 
ATOM     74  C   UNL A   1      39.847  33.480  36.226  1.00  0.00     0.148 A 
ATOM     75  C   UNL A   1      37.811  32.504  37.891  1.00  0.00     0.002 A 
ATOM     76  C   UNL A   1      39.362  34.257  37.271  1.00  0.00     0.091 A 
ATOM     77  F   UNL A   1      40.785  33.938  35.383  1.00  0.00    -0.205 F 
ATOM     78  C   UNL A   1      38.328  33.780  38.092  1.00  0.00     0.022 A 
BRANCH  76  79
ATOM     79  S   UNL A   1      40.079  35.847  37.696  1.00  0.00     0.127 S 
ATOM     80  O   UNL A   1      41.496  35.514  37.821  1.00  0.00    -0.237 OA
ATOM     81  O   UNL A   1      39.736  36.654  36.524  1.00  0.00    -0.237 OA
ATOM     82  O   UNL A   1      39.414  36.260  38.923  1.00  0.00    -0.744 OA
ENDBRANCH  76  79
ENDBRANCH  48  72
BRANCH  60  83
ATOM     83  C   UNL A   1      45.127  28.288  35.414  1.00  0.00     0.023 A 
ATOM     84  C   UNL A   1      46.297  29.073  35.360  1.00  0.00     0.012 A 
ATOM     85  C   UNL A   1      45.026  27.272  36.385  1.00  0.00     0.148 A 
ATOM     86  C   UNL A   1      47.364  28.820  36.223  1.00  0.00     0.002 A 
ATOM     87  C   UNL A   1      46.071  27.061  37.278  1.00  0.00     0.091 A 
ATOM     88  F   UNL A   1      43.915  26.522  36.413  1.00  0.00    -0.205 F 
ATOM     89  C   UNL A   1      47.247  27.823  37.187  1.00  0.00     0.022 A 
BRANCH  87  90
ATOM     90  S   UNL A   1      45.963  25.865  38.613  1.00  0.00     0.127 S 
ATOM     91  O   UNL A   1      46.181  24.606  37.904  1.00  0.00    -0.237 OA
ATOM     92  O   UNL A   1      47.066  26.272  39.485  1.00  0.00    -0.237 OA
ATOM     93  O   UNL A   1      44.640  26.037  39.198  1.00  0.00    -0.744 OA
ENDBRANCH  87  90
ENDBRANCH  60  83
ENDBRANCH  34  35
ENDBRANCH  27  29
ENDBRANCH  26  27
ENDBRANCH  25  26
ENDBRANCH  24  25
ENDBRANCH  23  24
ENDBRANCH  22  23
ENDBRANCH   1  22
TORSDOF 25
ENDMDL
MODEL 2
REMARK VINA RESULT:      -7.9      5.151      9.215
REMARK SMILES CCCS[C@@H]1CC[C@@]([NH2+]CC)(C(=O)OCCOCCOCCOC(=O)c2ccc(-c3c4nc(c(-c5cccc(S(=O)(=O)[O-])c5F)c5ccc([nH]5)c(-c5cccc(S(=O)(=O)[O-])c5F)c5nc(c(-c6cccc(S(=O)(=O)[O-])c6F)c6ccc3[nH]6)C=C5)C=C4)cc2)C1
REMARK SMILES IDX 18 1 17 2 16 3 15 4 14 5 12 6 13 7 8 8 5 9 6 10 89 11 7 12
REMARK SMILES IDX 4 13 3 14 2 15 1 16 9 17 10 20 11 21 19 22 20 23 21 24 22 25
REMARK SMILES IDX 23 26 24 27 25 28 26 29 27 30 88 31 28 32 87 33 29 34 30 35
REMARK SMILES IDX 31 36 81 37 32 38 86 39 80 40 82 41 33 42 85 43 79 44 78 45
REMARK SMILES IDX 34 47 66 48 46 49 65 50 47 51 50 52 64 53 83 54 48 55 49 56
REMARK SMILES IDX 63 58 84 59 51 60 35 61 36 62 44 63 37 64 39 65 45 66 38 67
REMARK SMILES IDX 40 68 41 69 42 70 43 71 67 72 68 73 76 74 69 75 71 76 77 77
REMARK SMILES IDX 70 78 72 79 73 80 74 81 75 82 52 83 53 84 61 85 54 86 56 87
REMARK SMILES IDX 62 88 55 89 57 90 58 91 59 92 60 93
REMARK H PARENT 9 18 9 19 82 46 50 57
REMARK Flexibility Score: inf
ROOT
ATOM      1  C   UNL A   1      34.024  32.220  28.457  1.00  0.00     0.188 C 
ENDROOT
BRANCH   1   2
ATOM      2  O   UNL A   1      33.953  31.647  27.163  1.00  0.00    -0.376 OA
BRANCH   2   3
ATOM      3  C   UNL A   1      33.782  30.247  27.013  1.00  0.00     0.202 C 
BRANCH   3   4
ATOM      4  C   UNL A   1      32.952  29.653  25.860  1.00  0.00     0.261 C 
BRANCH   4   5
ATOM      5  O   UNL A   1      33.157  28.268  25.516  1.00  0.00    -0.459 OA
BRANCH   5   6
ATOM      6  C   UNL A   1      32.860  27.950  24.225  1.00  0.00     0.368 C 
ATOM      7  O   UNL A   1      33.278  28.602  23.271  1.00  0.00    -0.245 OA
BRANCH   6   8
ATOM      8  C   UNL A   1      31.880  26.739  24.050  1.00  0.00     0.195 C 
ATOM      9  C   UNL A   1      33.075  24.826  24.975  1.00  0.00     0.053 C 
ATOM     10  C   UNL A   1      31.781  24.939  25.776  1.00  0.00     0.022 C 
ATOM     11  C   UNL A   1      32.688  25.487  23.666  1.00  0.00     0.095 C 
ATOM     12  C   UNL A   1      31.134  26.266  25.325  1.00  0.00     0.082 C 
BRANCH   9  13
ATOM     13  S   UNL A   1      33.585  23.102  24.698  1.00  0.00    -0.158 SA
BRANCH  13  14
ATOM     14  C   UNL A   1      34.729  22.796  26.108  1.00  0.00     0.069 C 
BRANCH  14  15
ATOM     15  C   UNL A   1      35.959  21.918  25.868  1.00  0.00     0.007 C 
ATOM     16  C   UNL A   1      35.669  20.698  24.997  1.00  0.00     0.005 C 
ENDBRANCH  14  15
ENDBRANCH  13  14
ENDBRANCH   9  13
BRANCH   8  17
ATOM     17  N   UNL A   1      30.865  27.056  23.006  1.00  0.00    -0.332 N 
ATOM     18  H   UNL A   1      30.674  26.194  22.493  1.00  0.00     0.347 HD
ATOM     19  H   UNL A   1      31.281  27.806  22.456  1.00  0.00     0.347 HD
BRANCH  17  20
ATOM     20  C   UNL A   1      29.576  27.592  23.462  1.00  0.00     0.257 C 
ATOM     21  C   UNL A   1      28.505  26.588  23.874  1.00  0.00     0.071 C 
ENDBRANCH  17  20
ENDBRANCH   8  17
ENDBRANCH   6   8
ENDBRANCH   5   6
ENDBRANCH   4   5
ENDBRANCH   3   4
ENDBRANCH   2   3
ENDBRANCH   1   2
BRANCH   1  22
ATOM     22  C   UNL A   1      34.017  33.748  28.609  1.00  0.00     0.188 C 
BRANCH  22  23
ATOM     23  O   UNL A   1      33.317  34.235  29.725  1.00  0.00    -0.376 OA
BRANCH  23  24
ATOM     24  C   UNL A   1      33.963  35.107  30.630  1.00  0.00     0.202 C 
BRANCH  24  25
ATOM     25  C   UNL A   1      34.715  34.639  31.893  1.00  0.00     0.261 C 
BRANCH  25  26
ATOM     26  O   UNL A   1      35.912  33.868  31.728  1.00  0.00    -0.460 OA
BRANCH  26  27
ATOM     27  C   UNL A   1      35.799  32.525  31.827  1.00  0.00     0.338 C 
ATOM     28  O   UNL A   1      34.782  31.903  32.118  1.00  0.00    -0.246 OA
BRANCH  27  29
ATOM     29  C   UNL A   1      37.034  31.902  31.297  1.00  0.00     0.060 A 
ATOM     30  C   UNL A   1      37.969  31.403  32.212  1.00  0.00     0.016 A 
ATOM     31  C   UNL A   1      37.284  31.807  29.923  1.00  0.00     0.016 A 
ATOM     32  C   UNL A   1      39.169  30.853  31.756  1.00  0.00     0.010 A 
ATOM     33  C   UNL A   1      38.497  31.269  29.468  1.00  0.00     0.010 A 
ATOM     34  C   UNL A   1      39.460  30.812  30.384  1.00  0.00    -0.014 A 
BRANCH  34  35
ATOM     35  C   UNL A   1      40.854  30.502  29.960  1.00  0.00     0.031 A 
ATOM     36  C   UNL A   1      41.855  31.619  29.961  1.00  0.00     0.074 A 
ATOM     37  C   UNL A   1      41.253  29.265  29.614  1.00  0.00     0.049 A 
ATOM     38  N   UNL A   1      43.140  31.581  29.732  1.00  0.00    -0.248 NA
ATOM     39  C   UNL A   1      41.325  32.965  30.233  1.00  0.00     0.031 C 
ATOM     40  C   UNL A   1      40.378  28.109  29.502  1.00  0.00     0.029 A 
ATOM     41  N   UNL A   1      42.499  28.770  29.311  1.00  0.00    -0.354 N 
ATOM     42  C   UNL A   1      43.568  32.900  29.784  1.00  0.00     0.074 A 
ATOM     43  C   UNL A   1      42.408  33.710  30.088  1.00  0.00     0.031 C 
ATOM     44  C   UNL A   1      41.116  27.019  29.228  1.00  0.00     0.029 A 
ATOM     45  C   UNL A   1      42.517  27.411  29.084  1.00  0.00     0.049 A 
ATOM     46  H   UNL A   1      43.304  29.333  29.260  1.00  0.00     0.167 HD
ATOM     47  C   UNL A   1      44.809  33.399  29.578  1.00  0.00     0.034 A 
ATOM     48  C   UNL A   1      43.541  26.582  28.788  1.00  0.00     0.034 A 
ATOM     49  C   UNL A   1      45.960  32.606  29.247  1.00  0.00     0.049 A 
ATOM     50  C   UNL A   1      44.926  27.155  28.619  1.00  0.00     0.074 A 
ATOM     51  C   UNL A   1      47.259  33.028  29.024  1.00  0.00     0.029 A 
ATOM     52  N   UNL A   1      45.952  31.231  29.064  1.00  0.00    -0.354 N 
ATOM     53  N   UNL A   1      45.335  28.391  28.774  1.00  0.00    -0.248 NA
ATOM     54  C   UNL A   1      45.994  26.218  28.234  1.00  0.00     0.031 C 
ATOM     55  C   UNL A   1      48.029  31.914  28.670  1.00  0.00     0.029 A 
ATOM     56  C   UNL A   1      47.220  30.789  28.723  1.00  0.00     0.049 A 
ATOM     57  H   UNL A   1      45.161  30.654  29.162  1.00  0.00     0.167 HD
ATOM     58  C   UNL A   1      46.703  28.378  28.516  1.00  0.00     0.074 A 
ATOM     59  C   UNL A   1      47.063  27.003  28.240  1.00  0.00     0.031 C 
ATOM     60  C   UNL A   1      47.578  29.415  28.484  1.00  0.00     0.034 A 
BRANCH  47  61
ATOM     61  C   UNL A   1      44.962  34.893  29.668  1.00  0.00     0.023 A 
ATOM     62  C   UNL A   1      45.355  35.491  30.883  1.00  0.00     0.012 A 
ATOM     63  C   UNL A   1      44.704  35.702  28.546  1.00  0.00     0.148 A 
ATOM     64  C   UNL A   1      45.447  36.878  30.990  1.00  0.00     0.002 A 
ATOM     65  C   UNL A   1      44.849  37.080  28.648  1.00  0.00     0.091 A 
ATOM     66  F   UNL A   1      44.300  35.115  27.412  1.00  0.00    -0.205 F 
ATOM     67  C   UNL A   1      45.204  37.670  29.871  1.00  0.00     0.022 A 
BRANCH  65  68
ATOM     68  S   UNL A   1      44.632  38.176  27.243  1.00  0.00     0.127 S 
ATOM     69  O   UNL A   1      43.225  37.958  26.913  1.00  0.00    -0.237 OA
ATOM     70  O   UNL A   1      44.927  39.485  27.829  1.00  0.00    -0.237 OA
ATOM     71  O   UNL A   1      45.587  37.733  26.236  1.00  0.00    -0.744 OA
ENDBRANCH  65  68
ENDBRANCH  47  61
BRANCH  48  72
ATOM     72  C   UNL A   1      43.316  25.111  28.649  1.00  0.00     0.023 A 
ATOM     73  C   UNL A   1      43.378  24.283  29.790  1.00  0.00     0.012 A 
ATOM     74  C   UNL A   1      43.049  24.523  27.398  1.00  0.00     0.148 A 
ATOM     75  C   UNL A   1      43.211  22.900  29.681  1.00  0.00     0.002 A 
ATOM     76  C   UNL A   1      42.811  23.156  27.307  1.00  0.00     0.091 A 
ATOM     77  F   UNL A   1      43.027  25.315  26.317  1.00  0.00    -0.205 F 
ATOM     78  C   UNL A   1      42.914  22.339  28.443  1.00  0.00     0.022 A 
BRANCH  76  79
ATOM     79  S   UNL A   1      42.271  22.377  25.783  1.00  0.00     0.127 S 
ATOM     80  O   UNL A   1      42.573  20.971  26.041  1.00  0.00    -0.237 OA
ATOM     81  O   UNL A   1      40.845  22.708  25.765  1.00  0.00    -0.237 OA
ATOM     82  O   UNL A   1      43.046  23.008  24.725  1.00  0.00    -0.744 OA
ENDBRANCH  76  79
ENDBRANCH  48  72
BRANCH  60  83
ATOM     83  C   UNL A   1      49.021  29.106  28.168  1.00  0.00     0.023 A 
ATOM     84  C   UNL A   1      49.970  29.011  29.207  1.00  0.00     0.012 A 
ATOM     85  C   UNL A   1      49.428  28.858  26.842  1.00  0.00     0.148 A 
ATOM     86  C   UNL A   1      51.306  28.723  28.926  1.00  0.00     0.002 A 
ATOM     87  C   UNL A   1      50.749  28.519  26.575  1.00  0.00     0.091 A 
ATOM     88  F   UNL A   1      48.519  28.970  25.863  1.00  0.00    -0.205 F 
ATOM     89  C   UNL A   1      51.693  28.467  27.613  1.00  0.00     0.022 A 
BRANCH  87  90
ATOM     90  S   UNL A   1      51.310  28.077  24.927  1.00  0.00     0.127 S 
ATOM     91  O   UNL A   1      52.637  27.527  25.202  1.00  0.00    -0.237 OA
ATOM     92  O   UNL A   1      50.314  27.088  24.513  1.00  0.00    -0.237 OA
ATOM     93  O   UNL A   1      51.290  29.311  24.154  1.00  0.00    -0.744 OA
ENDBRANCH  87  90
ENDBRANCH  60  83
ENDBRANCH  34  35
ENDBRANCH  27  29
ENDBRANCH  26  27
ENDBRANCH  25  26
ENDBRANCH  24  25
ENDBRANCH  23  24
ENDBRANCH  22  23
ENDBRANCH   1  22
TORSDOF 25
ENDMDL
MODEL 3
REMARK VINA RESULT:      -7.9      5.332      8.813
REMARK SMILES CCCS[C@@H]1CC[C@@]([NH2+]CC)(C(=O)OCCOCCOCCOC(=O)c2ccc(-c3c4nc(c(-c5cccc(S(=O)(=O)[O-])c5F)c5ccc([nH]5)c(-c5cccc(S(=O)(=O)[O-])c5F)c5nc(c(-c6cccc(S(=O)(=O)[O-])c6F)c6ccc3[nH]6)C=C5)C=C4)cc2)C1
REMARK SMILES IDX 18 1 17 2 16 3 15 4 14 5 12 6 13 7 8 8 5 9 6 10 89 11 7 12
REMARK SMILES IDX 4 13 3 14 2 15 1 16 9 17 10 20 11 21 19 22 20 23 21 24 22 25
REMARK SMILES IDX 23 26 24 27 25 28 26 29 27 30 88 31 28 32 87 33 29 34 30 35
REMARK SMILES IDX 31 36 81 37 32 38 86 39 80 40 82 41 33 42 85 43 79 44 78 45
REMARK SMILES IDX 34 47 66 48 46 49 65 50 47 51 50 52 64 53 83 54 48 55 49 56
REMARK SMILES IDX 63 58 84 59 51 60 35 61 36 62 44 63 37 64 39 65 45 66 38 67
REMARK SMILES IDX 40 68 41 69 42 70 43 71 67 72 68 73 76 74 69 75 71 76 77 77
REMARK SMILES IDX 70 78 72 79 73 80 74 81 75 82 52 83 53 84 61 85 54 86 56 87
REMARK SMILES IDX 62 88 55 89 57 90 58 91 59 92 60 93
REMARK H PARENT 9 18 9 19 82 46 50 57
REMARK Flexibility Score: inf
ROOT
ATOM      1  C   UNL A   1      34.123  32.103  28.385  1.00  0.00     0.188 C 
ENDROOT
BRANCH   1   2
ATOM      2  O   UNL A   1      34.257  31.296  27.227  1.00  0.00    -0.376 OA
BRANCH   2   3
ATOM      3  C   UNL A   1      34.053  29.894  27.309  1.00  0.00     0.202 C 
BRANCH   3   4
ATOM      4  C   UNL A   1      33.372  29.110  26.173  1.00  0.00     0.261 C 
BRANCH   4   5
ATOM      5  O   UNL A   1      33.554  27.680  26.128  1.00  0.00    -0.459 OA
BRANCH   5   6
ATOM      6  C   UNL A   1      33.403  27.124  24.894  1.00  0.00     0.368 C 
ATOM      7  O   UNL A   1      34.016  27.526  23.908  1.00  0.00    -0.245 OA
BRANCH   6   8
ATOM      8  C   UNL A   1      32.328  25.985  24.808  1.00  0.00     0.195 C 
ATOM      9  C   UNL A   1      33.533  23.942  25.372  1.00  0.00     0.053 C 
ATOM     10  C   UNL A   1      32.404  24.059  26.393  1.00  0.00     0.022 C 
ATOM     11  C   UNL A   1      32.973  24.728  24.201  1.00  0.00     0.095 C 
ATOM     12  C   UNL A   1      31.780  25.451  26.157  1.00  0.00     0.082 C 
BRANCH   9  13
ATOM     13  S   UNL A   1      33.871  22.222  24.889  1.00  0.00    -0.158 SA
BRANCH  13  14
ATOM     14  C   UNL A   1      35.321  21.793  25.940  1.00  0.00     0.069 C 
BRANCH  14  15
ATOM     15  C   UNL A   1      36.686  22.377  25.568  1.00  0.00     0.007 C 
ATOM     16  C   UNL A   1      36.854  22.611  24.068  1.00  0.00     0.005 C 
ENDBRANCH  14  15
ENDBRANCH  13  14
ENDBRANCH   9  13
BRANCH   8  17
ATOM     17  N   UNL A   1      31.174  26.440  23.983  1.00  0.00    -0.332 N 
ATOM     18  H   UNL A   1      30.380  25.840  24.210  1.00  0.00     0.347 HD
ATOM     19  H   UNL A   1      31.501  26.381  23.019  1.00  0.00     0.347 HD
BRANCH  17  20
ATOM     20  C   UNL A   1      30.736  27.832  24.148  1.00  0.00     0.257 C 
ATOM     21  C   UNL A   1      29.582  28.313  23.275  1.00  0.00     0.071 C 
ENDBRANCH  17  20
ENDBRANCH   8  17
ENDBRANCH   6   8
ENDBRANCH   5   6
ENDBRANCH   4   5
ENDBRANCH   3   4
ENDBRANCH   2   3
ENDBRANCH   1   2
BRANCH   1  22
ATOM     22  C   UNL A   1      33.905  33.615  28.230  1.00  0.00     0.188 C 
BRANCH  22  23
ATOM     23  O   UNL A   1      32.949  34.173  29.095  1.00  0.00    -0.376 OA
BRANCH  23  24
ATOM     24  C   UNL A   1      33.316  35.237  29.950  1.00  0.00     0.202 C 
BRANCH  24  25
ATOM     25  C   UNL A   1      33.854  35.047  31.384  1.00  0.00     0.261 C 
BRANCH  25  26
ATOM     26  O   UNL A   1      35.152  34.463  31.554  1.00  0.00    -0.460 OA
BRANCH  26  27
ATOM     27  C   UNL A   1      35.204  33.130  31.769  1.00  0.00     0.338 C 
ATOM     28  O   UNL A   1      34.268  32.412  32.107  1.00  0.00    -0.246 OA
BRANCH  27  29
ATOM     29  C   UNL A   1      36.516  32.623  31.303  1.00  0.00     0.060 A 
ATOM     30  C   UNL A   1      37.458  32.240  32.265  1.00  0.00     0.016 A 
ATOM     31  C   UNL A   1      36.830  32.526  29.942  1.00  0.00     0.016 A 
ATOM     32  C   UNL A   1      38.724  31.804  31.869  1.00  0.00     0.010 A 
ATOM     33  C   UNL A   1      38.109  32.102  29.548  1.00  0.00     0.010 A 
ATOM     34  C   UNL A   1      39.074  31.764  30.511  1.00  0.00    -0.014 A 
BRANCH  34  35
ATOM     35  C   UNL A   1      40.508  31.587  30.150  1.00  0.00     0.031 A 
ATOM     36  C   UNL A   1      41.384  32.804  30.128  1.00  0.00     0.074 A 
ATOM     37  C   UNL A   1      41.048  30.385  29.878  1.00  0.00     0.049 A 
ATOM     38  N   UNL A   1      42.674  32.894  29.944  1.00  0.00    -0.248 NA
ATOM     39  C   UNL A   1      40.704  34.096  30.316  1.00  0.00     0.031 C 
ATOM     40  C   UNL A   1      40.306  29.138  29.795  1.00  0.00     0.029 A 
ATOM     41  N   UNL A   1      42.351  30.014  29.641  1.00  0.00    -0.354 N 
ATOM     42  C   UNL A   1      42.957  34.252  29.945  1.00  0.00     0.074 A 
ATOM     43  C   UNL A   1      41.707  34.946  30.170  1.00  0.00     0.031 C 
ATOM     44  C   UNL A   1      41.165  28.123  29.600  1.00  0.00     0.029 A 
ATOM     45  C   UNL A   1      42.522  28.656  29.482  1.00  0.00     0.049 A 
ATOM     46  H   UNL A   1      43.093  30.658  29.589  1.00  0.00     0.167 HD
ATOM     47  C   UNL A   1      44.145  34.873  29.756  1.00  0.00     0.034 A 
ATOM     48  C   UNL A   1      43.638  27.929  29.262  1.00  0.00     0.034 A 
ATOM     49  C   UNL A   1      45.386  34.194  29.502  1.00  0.00     0.049 A 
ATOM     50  C   UNL A   1      44.960  28.640  29.110  1.00  0.00     0.074 A 
ATOM     51  C   UNL A   1      46.640  34.743  29.302  1.00  0.00     0.029 A 
ATOM     52  N   UNL A   1      45.531  32.819  29.387  1.00  0.00    -0.354 N 
ATOM     53  N   UNL A   1      45.230  29.919  29.218  1.00  0.00    -0.248 NA
ATOM     54  C   UNL A   1      46.135  27.807  28.807  1.00  0.00     0.031 C 
ATOM     55  C   UNL A   1      47.536  33.703  29.028  1.00  0.00     0.029 A 
ATOM     56  C   UNL A   1      46.850  32.502  29.110  1.00  0.00     0.049 A 
ATOM     57  H   UNL A   1      44.801  32.166  29.487  1.00  0.00     0.167 HD
ATOM     58  C   UNL A   1      46.600  30.042  29.006  1.00  0.00     0.074 A 
ATOM     59  C   UNL A   1      47.113  28.702  28.810  1.00  0.00     0.031 C 
ATOM     60  C   UNL A   1      47.361  31.164  28.951  1.00  0.00     0.034 A 
BRANCH  47  61
ATOM     61  C   UNL A   1      44.135  36.377  29.777  1.00  0.00     0.023 A 
ATOM     62  C   UNL A   1      44.288  37.067  30.996  1.00  0.00     0.012 A 
ATOM     63  C   UNL A   1      43.963  37.103  28.584  1.00  0.00     0.148 A 
ATOM     64  C   UNL A   1      44.226  38.459  31.033  1.00  0.00     0.002 A 
ATOM     65  C   UNL A   1      43.955  38.491  28.622  1.00  0.00     0.091 A 
ATOM     66  F   UNL A   1      43.786  36.425  27.441  1.00  0.00    -0.205 F 
ATOM     67  C   UNL A   1      44.070  39.170  29.846  1.00  0.00     0.022 A 
BRANCH  65  68
ATOM     68  S   UNL A   1      43.836  39.494  27.138  1.00  0.00     0.127 S 
ATOM     69  O   UNL A   1      43.897  40.846  27.690  1.00  0.00    -0.237 OA
ATOM     70  O   UNL A   1      45.030  39.083  26.396  1.00  0.00    -0.237 OA
ATOM     71  O   UNL A   1      42.575  39.131  26.507  1.00  0.00    -0.744 OA
ENDBRANCH  65  68
ENDBRANCH  47  61
BRANCH  48  72
ATOM     72  C   UNL A   1      43.575  26.438  29.188  1.00  0.00     0.023 A 
ATOM     73  C   UNL A   1      43.978  25.666  30.297  1.00  0.00     0.012 A 
ATOM     74  C   UNL A   1      43.129  25.777  28.028  1.00  0.00     0.148 A 
ATOM     75  C   UNL A   1      43.968  24.270  30.241  1.00  0.00     0.002 A 
ATOM     76  C   UNL A   1      43.052  24.390  28.002  1.00  0.00     0.091 A 
ATOM     77  F   UNL A   1      42.783  26.522  26.968  1.00  0.00    -0.205 F 
ATOM     78  C   UNL A   1      43.492  23.632  29.099  1.00  0.00     0.022 A 
BRANCH  76  79
ATOM     79  S   UNL A   1      42.307  23.496  26.635  1.00  0.00     0.127 S 
ATOM     80  O   UNL A   1      43.135  23.926  25.510  1.00  0.00    -0.237 OA
ATOM     81  O   UNL A   1      42.499  22.104  27.046  1.00  0.00    -0.237 OA
ATOM     82  O   UNL A   1      40.917  23.925  26.599  1.00  0.00    -0.744 OA
ENDBRANCH  76  79
ENDBRANCH  48  72
BRANCH  60  83
ATOM     83  C   UNL A   1      48.840  30.998  28.699  1.00  0.00     0.023 A 
ATOM     84  C   UNL A   1      49.343  31.027  27.382  1.00  0.00     0.012 A 
ATOM     85  C   UNL A   1      49.739  30.865  29.775  1.00  0.00     0.148 A 
ATOM     86  C   UNL A   1      50.709  30.877  27.139  1.00  0.00     0.002 A 
ATOM     87  C   UNL A   1      51.104  30.770  29.530  1.00  0.00     0.091 A 
ATOM     88  F   UNL A   1      49.245  30.821  31.021  1.00  0.00    -0.205 F 
ATOM     89  C   UNL A   1      51.589  30.759  28.212  1.00  0.00     0.022 A 
BRANCH  87  90
ATOM     90  S   UNL A   1      52.315  30.716  30.854  1.00  0.00     0.127 S 
ATOM     91  O   UNL A   1      51.608  29.941  31.873  1.00  0.00    -0.237 OA
ATOM     92  O   UNL A   1      53.435  30.015  30.224  1.00  0.00    -0.237 OA
ATOM     93  O   UNL A   1      52.592  32.104  31.199  1.00  0.00    -0.744 OA
ENDBRANCH  87  90
ENDBRANCH  60  83
ENDBRANCH  34  35
ENDBRANCH  27  29
ENDBRANCH  26  27
ENDBRANCH  25  26
ENDBRANCH  24  25
ENDBRANCH  23  24
ENDBRANCH  22  23
ENDBRANCH   1  22
TORSDOF 25
ENDMDL
