MODEL 1
REMARK VINA RESULT:     -10.3      0.000      0.000
REMARK SMILES N#C[C@H]1CN(C(=O)N2CCNC(=O)[C@@H]2CC(=O)OCCOCCOCCOC(=O)c2ccc(-c3c4nc(c(-c5cccc(S(=O)(=O)[O-])c5F)c5ccc([nH]5)c(-c5cccc(S(=O)(=O)[O-])c5F)c5nc(c(-c6cccc(S(=O)(=O)[O-])c6F)c6ccc3[nH]6)C=C5)C=C4)cc2)CCO1
REMARK SMILES IDX 22 1 21 2 20 3 19 4 18 5 16 6 17 7 15 8 14 9 8 10 9 11 10 12
REMARK SMILES IDX 12 13 11 14 13 15 6 17 7 18 5 19 3 20 4 21 95 22 94 23 93 24
REMARK SMILES IDX 2 25 1 26 23 27 24 28 25 29 26 30 27 31 28 32 29 33 30 34
REMARK SMILES IDX 31 35 92 36 32 37 91 38 33 39 34 40 35 41 85 42 36 43 90 44
REMARK SMILES IDX 84 45 86 46 37 47 89 48 83 49 82 50 38 52 70 53 50 54 69 55
REMARK SMILES IDX 51 56 54 57 68 58 87 59 52 60 53 61 67 63 88 64 55 65 39 66
REMARK SMILES IDX 40 67 48 68 41 69 43 70 49 71 42 72 44 73 45 74 46 75 47 76
REMARK SMILES IDX 71 77 72 78 80 79 73 80 75 81 81 82 74 83 76 84 77 85 78 86
REMARK SMILES IDX 79 87 56 88 57 89 65 90 58 91 60 92 66 93 59 94 61 95 62 96
REMARK SMILES IDX 63 97 64 98
REMARK H PARENT 11 16 86 51 54 62
REMARK Flexibility Score: inf
ROOT
ATOM      1  C   UNL A   1      35.170  19.714  25.113  1.00  0.00     0.188 C 
ENDROOT
BRANCH   1   2
ATOM      2  O   UNL A   1      34.046  19.828  24.256  1.00  0.00    -0.376 OA
BRANCH   2   3
ATOM      3  C   UNL A   1      32.755  19.936  24.842  1.00  0.00     0.202 C 
BRANCH   3   4
ATOM      4  C   UNL A   1      32.163  21.331  25.146  1.00  0.00     0.261 C 
BRANCH   4   5
ATOM      5  O   UNL A   1      32.796  22.439  24.449  1.00  0.00    -0.463 OA
BRANCH   5   6
ATOM      6  C   UNL A   1      32.206  22.858  23.306  1.00  0.00     0.308 C 
ATOM      7  O   UNL A   1      32.046  22.132  22.328  1.00  0.00    -0.252 OA
BRANCH   6   8
ATOM      8  C   UNL A   1      31.531  24.226  23.363  1.00  0.00     0.158 C 
BRANCH   8   9
ATOM      9  C   UNL A   1      32.265  25.552  23.739  1.00  0.00     0.187 C 
ATOM     10  N   UNL A   1      31.393  26.590  24.418  1.00  0.00    -0.310 N 
ATOM     11  C   UNL A   1      30.172  26.938  23.682  1.00  0.00     0.143 C 
ATOM     12  C   UNL A   1      30.582  27.591  22.368  1.00  0.00     0.137 C 
ATOM     13  C   UNL A   1      32.672  26.185  22.388  1.00  0.00     0.243 C 
ATOM     14  N   UNL A   1      31.728  26.948  21.731  1.00  0.00    -0.353 N 
ATOM     15  O   UNL A   1      33.706  25.866  21.803  1.00  0.00    -0.273 OA
ATOM     16  H   UNL A   1      31.833  27.067  20.760  1.00  0.00     0.163 HD
BRANCH  10  17
ATOM     17  C   UNL A   1      31.709  27.432  25.474  1.00  0.00     0.320 C 
ATOM     18  O   UNL A   1      31.225  27.274  26.595  1.00  0.00    -0.248 OA
BRANCH  17  19
ATOM     19  N   UNL A   1      32.596  28.463  25.269  1.00  0.00    -0.319 N 
ATOM     20  C   UNL A   1      32.240  30.373  26.796  1.00  0.00     0.240 C 
ATOM     21  C   UNL A   1      32.120  29.843  25.346  1.00  0.00     0.169 C 
ATOM     22  O   UNL A   1      33.613  30.287  27.243  1.00  0.00    -0.360 OA
ATOM     23  C   UNL A   1      34.056  28.918  27.247  1.00  0.00     0.183 C 
ATOM     24  C   UNL A   1      33.946  28.318  25.838  1.00  0.00     0.150 C 
BRANCH  20  25
ATOM     25  C   UNL A   1      31.770  31.765  26.854  1.00  0.00     0.096 C 
ATOM     26  N   UNL A   1      31.402  32.871  26.864  1.00  0.00    -0.195 NA
ENDBRANCH  20  25
ENDBRANCH  17  19
ENDBRANCH  10  17
ENDBRANCH   8   9
ENDBRANCH   6   8
ENDBRANCH   5   6
ENDBRANCH   4   5
ENDBRANCH   3   4
ENDBRANCH   2   3
ENDBRANCH   1   2
BRANCH   1  27
ATOM     27  C   UNL A   1      36.334  20.701  24.926  1.00  0.00     0.188 C 
BRANCH  27  28
ATOM     28  O   UNL A   1      37.594  20.168  24.608  1.00  0.00    -0.376 OA
BRANCH  28  29
ATOM     29  C   UNL A   1      38.647  20.307  25.538  1.00  0.00     0.202 C 
BRANCH  29  30
ATOM     30  C   UNL A   1      39.638  19.176  25.884  1.00  0.00     0.261 C 
BRANCH  30  31
ATOM     31  O   UNL A   1      41.040  19.458  25.743  1.00  0.00    -0.460 OA
BRANCH  31  32
ATOM     32  C   UNL A   1      41.716  19.821  26.862  1.00  0.00     0.338 C 
ATOM     33  O   UNL A   1      42.320  19.081  27.618  1.00  0.00    -0.246 OA
BRANCH  32  34
ATOM     34  C   UNL A   1      41.674  21.294  27.025  1.00  0.00     0.060 A 
ATOM     35  C   UNL A   1      41.416  22.141  25.935  1.00  0.00     0.016 A 
ATOM     36  C   UNL A   1      42.028  21.840  28.253  1.00  0.00     0.016 A 
ATOM     37  C   UNL A   1      41.538  23.525  26.055  1.00  0.00     0.010 A 
ATOM     38  C   UNL A   1      42.150  23.227  28.376  1.00  0.00     0.010 A 
ATOM     39  C   UNL A   1      41.940  24.074  27.272  1.00  0.00    -0.014 A 
BRANCH  39  40
ATOM     40  C   UNL A   1      42.278  25.513  27.380  1.00  0.00     0.031 A 
ATOM     41  C   UNL A   1      43.617  25.978  26.881  1.00  0.00     0.074 A 
ATOM     42  C   UNL A   1      41.432  26.378  27.965  1.00  0.00     0.049 A 
ATOM     43  N   UNL A   1      44.216  27.125  27.060  1.00  0.00    -0.248 NA
ATOM     44  C   UNL A   1      44.392  25.010  26.084  1.00  0.00     0.031 C 
ATOM     45  C   UNL A   1      40.090  26.057  28.448  1.00  0.00     0.029 A 
ATOM     46  N   UNL A   1      41.602  27.700  28.296  1.00  0.00    -0.354 N 
ATOM     47  C   UNL A   1      45.462  26.997  26.458  1.00  0.00     0.074 A 
ATOM     48  C   UNL A   1      45.530  25.662  25.904  1.00  0.00     0.031 C 
ATOM     49  C   UNL A   1      39.575  27.137  29.057  1.00  0.00     0.029 A 
ATOM     50  C   UNL A   1      40.571  28.205  29.054  1.00  0.00     0.049 A 
ATOM     51  H   UNL A   1      42.382  28.232  28.020  1.00  0.00     0.167 HD
ATOM     52  C   UNL A   1      46.459  27.909  26.381  1.00  0.00     0.034 A 
ATOM     53  C   UNL A   1      40.467  29.373  29.718  1.00  0.00     0.034 A 
ATOM     54  C   UNL A   1      46.372  29.238  26.926  1.00  0.00     0.049 A 
ATOM     55  C   UNL A   1      41.609  30.354  29.658  1.00  0.00     0.074 A 
ATOM     56  C   UNL A   1      47.307  30.255  26.866  1.00  0.00     0.029 A 
ATOM     57  N   UNL A   1      45.295  29.727  27.649  1.00  0.00    -0.354 N 
ATOM     58  N   UNL A   1      42.756  30.251  29.032  1.00  0.00    -0.248 NA
ATOM     59  C   UNL A   1      41.431  31.625  30.375  1.00  0.00     0.031 C 
ATOM     60  C   UNL A   1      46.818  31.342  27.595  1.00  0.00     0.029 A 
ATOM     61  C   UNL A   1      45.548  31.027  28.053  1.00  0.00     0.049 A 
ATOM     62  H   UNL A   1      44.471  29.225  27.845  1.00  0.00     0.167 HD
ATOM     63  C   UNL A   1      43.414  31.459  29.238  1.00  0.00     0.074 A 
ATOM     64  C   UNL A   1      42.531  32.282  30.038  1.00  0.00     0.031 C 
ATOM     65  C   UNL A   1      44.639  31.851  28.807  1.00  0.00     0.034 A 
BRANCH  52  66
ATOM     66  C   UNL A   1      47.736  27.500  25.694  1.00  0.00     0.023 A 
ATOM     67  C   UNL A   1      48.784  26.915  26.433  1.00  0.00     0.012 A 
ATOM     68  C   UNL A   1      47.876  27.652  24.299  1.00  0.00     0.148 A 
ATOM     69  C   UNL A   1      49.967  26.526  25.803  1.00  0.00     0.002 A 
ATOM     70  C   UNL A   1      49.035  27.213  23.671  1.00  0.00     0.091 A 
ATOM     71  F   UNL A   1      46.877  28.227  23.615  1.00  0.00    -0.205 F 
ATOM     72  C   UNL A   1      50.087  26.664  24.422  1.00  0.00     0.022 A 
BRANCH  70  73
ATOM     73  S   UNL A   1      49.253  27.269  21.889  1.00  0.00     0.127 S 
ATOM     74  O   UNL A   1      49.001  28.681  21.606  1.00  0.00    -0.237 OA
ATOM     75  O   UNL A   1      50.650  26.857  21.741  1.00  0.00    -0.237 OA
ATOM     76  O   UNL A   1      48.281  26.339  21.333  1.00  0.00    -0.744 OA
ENDBRANCH  70  73
ENDBRANCH  52  66
BRANCH  53  77
ATOM     77  C   UNL A   1      39.238  29.686  30.500  1.00  0.00     0.023 A 
ATOM     78  C   UNL A   1      39.010  29.033  31.727  1.00  0.00     0.012 A 
ATOM     79  C   UNL A   1      38.295  30.624  30.036  1.00  0.00     0.148 A 
ATOM     80  C   UNL A   1      37.848  29.278  32.459  1.00  0.00     0.002 A 
ATOM     81  C   UNL A   1      37.168  30.907  30.798  1.00  0.00     0.091 A 
ATOM     82  F   UNL A   1      38.525  31.229  28.862  1.00  0.00    -0.205 F 
ATOM     83  C   UNL A   1      36.932  30.221  32.000  1.00  0.00     0.022 A 
BRANCH  81  84
ATOM     84  S   UNL A   1      35.994  32.190  30.350  1.00  0.00     0.127 S 
ATOM     85  O   UNL A   1      34.960  32.017  31.368  1.00  0.00    -0.237 OA
ATOM     86  O   UNL A   1      36.806  33.398  30.494  1.00  0.00    -0.237 OA
ATOM     87  O   UNL A   1      35.586  31.893  28.984  1.00  0.00    -0.744 OA
ENDBRANCH  81  84
ENDBRANCH  53  77
BRANCH  65  88
ATOM     88  C   UNL A   1      45.073  33.261  29.119  1.00  0.00     0.023 A 
ATOM     89  C   UNL A   1      45.791  33.548  30.296  1.00  0.00     0.012 A 
ATOM     90  C   UNL A   1      44.819  34.296  28.195  1.00  0.00     0.148 A 
ATOM     91  C   UNL A   1      46.213  34.850  30.568  1.00  0.00     0.002 A 
ATOM     92  C   UNL A   1      45.294  35.577  28.444  1.00  0.00     0.091 A 
ATOM     93  F   UNL A   1      44.120  34.006  27.088  1.00  0.00    -0.205 F 
ATOM     94  C   UNL A   1      45.976  35.860  29.638  1.00  0.00     0.022 A 
BRANCH  92  95
ATOM     95  S   UNL A   1      45.123  36.916  27.260  1.00  0.00     0.127 S 
ATOM     96  O   UNL A   1      45.734  38.031  27.981  1.00  0.00    -0.237 OA
ATOM     97  O   UNL A   1      45.902  36.421  26.125  1.00  0.00    -0.237 OA
ATOM     98  O   UNL A   1      43.695  37.051  27.003  1.00  0.00    -0.744 OA
ENDBRANCH  92  95
ENDBRANCH  65  88
ENDBRANCH  39  40
ENDBRANCH  32  34
ENDBRANCH  31  32
ENDBRANCH  30  31
ENDBRANCH  29  30
ENDBRANCH  28  29
ENDBRANCH  27  28
ENDBRANCH   1  27
TORSDOF 24
ENDMDL
MODEL 2
REMARK VINA RESULT:      -9.2      4.605      9.691
REMARK SMILES N#C[C@H]1CN(C(=O)N2CCNC(=O)[C@@H]2CC(=O)OCCOCCOCCOC(=O)c2ccc(-c3c4nc(c(-c5cccc(S(=O)(=O)[O-])c5F)c5ccc([nH]5)c(-c5cccc(S(=O)(=O)[O-])c5F)c5nc(c(-c6cccc(S(=O)(=O)[O-])c6F)c6ccc3[nH]6)C=C5)C=C4)cc2)CCO1
REMARK SMILES IDX 22 1 21 2 20 3 19 4 18 5 16 6 17 7 15 8 14 9 8 10 9 11 10 12
REMARK SMILES IDX 12 13 11 14 13 15 6 17 7 18 5 19 3 20 4 21 95 22 94 23 93 24
REMARK SMILES IDX 2 25 1 26 23 27 24 28 25 29 26 30 27 31 28 32 29 33 30 34
REMARK SMILES IDX 31 35 92 36 32 37 91 38 33 39 34 40 35 41 85 42 36 43 90 44
REMARK SMILES IDX 84 45 86 46 37 47 89 48 83 49 82 50 38 52 70 53 50 54 69 55
REMARK SMILES IDX 51 56 54 57 68 58 87 59 52 60 53 61 67 63 88 64 55 65 39 66
REMARK SMILES IDX 40 67 48 68 41 69 43 70 49 71 42 72 44 73 45 74 46 75 47 76
REMARK SMILES IDX 71 77 72 78 80 79 73 80 75 81 81 82 74 83 76 84 77 85 78 86
REMARK SMILES IDX 79 87 56 88 57 89 65 90 58 91 60 92 66 93 59 94 61 95 62 96
REMARK SMILES IDX 63 97 64 98
REMARK H PARENT 11 16 86 51 54 62
REMARK Flexibility Score: inf
ROOT
ATOM      1  C   UNL A   1      35.175  24.501  24.115  1.00  0.00     0.188 C 
ENDROOT
BRANCH   1   2
ATOM      2  O   UNL A   1      34.700  24.735  22.799  1.00  0.00    -0.376 OA
BRANCH   2   3
ATOM      3  C   UNL A   1      33.687  23.882  22.282  1.00  0.00     0.202 C 
BRANCH   3   4
ATOM      4  C   UNL A   1      32.351  24.484  21.791  1.00  0.00     0.261 C 
BRANCH   4   5
ATOM      5  O   UNL A   1      31.995  25.766  22.377  1.00  0.00    -0.463 OA
BRANCH   5   6
ATOM      6  C   UNL A   1      31.007  25.760  23.301  1.00  0.00     0.308 C 
ATOM      7  O   UNL A   1      30.154  26.640  23.378  1.00  0.00    -0.252 OA
BRANCH   6   8
ATOM      8  C   UNL A   1      30.857  24.476  24.114  1.00  0.00     0.158 C 
BRANCH   8   9
ATOM      9  C   UNL A   1      31.576  24.210  25.474  1.00  0.00     0.187 C 
ATOM     10  N   UNL A   1      31.677  22.748  25.864  1.00  0.00    -0.310 N 
ATOM     11  C   UNL A   1      30.398  22.029  25.875  1.00  0.00     0.143 C 
ATOM     12  C   UNL A   1      29.519  22.646  26.955  1.00  0.00     0.137 C 
ATOM     13  C   UNL A   1      30.663  24.852  26.545  1.00  0.00     0.243 C 
ATOM     14  N   UNL A   1      29.602  24.102  27.011  1.00  0.00    -0.353 N 
ATOM     15  O   UNL A   1      30.731  26.047  26.828  1.00  0.00    -0.273 OA
ATOM     16  H   UNL A   1      28.844  24.585  27.411  1.00  0.00     0.163 HD
BRANCH  10  17
ATOM     17  C   UNL A   1      32.739  22.080  26.455  1.00  0.00     0.320 C 
ATOM     18  O   UNL A   1      32.989  22.197  27.656  1.00  0.00    -0.248 OA
BRANCH  17  19
ATOM     19  N   UNL A   1      33.526  21.254  25.687  1.00  0.00    -0.319 N 
ATOM     20  C   UNL A   1      32.508  19.040  25.279  1.00  0.00     0.240 C 
ATOM     21  C   UNL A   1      33.611  19.833  26.020  1.00  0.00     0.169 C 
ATOM     22  O   UNL A   1      32.633  19.232  23.850  1.00  0.00    -0.360 OA
ATOM     23  C   UNL A   1      32.466  20.621  23.513  1.00  0.00     0.183 C 
ATOM     24  C   UNL A   1      33.520  21.475  24.231  1.00  0.00     0.150 C 
BRANCH  20  25
ATOM     25  C   UNL A   1      32.616  17.612  25.613  1.00  0.00     0.096 C 
ATOM     26  N   UNL A   1      32.696  16.473  25.843  1.00  0.00    -0.195 NA
ENDBRANCH  20  25
ENDBRANCH  17  19
ENDBRANCH  10  17
ENDBRANCH   8   9
ENDBRANCH   6   8
ENDBRANCH   5   6
ENDBRANCH   4   5
ENDBRANCH   3   4
ENDBRANCH   2   3
ENDBRANCH   1   2
BRANCH   1  27
ATOM     27  C   UNL A   1      34.537  25.288  25.272  1.00  0.00     0.188 C 
BRANCH  27  28
ATOM     28  O   UNL A   1      34.029  26.567  24.987  1.00  0.00    -0.376 OA
BRANCH  28  29
ATOM     29  C   UNL A   1      33.674  27.413  26.061  1.00  0.00     0.202 C 
BRANCH  29  30
ATOM     30  C   UNL A   1      34.054  28.906  26.136  1.00  0.00     0.261 C 
BRANCH  30  31
ATOM     31  O   UNL A   1      33.957  29.550  27.417  1.00  0.00    -0.460 OA
BRANCH  31  32
ATOM     32  C   UNL A   1      34.694  30.674  27.604  1.00  0.00     0.338 C 
ATOM     33  O   UNL A   1      34.368  31.812  27.315  1.00  0.00    -0.246 OA
BRANCH  32  34
ATOM     34  C   UNL A   1      35.968  30.339  28.281  1.00  0.00     0.060 A 
ATOM     35  C   UNL A   1      37.202  30.483  27.627  1.00  0.00     0.016 A 
ATOM     36  C   UNL A   1      35.921  29.747  29.538  1.00  0.00     0.016 A 
ATOM     37  C   UNL A   1      38.382  30.016  28.204  1.00  0.00     0.010 A 
ATOM     38  C   UNL A   1      37.103  29.279  30.119  1.00  0.00     0.010 A 
ATOM     39  C   UNL A   1      38.333  29.379  29.442  1.00  0.00    -0.014 A 
BRANCH  39  40
ATOM     40  C   UNL A   1      39.526  28.691  29.989  1.00  0.00     0.031 A 
ATOM     41  C   UNL A   1      40.193  29.263  31.208  1.00  0.00     0.074 A 
ATOM     42  C   UNL A   1      40.039  27.609  29.377  1.00  0.00     0.049 A 
ATOM     43  N   UNL A   1      41.353  28.971  31.733  1.00  0.00    -0.248 NA
ATOM     44  C   UNL A   1      39.457  30.322  31.922  1.00  0.00     0.031 C 
ATOM     45  C   UNL A   1      39.459  26.936  28.216  1.00  0.00     0.029 A 
ATOM     46  N   UNL A   1      41.200  26.917  29.623  1.00  0.00    -0.354 N 
ATOM     47  C   UNL A   1      41.518  29.850  32.796  1.00  0.00     0.074 A 
ATOM     48  C   UNL A   1      40.335  30.683  32.844  1.00  0.00     0.031 C 
ATOM     49  C   UNL A   1      40.288  25.957  27.820  1.00  0.00     0.029 A 
ATOM     50  C   UNL A   1      41.480  25.972  28.664  1.00  0.00     0.049 A 
ATOM     51  H   UNL A   1      41.773  27.080  30.406  1.00  0.00     0.167 HD
ATOM     52  C   UNL A   1      42.562  29.955  33.650  1.00  0.00     0.034 A 
ATOM     53  C   UNL A   1      42.595  25.244  28.455  1.00  0.00     0.034 A 
ATOM     54  C   UNL A   1      43.726  29.111  33.598  1.00  0.00     0.049 A 
ATOM     55  C   UNL A   1      43.765  25.412  29.390  1.00  0.00     0.074 A 
ATOM     56  C   UNL A   1      44.822  29.105  34.441  1.00  0.00     0.029 A 
ATOM     57  N   UNL A   1      43.954  28.136  32.639  1.00  0.00    -0.354 N 
ATOM     58  N   UNL A   1      43.885  26.199  30.431  1.00  0.00    -0.248 NA
ATOM     59  C   UNL A   1      44.943  24.571  29.135  1.00  0.00     0.031 C 
ATOM     60  C   UNL A   1      45.736  28.162  33.962  1.00  0.00     0.029 A 
ATOM     61  C   UNL A   1      45.180  27.533  32.860  1.00  0.00     0.049 A 
ATOM     62  H   UNL A   1      43.335  27.907  31.908  1.00  0.00     0.167 HD
ATOM     63  C   UNL A   1      45.129  25.913  30.984  1.00  0.00     0.074 A 
ATOM     64  C   UNL A   1      45.718  24.872  30.167  1.00  0.00     0.031 C 
ATOM     65  C   UNL A   1      45.731  26.464  32.067  1.00  0.00     0.034 A 
BRANCH  52  66
ATOM     66  C   UNL A   1      42.503  31.028  34.706  1.00  0.00     0.023 A 
ATOM     67  C   UNL A   1      42.022  30.728  35.997  1.00  0.00     0.012 A 
ATOM     68  C   UNL A   1      42.974  32.328  34.431  1.00  0.00     0.148 A 
ATOM     69  C   UNL A   1      41.972  31.713  36.983  1.00  0.00     0.002 A 
ATOM     70  C   UNL A   1      42.970  33.289  35.434  1.00  0.00     0.091 A 
ATOM     71  F   UNL A   1      43.410  32.601  33.193  1.00  0.00    -0.205 F 
ATOM     72  C   UNL A   1      42.457  32.989  36.705  1.00  0.00     0.022 A 
BRANCH  70  73
ATOM     73  S   UNL A   1      43.649  34.936  35.201  1.00  0.00     0.127 S 
ATOM     74  O   UNL A   1      43.344  35.565  36.486  1.00  0.00    -0.237 OA
ATOM     75  O   UNL A   1      45.068  34.652  34.984  1.00  0.00    -0.237 OA
ATOM     76  O   UNL A   1      42.957  35.501  34.052  1.00  0.00    -0.744 OA
ENDBRANCH  70  73
ENDBRANCH  52  66
BRANCH  53  77
ATOM     77  C   UNL A   1      42.664  24.286  27.316  1.00  0.00     0.023 A 
ATOM     78  C   UNL A   1      43.265  24.689  26.107  1.00  0.00     0.012 A 
ATOM     79  C   UNL A   1      42.140  22.983  27.422  1.00  0.00     0.148 A 
ATOM     80  C   UNL A   1      43.308  23.825  25.012  1.00  0.00     0.002 A 
ATOM     81  C   UNL A   1      42.238  22.108  26.346  1.00  0.00     0.091 A 
ATOM     82  F   UNL A   1      41.565  22.622  28.578  1.00  0.00    -0.205 F 
ATOM     83  C   UNL A   1      42.804  22.534  25.134  1.00  0.00     0.022 A 
BRANCH  81  84
ATOM     84  S   UNL A   1      41.727  20.390  26.447  1.00  0.00     0.127 S 
ATOM     85  O   UNL A   1      40.285  20.495  26.235  1.00  0.00    -0.237 OA
ATOM     86  O   UNL A   1      42.472  19.793  25.340  1.00  0.00    -0.237 OA
ATOM     87  O   UNL A   1      42.135  19.933  27.768  1.00  0.00    -0.744 OA
ENDBRANCH  81  84
ENDBRANCH  53  77
BRANCH  65  88
ATOM     88  C   UNL A   1      47.066  25.901  32.489  1.00  0.00     0.023 A 
ATOM     89  C   UNL A   1      47.151  24.964  33.536  1.00  0.00     0.012 A 
ATOM     90  C   UNL A   1      48.234  26.262  31.787  1.00  0.00     0.148 A 
ATOM     91  C   UNL A   1      48.385  24.426  33.906  1.00  0.00     0.002 A 
ATOM     92  C   UNL A   1      49.449  25.678  32.122  1.00  0.00     0.091 A 
ATOM     93  F   UNL A   1      48.135  27.167  30.803  1.00  0.00    -0.205 F 
ATOM     94  C   UNL A   1      49.530  24.773  33.192  1.00  0.00     0.022 A 
BRANCH  92  95
ATOM     95  S   UNL A   1      50.955  25.988  31.195  1.00  0.00     0.127 S 
ATOM     96  O   UNL A   1      51.857  24.979  31.747  1.00  0.00    -0.237 OA
ATOM     97  O   UNL A   1      50.526  25.738  29.819  1.00  0.00    -0.237 OA
ATOM     98  O   UNL A   1      51.326  27.370  31.473  1.00  0.00    -0.744 OA
ENDBRANCH  92  95
ENDBRANCH  65  88
ENDBRANCH  39  40
ENDBRANCH  32  34
ENDBRANCH  31  32
ENDBRANCH  30  31
ENDBRANCH  29  30
ENDBRANCH  28  29
ENDBRANCH  27  28
ENDBRANCH   1  27
TORSDOF 24
ENDMDL
MODEL 3
REMARK VINA RESULT:      -8.9      7.779     15.589
REMARK SMILES N#C[C@H]1CN(C(=O)N2CCNC(=O)[C@@H]2CC(=O)OCCOCCOCCOC(=O)c2ccc(-c3c4nc(c(-c5cccc(S(=O)(=O)[O-])c5F)c5ccc([nH]5)c(-c5cccc(S(=O)(=O)[O-])c5F)c5nc(c(-c6cccc(S(=O)(=O)[O-])c6F)c6ccc3[nH]6)C=C5)C=C4)cc2)CCO1
REMARK SMILES IDX 22 1 21 2 20 3 19 4 18 5 16 6 17 7 15 8 14 9 8 10 9 11 10 12
REMARK SMILES IDX 12 13 11 14 13 15 6 17 7 18 5 19 3 20 4 21 95 22 94 23 93 24
REMARK SMILES IDX 2 25 1 26 23 27 24 28 25 29 26 30 27 31 28 32 29 33 30 34
REMARK SMILES IDX 31 35 92 36 32 37 91 38 33 39 34 40 35 41 85 42 36 43 90 44
REMARK SMILES IDX 84 45 86 46 37 47 89 48 83 49 82 50 38 52 70 53 50 54 69 55
REMARK SMILES IDX 51 56 54 57 68 58 87 59 52 60 53 61 67 63 88 64 55 65 39 66
REMARK SMILES IDX 40 67 48 68 41 69 43 70 49 71 42 72 44 73 45 74 46 75 47 76
REMARK SMILES IDX 71 77 72 78 80 79 73 80 75 81 81 82 74 83 76 84 77 85 78 86
REMARK SMILES IDX 79 87 56 88 57 89 65 90 58 91 60 92 66 93 59 94 61 95 62 96
REMARK SMILES IDX 63 97 64 98
REMARK H PARENT 11 16 86 51 54 62
REMARK Flexibility Score: inf
ROOT
ATOM      1  C   UNL A   1      47.890  23.672  34.229  1.00  0.00     0.188 C 
ENDROOT
BRANCH   1   2
ATOM      2  O   UNL A   1      46.897  23.003  34.988  1.00  0.00    -0.376 OA
BRANCH   2   3
ATOM      3  C   UNL A   1      46.321  21.817  34.456  1.00  0.00     0.202 C 
BRANCH   3   4
ATOM      4  C   UNL A   1      46.290  20.528  35.309  1.00  0.00     0.261 C 
BRANCH   4   5
ATOM      5  O   UNL A   1      46.042  20.728  36.728  1.00  0.00    -0.463 OA
BRANCH   5   6
ATOM      6  C   UNL A   1      46.271  19.672  37.541  1.00  0.00     0.308 C 
ATOM      7  O   UNL A   1      45.439  18.793  37.752  1.00  0.00    -0.252 OA
BRANCH   6   8
ATOM      8  C   UNL A   1      47.711  19.492  38.018  1.00  0.00     0.158 C 
BRANCH   8   9
ATOM      9  C   UNL A   1      48.946  20.184  37.358  1.00  0.00     0.187 C 
ATOM     10  N   UNL A   1      50.258  19.446  37.536  1.00  0.00    -0.310 N 
ATOM     11  C   UNL A   1      50.600  19.134  38.929  1.00  0.00     0.143 C 
ATOM     12  C   UNL A   1      50.803  20.448  39.671  1.00  0.00     0.137 C 
ATOM     13  C   UNL A   1      49.122  21.514  38.129  1.00  0.00     0.243 C 
ATOM     14  N   UNL A   1      49.832  21.476  39.312  1.00  0.00    -0.353 N 
ATOM     15  O   UNL A   1      48.490  22.527  37.834  1.00  0.00    -0.273 OA
ATOM     16  H   UNL A   1      49.671  22.196  39.963  1.00  0.00     0.163 HD
BRANCH  10  17
ATOM     17  C   UNL A   1      51.283  19.266  36.620  1.00  0.00     0.320 C 
ATOM     18  O   UNL A   1      51.974  18.246  36.613  1.00  0.00    -0.248 OA
BRANCH  17  19
ATOM     19  N   UNL A   1      51.529  20.244  35.686  1.00  0.00    -0.319 N 
ATOM     20  C   UNL A   1      53.930  20.771  35.432  1.00  0.00     0.240 C 
ATOM     21  C   UNL A   1      52.554  21.251  35.955  1.00  0.00     0.169 C 
ATOM     22  O   UNL A   1      53.853  20.496  34.014  1.00  0.00    -0.360 OA
ATOM     23  C   UNL A   1      52.903  19.445  33.756  1.00  0.00     0.183 C 
ATOM     24  C   UNL A   1      51.512  19.846  34.268  1.00  0.00     0.150 C 
BRANCH  20  25
ATOM     25  C   UNL A   1      54.946  21.799  35.699  1.00  0.00     0.096 C 
ATOM     26  N   UNL A   1      55.730  22.629  35.935  1.00  0.00    -0.195 NA
ENDBRANCH  20  25
ENDBRANCH  17  19
ENDBRANCH  10  17
ENDBRANCH   8   9
ENDBRANCH   6   8
ENDBRANCH   5   6
ENDBRANCH   4   5
ENDBRANCH   3   4
ENDBRANCH   2   3
ENDBRANCH   1   2
BRANCH   1  27
ATOM     27  C   UNL A   1      48.908  24.553  34.971  1.00  0.00     0.188 C 
BRANCH  27  28
ATOM     28  O   UNL A   1      49.151  25.839  34.459  1.00  0.00    -0.376 OA
BRANCH  28  29
ATOM     29  C   UNL A   1      49.930  26.738  35.220  1.00  0.00     0.202 C 
BRANCH  29  30
ATOM     30  C   UNL A   1      49.580  27.166  36.661  1.00  0.00     0.261 C 
BRANCH  30  31
ATOM     31  O   UNL A   1      48.436  28.018  36.838  1.00  0.00    -0.460 OA
BRANCH  31  32
ATOM     32  C   UNL A   1      47.235  27.415  37.014  1.00  0.00     0.338 C 
ATOM     33  O   UNL A   1      46.897  26.731  37.964  1.00  0.00    -0.246 OA
BRANCH  32  34
ATOM     34  C   UNL A   1      46.329  27.750  35.890  1.00  0.00     0.060 A 
ATOM     35  C   UNL A   1      46.512  28.916  35.129  1.00  0.00     0.016 A 
ATOM     36  C   UNL A   1      45.204  26.961  35.680  1.00  0.00     0.016 A 
ATOM     37  C   UNL A   1      45.569  29.313  34.182  1.00  0.00     0.010 A 
ATOM     38  C   UNL A   1      44.257  27.356  34.730  1.00  0.00     0.010 A 
ATOM     39  C   UNL A   1      44.416  28.550  34.002  1.00  0.00    -0.014 A 
BRANCH  39  40
ATOM     40  C   UNL A   1      43.302  29.046  33.160  1.00  0.00     0.031 A 
ATOM     41  C   UNL A   1      42.230  29.882  33.802  1.00  0.00     0.074 A 
ATOM     42  C   UNL A   1      43.216  28.709  31.861  1.00  0.00     0.049 A 
ATOM     43  N   UNL A   1      41.067  30.242  33.331  1.00  0.00    -0.248 NA
ATOM     44  C   UNL A   1      42.504  30.363  35.168  1.00  0.00     0.031 C 
ATOM     45  C   UNL A   1      44.213  27.942  31.116  1.00  0.00     0.029 A 
ATOM     46  N   UNL A   1      42.212  28.931  30.951  1.00  0.00    -0.354 N 
ATOM     47  C   UNL A   1      40.441  30.933  34.361  1.00  0.00     0.074 A 
ATOM     48  C   UNL A   1      41.358  30.946  35.481  1.00  0.00     0.031 C 
ATOM     49  C   UNL A   1      43.752  27.716  29.875  1.00  0.00     0.029 A 
ATOM     50  C   UNL A   1      42.407  28.273  29.759  1.00  0.00     0.049 A 
ATOM     51  H   UNL A   1      41.433  29.504  31.132  1.00  0.00     0.167 HD
ATOM     52  C   UNL A   1      39.212  31.500  34.372  1.00  0.00     0.034 A 
ATOM     53  C   UNL A   1      41.573  28.091  28.716  1.00  0.00     0.034 A 
ATOM     54  C   UNL A   1      38.316  31.490  33.246  1.00  0.00     0.049 A 
ATOM     55  C   UNL A   1      40.191  28.690  28.770  1.00  0.00     0.074 A 
ATOM     56  C   UNL A   1      37.066  32.072  33.137  1.00  0.00     0.029 A 
ATOM     57  N   UNL A   1      38.567  30.851  32.042  1.00  0.00    -0.354 N 
ATOM     58  N   UNL A   1      39.633  29.398  29.722  1.00  0.00    -0.248 NA
ATOM     59  C   UNL A   1      39.334  28.487  27.593  1.00  0.00     0.031 C 
ATOM     60  C   UNL A   1      36.538  31.741  31.885  1.00  0.00     0.029 A 
ATOM     61  C   UNL A   1      37.488  31.010  31.189  1.00  0.00     0.049 A 
ATOM     62  H   UNL A   1      39.390  30.357  31.825  1.00  0.00     0.167 HD
ATOM     63  C   UNL A   1      38.381  29.766  29.239  1.00  0.00     0.074 A 
ATOM     64  C   UNL A   1      38.270  29.212  27.907  1.00  0.00     0.031 C 
ATOM     65  C   UNL A   1      37.411  30.494  29.846  1.00  0.00     0.034 A 
BRANCH  52  66
ATOM     66  C   UNL A   1      38.756  32.168  35.643  1.00  0.00     0.023 A 
ATOM     67  C   UNL A   1      38.905  33.560  35.807  1.00  0.00     0.012 A 
ATOM     68  C   UNL A   1      38.132  31.417  36.660  1.00  0.00     0.148 A 
ATOM     69  C   UNL A   1      38.478  34.188  36.977  1.00  0.00     0.002 A 
ATOM     70  C   UNL A   1      37.662  32.058  37.800  1.00  0.00     0.091 A 
ATOM     71  F   UNL A   1      38.016  30.092  36.496  1.00  0.00    -0.205 F 
ATOM     72  C   UNL A   1      37.846  33.439  37.967  1.00  0.00     0.022 A 
BRANCH  70  73
ATOM     73  S   UNL A   1      36.761  31.197  39.093  1.00  0.00     0.127 S 
ATOM     74  O   UNL A   1      37.741  31.188  40.179  1.00  0.00    -0.237 OA
ATOM     75  O   UNL A   1      35.618  32.085  39.311  1.00  0.00    -0.237 OA
ATOM     76  O   UNL A   1      36.423  29.889  38.551  1.00  0.00    -0.744 OA
ENDBRANCH  70  73
ENDBRANCH  52  66
BRANCH  53  77
ATOM     77  C   UNL A   1      42.015  27.308  27.528  1.00  0.00     0.023 A 
ATOM     78  C   UNL A   1      42.591  27.979  26.431  1.00  0.00     0.012 A 
ATOM     79  C   UNL A   1      41.870  25.908  27.478  1.00  0.00     0.148 A 
ATOM     80  C   UNL A   1      42.977  27.274  25.290  1.00  0.00     0.002 A 
ATOM     81  C   UNL A   1      42.311  25.205  26.363  1.00  0.00     0.091 A 
ATOM     82  F   UNL A   1      41.313  25.290  28.530  1.00  0.00    -0.205 F 
ATOM     83  C   UNL A   1      42.846  25.888  25.260  1.00  0.00     0.022 A 
BRANCH  81  84
ATOM     84  S   UNL A   1      42.295  23.412  26.281  1.00  0.00     0.127 S 
ATOM     85  O   UNL A   1      43.090  23.052  27.452  1.00  0.00    -0.237 OA
ATOM     86  O   UNL A   1      40.866  23.123  26.393  1.00  0.00    -0.237 OA
ATOM     87  O   UNL A   1      42.883  23.070  24.993  1.00  0.00    -0.744 OA
ENDBRANCH  81  84
ENDBRANCH  53  77
BRANCH  65  88
ATOM     88  C   UNL A   1      36.169  30.808  29.050  1.00  0.00     0.023 A 
ATOM     89  C   UNL A   1      35.416  29.776  28.458  1.00  0.00     0.012 A 
ATOM     90  C   UNL A   1      35.716  32.139  28.949  1.00  0.00     0.148 A 
ATOM     91  C   UNL A   1      34.253  30.068  27.744  1.00  0.00     0.002 A 
ATOM     92  C   UNL A   1      34.527  32.416  28.287  1.00  0.00     0.091 A 
ATOM     93  F   UNL A   1      36.455  33.110  29.506  1.00  0.00    -0.205 F 
ATOM     94  C   UNL A   1      33.803  31.384  27.669  1.00  0.00     0.022 A 
BRANCH  92  95
ATOM     95  S   UNL A   1      33.818  34.065  28.228  1.00  0.00     0.127 S 
ATOM     96  O   UNL A   1      34.752  34.758  27.342  1.00  0.00    -0.237 OA
ATOM     97  O   UNL A   1      32.500  33.812  27.648  1.00  0.00    -0.237 OA
ATOM     98  O   UNL A   1      33.795  34.546  29.603  1.00  0.00    -0.744 OA
ENDBRANCH  92  95
ENDBRANCH  65  88
ENDBRANCH  39  40
ENDBRANCH  32  34
ENDBRANCH  31  32
ENDBRANCH  30  31
ENDBRANCH  29  30
ENDBRANCH  28  29
ENDBRANCH  27  28
ENDBRANCH   1  27
TORSDOF 24
ENDMDL
