MODEL 1
REMARK VINA RESULT:      -9.1      0.000      0.000
REMARK SMILES CCNC(=O)C[NH2+][C@@H](C)[C@@H](C)C(=O)OCCOCCOCCOC(=O)c1ccc(-c2c3nc(c(-c4cccc(S(=O)(=O)[O-])c4F)c4ccc([nH]4)c(-c4cccc(S(=O)(=O)[O-])c4F)c4nc(c(-c5cccc(S(=O)(=O)[O-])c5F)c5ccc2[nH]5)C=C4)C=C3)cc1
REMARK SMILES IDX 18 1 17 2 16 3 15 4 14 5 12 6 13 7 10 8 11 9 8 10 9 11 7 12
REMARK SMILES IDX 6 15 4 16 3 17 5 19 2 20 1 21 19 22 20 23 21 24 22 25 23 26
REMARK SMILES IDX 24 27 25 28 26 29 27 30 88 31 28 32 87 33 29 34 30 35 31 36
REMARK SMILES IDX 81 37 32 38 86 39 80 40 82 41 33 42 85 43 79 44 78 45 34 47
REMARK SMILES IDX 66 48 46 49 65 50 47 51 50 52 64 53 83 54 48 55 49 56 63 58
REMARK SMILES IDX 84 59 51 60 35 61 36 62 44 63 37 64 39 65 45 66 38 67 40 68
REMARK SMILES IDX 41 69 42 70 43 71 67 72 68 73 76 74 69 75 71 76 77 77 70 78
REMARK SMILES IDX 72 79 73 80 74 81 75 82 52 83 53 84 61 85 54 86 56 87 62 88
REMARK SMILES IDX 55 89 57 90 58 91 59 92 60 93
REMARK H PARENT 7 13 7 14 3 18 82 46 50 57
REMARK Flexibility Score: inf
ROOT
ATOM      1  C   UNL A   1      33.951  32.747  28.076  1.00  0.00     0.188 C 
ENDROOT
BRANCH   1   2
ATOM      2  O   UNL A   1      34.355  31.418  28.366  1.00  0.00    -0.376 OA
BRANCH   2   3
ATOM      3  C   UNL A   1      34.316  30.464  27.308  1.00  0.00     0.202 C 
BRANCH   3   4
ATOM      4  C   UNL A   1      32.945  30.017  26.770  1.00  0.00     0.261 C 
BRANCH   4   5
ATOM      5  O   UNL A   1      32.856  29.685  25.352  1.00  0.00    -0.463 OA
BRANCH   5   6
ATOM      6  C   UNL A   1      33.237  28.419  25.048  1.00  0.00     0.314 C 
ATOM      7  O   UNL A   1      34.305  28.161  24.490  1.00  0.00    -0.252 OA
BRANCH   6   8
ATOM      8  C   UNL A   1      32.258  27.280  25.338  1.00  0.00     0.154 C 
ATOM      9  C   UNL A   1      33.153  26.064  25.647  1.00  0.00     0.026 C 
BRANCH   8  10
ATOM     10  C   UNL A   1      31.104  26.854  24.384  1.00  0.00     0.193 C 
ATOM     11  C   UNL A   1      31.599  26.341  23.041  1.00  0.00     0.076 C 
BRANCH  10  12
ATOM     12  N   UNL A   1      30.226  28.038  24.187  1.00  0.00    -0.336 N 
ATOM     13  H   UNL A   1      29.391  27.906  24.757  1.00  0.00     0.346 HD
ATOM     14  H   UNL A   1      30.786  28.848  24.453  1.00  0.00     0.346 HD
BRANCH  12  15
ATOM     15  C   UNL A   1      29.792  28.288  22.803  1.00  0.00     0.362 C 
BRANCH  15  16
ATOM     16  C   UNL A   1      30.502  29.517  22.217  1.00  0.00     0.275 C 
ATOM     17  N   UNL A   1      29.774  30.499  21.606  1.00  0.00    -0.351 N 
ATOM     18  H   UNL A   1      30.292  31.190  21.135  1.00  0.00     0.163 HD
ATOM     19  O   UNL A   1      31.731  29.622  22.233  1.00  0.00    -0.269 OA
BRANCH  17  20
ATOM     20  C   UNL A   1      28.334  30.647  21.565  1.00  0.00     0.112 C 
ATOM     21  C   UNL A   1      27.832  31.313  22.833  1.00  0.00     0.027 C 
ENDBRANCH  17  20
ENDBRANCH  15  16
ENDBRANCH  12  15
ENDBRANCH  10  12
ENDBRANCH   8  10
ENDBRANCH   6   8
ENDBRANCH   5   6
ENDBRANCH   4   5
ENDBRANCH   3   4
ENDBRANCH   2   3
ENDBRANCH   1   2
BRANCH   1  22
ATOM     22  C   UNL A   1      35.012  33.848  28.207  1.00  0.00     0.188 C 
BRANCH  22  23
ATOM     23  O   UNL A   1      34.872  34.624  29.388  1.00  0.00    -0.376 OA
BRANCH  23  24
ATOM     24  C   UNL A   1      34.128  34.072  30.468  1.00  0.00     0.202 C 
BRANCH  24  25
ATOM     25  C   UNL A   1      34.645  34.490  31.849  1.00  0.00     0.261 C 
BRANCH  25  26
ATOM     26  O   UNL A   1      36.002  34.087  32.099  1.00  0.00    -0.460 OA
BRANCH  26  27
ATOM     27  C   UNL A   1      36.175  32.931  32.782  1.00  0.00     0.338 C 
ATOM     28  O   UNL A   1      35.495  32.524  33.711  1.00  0.00    -0.246 OA
BRANCH  27  29
ATOM     29  C   UNL A   1      37.168  32.110  32.055  1.00  0.00     0.060 A 
ATOM     30  C   UNL A   1      38.175  31.479  32.797  1.00  0.00     0.016 A 
ATOM     31  C   UNL A   1      37.089  31.920  30.673  1.00  0.00     0.016 A 
ATOM     32  C   UNL A   1      39.134  30.698  32.154  1.00  0.00     0.010 A 
ATOM     33  C   UNL A   1      38.052  31.143  30.027  1.00  0.00     0.010 A 
ATOM     34  C   UNL A   1      39.102  30.562  30.761  1.00  0.00    -0.014 A 
BRANCH  34  35
ATOM     35  C   UNL A   1      40.271  29.994  30.045  1.00  0.00     0.031 A 
ATOM     36  C   UNL A   1      41.471  30.878  29.837  1.00  0.00     0.074 A 
ATOM     37  C   UNL A   1      40.274  28.729  29.589  1.00  0.00     0.049 A 
ATOM     38  N   UNL A   1      42.583  30.629  29.199  1.00  0.00    -0.248 NA
ATOM     39  C   UNL A   1      41.403  32.227  30.426  1.00  0.00     0.031 C 
ATOM     40  C   UNL A   1      39.182  27.770  29.740  1.00  0.00     0.029 A 
ATOM     41  N   UNL A   1      41.230  28.046  28.879  1.00  0.00    -0.354 N 
ATOM     42  C   UNL A   1      43.330  31.798  29.276  1.00  0.00     0.074 A 
ATOM     43  C   UNL A   1      42.544  32.759  30.015  1.00  0.00     0.031 C 
ATOM     44  C   UNL A   1      39.522  26.625  29.121  1.00  0.00     0.029 A 
ATOM     45  C   UNL A   1      40.840  26.781  28.506  1.00  0.00     0.049 A 
ATOM     46  H   UNL A   1      42.112  28.424  28.660  1.00  0.00     0.167 HD
ATOM     47  C   UNL A   1      44.568  32.047  28.788  1.00  0.00     0.034 A 
ATOM     48  C   UNL A   1      41.466  25.868  27.737  1.00  0.00     0.034 A 
ATOM     49  C   UNL A   1      45.363  31.085  28.077  1.00  0.00     0.049 A 
ATOM     50  C   UNL A   1      42.834  26.180  27.182  1.00  0.00     0.074 A 
ATOM     51  C   UNL A   1      46.647  31.230  27.583  1.00  0.00     0.029 A 
ATOM     52  N   UNL A   1      44.949  29.804  27.749  1.00  0.00    -0.354 N 
ATOM     53  N   UNL A   1      43.572  27.250  27.353  1.00  0.00    -0.248 NA
ATOM     54  C   UNL A   1      43.467  25.145  26.350  1.00  0.00     0.031 C 
ATOM     55  C   UNL A   1      46.997  30.045  26.929  1.00  0.00     0.029 A 
ATOM     56  C   UNL A   1      45.946  29.151  27.047  1.00  0.00     0.049 A 
ATOM     57  H   UNL A   1      44.074  29.417  27.982  1.00  0.00     0.167 HD
ATOM     58  C   UNL A   1      44.768  27.002  26.685  1.00  0.00     0.074 A 
ATOM     59  C   UNL A   1      44.662  25.673  26.121  1.00  0.00     0.031 C 
ATOM     60  C   UNL A   1      45.850  27.806  26.540  1.00  0.00     0.034 A 
BRANCH  47  61
ATOM     61  C   UNL A   1      45.143  33.418  29.021  1.00  0.00     0.023 A 
ATOM     62  C   UNL A   1      45.875  33.681  30.196  1.00  0.00     0.012 A 
ATOM     63  C   UNL A   1      44.993  34.431  28.055  1.00  0.00     0.148 A 
ATOM     64  C   UNL A   1      46.423  34.943  30.421  1.00  0.00     0.002 A 
ATOM     65  C   UNL A   1      45.582  35.672  28.265  1.00  0.00     0.091 A 
ATOM     66  F   UNL A   1      44.271  34.168  26.958  1.00  0.00    -0.205 F 
ATOM     67  C   UNL A   1      46.287  35.933  29.452  1.00  0.00     0.022 A 
BRANCH  65  68
ATOM     68  S   UNL A   1      45.528  36.987  27.044  1.00  0.00     0.127 S 
ATOM     69  O   UNL A   1      46.472  37.951  27.607  1.00  0.00    -0.237 OA
ATOM     70  O   UNL A   1      45.998  36.307  25.838  1.00  0.00    -0.237 OA
ATOM     71  O   UNL A   1      44.142  37.430  26.991  1.00  0.00    -0.744 OA
ENDBRANCH  65  68
ENDBRANCH  47  61
BRANCH  48  72
ATOM     72  C   UNL A   1      40.822  24.551  27.462  1.00  0.00     0.023 A 
ATOM     73  C   UNL A   1      41.411  23.371  27.960  1.00  0.00     0.012 A 
ATOM     74  C   UNL A   1      39.633  24.460  26.713  1.00  0.00     0.148 A 
ATOM     75  C   UNL A   1      40.846  22.125  27.688  1.00  0.00     0.002 A 
ATOM     76  C   UNL A   1      39.047  23.219  26.491  1.00  0.00     0.091 A 
ATOM     77  F   UNL A   1      39.099  25.591  26.230  1.00  0.00    -0.205 F 
ATOM     78  C   UNL A   1      39.660  22.049  26.964  1.00  0.00     0.022 A 
BRANCH  76  79
ATOM     79  S   UNL A   1      37.459  23.035  25.670  1.00  0.00     0.127 S 
ATOM     80  O   UNL A   1      37.754  23.545  24.334  1.00  0.00    -0.237 OA
ATOM     81  O   UNL A   1      37.248  21.590  25.746  1.00  0.00    -0.237 OA
ATOM     82  O   UNL A   1      36.518  23.823  26.453  1.00  0.00    -0.744 OA
ENDBRANCH  76  79
ENDBRANCH  48  72
BRANCH  60  83
ATOM     83  C   UNL A   1      47.034  27.267  25.778  1.00  0.00     0.023 A 
ATOM     84  C   UNL A   1      47.857  26.282  26.359  1.00  0.00     0.012 A 
ATOM     85  C   UNL A   1      47.281  27.677  24.451  1.00  0.00     0.148 A 
ATOM     86  C   UNL A   1      48.923  25.737  25.645  1.00  0.00     0.002 A 
ATOM     87  C   UNL A   1      48.314  27.093  23.728  1.00  0.00     0.091 A 
ATOM     88  F   UNL A   1      46.497  28.627  23.919  1.00  0.00    -0.205 F 
ATOM     89  C   UNL A   1      49.145  26.133  24.328  1.00  0.00     0.022 A 
BRANCH  87  90
ATOM     90  S   UNL A   1      48.609  27.468  21.996  1.00  0.00     0.127 S 
ATOM     91  O   UNL A   1      49.010  26.164  21.473  1.00  0.00    -0.237 OA
ATOM     92  O   UNL A   1      47.294  27.928  21.548  1.00  0.00    -0.237 OA
ATOM     93  O   UNL A   1      49.644  28.493  21.978  1.00  0.00    -0.744 OA
ENDBRANCH  87  90
ENDBRANCH  60  83
ENDBRANCH  34  35
ENDBRANCH  27  29
ENDBRANCH  26  27
ENDBRANCH  25  26
ENDBRANCH  24  25
ENDBRANCH  23  24
ENDBRANCH  22  23
ENDBRANCH   1  22
TORSDOF 25
ENDMDL
MODEL 2
REMARK VINA RESULT:      -8.9      6.066      8.586
REMARK SMILES CCNC(=O)C[NH2+][C@@H](C)[C@@H](C)C(=O)OCCOCCOCCOC(=O)c1ccc(-c2c3nc(c(-c4cccc(S(=O)(=O)[O-])c4F)c4ccc([nH]4)c(-c4cccc(S(=O)(=O)[O-])c4F)c4nc(c(-c5cccc(S(=O)(=O)[O-])c5F)c5ccc2[nH]5)C=C4)C=C3)cc1
REMARK SMILES IDX 18 1 17 2 16 3 15 4 14 5 12 6 13 7 10 8 11 9 8 10 9 11 7 12
REMARK SMILES IDX 6 15 4 16 3 17 5 19 2 20 1 21 19 22 20 23 21 24 22 25 23 26
REMARK SMILES IDX 24 27 25 28 26 29 27 30 88 31 28 32 87 33 29 34 30 35 31 36
REMARK SMILES IDX 81 37 32 38 86 39 80 40 82 41 33 42 85 43 79 44 78 45 34 47
REMARK SMILES IDX 66 48 46 49 65 50 47 51 50 52 64 53 83 54 48 55 49 56 63 58
REMARK SMILES IDX 84 59 51 60 35 61 36 62 44 63 37 64 39 65 45 66 38 67 40 68
REMARK SMILES IDX 41 69 42 70 43 71 67 72 68 73 76 74 69 75 71 76 77 77 70 78
REMARK SMILES IDX 72 79 73 80 74 81 75 82 52 83 53 84 61 85 54 86 56 87 62 88
REMARK SMILES IDX 55 89 57 90 58 91 59 92 60 93
REMARK H PARENT 7 13 7 14 3 18 82 46 50 57
REMARK Flexibility Score: inf
ROOT
ATOM      1  C   UNL A   1      34.801  31.779  27.862  1.00  0.00     0.188 C 
ENDROOT
BRANCH   1   2
ATOM      2  O   UNL A   1      35.588  30.629  27.595  1.00  0.00    -0.376 OA
BRANCH   2   3
ATOM      3  C   UNL A   1      34.908  29.411  27.298  1.00  0.00     0.202 C 
BRANCH   3   4
ATOM      4  C   UNL A   1      33.397  29.326  27.572  1.00  0.00     0.261 C 
BRANCH   4   5
ATOM      5  O   UNL A   1      32.550  28.793  26.511  1.00  0.00    -0.463 OA
BRANCH   5   6
ATOM      6  C   UNL A   1      31.671  27.842  26.919  1.00  0.00     0.314 C 
ATOM      7  O   UNL A   1      31.314  27.726  28.092  1.00  0.00    -0.252 OA
BRANCH   6   8
ATOM      8  C   UNL A   1      31.172  26.829  25.888  1.00  0.00     0.154 C 
ATOM      9  C   UNL A   1      32.157  25.648  25.993  1.00  0.00     0.026 C 
BRANCH   8  10
ATOM     10  C   UNL A   1      30.909  27.162  24.391  1.00  0.00     0.193 C 
ATOM     11  C   UNL A   1      32.181  27.458  23.613  1.00  0.00     0.076 C 
BRANCH  10  12
ATOM     12  N   UNL A   1      29.998  28.336  24.347  1.00  0.00    -0.336 N 
ATOM     13  H   UNL A   1      29.167  28.068  23.820  1.00  0.00     0.346 HD
ATOM     14  H   UNL A   1      29.812  28.581  25.320  1.00  0.00     0.346 HD
BRANCH  12  15
ATOM     15  C   UNL A   1      30.551  29.552  23.727  1.00  0.00     0.362 C 
BRANCH  15  16
ATOM     16  C   UNL A   1      29.807  29.895  22.429  1.00  0.00     0.275 C 
ATOM     17  N   UNL A   1      28.845  30.866  22.430  1.00  0.00    -0.351 N 
ATOM     18  H   UNL A   1      28.312  30.946  21.607  1.00  0.00     0.163 HD
ATOM     19  O   UNL A   1      30.013  29.276  21.382  1.00  0.00    -0.269 OA
BRANCH  17  20
ATOM     20  C   UNL A   1      28.512  31.790  23.494  1.00  0.00     0.112 C 
ATOM     21  C   UNL A   1      28.975  33.192  23.144  1.00  0.00     0.027 C 
ENDBRANCH  17  20
ENDBRANCH  15  16
ENDBRANCH  12  15
ENDBRANCH  10  12
ENDBRANCH   8  10
ENDBRANCH   6   8
ENDBRANCH   5   6
ENDBRANCH   4   5
ENDBRANCH   3   4
ENDBRANCH   2   3
ENDBRANCH   1   2
BRANCH   1  22
ATOM     22  C   UNL A   1      35.531  33.128  27.932  1.00  0.00     0.188 C 
BRANCH  22  23
ATOM     23  O   UNL A   1      34.708  34.230  27.581  1.00  0.00    -0.376 OA
BRANCH  23  24
ATOM     24  C   UNL A   1      33.390  34.279  28.115  1.00  0.00     0.202 C 
BRANCH  24  25
ATOM     25  C   UNL A   1      33.185  35.393  29.148  1.00  0.00     0.261 C 
BRANCH  25  26
ATOM     26  O   UNL A   1      32.575  34.938  30.368  1.00  0.00    -0.460 OA
BRANCH  26  27
ATOM     27  C   UNL A   1      32.907  35.608  31.497  1.00  0.00     0.338 C 
ATOM     28  O   UNL A   1      32.269  36.504  32.027  1.00  0.00    -0.246 OA
BRANCH  27  29
ATOM     29  C   UNL A   1      34.043  34.905  32.132  1.00  0.00     0.060 A 
ATOM     30  C   UNL A   1      35.325  35.448  31.981  1.00  0.00     0.016 A 
ATOM     31  C   UNL A   1      33.852  33.756  32.905  1.00  0.00     0.016 A 
ATOM     32  C   UNL A   1      36.425  34.818  32.561  1.00  0.00     0.010 A 
ATOM     33  C   UNL A   1      34.954  33.122  33.481  1.00  0.00     0.010 A 
ATOM     34  C   UNL A   1      36.250  33.628  33.277  1.00  0.00    -0.014 A 
BRANCH  34  35
ATOM     35  C   UNL A   1      37.427  32.798  33.634  1.00  0.00     0.031 A 
ATOM     36  C   UNL A   1      38.200  33.163  34.873  1.00  0.00     0.074 A 
ATOM     37  C   UNL A   1      37.807  31.750  32.883  1.00  0.00     0.049 A 
ATOM     38  N   UNL A   1      39.287  32.628  35.359  1.00  0.00    -0.248 NA
ATOM     39  C   UNL A   1      37.675  34.288  35.668  1.00  0.00     0.031 C 
ATOM     40  C   UNL A   1      37.135  31.286  31.672  1.00  0.00     0.029 A 
ATOM     41  N   UNL A   1      38.875  30.898  33.026  1.00  0.00    -0.354 N 
ATOM     42  C   UNL A   1      39.599  33.370  36.492  1.00  0.00     0.074 A 
ATOM     43  C   UNL A   1      38.590  34.399  36.617  1.00  0.00     0.031 C 
ATOM     44  C   UNL A   1      37.820  30.244  31.167  1.00  0.00     0.029 A 
ATOM     45  C   UNL A   1      38.994  29.988  32.002  1.00  0.00     0.049 A 
ATOM     46  H   UNL A   1      39.496  30.936  33.788  1.00  0.00     0.167 HD
ATOM     47  C   UNL A   1      40.623  33.205  37.360  1.00  0.00     0.034 A 
ATOM     48  C   UNL A   1      39.952  29.072  31.758  1.00  0.00     0.034 A 
ATOM     49  C   UNL A   1      41.610  32.167  37.253  1.00  0.00     0.049 A 
ATOM     50  C   UNL A   1      41.099  28.924  32.727  1.00  0.00     0.074 A 
ATOM     51  C   UNL A   1      42.661  31.891  38.110  1.00  0.00     0.029 A 
ATOM     52  N   UNL A   1      41.677  31.242  36.224  1.00  0.00    -0.354 N 
ATOM     53  N   UNL A   1      41.321  29.563  33.851  1.00  0.00    -0.248 NA
ATOM     54  C   UNL A   1      42.114  27.909  32.408  1.00  0.00     0.031 C 
ATOM     55  C   UNL A   1      43.381  30.815  37.581  1.00  0.00     0.029 A 
ATOM     56  C   UNL A   1      42.759  30.401  36.414  1.00  0.00     0.049 A 
ATOM     57  H   UNL A   1      41.048  31.191  35.469  1.00  0.00     0.167 HD
ATOM     58  C   UNL A   1      42.476  29.002  34.390  1.00  0.00     0.074 A 
ATOM     59  C   UNL A   1      42.896  27.958  33.479  1.00  0.00     0.031 C 
ATOM     60  C   UNL A   1      43.135  29.328  35.529  1.00  0.00     0.034 A 
BRANCH  47  61
ATOM     61  C   UNL A   1      40.718  34.166  38.514  1.00  0.00     0.023 A 
ATOM     62  C   UNL A   1      41.560  35.292  38.421  1.00  0.00     0.012 A 
ATOM     63  C   UNL A   1      39.941  33.974  39.673  1.00  0.00     0.148 A 
ATOM     64  C   UNL A   1      41.650  36.197  39.478  1.00  0.00     0.002 A 
ATOM     65  C   UNL A   1      40.002  34.905  40.702  1.00  0.00     0.091 A 
ATOM     66  F   UNL A   1      39.168  32.882  39.752  1.00  0.00    -0.205 F 
ATOM     67  C   UNL A   1      40.864  36.010  40.611  1.00  0.00     0.022 A 
BRANCH  65  68
ATOM     68  S   UNL A   1      38.973  34.792  42.169  1.00  0.00     0.127 S 
ATOM     69  O   UNL A   1      39.729  33.845  42.987  1.00  0.00    -0.237 OA
ATOM     70  O   UNL A   1      38.987  36.169  42.661  1.00  0.00    -0.237 OA
ATOM     71  O   UNL A   1      37.672  34.323  41.712  1.00  0.00    -0.744 OA
ENDBRANCH  65  68
ENDBRANCH  47  61
BRANCH  48  72
ATOM     72  C   UNL A   1      39.861  28.194  30.556  1.00  0.00     0.023 A 
ATOM     73  C   UNL A   1      38.984  27.091  30.564  1.00  0.00     0.012 A 
ATOM     74  C   UNL A   1      40.638  28.443  29.408  1.00  0.00     0.148 A 
ATOM     75  C   UNL A   1      38.906  26.236  29.465  1.00  0.00     0.002 A 
ATOM     76  C   UNL A   1      40.516  27.619  28.296  1.00  0.00     0.091 A 
ATOM     77  F   UNL A   1      41.482  29.485  29.427  1.00  0.00    -0.205 F 
ATOM     78  C   UNL A   1      39.663  26.505  28.328  1.00  0.00     0.022 A 
BRANCH  76  79
ATOM     79  S   UNL A   1      41.363  27.955  26.747  1.00  0.00     0.127 S 
ATOM     80  O   UNL A   1      41.057  26.755  25.973  1.00  0.00    -0.237 OA
ATOM     81  O   UNL A   1      40.688  29.170  26.294  1.00  0.00    -0.237 OA
ATOM     82  O   UNL A   1      42.764  28.140  27.098  1.00  0.00    -0.744 OA
ENDBRANCH  76  79
ENDBRANCH  48  72
BRANCH  60  83
ATOM     83  C   UNL A   1      44.360  28.528  35.890  1.00  0.00     0.023 A 
ATOM     84  C   UNL A   1      45.627  28.933  35.427  1.00  0.00     0.012 A 
ATOM     85  C   UNL A   1      44.265  27.422  36.760  1.00  0.00     0.148 A 
ATOM     86  C   UNL A   1      46.775  28.232  35.796  1.00  0.00     0.002 A 
ATOM     87  C   UNL A   1      45.417  26.759  37.164  1.00  0.00     0.091 A 
ATOM     88  F   UNL A   1      43.049  27.042  37.179  1.00  0.00    -0.205 F 
ATOM     89  C   UNL A   1      46.672  27.155  36.673  1.00  0.00     0.022 A 
BRANCH  87  90
ATOM     90  S   UNL A   1      45.389  25.426  38.368  1.00  0.00     0.127 S 
ATOM     91  O   UNL A   1      46.806  25.299  38.704  1.00  0.00    -0.237 OA
ATOM     92  O   UNL A   1      44.558  25.987  39.434  1.00  0.00    -0.237 OA
ATOM     93  O   UNL A   1      44.803  24.281  37.685  1.00  0.00    -0.744 OA
ENDBRANCH  87  90
ENDBRANCH  60  83
ENDBRANCH  34  35
ENDBRANCH  27  29
ENDBRANCH  26  27
ENDBRANCH  25  26
ENDBRANCH  24  25
ENDBRANCH  23  24
ENDBRANCH  22  23
ENDBRANCH   1  22
TORSDOF 25
ENDMDL
MODEL 3
REMARK VINA RESULT:      -8.6      5.825      9.785
REMARK SMILES CCNC(=O)C[NH2+][C@@H](C)[C@@H](C)C(=O)OCCOCCOCCOC(=O)c1ccc(-c2c3nc(c(-c4cccc(S(=O)(=O)[O-])c4F)c4ccc([nH]4)c(-c4cccc(S(=O)(=O)[O-])c4F)c4nc(c(-c5cccc(S(=O)(=O)[O-])c5F)c5ccc2[nH]5)C=C4)C=C3)cc1
REMARK SMILES IDX 18 1 17 2 16 3 15 4 14 5 12 6 13 7 10 8 11 9 8 10 9 11 7 12
REMARK SMILES IDX 6 15 4 16 3 17 5 19 2 20 1 21 19 22 20 23 21 24 22 25 23 26
REMARK SMILES IDX 24 27 25 28 26 29 27 30 88 31 28 32 87 33 29 34 30 35 31 36
REMARK SMILES IDX 81 37 32 38 86 39 80 40 82 41 33 42 85 43 79 44 78 45 34 47
REMARK SMILES IDX 66 48 46 49 65 50 47 51 50 52 64 53 83 54 48 55 49 56 63 58
REMARK SMILES IDX 84 59 51 60 35 61 36 62 44 63 37 64 39 65 45 66 38 67 40 68
REMARK SMILES IDX 41 69 42 70 43 71 67 72 68 73 76 74 69 75 71 76 77 77 70 78
REMARK SMILES IDX 72 79 73 80 74 81 75 82 52 83 53 84 61 85 54 86 56 87 62 88
REMARK SMILES IDX 55 89 57 90 58 91 59 92 60 93
REMARK H PARENT 7 13 7 14 3 18 82 46 50 57
REMARK Flexibility Score: inf
ROOT
ATOM      1  C   UNL A   1      34.864  31.523  27.814  1.00  0.00     0.188 C 
ENDROOT
BRANCH   1   2
ATOM      2  O   UNL A   1      35.711  30.393  27.680  1.00  0.00    -0.376 OA
BRANCH   2   3
ATOM      3  C   UNL A   1      35.121  29.162  27.268  1.00  0.00     0.202 C 
BRANCH   3   4
ATOM      4  C   UNL A   1      33.611  28.960  27.485  1.00  0.00     0.261 C 
BRANCH   4   5
ATOM      5  O   UNL A   1      32.973  27.853  26.782  1.00  0.00    -0.463 OA
BRANCH   5   6
ATOM      6  C   UNL A   1      32.494  28.171  25.552  1.00  0.00     0.314 C 
ATOM      7  O   UNL A   1      33.093  28.920  24.778  1.00  0.00    -0.252 OA
BRANCH   6   8
ATOM      8  C   UNL A   1      31.117  27.639  25.153  1.00  0.00     0.154 C 
ATOM      9  C   UNL A   1      31.071  26.208  25.723  1.00  0.00     0.026 C 
BRANCH   8  10
ATOM     10  C   UNL A   1      30.566  27.643  23.698  1.00  0.00     0.193 C 
ATOM     11  C   UNL A   1      31.425  26.842  22.732  1.00  0.00     0.076 C 
BRANCH  10  12
ATOM     12  N   UNL A   1      30.483  29.060  23.254  1.00  0.00    -0.336 N 
ATOM     13  H   UNL A   1      30.273  29.632  24.072  1.00  0.00     0.346 HD
ATOM     14  H   UNL A   1      31.382  29.269  22.821  1.00  0.00     0.346 HD
BRANCH  12  15
ATOM     15  C   UNL A   1      29.467  29.350  22.229  1.00  0.00     0.362 C 
BRANCH  15  16
ATOM     16  C   UNL A   1      28.111  29.673  22.874  1.00  0.00     0.275 C 
ATOM     17  N   UNL A   1      27.945  30.841  23.563  1.00  0.00    -0.351 N 
ATOM     18  H   UNL A   1      27.103  30.929  24.065  1.00  0.00     0.163 HD
ATOM     19  O   UNL A   1      27.171  28.876  22.835  1.00  0.00    -0.269 OA
BRANCH  17  20
ATOM     20  C   UNL A   1      28.855  31.964  23.648  1.00  0.00     0.112 C 
ATOM     21  C   UNL A   1      28.594  32.946  22.521  1.00  0.00     0.027 C 
ENDBRANCH  17  20
ENDBRANCH  15  16
ENDBRANCH  12  15
ENDBRANCH  10  12
ENDBRANCH   8  10
ENDBRANCH   6   8
ENDBRANCH   5   6
ENDBRANCH   4   5
ENDBRANCH   3   4
ENDBRANCH   2   3
ENDBRANCH   1   2
BRANCH   1  22
ATOM     22  C   UNL A   1      35.539  32.885  28.023  1.00  0.00     0.188 C 
BRANCH  22  23
ATOM     23  O   UNL A   1      34.703  33.982  27.685  1.00  0.00    -0.376 OA
BRANCH  23  24
ATOM     24  C   UNL A   1      33.369  33.986  28.180  1.00  0.00     0.202 C 
BRANCH  24  25
ATOM     25  C   UNL A   1      33.046  35.190  29.072  1.00  0.00     0.261 C 
BRANCH  25  26
ATOM     26  O   UNL A   1      32.613  34.824  30.393  1.00  0.00    -0.460 OA
BRANCH  26  27
ATOM     27  C   UNL A   1      33.275  35.394  31.427  1.00  0.00     0.338 C 
ATOM     28  O   UNL A   1      32.862  36.278  32.160  1.00  0.00    -0.246 OA
BRANCH  27  29
ATOM     29  C   UNL A   1      34.492  34.595  31.691  1.00  0.00     0.060 A 
ATOM     30  C   UNL A   1      34.375  33.460  32.504  1.00  0.00     0.016 A 
ATOM     31  C   UNL A   1      35.722  34.922  31.112  1.00  0.00     0.016 A 
ATOM     32  C   UNL A   1      35.496  32.678  32.781  1.00  0.00     0.010 A 
ATOM     33  C   UNL A   1      36.845  34.143  31.394  1.00  0.00     0.010 A 
ATOM     34  C   UNL A   1      36.744  33.041  32.262  1.00  0.00    -0.014 A 
BRANCH  34  35
ATOM     35  C   UNL A   1      37.977  32.404  32.787  1.00  0.00     0.031 A 
ATOM     36  C   UNL A   1      38.591  31.286  31.988  1.00  0.00     0.074 A 
ATOM     37  C   UNL A   1      38.541  32.801  33.941  1.00  0.00     0.049 A 
ATOM     38  N   UNL A   1      39.629  30.543  32.264  1.00  0.00    -0.248 NA
ATOM     39  C   UNL A   1      37.941  30.961  30.706  1.00  0.00     0.031 C 
ATOM     40  C   UNL A   1      38.054  33.879  34.797  1.00  0.00     0.029 A 
ATOM     41  N   UNL A   1      39.644  32.316  34.601  1.00  0.00    -0.354 N 
ATOM     42  C   UNL A   1      39.736  29.640  31.213  1.00  0.00     0.074 A 
ATOM     43  C   UNL A   1      38.653  29.923  30.297  1.00  0.00     0.031 C 
ATOM     44  C   UNL A   1      38.843  33.961  35.884  1.00  0.00     0.029 A 
ATOM     45  C   UNL A   1      39.870  32.923  35.814  1.00  0.00     0.049 A 
ATOM     46  H   UNL A   1      40.218  31.603  34.239  1.00  0.00     0.167 HD
ATOM     47  C   UNL A   1      40.659  28.672  31.017  1.00  0.00     0.034 A 
ATOM     48  C   UNL A   1      40.787  32.654  36.765  1.00  0.00     0.034 A 
ATOM     49  C   UNL A   1      41.752  28.408  31.911  1.00  0.00     0.049 A 
ATOM     50  C   UNL A   1      41.790  31.550  36.535  1.00  0.00     0.074 A 
ATOM     51  C   UNL A   1      42.766  27.476  31.775  1.00  0.00     0.029 A 
ATOM     52  N   UNL A   1      41.970  29.066  33.110  1.00  0.00    -0.354 N 
ATOM     53  N   UNL A   1      41.943  30.776  35.488  1.00  0.00    -0.248 NA
ATOM     54  C   UNL A   1      42.765  31.302  37.608  1.00  0.00     0.031 C 
ATOM     55  C   UNL A   1      43.580  27.552  32.909  1.00  0.00     0.029 A 
ATOM     56  C   UNL A   1      43.093  28.553  33.733  1.00  0.00     0.049 A 
ATOM     57  H   UNL A   1      41.408  29.791  33.466  1.00  0.00     0.167 HD
ATOM     58  C   UNL A   1      43.052  29.978  35.759  1.00  0.00     0.074 A 
ATOM     59  C   UNL A   1      43.542  30.376  37.062  1.00  0.00     0.031 C 
ATOM     60  C   UNL A   1      43.606  28.997  35.004  1.00  0.00     0.034 A 
BRANCH  47  61
ATOM     61  C   UNL A   1      40.532  27.831  29.775  1.00  0.00     0.023 A 
ATOM     62  C   UNL A   1      39.587  26.787  29.728  1.00  0.00     0.012 A 
ATOM     63  C   UNL A   1      41.321  28.105  28.641  1.00  0.00     0.148 A 
ATOM     64  C   UNL A   1      39.450  26.006  28.581  1.00  0.00     0.002 A 
ATOM     65  C   UNL A   1      41.146  27.352  27.486  1.00  0.00     0.091 A 
ATOM     66  F   UNL A   1      42.233  29.083  28.716  1.00  0.00    -0.205 F 
ATOM     67  C   UNL A   1      40.220  26.296  27.458  1.00  0.00     0.022 A 
BRANCH  65  68
ATOM     68  S   UNL A   1      42.036  27.696  25.965  1.00  0.00     0.127 S 
ATOM     69  O   UNL A   1      43.425  27.528  26.392  1.00  0.00    -0.237 OA
ATOM     70  O   UNL A   1      41.541  26.647  25.075  1.00  0.00    -0.237 OA
ATOM     71  O   UNL A   1      41.662  29.049  25.577  1.00  0.00    -0.744 OA
ENDBRANCH  65  68
ENDBRANCH  47  61
BRANCH  48  72
ATOM     72  C   UNL A   1      40.825  33.459  38.020  1.00  0.00     0.023 A 
ATOM     73  C   UNL A   1      40.048  33.061  39.125  1.00  0.00     0.012 A 
ATOM     74  C   UNL A   1      41.622  34.615  38.123  1.00  0.00     0.148 A 
ATOM     75  C   UNL A   1      40.041  33.816  40.298  1.00  0.00     0.002 A 
ATOM     76  C   UNL A   1      41.652  35.333  39.312  1.00  0.00     0.091 A 
ATOM     77  F   UNL A   1      42.338  34.990  37.052  1.00  0.00    -0.205 F 
ATOM     78  C   UNL A   1      40.849  34.945  40.396  1.00  0.00     0.022 A 
BRANCH  76  79
ATOM     79  S   UNL A   1      42.750  36.731  39.569  1.00  0.00     0.127 S 
ATOM     80  O   UNL A   1      44.033  36.068  39.783  1.00  0.00    -0.237 OA
ATOM     81  O   UNL A   1      42.629  37.445  38.298  1.00  0.00    -0.237 OA
ATOM     82  O   UNL A   1      42.211  37.449  40.716  1.00  0.00    -0.744 OA
ENDBRANCH  76  79
ENDBRANCH  48  72
BRANCH  60  83
ATOM     83  C   UNL A   1      44.834  28.304  35.537  1.00  0.00     0.023 A 
ATOM     84  C   UNL A   1      46.115  28.792  35.213  1.00  0.00     0.012 A 
ATOM     85  C   UNL A   1      44.715  27.218  36.429  1.00  0.00     0.148 A 
ATOM     86  C   UNL A   1      47.257  28.193  35.741  1.00  0.00     0.002 A 
ATOM     87  C   UNL A   1      45.855  26.657  36.991  1.00  0.00     0.091 A 
ATOM     88  F   UNL A   1      43.488  26.756  36.715  1.00  0.00    -0.205 F 
ATOM     89  C   UNL A   1      47.128  27.135  36.639  1.00  0.00     0.022 A 
BRANCH  87  90
ATOM     90  S   UNL A   1      45.780  25.360  38.231  1.00  0.00     0.127 S 
ATOM     91  O   UNL A   1      47.195  25.144  38.524  1.00  0.00    -0.237 OA
ATOM     92  O   UNL A   1      45.024  26.002  39.309  1.00  0.00    -0.237 OA
ATOM     93  O   UNL A   1      45.094  24.240  37.599  1.00  0.00    -0.744 OA
ENDBRANCH  87  90
ENDBRANCH  60  83
ENDBRANCH  34  35
ENDBRANCH  27  29
ENDBRANCH  26  27
ENDBRANCH  25  26
ENDBRANCH  24  25
ENDBRANCH  23  24
ENDBRANCH  22  23
ENDBRANCH   1  22
TORSDOF 25
ENDMDL
