MODEL 1
REMARK VINA RESULT:      -9.7      0.000      0.000
REMARK SMILES Nc1cc(C(=O)OCCOCCOCCOC(=O)c2ccc(-c3c4nc(c(-c5cccc(S(=O)(=O)[O-])c5F)c5ccc([nH]5)c(-c5cccc(S(=O)(=O)[O-])c5F)c5nc(c(-c6cccc(S(=O)(=O)[O-])c6F)c6ccc3[nH]6)C=C5)C=C4)cc2)c(Cl)cc1Cl
REMARK SMILES IDX 12 1 11 2 10 3 9 4 8 5 7 6 5 7 6 8 4 9 2 10 3 11 85 12 84 13
REMARK SMILES IDX 86 14 82 15 83 16 1 17 13 20 14 21 15 22 16 23 17 24 18 25
REMARK SMILES IDX 19 26 20 27 81 28 21 29 80 30 22 31 23 32 24 33 74 34 25 35
REMARK SMILES IDX 79 36 73 37 75 38 26 39 78 40 72 41 71 42 27 44 59 45 39 46
REMARK SMILES IDX 58 47 40 48 43 49 57 50 76 51 41 52 42 53 56 55 77 56 44 57
REMARK SMILES IDX 28 58 29 59 37 60 30 61 32 62 38 63 31 64 33 65 34 66 35 67
REMARK SMILES IDX 36 68 60 69 61 70 69 71 62 72 64 73 70 74 63 75 65 76 66 77
REMARK SMILES IDX 67 78 68 79 45 80 46 81 54 82 47 83 49 84 55 85 48 86 50 87
REMARK SMILES IDX 51 88 52 89 53 90
REMARK H PARENT 1 18 1 19 75 43 43 54
REMARK Flexibility Score: inf
ROOT
ATOM      1  C   UNL A   1      31.795  29.125  26.004  1.00  0.00     0.188 C 
ENDROOT
BRANCH   1   2
ATOM      2  C   UNL A   1      32.679  28.482  27.096  1.00  0.00     0.188 C 
BRANCH   2   3
ATOM      3  O   UNL A   1      33.799  27.786  26.575  1.00  0.00    -0.376 OA
BRANCH   3   4
ATOM      4  C   UNL A   1      33.545  26.503  26.030  1.00  0.00     0.202 C 
BRANCH   4   5
ATOM      5  C   UNL A   1      33.974  26.271  24.574  1.00  0.00     0.261 C 
BRANCH   5   6
ATOM      6  O   UNL A   1      33.706  27.360  23.674  1.00  0.00    -0.460 OA
BRANCH   6   7
ATOM      7  C   UNL A   1      33.050  27.085  22.523  1.00  0.00     0.339 C 
ATOM      8  O   UNL A   1      33.497  26.501  21.556  1.00  0.00    -0.246 OA
BRANCH   7   9
ATOM      9  C   UNL A   1      31.664  27.590  22.663  1.00  0.00     0.080 A 
ATOM     10  C   UNL A   1      30.114  29.466  22.448  1.00  0.00     0.051 A 
ATOM     11  C   UNL A   1      31.406  28.937  22.346  1.00  0.00     0.044 A 
ATOM     12  C   UNL A   1      29.089  28.635  22.935  1.00  0.00     0.065 A 
ATOM     13  C   UNL A   1      29.339  27.301  23.268  1.00  0.00     0.044 A 
ATOM     14  Cl  UNL A   1      27.481  29.244  23.125  1.00  0.00    -0.082 Cl
ATOM     15  C   UNL A   1      30.626  26.775  23.127  1.00  0.00     0.057 A 
ATOM     16  Cl  UNL A   1      30.874  25.142  23.627  1.00  0.00    -0.083 Cl
BRANCH  10  17
ATOM     17  N   UNL A   1      29.902  30.814  22.179  1.00  0.00    -0.398 N 
ATOM     18  H   UNL A   1      28.993  31.140  21.984  1.00  0.00     0.156 HD
ATOM     19  H   UNL A   1      30.659  31.443  22.185  1.00  0.00     0.156 HD
ENDBRANCH  10  17
ENDBRANCH   7   9
ENDBRANCH   6   7
ENDBRANCH   5   6
ENDBRANCH   4   5
ENDBRANCH   3   4
ENDBRANCH   2   3
ENDBRANCH   1   2
BRANCH   1  20
ATOM     20  O   UNL A   1      31.874  30.524  25.752  1.00  0.00    -0.376 OA
BRANCH  20  21
ATOM     21  C   UNL A   1      31.757  31.437  26.835  1.00  0.00     0.202 C 
BRANCH  21  22
ATOM     22  C   UNL A   1      33.027  32.056  27.437  1.00  0.00     0.261 C 
BRANCH  22  23
ATOM     23  O   UNL A   1      33.140  33.481  27.297  1.00  0.00    -0.460 OA
BRANCH  23  24
ATOM     24  C   UNL A   1      33.303  34.172  28.454  1.00  0.00     0.338 C 
ATOM     25  O   UNL A   1      32.529  34.975  28.947  1.00  0.00    -0.246 OA
BRANCH  24  26
ATOM     26  C   UNL A   1      34.506  33.668  29.151  1.00  0.00     0.060 A 
ATOM     27  C   UNL A   1      34.398  32.951  30.344  1.00  0.00     0.016 A 
ATOM     28  C   UNL A   1      35.764  33.916  28.585  1.00  0.00     0.016 A 
ATOM     29  C   UNL A   1      35.556  32.463  30.957  1.00  0.00     0.010 A 
ATOM     30  C   UNL A   1      36.920  33.445  29.210  1.00  0.00     0.010 A 
ATOM     31  C   UNL A   1      36.823  32.696  30.391  1.00  0.00    -0.014 A 
BRANCH  31  32
ATOM     32  C   UNL A   1      38.017  32.004  30.935  1.00  0.00     0.031 A 
ATOM     33  C   UNL A   1      38.600  32.348  32.272  1.00  0.00     0.074 A 
ATOM     34  C   UNL A   1      38.594  31.054  30.174  1.00  0.00     0.049 A 
ATOM     35  N   UNL A   1      39.570  31.748  32.915  1.00  0.00    -0.248 NA
ATOM     36  C   UNL A   1      38.034  33.505  32.980  1.00  0.00     0.031 C 
ATOM     37  C   UNL A   1      38.159  30.684  28.825  1.00  0.00     0.029 A 
ATOM     38  N   UNL A   1      39.663  30.232  30.418  1.00  0.00    -0.354 N 
ATOM     39  C   UNL A   1      39.734  32.447  34.102  1.00  0.00     0.074 A 
ATOM     40  C   UNL A   1      38.775  33.534  34.083  1.00  0.00     0.031 C 
ATOM     41  C   UNL A   1      38.945  29.698  28.367  1.00  0.00     0.029 A 
ATOM     42  C   UNL A   1      39.939  29.369  29.384  1.00  0.00     0.049 A 
ATOM     43  H   UNL A   1      40.183  30.256  31.255  1.00  0.00     0.167 HD
ATOM     44  C   UNL A   1      40.588  32.188  35.121  1.00  0.00     0.034 A 
ATOM     45  C   UNL A   1      40.876  28.409  29.269  1.00  0.00     0.034 A 
ATOM     46  C   UNL A   1      41.532  31.100  35.138  1.00  0.00     0.049 A 
ATOM     47  C   UNL A   1      41.798  28.132  30.420  1.00  0.00     0.074 A 
ATOM     48  C   UNL A   1      42.382  30.720  36.163  1.00  0.00     0.029 A 
ATOM     49  N   UNL A   1      41.764  30.230  34.086  1.00  0.00    -0.354 N 
ATOM     50  N   UNL A   1      41.828  28.700  31.600  1.00  0.00    -0.248 NA
ATOM     51  C   UNL A   1      42.792  27.064  30.240  1.00  0.00     0.031 C 
ATOM     52  C   UNL A   1      43.140  29.631  35.725  1.00  0.00     0.029 A 
ATOM     53  C   UNL A   1      42.752  29.322  34.431  1.00  0.00     0.049 A 
ATOM     54  H   UNL A   1      41.296  30.252  33.220  1.00  0.00     0.167 HD
ATOM     55  C   UNL A   1      42.829  28.049  32.310  1.00  0.00     0.074 A 
ATOM     56  C   UNL A   1      43.372  27.031  31.433  1.00  0.00     0.031 C 
ATOM     57  C   UNL A   1      43.263  28.287  33.571  1.00  0.00     0.034 A 
BRANCH  44  58
ATOM     58  C   UNL A   1      40.505  33.042  36.356  1.00  0.00     0.023 A 
ATOM     59  C   UNL A   1      41.211  34.261  36.385  1.00  0.00     0.012 A 
ATOM     60  C   UNL A   1      39.629  32.721  37.412  1.00  0.00     0.148 A 
ATOM     61  C   UNL A   1      41.050  35.149  37.447  1.00  0.00     0.002 A 
ATOM     62  C   UNL A   1      39.455  33.623  38.456  1.00  0.00     0.091 A 
ATOM     63  F   UNL A   1      38.972  31.554  37.362  1.00  0.00    -0.205 F 
ATOM     64  C   UNL A   1      40.166  34.835  38.476  1.00  0.00     0.022 A 
BRANCH  62  65
ATOM     65  S   UNL A   1      38.296  33.348  39.801  1.00  0.00     0.127 S 
ATOM     66  O   UNL A   1      38.904  32.205  40.485  1.00  0.00    -0.237 OA
ATOM     67  O   UNL A   1      38.373  34.610  40.537  1.00  0.00    -0.237 OA
ATOM     68  O   UNL A   1      37.008  33.079  39.177  1.00  0.00    -0.744 OA
ENDBRANCH  62  65
ENDBRANCH  44  58
BRANCH  45  69
ATOM     69  C   UNL A   1      40.913  27.582  28.034  1.00  0.00     0.023 A 
ATOM     70  C   UNL A   1      41.612  28.059  26.910  1.00  0.00     0.012 A 
ATOM     71  C   UNL A   1      40.336  26.299  28.001  1.00  0.00     0.148 A 
ATOM     72  C   UNL A   1      41.732  27.271  25.766  1.00  0.00     0.002 A 
ATOM     73  C   UNL A   1      40.491  25.505  26.872  1.00  0.00     0.091 A 
ATOM     74  F   UNL A   1      39.678  25.872  29.088  1.00  0.00    -0.205 F 
ATOM     75  C   UNL A   1      41.181  25.992  25.750  1.00  0.00     0.022 A 
BRANCH  73  76
ATOM     76  S   UNL A   1      39.906  23.808  26.792  1.00  0.00     0.127 S 
ATOM     77  O   UNL A   1      40.087  23.365  28.173  1.00  0.00    -0.237 OA
ATOM     78  O   UNL A   1      38.513  23.994  26.383  1.00  0.00    -0.237 OA
ATOM     79  O   UNL A   1      40.747  23.144  25.807  1.00  0.00    -0.744 OA
ENDBRANCH  73  76
ENDBRANCH  45  69
BRANCH  57  80
ATOM     80  C   UNL A   1      44.387  27.441  34.104  1.00  0.00     0.023 A 
ATOM     81  C   UNL A   1      45.717  27.860  33.907  1.00  0.00     0.012 A 
ATOM     82  C   UNL A   1      44.125  26.308  34.898  1.00  0.00     0.148 A 
ATOM     83  C   UNL A   1      46.773  27.158  34.488  1.00  0.00     0.002 A 
ATOM     84  C   UNL A   1      45.179  25.632  35.501  1.00  0.00     0.091 A 
ATOM     85  F   UNL A   1      42.850  25.926  35.062  1.00  0.00    -0.205 F 
ATOM     86  C   UNL A   1      46.504  26.054  35.293  1.00  0.00     0.022 A 
BRANCH  84  87
ATOM     87  S   UNL A   1      44.935  24.242  36.612  1.00  0.00     0.127 S 
ATOM     88  O   UNL A   1      44.111  24.840  37.661  1.00  0.00    -0.237 OA
ATOM     89  O   UNL A   1      44.233  23.283  35.756  1.00  0.00    -0.237 OA
ATOM     90  O   UNL A   1      46.265  23.821  37.035  1.00  0.00    -0.744 OA
ENDBRANCH  84  87
ENDBRANCH  57  80
ENDBRANCH  31  32
ENDBRANCH  24  26
ENDBRANCH  23  24
ENDBRANCH  22  23
ENDBRANCH  21  22
ENDBRANCH  20  21
ENDBRANCH   1  20
TORSDOF 21
ENDMDL
MODEL 2
REMARK VINA RESULT:      -9.5      5.828      9.433
REMARK SMILES Nc1cc(C(=O)OCCOCCOCCOC(=O)c2ccc(-c3c4nc(c(-c5cccc(S(=O)(=O)[O-])c5F)c5ccc([nH]5)c(-c5cccc(S(=O)(=O)[O-])c5F)c5nc(c(-c6cccc(S(=O)(=O)[O-])c6F)c6ccc3[nH]6)C=C5)C=C4)cc2)c(Cl)cc1Cl
REMARK SMILES IDX 12 1 11 2 10 3 9 4 8 5 7 6 5 7 6 8 4 9 2 10 3 11 85 12 84 13
REMARK SMILES IDX 86 14 82 15 83 16 1 17 13 20 14 21 15 22 16 23 17 24 18 25
REMARK SMILES IDX 19 26 20 27 81 28 21 29 80 30 22 31 23 32 24 33 74 34 25 35
REMARK SMILES IDX 79 36 73 37 75 38 26 39 78 40 72 41 71 42 27 44 59 45 39 46
REMARK SMILES IDX 58 47 40 48 43 49 57 50 76 51 41 52 42 53 56 55 77 56 44 57
REMARK SMILES IDX 28 58 29 59 37 60 30 61 32 62 38 63 31 64 33 65 34 66 35 67
REMARK SMILES IDX 36 68 60 69 61 70 69 71 62 72 64 73 70 74 63 75 65 76 66 77
REMARK SMILES IDX 67 78 68 79 45 80 46 81 54 82 47 83 49 84 55 85 48 86 50 87
REMARK SMILES IDX 51 88 52 89 53 90
REMARK H PARENT 1 18 1 19 75 43 43 54
REMARK Flexibility Score: inf
ROOT
ATOM      1  C   UNL A   1      36.348  21.493  24.810  1.00  0.00     0.188 C 
ENDROOT
BRANCH   1   2
ATOM      2  C   UNL A   1      34.974  21.070  25.376  1.00  0.00     0.188 C 
BRANCH   2   3
ATOM      3  O   UNL A   1      33.910  21.903  24.948  1.00  0.00    -0.376 OA
BRANCH   3   4
ATOM      4  C   UNL A   1      33.493  22.909  25.856  1.00  0.00     0.202 C 
BRANCH   4   5
ATOM      5  C   UNL A   1      34.038  24.325  25.619  1.00  0.00     0.261 C 
BRANCH   5   6
ATOM      6  O   UNL A   1      33.304  25.381  26.261  1.00  0.00    -0.460 OA
BRANCH   6   7
ATOM      7  C   UNL A   1      31.953  25.345  26.194  1.00  0.00     0.339 C 
ATOM      8  O   UNL A   1      31.211  24.680  26.887  1.00  0.00    -0.246 OA
BRANCH   7   9
ATOM      9  C   UNL A   1      31.529  26.298  25.141  1.00  0.00     0.080 A 
ATOM     10  C   UNL A   1      31.329  28.621  24.411  1.00  0.00     0.051 A 
ATOM     11  C   UNL A   1      31.701  27.675  25.374  1.00  0.00     0.044 A 
ATOM     12  C   UNL A   1      30.721  28.164  23.228  1.00  0.00     0.065 A 
ATOM     13  C   UNL A   1      30.530  26.799  22.994  1.00  0.00     0.044 A 
ATOM     14  Cl  UNL A   1      30.199  29.287  22.019  1.00  0.00    -0.082 Cl
ATOM     15  C   UNL A   1      30.939  25.864  23.949  1.00  0.00     0.057 A 
ATOM     16  Cl  UNL A   1      30.605  24.202  23.624  1.00  0.00    -0.083 Cl
BRANCH  10  17
ATOM     17  N   UNL A   1      31.463  29.976  24.692  1.00  0.00    -0.398 N 
ATOM     18  H   UNL A   1      30.800  30.429  25.262  1.00  0.00     0.156 HD
ATOM     19  H   UNL A   1      32.222  30.483  24.324  1.00  0.00     0.156 HD
ENDBRANCH  10  17
ENDBRANCH   7   9
ENDBRANCH   6   7
ENDBRANCH   5   6
ENDBRANCH   4   5
ENDBRANCH   3   4
ENDBRANCH   2   3
ENDBRANCH   1   2
BRANCH   1  20
ATOM     20  O   UNL A   1      37.386  20.530  24.657  1.00  0.00    -0.376 OA
BRANCH  20  21
ATOM     21  C   UNL A   1      38.503  20.561  25.534  1.00  0.00     0.202 C 
BRANCH  21  22
ATOM     22  C   UNL A   1      39.317  19.279  25.761  1.00  0.00     0.261 C 
BRANCH  22  23
ATOM     23  O   UNL A   1      40.708  19.366  25.414  1.00  0.00    -0.460 OA
BRANCH  23  24
ATOM     24  C   UNL A   1      41.562  19.546  26.453  1.00  0.00     0.338 C 
ATOM     25  O   UNL A   1      42.224  18.691  27.018  1.00  0.00    -0.246 OA
BRANCH  24  26
ATOM     26  C   UNL A   1      41.725  20.995  26.698  1.00  0.00     0.060 A 
ATOM     27  C   UNL A   1      41.873  21.492  27.994  1.00  0.00     0.016 A 
ATOM     28  C   UNL A   1      41.737  21.865  25.600  1.00  0.00     0.016 A 
ATOM     29  C   UNL A   1      42.057  22.865  28.184  1.00  0.00     0.010 A 
ATOM     30  C   UNL A   1      41.900  23.238  25.794  1.00  0.00     0.010 A 
ATOM     31  C   UNL A   1      42.082  23.746  27.087  1.00  0.00    -0.014 A 
BRANCH  31  32
ATOM     32  C   UNL A   1      42.479  25.161  27.282  1.00  0.00     0.031 A 
ATOM     33  C   UNL A   1      41.609  26.144  28.008  1.00  0.00     0.074 A 
ATOM     34  C   UNL A   1      43.655  25.562  26.762  1.00  0.00     0.049 A 
ATOM     35  N   UNL A   1      41.883  27.378  28.346  1.00  0.00    -0.248 NA
ATOM     36  C   UNL A   1      40.267  25.695  28.403  1.00  0.00     0.031 C 
ATOM     37  C   UNL A   1      44.553  24.715  25.973  1.00  0.00     0.029 A 
ATOM     38  N   UNL A   1      44.296  26.773  26.812  1.00  0.00    -0.354 N 
ATOM     39  C   UNL A   1      40.754  27.858  28.995  1.00  0.00     0.074 A 
ATOM     40  C   UNL A   1      39.779  26.786  28.985  1.00  0.00     0.031 C 
ATOM     41  C   UNL A   1      45.635  25.428  25.626  1.00  0.00     0.029 A 
ATOM     42  C   UNL A   1      45.507  26.780  26.162  1.00  0.00     0.049 A 
ATOM     43  H   UNL A   1      43.924  27.562  27.270  1.00  0.00     0.167 HD
ATOM     44  C   UNL A   1      40.564  29.072  29.566  1.00  0.00     0.034 A 
ATOM     45  C   UNL A   1      46.423  27.757  26.024  1.00  0.00     0.034 A 
ATOM     46  C   UNL A   1      41.541  30.130  29.581  1.00  0.00     0.049 A 
ATOM     47  C   UNL A   1      46.193  29.086  26.681  1.00  0.00     0.074 A 
ATOM     48  C   UNL A   1      41.458  31.363  30.204  1.00  0.00     0.029 A 
ATOM     49  N   UNL A   1      42.767  30.091  28.938  1.00  0.00    -0.354 N 
ATOM     50  N   UNL A   1      45.188  29.466  27.430  1.00  0.00    -0.248 NA
ATOM     51  C   UNL A   1      47.234  30.110  26.505  1.00  0.00     0.031 C 
ATOM     52  C   UNL A   1      42.625  32.078  29.924  1.00  0.00     0.029 A 
ATOM     53  C   UNL A   1      43.444  31.283  29.137  1.00  0.00     0.049 A 
ATOM     54  H   UNL A   1      43.108  29.329  28.415  1.00  0.00     0.167 HD
ATOM     55  C   UNL A   1      45.480  30.764  27.829  1.00  0.00     0.074 A 
ATOM     56  C   UNL A   1      46.766  31.101  27.253  1.00  0.00     0.031 C 
ATOM     57  C   UNL A   1      44.739  31.601  28.595  1.00  0.00     0.034 A 
BRANCH  44  58
ATOM     58  C   UNL A   1      39.275  29.319  30.302  1.00  0.00     0.023 A 
ATOM     59  C   UNL A   1      39.123  28.789  31.599  1.00  0.00     0.012 A 
ATOM     60  C   UNL A   1      38.290  30.184  29.784  1.00  0.00     0.148 A 
ATOM     61  C   UNL A   1      38.008  29.112  32.370  1.00  0.00     0.002 A 
ATOM     62  C   UNL A   1      37.194  30.521  30.570  1.00  0.00     0.091 A 
ATOM     63  F   UNL A   1      38.457  30.672  28.547  1.00  0.00    -0.205 F 
ATOM     64  C   UNL A   1      37.050  29.985  31.861  1.00  0.00     0.022 A 
BRANCH  62  65
ATOM     65  S   UNL A   1      35.931  31.683  30.037  1.00  0.00     0.127 S 
ATOM     66  O   UNL A   1      36.738  32.850  29.678  1.00  0.00    -0.237 OA
ATOM     67  O   UNL A   1      35.330  30.985  28.901  1.00  0.00    -0.237 OA
ATOM     68  O   UNL A   1      35.047  31.872  31.178  1.00  0.00    -0.744 OA
ENDBRANCH  62  65
ENDBRANCH  44  58
BRANCH  45  69
ATOM     69  C   UNL A   1      47.686  27.463  25.297  1.00  0.00     0.023 A 
ATOM     70  C   UNL A   1      48.735  26.819  25.978  1.00  0.00     0.012 A 
ATOM     71  C   UNL A   1      47.816  27.741  23.923  1.00  0.00     0.148 A 
ATOM     72  C   UNL A   1      49.900  26.458  25.302  1.00  0.00     0.002 A 
ATOM     73  C   UNL A   1      48.963  27.346  23.248  1.00  0.00     0.091 A 
ATOM     74  F   UNL A   1      46.799  28.354  23.302  1.00  0.00    -0.205 F 
ATOM     75  C   UNL A   1      50.011  26.712  23.937  1.00  0.00     0.022 A 
BRANCH  73  76
ATOM     76  S   UNL A   1      49.158  27.537  21.473  1.00  0.00     0.127 S 
ATOM     77  O   UNL A   1      49.427  28.969  21.355  1.00  0.00    -0.237 OA
ATOM     78  O   UNL A   1      50.307  26.671  21.204  1.00  0.00    -0.237 OA
ATOM     79  O   UNL A   1      47.905  27.087  20.884  1.00  0.00    -0.744 OA
ENDBRANCH  73  76
ENDBRANCH  45  69
BRANCH  57  80
ATOM     80  C   UNL A   1      45.282  32.977  28.868  1.00  0.00     0.023 A 
ATOM     81  C   UNL A   1      46.289  33.140  29.837  1.00  0.00     0.012 A 
ATOM     82  C   UNL A   1      44.886  34.079  28.084  1.00  0.00     0.148 A 
ATOM     83  C   UNL A   1      46.892  34.383  30.029  1.00  0.00     0.002 A 
ATOM     84  C   UNL A   1      45.513  35.307  28.258  1.00  0.00     0.091 A 
ATOM     85  F   UNL A   1      43.918  33.898  27.173  1.00  0.00    -0.205 F 
ATOM     86  C   UNL A   1      46.513  35.460  29.233  1.00  0.00     0.022 A 
BRANCH  84  87
ATOM     87  S   UNL A   1      45.148  36.739  27.237  1.00  0.00     0.127 S 
ATOM     88  O   UNL A   1      45.446  36.233  25.897  1.00  0.00    -0.237 OA
ATOM     89  O   UNL A   1      43.725  36.955  27.506  1.00  0.00    -0.237 OA
ATOM     90  O   UNL A   1      46.025  37.805  27.703  1.00  0.00    -0.744 OA
ENDBRANCH  84  87
ENDBRANCH  57  80
ENDBRANCH  31  32
ENDBRANCH  24  26
ENDBRANCH  23  24
ENDBRANCH  22  23
ENDBRANCH  21  22
ENDBRANCH  20  21
ENDBRANCH   1  20
TORSDOF 21
ENDMDL
MODEL 3
REMARK VINA RESULT:      -9.5      5.641      9.072
REMARK SMILES Nc1cc(C(=O)OCCOCCOCCOC(=O)c2ccc(-c3c4nc(c(-c5cccc(S(=O)(=O)[O-])c5F)c5ccc([nH]5)c(-c5cccc(S(=O)(=O)[O-])c5F)c5nc(c(-c6cccc(S(=O)(=O)[O-])c6F)c6ccc3[nH]6)C=C5)C=C4)cc2)c(Cl)cc1Cl
REMARK SMILES IDX 12 1 11 2 10 3 9 4 8 5 7 6 5 7 6 8 4 9 2 10 3 11 85 12 84 13
REMARK SMILES IDX 86 14 82 15 83 16 1 17 13 20 14 21 15 22 16 23 17 24 18 25
REMARK SMILES IDX 19 26 20 27 81 28 21 29 80 30 22 31 23 32 24 33 74 34 25 35
REMARK SMILES IDX 79 36 73 37 75 38 26 39 78 40 72 41 71 42 27 44 59 45 39 46
REMARK SMILES IDX 58 47 40 48 43 49 57 50 76 51 41 52 42 53 56 55 77 56 44 57
REMARK SMILES IDX 28 58 29 59 37 60 30 61 32 62 38 63 31 64 33 65 34 66 35 67
REMARK SMILES IDX 36 68 60 69 61 70 69 71 62 72 64 73 70 74 63 75 65 76 66 77
REMARK SMILES IDX 67 78 68 79 45 80 46 81 54 82 47 83 49 84 55 85 48 86 50 87
REMARK SMILES IDX 51 88 52 89 53 90
REMARK H PARENT 1 18 1 19 75 43 43 54
REMARK Flexibility Score: inf
ROOT
ATOM      1  C   UNL A   1      35.410  21.828  25.725  1.00  0.00     0.188 C 
ENDROOT
BRANCH   1   2
ATOM      2  C   UNL A   1      35.197  22.929  24.662  1.00  0.00     0.188 C 
BRANCH   2   3
ATOM      3  O   UNL A   1      34.143  23.822  24.981  1.00  0.00    -0.376 OA
BRANCH   3   4
ATOM      4  C   UNL A   1      34.522  25.137  25.351  1.00  0.00     0.202 C 
BRANCH   4   5
ATOM      5  C   UNL A   1      33.795  26.292  24.646  1.00  0.00     0.261 C 
BRANCH   5   6
ATOM      6  O   UNL A   1      32.782  25.897  23.706  1.00  0.00    -0.460 OA
BRANCH   6   7
ATOM      7  C   UNL A   1      32.609  26.661  22.603  1.00  0.00     0.339 C 
ATOM      8  O   UNL A   1      33.368  26.753  21.659  1.00  0.00    -0.246 OA
BRANCH   7   9
ATOM      9  C   UNL A   1      31.301  27.345  22.729  1.00  0.00     0.080 A 
ATOM     10  C   UNL A   1      29.996  29.387  22.427  1.00  0.00     0.051 A 
ATOM     11  C   UNL A   1      31.209  28.694  22.340  1.00  0.00     0.044 A 
ATOM     12  C   UNL A   1      28.884  28.720  22.971  1.00  0.00     0.065 A 
ATOM     13  C   UNL A   1      28.969  27.386  23.377  1.00  0.00     0.044 A 
ATOM     14  Cl  UNL A   1      27.369  29.538  23.146  1.00  0.00    -0.082 Cl
ATOM     15  C   UNL A   1      30.177  26.694  23.251  1.00  0.00     0.057 A 
ATOM     16  Cl  UNL A   1      30.228  25.073  23.840  1.00  0.00    -0.083 Cl
BRANCH  10  17
ATOM     17  N   UNL A   1      29.949  30.735  22.084  1.00  0.00    -0.398 N 
ATOM     18  H   UNL A   1      30.208  31.022  21.179  1.00  0.00     0.156 HD
ATOM     19  H   UNL A   1      29.657  31.401  22.747  1.00  0.00     0.156 HD
ENDBRANCH  10  17
ENDBRANCH   7   9
ENDBRANCH   6   7
ENDBRANCH   5   6
ENDBRANCH   4   5
ENDBRANCH   3   4
ENDBRANCH   2   3
ENDBRANCH   1   2
BRANCH   1  20
ATOM     20  O   UNL A   1      36.039  20.601  25.369  1.00  0.00    -0.376 OA
BRANCH  20  21
ATOM     21  C   UNL A   1      37.357  20.620  24.840  1.00  0.00     0.202 C 
BRANCH  21  22
ATOM     22  C   UNL A   1      38.318  19.470  25.176  1.00  0.00     0.261 C 
BRANCH  22  23
ATOM     23  O   UNL A   1      39.068  19.633  26.390  1.00  0.00    -0.460 OA
BRANCH  23  24
ATOM     24  C   UNL A   1      40.399  19.844  26.234  1.00  0.00     0.338 C 
ATOM     25  O   UNL A   1      41.212  19.084  25.736  1.00  0.00    -0.246 OA
BRANCH  24  26
ATOM     26  C   UNL A   1      40.711  21.243  26.599  1.00  0.00     0.060 A 
ATOM     27  C   UNL A   1      41.525  21.535  27.695  1.00  0.00     0.016 A 
ATOM     28  C   UNL A   1      40.180  22.276  25.815  1.00  0.00     0.016 A 
ATOM     29  C   UNL A   1      41.824  22.869  27.990  1.00  0.00     0.010 A 
ATOM     30  C   UNL A   1      40.463  23.608  26.125  1.00  0.00     0.010 A 
ATOM     31  C   UNL A   1      41.305  23.913  27.202  1.00  0.00    -0.014 A 
BRANCH  31  32
ATOM     32  C   UNL A   1      41.790  25.301  27.399  1.00  0.00     0.031 A 
ATOM     33  C   UNL A   1      40.965  26.348  28.085  1.00  0.00     0.074 A 
ATOM     34  C   UNL A   1      43.008  25.615  26.916  1.00  0.00     0.049 A 
ATOM     35  N   UNL A   1      41.310  27.565  28.420  1.00  0.00    -0.248 NA
ATOM     36  C   UNL A   1      39.582  25.995  28.436  1.00  0.00     0.031 C 
ATOM     37  C   UNL A   1      43.873  24.700  26.168  1.00  0.00     0.029 A 
ATOM     38  N   UNL A   1      43.728  26.780  26.978  1.00  0.00    -0.354 N 
ATOM     39  C   UNL A   1      40.195  28.128  29.025  1.00  0.00     0.074 A 
ATOM     40  C   UNL A   1      39.150  27.124  28.991  1.00  0.00     0.031 C 
ATOM     41  C   UNL A   1      45.012  25.334  25.853  1.00  0.00     0.029 A 
ATOM     42  C   UNL A   1      44.958  26.698  26.372  1.00  0.00     0.049 A 
ATOM     43  H   UNL A   1      43.395  27.598  27.416  1.00  0.00     0.167 HD
ATOM     44  C   UNL A   1      40.067  29.357  29.578  1.00  0.00     0.034 A 
ATOM     45  C   UNL A   1      45.943  27.609  26.256  1.00  0.00     0.034 A 
ATOM     46  C   UNL A   1      41.114  30.347  29.618  1.00  0.00     0.049 A 
ATOM     47  C   UNL A   1      45.781  28.958  26.893  1.00  0.00     0.074 A 
ATOM     48  C   UNL A   1      41.093  31.591  30.226  1.00  0.00     0.029 A 
ATOM     49  N   UNL A   1      42.355  30.218  29.018  1.00  0.00    -0.354 N 
ATOM     50  N   UNL A   1      44.779  29.414  27.602  1.00  0.00    -0.248 NA
ATOM     51  C   UNL A   1      46.895  29.907  26.744  1.00  0.00     0.031 C 
ATOM     52  C   UNL A   1      42.315  32.221  29.981  1.00  0.00     0.029 A 
ATOM     53  C   UNL A   1      43.105  31.364  29.231  1.00  0.00     0.049 A 
ATOM     54  H   UNL A   1      42.662  29.429  28.515  1.00  0.00     0.167 HD
ATOM     55  C   UNL A   1      45.144  30.694  28.000  1.00  0.00     0.074 A 
ATOM     56  C   UNL A   1      46.470  30.936  27.467  1.00  0.00     0.031 C 
ATOM     57  C   UNL A   1      44.436  31.587  28.731  1.00  0.00     0.034 A 
BRANCH  44  58
ATOM     58  C   UNL A   1      38.774  29.700  30.266  1.00  0.00     0.023 A 
ATOM     59  C   UNL A   1      38.590  29.295  31.603  1.00  0.00     0.012 A 
ATOM     60  C   UNL A   1      37.818  30.535  29.654  1.00  0.00     0.148 A 
ATOM     61  C   UNL A   1      37.472  29.712  32.322  1.00  0.00     0.002 A 
ATOM     62  C   UNL A   1      36.718  30.967  30.387  1.00  0.00     0.091 A 
ATOM     63  F   UNL A   1      38.015  30.903  28.381  1.00  0.00    -0.205 F 
ATOM     64  C   UNL A   1      36.542  30.555  31.719  1.00  0.00     0.022 A 
BRANCH  62  65
ATOM     65  S   UNL A   1      35.491  32.103  29.728  1.00  0.00     0.127 S 
ATOM     66  O   UNL A   1      34.976  31.349  28.584  1.00  0.00    -0.237 OA
ATOM     67  O   UNL A   1      34.556  32.228  30.846  1.00  0.00    -0.237 OA
ATOM     68  O   UNL A   1      36.210  33.323  29.389  1.00  0.00    -0.744 OA
ENDBRANCH  62  65
ENDBRANCH  44  58
BRANCH  45  69
ATOM     69  C   UNL A   1      47.208  27.222  25.577  1.00  0.00     0.023 A 
ATOM     70  C   UNL A   1      47.343  27.453  24.196  1.00  0.00     0.012 A 
ATOM     71  C   UNL A   1      48.297  26.712  26.307  1.00  0.00     0.148 A 
ATOM     72  C   UNL A   1      48.546  27.175  23.548  1.00  0.00     0.002 A 
ATOM     73  C   UNL A   1      49.504  26.473  25.663  1.00  0.00     0.091 A 
ATOM     74  F   UNL A   1      48.139  26.506  27.622  1.00  0.00    -0.205 F 
ATOM     75  C   UNL A   1      49.629  26.695  24.281  1.00  0.00     0.022 A 
BRANCH  73  76
ATOM     76  S   UNL A   1      50.984  25.951  26.537  1.00  0.00     0.127 S 
ATOM     77  O   UNL A   1      51.891  25.647  25.432  1.00  0.00    -0.237 OA
ATOM     78  O   UNL A   1      51.321  27.156  27.297  1.00  0.00    -0.237 OA
ATOM     79  O   UNL A   1      50.584  24.811  27.349  1.00  0.00    -0.744 OA
ENDBRANCH  73  76
ENDBRANCH  45  69
BRANCH  57  80
ATOM     80  C   UNL A   1      45.061  32.927  29.011  1.00  0.00     0.023 A 
ATOM     81  C   UNL A   1      45.855  33.089  30.163  1.00  0.00     0.012 A 
ATOM     82  C   UNL A   1      44.966  33.978  28.077  1.00  0.00     0.148 A 
ATOM     83  C   UNL A   1      46.540  34.283  30.387  1.00  0.00     0.002 A 
ATOM     84  C   UNL A   1      45.678  35.153  28.291  1.00  0.00     0.091 A 
ATOM     85  F   UNL A   1      44.198  33.800  26.993  1.00  0.00    -0.205 F 
ATOM     86  C   UNL A   1      46.462  35.307  29.447  1.00  0.00     0.022 A 
BRANCH  84  87
ATOM     87  S   UNL A   1      45.699  36.504  27.108  1.00  0.00     0.127 S 
ATOM     88  O   UNL A   1      44.271  36.716  26.871  1.00  0.00    -0.237 OA
ATOM     89  O   UNL A   1      46.357  37.569  27.867  1.00  0.00    -0.237 OA
ATOM     90  O   UNL A   1      46.451  36.023  25.956  1.00  0.00    -0.744 OA
ENDBRANCH  84  87
ENDBRANCH  57  80
ENDBRANCH  31  32
ENDBRANCH  24  26
ENDBRANCH  23  24
ENDBRANCH  22  23
ENDBRANCH  21  22
ENDBRANCH  20  21
ENDBRANCH   1  20
TORSDOF 21
ENDMDL
