MODEL 1
REMARK VINA RESULT:      -9.4      0.000      0.000
REMARK SMILES CCc1ccc2c(c1)C=C(C(=O)OCCOCCOCCOC(=O)c1ccc(-c3c4nc(c(-c5cccc(S(=O)(=O)[O-])c5F)c5ccc([nH]5)c(-c5cccc(S(=O)(=O)[O-])c5F)c5nc(c(-c6cccc(S(=O)(=O)[O-])c6F)c6ccc3[nH]6)C=C5)C=C4)cc1)[C@H](C(F)(F)F)O2
REMARK SMILES IDX 18 1 17 2 16 3 15 4 14 5 13 6 11 7 12 8 10 9 3 10 4 11 8 12
REMARK SMILES IDX 5 13 7 14 6 15 9 16 93 17 88 18 2 19 1 20 89 21 90 22 91 23
REMARK SMILES IDX 92 24 19 25 20 26 21 27 22 28 23 29 24 30 25 31 26 32 87 33
REMARK SMILES IDX 27 34 86 35 28 36 29 37 30 38 80 39 31 40 85 41 79 42 81 43
REMARK SMILES IDX 32 44 84 45 78 46 77 47 33 49 65 50 45 51 64 52 46 53 49 54
REMARK SMILES IDX 63 55 82 56 47 57 48 58 62 60 83 61 50 62 34 63 35 64 43 65
REMARK SMILES IDX 36 66 38 67 44 68 37 69 39 70 40 71 41 72 42 73 66 74 67 75
REMARK SMILES IDX 75 76 68 77 70 78 76 79 69 80 71 81 72 82 73 83 74 84 51 85
REMARK SMILES IDX 52 86 60 87 53 88 55 89 61 90 54 91 56 92 57 93 58 94 59 95
REMARK H PARENT 81 48 49 59
REMARK Flexibility Score: inf
ROOT
ATOM      1  C   UNL A   1      34.553  34.120  29.966  1.00  0.00     0.188 C 
ENDROOT
BRANCH   1   2
ATOM      2  C   UNL A   1      34.115  33.540  28.607  1.00  0.00     0.188 C 
BRANCH   2   3
ATOM      3  O   UNL A   1      34.105  32.118  28.569  1.00  0.00    -0.376 OA
BRANCH   3   4
ATOM      4  C   UNL A   1      34.967  31.522  27.608  1.00  0.00     0.202 C 
BRANCH   4   5
ATOM      5  C   UNL A   1      34.906  29.994  27.653  1.00  0.00     0.261 C 
BRANCH   5   6
ATOM      6  O   UNL A   1      34.110  29.425  26.601  1.00  0.00    -0.460 OA
BRANCH   6   7
ATOM      7  C   UNL A   1      32.975  28.792  26.975  1.00  0.00     0.338 C 
ATOM      8  O   UNL A   1      32.740  28.342  28.081  1.00  0.00    -0.246 OA
BRANCH   7   9
ATOM      9  C   UNL A   1      32.019  28.786  25.850  1.00  0.00     0.087 C 
ATOM     10  C   UNL A   1      29.103  31.067  22.734  1.00  0.00    -0.047 A 
ATOM     11  C   UNL A   1      29.153  29.937  21.904  1.00  0.00     0.007 A 
ATOM     12  C   UNL A   1      29.827  31.051  23.939  1.00  0.00     0.015 A 
ATOM     13  C   UNL A   1      29.884  28.810  22.279  1.00  0.00     0.047 A 
ATOM     14  C   UNL A   1      30.579  29.929  24.309  1.00  0.00     0.018 A 
ATOM     15  C   UNL A   1      30.585  28.804  23.480  1.00  0.00     0.128 A 
ATOM     16  C   UNL A   1      31.453  29.947  25.478  1.00  0.00     0.027 C 
ATOM     17  O   UNL A   1      31.334  27.691  23.753  1.00  0.00    -0.475 OA
ATOM     18  C   UNL A   1      31.660  27.491  25.156  1.00  0.00     0.316 C 
BRANCH  10  19
ATOM     19  C   UNL A   1      28.383  32.324  22.301  1.00  0.00     0.032 C 
ATOM     20  C   UNL A   1      27.856  32.295  20.872  1.00  0.00     0.009 C 
ENDBRANCH  10  19
BRANCH  18  21
ATOM     21  C   UNL A   1      32.653  26.322  25.260  1.00  0.00     0.430 C 
ATOM     22  F   UNL A   1      32.510  25.670  26.438  1.00  0.00    -0.167 F 
ATOM     23  F   UNL A   1      32.401  25.407  24.289  1.00  0.00    -0.167 F 
ATOM     24  F   UNL A   1      33.935  26.713  25.125  1.00  0.00    -0.167 F 
ENDBRANCH  18  21
ENDBRANCH   7   9
ENDBRANCH   6   7
ENDBRANCH   5   6
ENDBRANCH   4   5
ENDBRANCH   3   4
ENDBRANCH   2   3
ENDBRANCH   1   2
BRANCH   1  25
ATOM     25  O   UNL A   1      33.896  33.733  31.169  1.00  0.00    -0.376 OA
BRANCH  25  26
ATOM     26  C   UNL A   1      34.542  32.829  32.053  1.00  0.00     0.202 C 
BRANCH  26  27
ATOM     27  C   UNL A   1      35.939  32.334  31.670  1.00  0.00     0.261 C 
BRANCH  27  28
ATOM     28  O   UNL A   1      36.672  31.740  32.752  1.00  0.00    -0.460 OA
BRANCH  28  29
ATOM     29  C   UNL A   1      37.280  30.563  32.462  1.00  0.00     0.338 C 
ATOM     30  O   UNL A   1      36.817  29.443  32.597  1.00  0.00    -0.246 OA
BRANCH  29  31
ATOM     31  C   UNL A   1      38.566  30.817  31.782  1.00  0.00     0.060 A 
ATOM     32  C   UNL A   1      39.612  31.362  32.541  1.00  0.00     0.016 A 
ATOM     33  C   UNL A   1      38.728  30.591  30.415  1.00  0.00     0.016 A 
ATOM     34  C   UNL A   1      40.816  31.708  31.927  1.00  0.00     0.010 A 
ATOM     35  C   UNL A   1      39.927  30.960  29.797  1.00  0.00     0.010 A 
ATOM     36  C   UNL A   1      40.966  31.546  30.545  1.00  0.00    -0.014 A 
BRANCH  36  37
ATOM     37  C   UNL A   1      42.145  32.121  29.855  1.00  0.00     0.031 A 
ATOM     38  C   UNL A   1      43.322  31.231  29.563  1.00  0.00     0.074 A 
ATOM     39  C   UNL A   1      42.177  33.420  29.510  1.00  0.00     0.049 A 
ATOM     40  N   UNL A   1      44.471  31.532  29.015  1.00  0.00    -0.248 NA
ATOM     41  C   UNL A   1      43.186  29.814  29.940  1.00  0.00     0.031 C 
ATOM     42  C   UNL A   1      41.098  34.381  29.729  1.00  0.00     0.029 A 
ATOM     43  N   UNL A   1      43.178  34.160  28.928  1.00  0.00    -0.354 N 
ATOM     44  C   UNL A   1      45.203  30.352  29.001  1.00  0.00     0.074 A 
ATOM     45  C   UNL A   1      44.372  29.330  29.599  1.00  0.00     0.031 C 
ATOM     46  C   UNL A   1      41.509  35.595  29.323  1.00  0.00     0.029 A 
ATOM     47  C   UNL A   1      42.885  35.500  28.836  1.00  0.00     0.049 A 
ATOM     48  H   UNL A   1      44.022  33.769  28.608  1.00  0.00     0.167 HD
ATOM     49  C   UNL A   1      46.450  30.132  28.519  1.00  0.00     0.034 A 
ATOM     50  C   UNL A   1      43.649  36.533  28.429  1.00  0.00     0.034 A 
ATOM     51  C   UNL A   1      47.274  31.143  27.915  1.00  0.00     0.049 A 
ATOM     52  C   UNL A   1      45.049  36.269  27.935  1.00  0.00     0.074 A 
ATOM     53  C   UNL A   1      48.533  31.006  27.357  1.00  0.00     0.029 A 
ATOM     54  N   UNL A   1      46.929  32.481  27.803  1.00  0.00    -0.354 N 
ATOM     55  N   UNL A   1      45.680  35.126  27.806  1.00  0.00    -0.248 NA
ATOM     56  C   UNL A   1      45.834  37.436  27.503  1.00  0.00     0.031 C 
ATOM     57  C   UNL A   1      48.959  32.267  26.926  1.00  0.00     0.029 A 
ATOM     58  C   UNL A   1      47.958  33.185  27.199  1.00  0.00     0.049 A 
ATOM     59  H   UNL A   1      46.080  32.872  28.107  1.00  0.00     0.167 HD
ATOM     60  C   UNL A   1      46.917  35.432  27.250  1.00  0.00     0.074 A 
ATOM     61  C   UNL A   1      46.941  36.866  27.048  1.00  0.00     0.031 C 
ATOM     62  C   UNL A   1      47.949  34.604  26.951  1.00  0.00     0.034 A 
BRANCH  49  63
ATOM     63  C   UNL A   1      46.989  28.730  28.600  1.00  0.00     0.023 A 
ATOM     64  C   UNL A   1      47.723  28.336  29.737  1.00  0.00     0.012 A 
ATOM     65  C   UNL A   1      46.729  27.792  27.583  1.00  0.00     0.148 A 
ATOM     66  C   UNL A   1      48.212  27.035  29.850  1.00  0.00     0.002 A 
ATOM     67  C   UNL A   1      47.188  26.487  27.719  1.00  0.00     0.091 A 
ATOM     68  F   UNL A   1      46.054  28.196  26.498  1.00  0.00    -0.205 F 
ATOM     69  C   UNL A   1      47.936  26.109  28.847  1.00  0.00     0.022 A 
BRANCH  67  70
ATOM     70  S   UNL A   1      46.826  25.206  26.513  1.00  0.00     0.127 S 
ATOM     71  O   UNL A   1      47.547  25.697  25.338  1.00  0.00    -0.237 OA
ATOM     72  O   UNL A   1      47.412  24.019  27.135  1.00  0.00    -0.237 OA
ATOM     73  O   UNL A   1      45.376  25.172  26.390  1.00  0.00    -0.744 OA
ENDBRANCH  67  70
ENDBRANCH  49  63
BRANCH  50  74
ATOM     74  C   UNL A   1      43.098  37.917  28.443  1.00  0.00     0.023 A 
ATOM     75  C   UNL A   1      42.364  38.382  27.335  1.00  0.00     0.012 A 
ATOM     76  C   UNL A   1      43.289  38.770  29.549  1.00  0.00     0.148 A 
ATOM     77  C   UNL A   1      41.852  39.681  27.316  1.00  0.00     0.002 A 
ATOM     78  C   UNL A   1      42.734  40.044  29.544  1.00  0.00     0.091 A 
ATOM     79  F   UNL A   1      44.011  38.317  30.583  1.00  0.00    -0.205 F 
ATOM     80  C   UNL A   1      42.027  40.507  28.424  1.00  0.00     0.022 A 
BRANCH  78  81
ATOM     81  S   UNL A   1      42.816  41.132  30.972  1.00  0.00     0.127 S 
ATOM     82  O   UNL A   1      44.083  41.824  30.747  1.00  0.00    -0.237 OA
ATOM     83  O   UNL A   1      41.623  41.960  30.793  1.00  0.00    -0.237 OA
ATOM     84  O   UNL A   1      42.769  40.255  32.133  1.00  0.00    -0.744 OA
ENDBRANCH  78  81
ENDBRANCH  50  74
BRANCH  62  85
ATOM     85  C   UNL A   1      49.190  35.214  26.350  1.00  0.00     0.023 A 
ATOM     86  C   UNL A   1      49.213  35.535  24.979  1.00  0.00     0.012 A 
ATOM     87  C   UNL A   1      50.298  35.543  27.155  1.00  0.00     0.148 A 
ATOM     88  C   UNL A   1      50.328  36.150  24.412  1.00  0.00     0.002 A 
ATOM     89  C   UNL A   1      51.389  36.197  26.592  1.00  0.00     0.091 A 
ATOM     90  F   UNL A   1      50.267  35.214  28.454  1.00  0.00    -0.205 F 
ATOM     91  C   UNL A   1      51.410  36.492  25.219  1.00  0.00     0.022 A 
BRANCH  89  92
ATOM     92  S   UNL A   1      52.784  36.757  27.577  1.00  0.00     0.127 S 
ATOM     93  O   UNL A   1      53.508  37.594  26.621  1.00  0.00    -0.237 OA
ATOM     94  O   UNL A   1      52.130  37.495  28.658  1.00  0.00    -0.237 OA
ATOM     95  O   UNL A   1      53.478  35.551  28.007  1.00  0.00    -0.744 OA
ENDBRANCH  89  92
ENDBRANCH  62  85
ENDBRANCH  36  37
ENDBRANCH  29  31
ENDBRANCH  28  29
ENDBRANCH  27  28
ENDBRANCH  26  27
ENDBRANCH  25  26
ENDBRANCH   1  25
TORSDOF 22
ENDMDL
MODEL 2
REMARK VINA RESULT:      -9.0      4.015      9.122
REMARK SMILES CCc1ccc2c(c1)C=C(C(=O)OCCOCCOCCOC(=O)c1ccc(-c3c4nc(c(-c5cccc(S(=O)(=O)[O-])c5F)c5ccc([nH]5)c(-c5cccc(S(=O)(=O)[O-])c5F)c5nc(c(-c6cccc(S(=O)(=O)[O-])c6F)c6ccc3[nH]6)C=C5)C=C4)cc1)[C@H](C(F)(F)F)O2
REMARK SMILES IDX 18 1 17 2 16 3 15 4 14 5 13 6 11 7 12 8 10 9 3 10 4 11 8 12
REMARK SMILES IDX 5 13 7 14 6 15 9 16 93 17 88 18 2 19 1 20 89 21 90 22 91 23
REMARK SMILES IDX 92 24 19 25 20 26 21 27 22 28 23 29 24 30 25 31 26 32 87 33
REMARK SMILES IDX 27 34 86 35 28 36 29 37 30 38 80 39 31 40 85 41 79 42 81 43
REMARK SMILES IDX 32 44 84 45 78 46 77 47 33 49 65 50 45 51 64 52 46 53 49 54
REMARK SMILES IDX 63 55 82 56 47 57 48 58 62 60 83 61 50 62 34 63 35 64 43 65
REMARK SMILES IDX 36 66 38 67 44 68 37 69 39 70 40 71 41 72 42 73 66 74 67 75
REMARK SMILES IDX 75 76 68 77 70 78 76 79 69 80 71 81 72 82 73 83 74 84 51 85
REMARK SMILES IDX 52 86 60 87 53 88 55 89 61 90 54 91 56 92 57 93 58 94 59 95
REMARK H PARENT 81 48 49 59
REMARK Flexibility Score: inf
ROOT
ATOM      1  C   UNL A   1      34.310  33.245  28.401  1.00  0.00     0.188 C 
ENDROOT
BRANCH   1   2
ATOM      2  C   UNL A   1      33.686  32.054  27.648  1.00  0.00     0.188 C 
BRANCH   2   3
ATOM      3  O   UNL A   1      32.420  32.344  27.068  1.00  0.00    -0.376 OA
BRANCH   3   4
ATOM      4  C   UNL A   1      31.689  31.221  26.594  1.00  0.00     0.202 C 
BRANCH   4   5
ATOM      5  C   UNL A   1      32.166  29.916  27.233  1.00  0.00     0.261 C 
BRANCH   5   6
ATOM      6  O   UNL A   1      32.548  28.918  26.271  1.00  0.00    -0.460 OA
BRANCH   6   7
ATOM      7  C   UNL A   1      32.035  27.679  26.448  1.00  0.00     0.338 C 
ATOM      8  O   UNL A   1      31.182  27.368  27.258  1.00  0.00    -0.246 OA
BRANCH   7   9
ATOM      9  C   UNL A   1      32.618  26.757  25.453  1.00  0.00     0.087 C 
ATOM     10  C   UNL A   1      35.707  23.248  24.201  1.00  0.00    -0.047 A 
ATOM     11  C   UNL A   1      34.901  22.977  23.084  1.00  0.00     0.007 A 
ATOM     12  C   UNL A   1      35.316  24.274  25.080  1.00  0.00     0.015 A 
ATOM     13  C   UNL A   1      33.751  23.727  22.836  1.00  0.00     0.047 A 
ATOM     14  C   UNL A   1      34.152  25.015  24.846  1.00  0.00     0.018 A 
ATOM     15  C   UNL A   1      33.386  24.747  23.708  1.00  0.00     0.128 A 
ATOM     16  C   UNL A   1      33.651  25.979  25.820  1.00  0.00     0.027 C 
ATOM     17  O   UNL A   1      32.211  25.397  23.440  1.00  0.00    -0.475 OA
ATOM     18  C   UNL A   1      32.081  26.716  24.039  1.00  0.00     0.316 C 
BRANCH  10  19
ATOM     19  C   UNL A   1      36.907  22.390  24.526  1.00  0.00     0.032 C 
ATOM     20  C   UNL A   1      36.573  20.981  25.000  1.00  0.00     0.009 C 
ENDBRANCH  10  19
BRANCH  18  21
ATOM     21  C   UNL A   1      30.647  27.215  23.801  1.00  0.00     0.430 C 
ATOM     22  F   UNL A   1      30.265  26.996  22.521  1.00  0.00    -0.167 F 
ATOM     23  F   UNL A   1      29.775  26.523  24.578  1.00  0.00    -0.167 F 
ATOM     24  F   UNL A   1      30.495  28.523  24.089  1.00  0.00    -0.167 F 
ENDBRANCH  18  21
ENDBRANCH   7   9
ENDBRANCH   6   7
ENDBRANCH   5   6
ENDBRANCH   4   5
ENDBRANCH   3   4
ENDBRANCH   2   3
ENDBRANCH   1   2
BRANCH   1  25
ATOM     25  O   UNL A   1      34.046  33.451  29.785  1.00  0.00    -0.376 OA
BRANCH  25  26
ATOM     26  C   UNL A   1      34.791  32.722  30.749  1.00  0.00     0.202 C 
BRANCH  26  27
ATOM     27  C   UNL A   1      34.805  33.251  32.186  1.00  0.00     0.261 C 
BRANCH  27  28
ATOM     28  O   UNL A   1      35.228  32.289  33.165  1.00  0.00    -0.460 OA
BRANCH  28  29
ATOM     29  C   UNL A   1      36.183  32.721  34.025  1.00  0.00     0.338 C 
ATOM     30  O   UNL A   1      36.031  33.464  34.980  1.00  0.00    -0.246 OA
BRANCH  29  31
ATOM     31  C   UNL A   1      37.456  32.026  33.750  1.00  0.00     0.060 A 
ATOM     32  C   UNL A   1      38.591  32.427  34.470  1.00  0.00     0.016 A 
ATOM     33  C   UNL A   1      37.556  31.047  32.761  1.00  0.00     0.016 A 
ATOM     34  C   UNL A   1      39.836  31.868  34.183  1.00  0.00     0.010 A 
ATOM     35  C   UNL A   1      38.810  30.504  32.458  1.00  0.00     0.010 A 
ATOM     36  C   UNL A   1      39.959  30.932  33.149  1.00  0.00    -0.014 A 
BRANCH  36  37
ATOM     37  C   UNL A   1      41.303  30.511  32.687  1.00  0.00     0.031 A 
ATOM     38  C   UNL A   1      42.006  31.337  31.645  1.00  0.00     0.074 A 
ATOM     39  C   UNL A   1      41.883  29.399  33.172  1.00  0.00     0.049 A 
ATOM     40  N   UNL A   1      43.159  31.130  31.063  1.00  0.00    -0.248 NA
ATOM     41  C   UNL A   1      41.316  32.559  31.198  1.00  0.00     0.031 C 
ATOM     42  C   UNL A   1      41.309  28.520  34.189  1.00  0.00     0.029 A 
ATOM     43  N   UNL A   1      43.076  28.803  32.843  1.00  0.00    -0.354 N 
ATOM     44  C   UNL A   1      43.324  32.179  30.168  1.00  0.00     0.074 A 
ATOM     45  C   UNL A   1      42.151  33.019  30.278  1.00  0.00     0.031 C 
ATOM     46  C   UNL A   1      42.133  27.474  34.375  1.00  0.00     0.029 A 
ATOM     47  C   UNL A   1      43.279  27.600  33.475  1.00  0.00     0.049 A 
ATOM     48  H   UNL A   1      43.722  29.200  32.216  1.00  0.00     0.167 HD
ATOM     49  C   UNL A   1      44.366  32.430  29.339  1.00  0.00     0.034 A 
ATOM     50  C   UNL A   1      44.265  26.692  33.324  1.00  0.00     0.034 A 
ATOM     51  C   UNL A   1      45.536  31.604  29.235  1.00  0.00     0.049 A 
ATOM     52  C   UNL A   1      45.393  26.975  32.364  1.00  0.00     0.074 A 
ATOM     53  C   UNL A   1      46.663  31.801  28.457  1.00  0.00     0.029 A 
ATOM     54  N   UNL A   1      45.726  30.413  29.919  1.00  0.00    -0.354 N 
ATOM     55  N   UNL A   1      45.600  28.036  31.621  1.00  0.00    -0.248 NA
ATOM     56  C   UNL A   1      46.439  25.949  32.245  1.00  0.00     0.031 C 
ATOM     57  C   UNL A   1      47.527  30.718  28.654  1.00  0.00     0.029 A 
ATOM     58  C   UNL A   1      46.945  29.855  29.569  1.00  0.00     0.049 A 
ATOM     59  H   UNL A   1      45.089  30.021  30.559  1.00  0.00     0.167 HD
ATOM     60  C   UNL A   1      46.811  27.819  30.973  1.00  0.00     0.074 A 
ATOM     61  C   UNL A   1      47.303  26.534  31.426  1.00  0.00     0.031 C 
ATOM     62  C   UNL A   1      47.450  28.602  30.069  1.00  0.00     0.034 A 
BRANCH  49  63
ATOM     63  C   UNL A   1      44.297  33.674  28.495  1.00  0.00     0.023 A 
ATOM     64  C   UNL A   1      43.895  33.575  27.148  1.00  0.00     0.012 A 
ATOM     65  C   UNL A   1      44.578  34.940  29.044  1.00  0.00     0.148 A 
ATOM     66  C   UNL A   1      43.798  34.715  26.351  1.00  0.00     0.002 A 
ATOM     67  C   UNL A   1      44.443  36.076  28.254  1.00  0.00     0.091 A 
ATOM     68  F   UNL A   1      44.986  35.009  30.319  1.00  0.00    -0.205 F 
ATOM     69  C   UNL A   1      44.062  35.965  26.906  1.00  0.00     0.022 A 
BRANCH  67  70
ATOM     70  S   UNL A   1      44.696  37.734  28.896  1.00  0.00     0.127 S 
ATOM     71  O   UNL A   1      44.815  38.513  27.663  1.00  0.00    -0.237 OA
ATOM     72  O   UNL A   1      43.462  37.967  29.647  1.00  0.00    -0.237 OA
ATOM     73  O   UNL A   1      45.899  37.666  29.714  1.00  0.00    -0.744 OA
ENDBRANCH  67  70
ENDBRANCH  49  63
BRANCH  50  74
ATOM     74  C   UNL A   1      44.247  25.435  34.124  1.00  0.00     0.023 A 
ATOM     75  C   UNL A   1      43.625  24.287  33.596  1.00  0.00     0.012 A 
ATOM     76  C   UNL A   1      44.848  25.368  35.397  1.00  0.00     0.148 A 
ATOM     77  C   UNL A   1      43.579  23.102  34.333  1.00  0.00     0.002 A 
ATOM     78  C   UNL A   1      44.842  24.171  36.103  1.00  0.00     0.091 A 
ATOM     79  F   UNL A   1      45.413  26.479  35.891  1.00  0.00    -0.205 F 
ATOM     80  C   UNL A   1      44.196  23.041  35.580  1.00  0.00     0.022 A 
BRANCH  78  81
ATOM     81  S   UNL A   1      45.708  23.974  37.665  1.00  0.00     0.127 S 
ATOM     82  O   UNL A   1      45.727  22.522  37.815  1.00  0.00    -0.237 OA
ATOM     83  O   UNL A   1      47.007  24.580  37.371  1.00  0.00    -0.237 OA
ATOM     84  O   UNL A   1      44.915  24.704  38.645  1.00  0.00    -0.744 OA
ENDBRANCH  78  81
ENDBRANCH  50  74
BRANCH  62  85
ATOM     85  C   UNL A   1      48.767  28.114  29.520  1.00  0.00     0.023 A 
ATOM     86  C   UNL A   1      49.970  28.557  30.102  1.00  0.00     0.012 A 
ATOM     87  C   UNL A   1      48.810  27.158  28.486  1.00  0.00     0.148 A 
ATOM     88  C   UNL A   1      51.198  28.077  29.648  1.00  0.00     0.002 A 
ATOM     89  C   UNL A   1      50.035  26.650  28.068  1.00  0.00     0.091 A 
ATOM     90  F   UNL A   1      47.656  26.762  27.931  1.00  0.00    -0.205 F 
ATOM     91  C   UNL A   1      51.230  27.115  28.641  1.00  0.00     0.022 A 
BRANCH  89  92
ATOM     92  S   UNL A   1      50.163  25.342  26.841  1.00  0.00     0.127 S 
ATOM     93  O   UNL A   1      49.200  24.364  27.345  1.00  0.00    -0.237 OA
ATOM     94  O   UNL A   1      49.754  26.023  25.612  1.00  0.00    -0.237 OA
ATOM     95  O   UNL A   1      51.557  24.918  26.857  1.00  0.00    -0.744 OA
ENDBRANCH  89  92
ENDBRANCH  62  85
ENDBRANCH  36  37
ENDBRANCH  29  31
ENDBRANCH  28  29
ENDBRANCH  27  28
ENDBRANCH  26  27
ENDBRANCH  25  26
ENDBRANCH   1  25
TORSDOF 22
ENDMDL
MODEL 3
REMARK VINA RESULT:      -8.8      6.208     10.416
REMARK SMILES CCc1ccc2c(c1)C=C(C(=O)OCCOCCOCCOC(=O)c1ccc(-c3c4nc(c(-c5cccc(S(=O)(=O)[O-])c5F)c5ccc([nH]5)c(-c5cccc(S(=O)(=O)[O-])c5F)c5nc(c(-c6cccc(S(=O)(=O)[O-])c6F)c6ccc3[nH]6)C=C5)C=C4)cc1)[C@H](C(F)(F)F)O2
REMARK SMILES IDX 18 1 17 2 16 3 15 4 14 5 13 6 11 7 12 8 10 9 3 10 4 11 8 12
REMARK SMILES IDX 5 13 7 14 6 15 9 16 93 17 88 18 2 19 1 20 89 21 90 22 91 23
REMARK SMILES IDX 92 24 19 25 20 26 21 27 22 28 23 29 24 30 25 31 26 32 87 33
REMARK SMILES IDX 27 34 86 35 28 36 29 37 30 38 80 39 31 40 85 41 79 42 81 43
REMARK SMILES IDX 32 44 84 45 78 46 77 47 33 49 65 50 45 51 64 52 46 53 49 54
REMARK SMILES IDX 63 55 82 56 47 57 48 58 62 60 83 61 50 62 34 63 35 64 43 65
REMARK SMILES IDX 36 66 38 67 44 68 37 69 39 70 40 71 41 72 42 73 66 74 67 75
REMARK SMILES IDX 75 76 68 77 70 78 76 79 69 80 71 81 72 82 73 83 74 84 51 85
REMARK SMILES IDX 52 86 60 87 53 88 55 89 61 90 54 91 56 92 57 93 58 94 59 95
REMARK H PARENT 81 48 49 59
REMARK Flexibility Score: inf
ROOT
ATOM      1  C   UNL A   1      33.304  29.826  27.248  1.00  0.00     0.188 C 
ENDROOT
BRANCH   1   2
ATOM      2  C   UNL A   1      32.085  29.370  26.421  1.00  0.00     0.188 C 
BRANCH   2   3
ATOM      3  O   UNL A   1      32.428  28.587  25.284  1.00  0.00    -0.376 OA
BRANCH   3   4
ATOM      4  C   UNL A   1      32.448  29.281  24.043  1.00  0.00     0.202 C 
BRANCH   4   5
ATOM      5  C   UNL A   1      32.407  28.324  22.851  1.00  0.00     0.261 C 
BRANCH   5   6
ATOM      6  O   UNL A   1      33.100  27.087  23.088  1.00  0.00    -0.460 OA
BRANCH   6   7
ATOM      7  C   UNL A   1      32.625  25.994  22.451  1.00  0.00     0.338 C 
ATOM      8  O   UNL A   1      32.023  25.989  21.394  1.00  0.00    -0.246 OA
BRANCH   7   9
ATOM      9  C   UNL A   1      33.009  24.780  23.199  1.00  0.00     0.087 C 
ATOM     10  C   UNL A   1      36.320  21.617  24.764  1.00  0.00    -0.047 A 
ATOM     11  C   UNL A   1      35.420  21.212  25.762  1.00  0.00     0.007 A 
ATOM     12  C   UNL A   1      35.926  22.630  23.872  1.00  0.00     0.015 A 
ATOM     13  C   UNL A   1      34.150  21.784  25.851  1.00  0.00     0.047 A 
ATOM     14  C   UNL A   1      34.660  23.221  23.971  1.00  0.00     0.018 A 
ATOM     15  C   UNL A   1      33.771  22.775  24.953  1.00  0.00     0.128 A 
ATOM     16  C   UNL A   1      34.289  24.372  23.154  1.00  0.00     0.027 C 
ATOM     17  O   UNL A   1      32.537  23.339  25.139  1.00  0.00    -0.475 OA
ATOM     18  C   UNL A   1      31.971  23.996  23.972  1.00  0.00     0.316 C 
BRANCH  10  19
ATOM     19  C   UNL A   1      37.726  21.066  24.709  1.00  0.00     0.032 C 
ATOM     20  C   UNL A   1      37.826  19.558  24.905  1.00  0.00     0.009 C 
ENDBRANCH  10  19
BRANCH  18  21
ATOM     21  C   UNL A   1      30.691  24.730  24.403  1.00  0.00     0.430 C 
ATOM     22  F   UNL A   1      29.778  24.736  23.404  1.00  0.00    -0.167 F 
ATOM     23  F   UNL A   1      30.108  24.082  25.444  1.00  0.00    -0.167 F 
ATOM     24  F   UNL A   1      30.924  25.998  24.795  1.00  0.00    -0.167 F 
ENDBRANCH  18  21
ENDBRANCH   7   9
ENDBRANCH   6   7
ENDBRANCH   5   6
ENDBRANCH   4   5
ENDBRANCH   3   4
ENDBRANCH   2   3
ENDBRANCH   1   2
BRANCH   1  25
ATOM     25  O   UNL A   1      33.971  31.047  26.947  1.00  0.00    -0.376 OA
BRANCH  25  26
ATOM     26  C   UNL A   1      34.870  31.600  27.897  1.00  0.00     0.202 C 
BRANCH  26  27
ATOM     27  C   UNL A   1      34.349  32.720  28.802  1.00  0.00     0.261 C 
BRANCH  27  28
ATOM     28  O   UNL A   1      34.383  32.409  30.204  1.00  0.00    -0.460 OA
BRANCH  28  29
ATOM     29  C   UNL A   1      35.378  33.006  30.904  1.00  0.00     0.338 C 
ATOM     30  O   UNL A   1      35.296  34.014  31.586  1.00  0.00    -0.246 OA
BRANCH  29  31
ATOM     31  C   UNL A   1      36.590  32.163  30.870  1.00  0.00     0.060 A 
ATOM     32  C   UNL A   1      36.559  30.941  31.556  1.00  0.00     0.016 A 
ATOM     33  C   UNL A   1      37.759  32.589  30.236  1.00  0.00     0.016 A 
ATOM     34  C   UNL A   1      37.706  30.151  31.633  1.00  0.00     0.010 A 
ATOM     35  C   UNL A   1      38.915  31.808  30.335  1.00  0.00     0.010 A 
ATOM     36  C   UNL A   1      38.901  30.599  31.057  1.00  0.00    -0.014 A 
BRANCH  36  37
ATOM     37  C   UNL A   1      40.170  29.884  31.331  1.00  0.00     0.031 A 
ATOM     38  C   UNL A   1      41.001  30.305  32.512  1.00  0.00     0.074 A 
ATOM     39  C   UNL A   1      40.589  28.888  30.531  1.00  0.00     0.049 A 
ATOM     40  N   UNL A   1      42.162  29.854  32.910  1.00  0.00    -0.248 NA
ATOM     41  C   UNL A   1      40.449  31.377  33.357  1.00  0.00     0.031 C 
ATOM     42  C   UNL A   1      39.870  28.382  29.363  1.00  0.00     0.029 A 
ATOM     43  N   UNL A   1      41.743  28.145  30.567  1.00  0.00    -0.354 N 
ATOM     44  C   UNL A   1      42.491  30.599  34.035  1.00  0.00     0.074 A 
ATOM     45  C   UNL A   1      41.411  31.536  34.255  1.00  0.00     0.031 C 
ATOM     46  C   UNL A   1      40.619  27.437  28.768  1.00  0.00     0.029 A 
ATOM     47  C   UNL A   1      41.876  27.287  29.501  1.00  0.00     0.049 A 
ATOM     48  H   UNL A   1      42.411  28.219  31.286  1.00  0.00     0.167 HD
ATOM     49  C   UNL A   1      43.588  30.504  34.825  1.00  0.00     0.034 A 
ATOM     50  C   UNL A   1      42.905  26.492  29.145  1.00  0.00     0.034 A 
ATOM     51  C   UNL A   1      44.658  29.568  34.615  1.00  0.00     0.049 A 
ATOM     52  C   UNL A   1      44.132  26.434  30.019  1.00  0.00     0.074 A 
ATOM     53  C   UNL A   1      45.788  29.366  35.388  1.00  0.00     0.029 A 
ATOM     54  N   UNL A   1      44.740  28.687  33.548  1.00  0.00    -0.354 N 
ATOM     55  N   UNL A   1      44.372  27.049  31.152  1.00  0.00    -0.248 NA
ATOM     56  C   UNL A   1      45.221  25.547  29.579  1.00  0.00     0.031 C 
ATOM     57  C   UNL A   1      46.565  28.376  34.776  1.00  0.00     0.029 A 
ATOM     58  C   UNL A   1      45.910  27.950  33.632  1.00  0.00     0.049 A 
ATOM     59  H   UNL A   1      44.067  28.599  32.836  1.00  0.00     0.167 HD
ATOM     60  C   UNL A   1      45.619  26.601  31.575  1.00  0.00     0.074 A 
ATOM     61  C   UNL A   1      46.077  25.647  30.587  1.00  0.00     0.031 C 
ATOM     62  C   UNL A   1      46.330  26.961  32.672  1.00  0.00     0.034 A 
BRANCH  49  63
ATOM     63  C   UNL A   1      43.669  31.422  36.014  1.00  0.00     0.023 A 
ATOM     64  C   UNL A   1      43.154  30.995  37.254  1.00  0.00     0.012 A 
ATOM     65  C   UNL A   1      44.297  32.679  35.920  1.00  0.00     0.148 A 
ATOM     66  C   UNL A   1      43.240  31.815  38.379  1.00  0.00     0.002 A 
ATOM     67  C   UNL A   1      44.412  33.475  37.053  1.00  0.00     0.091 A 
ATOM     68  F   UNL A   1      44.755  33.077  34.725  1.00  0.00    -0.205 F 
ATOM     69  C   UNL A   1      43.877  33.049  38.280  1.00  0.00     0.022 A 
BRANCH  67  70
ATOM     70  S   UNL A   1      45.274  35.051  37.041  1.00  0.00     0.127 S 
ATOM     71  O   UNL A   1      45.035  35.527  38.404  1.00  0.00    -0.237 OA
ATOM     72  O   UNL A   1      46.654  34.648  36.770  1.00  0.00    -0.237 OA
ATOM     73  O   UNL A   1      44.653  35.838  35.985  1.00  0.00    -0.744 OA
ENDBRANCH  67  70
ENDBRANCH  49  63
BRANCH  50  74
ATOM     74  C   UNL A   1      42.810  25.660  27.912  1.00  0.00     0.023 A 
ATOM     75  C   UNL A   1      43.296  26.171  26.694  1.00  0.00     0.012 A 
ATOM     76  C   UNL A   1      42.250  24.368  27.942  1.00  0.00     0.148 A 
ATOM     77  C   UNL A   1      43.204  25.419  25.521  1.00  0.00     0.002 A 
ATOM     78  C   UNL A   1      42.206  23.605  26.781  1.00  0.00     0.091 A 
ATOM     79  F   UNL A   1      41.770  23.910  29.108  1.00  0.00    -0.205 F 
ATOM     80  C   UNL A   1      42.669  24.134  25.567  1.00  0.00     0.022 A 
BRANCH  78  81
ATOM     81  S   UNL A   1      41.637  21.901  26.773  1.00  0.00     0.127 S 
ATOM     82  O   UNL A   1      40.212  22.060  27.054  1.00  0.00    -0.237 OA
ATOM     83  O   UNL A   1      41.952  21.481  25.407  1.00  0.00    -0.237 OA
ATOM     84  O   UNL A   1      42.416  21.225  27.802  1.00  0.00    -0.744 OA
ENDBRANCH  78  81
ENDBRANCH  50  74
BRANCH  62  85
ATOM     85  C   UNL A   1      47.672  26.309  32.887  1.00  0.00     0.023 A 
ATOM     86  C   UNL A   1      48.830  26.905  32.351  1.00  0.00     0.012 A 
ATOM     87  C   UNL A   1      47.796  25.155  33.687  1.00  0.00     0.148 A 
ATOM     88  C   UNL A   1      50.087  26.350  32.584  1.00  0.00     0.002 A 
ATOM     89  C   UNL A   1      49.057  24.633  33.952  1.00  0.00     0.091 A 
ATOM     90  F   UNL A   1      46.682  24.590  34.174  1.00  0.00    -0.205 F 
ATOM     91  C   UNL A   1      50.203  25.223  33.394  1.00  0.00     0.022 A 
BRANCH  89  92
ATOM     92  S   UNL A   1      49.305  23.239  35.060  1.00  0.00     0.127 S 
ATOM     93  O   UNL A   1      48.467  23.610  36.199  1.00  0.00    -0.237 OA
ATOM     94  O   UNL A   1      48.797  22.116  34.270  1.00  0.00    -0.237 OA
ATOM     95  O   UNL A   1      50.736  23.189  35.323  1.00  0.00    -0.744 OA
ENDBRANCH  89  92
ENDBRANCH  62  85
ENDBRANCH  36  37
ENDBRANCH  29  31
ENDBRANCH  28  29
ENDBRANCH  27  28
ENDBRANCH  26  27
ENDBRANCH  25  26
ENDBRANCH   1  25
TORSDOF 22
ENDMDL
