MODEL 1
REMARK VINA RESULT:      -9.9      0.000      0.000
REMARK SMILES CN(C)C(=O)c1cccc(NCc2cc(C(=O)OCCOCCOCCOC(=O)c3ccc(-c4c5nc(c(-c6cccc(S(=O)(=O)[O-])c6F)c6ccc([nH]6)c(-c6cccc(S(=O)(=O)[O-])c6F)c6nc(c(-c7cccc(S(=O)(=O)[O-])c7F)c7ccc4[nH]7)C=C6)C=C5)cc3)cs2)c1
REMARK SMILES IDX 22 1 21 2 20 3 19 4 18 5 16 6 17 7 15 8 13 9 14 10 94 11
REMARK SMILES IDX 93 12 12 13 11 14 10 16 6 17 7 18 95 19 8 20 9 21 4 22 1 23
REMARK SMILES IDX 2 24 3 25 5 26 23 27 24 28 25 29 26 30 27 31 28 32 29 33
REMARK SMILES IDX 30 34 31 35 92 36 32 37 91 38 33 39 34 40 35 41 85 42 36 43
REMARK SMILES IDX 90 44 84 45 86 46 37 47 89 48 83 49 82 50 38 52 70 53 50 54
REMARK SMILES IDX 69 55 51 56 54 57 68 58 87 59 52 60 53 61 67 63 88 64 55 65
REMARK SMILES IDX 39 66 40 67 48 68 41 69 43 70 49 71 42 72 44 73 45 74 46 75
REMARK SMILES IDX 47 76 71 77 72 78 80 79 73 80 75 81 81 82 74 83 76 84 77 85
REMARK SMILES IDX 78 86 79 87 56 88 57 89 65 90 58 91 60 92 66 93 59 94 61 95
REMARK SMILES IDX 62 96 63 97 64 98
REMARK H PARENT 11 15 86 51 54 62
REMARK Flexibility Score: inf
ROOT
ATOM      1  C   UNL A   1      31.783  26.275  26.801  1.00  0.00     0.188 C 
ENDROOT
BRANCH   1   2
ATOM      2  O   UNL A   1      30.793  26.044  25.806  1.00  0.00    -0.376 OA
BRANCH   2   3
ATOM      3  C   UNL A   1      30.452  24.721  25.425  1.00  0.00     0.202 C 
BRANCH   3   4
ATOM      4  C   UNL A   1      30.482  23.641  26.509  1.00  0.00     0.261 C 
BRANCH   4   5
ATOM      5  O   UNL A   1      31.716  22.905  26.554  1.00  0.00    -0.460 OA
BRANCH   5   6
ATOM      6  C   UNL A   1      31.902  22.019  25.531  1.00  0.00     0.339 C 
ATOM      7  O   UNL A   1      31.381  20.914  25.465  1.00  0.00    -0.246 OA
BRANCH   6   8
ATOM      8  C   UNL A   1      32.730  22.558  24.455  1.00  0.00     0.071 A 
ATOM      9  C   UNL A   1      33.399  23.366  22.345  1.00  0.00     0.025 A 
ATOM     10  C   UNL A   1      32.368  22.808  23.086  1.00  0.00     0.033 A 
ATOM     11  S   UNL A   1      34.821  23.520  23.287  1.00  0.00    -0.146 S 
ATOM     12  C   UNL A   1      34.054  22.893  24.672  1.00  0.00     0.080 A 
BRANCH   9  13
ATOM     13  C   UNL A   1      33.359  23.841  20.910  1.00  0.00     0.159 C 
BRANCH  13  14
ATOM     14  N   UNL A   1      32.650  25.087  20.674  1.00  0.00    -0.380 N 
ATOM     15  H   UNL A   1      32.287  25.215  19.768  1.00  0.00     0.160 HD
BRANCH  14  16
ATOM     16  C   UNL A   1      32.426  26.111  21.567  1.00  0.00     0.035 A 
ATOM     17  C   UNL A   1      30.809  27.519  22.748  1.00  0.00     0.042 A 
ATOM     18  C   UNL A   1      31.846  28.215  23.372  1.00  0.00     0.014 A 
ATOM     19  C   UNL A   1      31.102  26.494  21.837  1.00  0.00     0.039 A 
ATOM     20  C   UNL A   1      33.164  27.863  23.104  1.00  0.00     0.003 A 
ATOM     21  C   UNL A   1      33.446  26.823  22.210  1.00  0.00     0.026 A 
BRANCH  17  22
ATOM     22  C   UNL A   1      29.416  27.960  23.007  1.00  0.00     0.253 C 
ATOM     23  C   UNL A   1      27.655  29.643  22.959  1.00  0.00     0.146 C 
ATOM     24  N   UNL A   1      28.988  29.213  22.574  1.00  0.00    -0.345 N 
ATOM     25  C   UNL A   1      29.701  30.070  21.636  1.00  0.00     0.146 C 
ATOM     26  O   UNL A   1      28.680  27.175  23.606  1.00  0.00    -0.269 OA
ENDBRANCH  17  22
ENDBRANCH  14  16
ENDBRANCH  13  14
ENDBRANCH   9  13
ENDBRANCH   6   8
ENDBRANCH   5   6
ENDBRANCH   4   5
ENDBRANCH   3   4
ENDBRANCH   2   3
ENDBRANCH   1   2
BRANCH   1  27
ATOM     27  C   UNL A   1      31.761  27.571  27.635  1.00  0.00     0.188 C 
BRANCH  27  28
ATOM     28  O   UNL A   1      32.292  28.713  26.978  1.00  0.00    -0.376 OA
BRANCH  28  29
ATOM     29  C   UNL A   1      31.490  29.885  27.019  1.00  0.00     0.202 C 
BRANCH  29  30
ATOM     30  C   UNL A   1      32.213  31.151  26.546  1.00  0.00     0.261 C 
BRANCH  30  31
ATOM     31  O   UNL A   1      33.640  31.125  26.708  1.00  0.00    -0.460 OA
BRANCH  31  32
ATOM     32  C   UNL A   1      34.148  31.838  27.738  1.00  0.00     0.338 C 
ATOM     33  O   UNL A   1      33.592  32.723  28.362  1.00  0.00    -0.246 OA
BRANCH  32  34
ATOM     34  C   UNL A   1      35.454  31.253  28.101  1.00  0.00     0.060 A 
ATOM     35  C   UNL A   1      35.521  29.885  28.388  1.00  0.00     0.016 A 
ATOM     36  C   UNL A   1      36.600  32.051  28.171  1.00  0.00     0.016 A 
ATOM     37  C   UNL A   1      36.734  29.320  28.788  1.00  0.00     0.010 A 
ATOM     38  C   UNL A   1      37.810  31.484  28.580  1.00  0.00     0.010 A 
ATOM     39  C   UNL A   1      37.876  30.123  28.923  1.00  0.00    -0.014 A 
BRANCH  39  40
ATOM     40  C   UNL A   1      39.093  29.573  29.569  1.00  0.00     0.031 A 
ATOM     41  C   UNL A   1      39.540  30.152  30.885  1.00  0.00     0.074 A 
ATOM     42  C   UNL A   1      39.795  28.577  29.000  1.00  0.00     0.049 A 
ATOM     43  N   UNL A   1      40.537  29.792  31.651  1.00  0.00    -0.248 NA
ATOM     44  C   UNL A   1      38.761  31.288  31.405  1.00  0.00     0.031 C 
ATOM     45  C   UNL A   1      39.488  27.951  27.715  1.00  0.00     0.029 A 
ATOM     46  N   UNL A   1      40.929  27.931  29.428  1.00  0.00    -0.354 N 
ATOM     47  C   UNL A   1      40.513  30.659  32.735  1.00  0.00     0.074 A 
ATOM     48  C   UNL A   1      39.416  31.579  32.518  1.00  0.00     0.031 C 
ATOM     49  C   UNL A   1      40.425  27.023  27.449  1.00  0.00     0.029 A 
ATOM     50  C   UNL A   1      41.398  26.993  28.541  1.00  0.00     0.049 A 
ATOM     51  H   UNL A   1      41.365  28.123  30.290  1.00  0.00     0.167 HD
ATOM     52  C   UNL A   1      41.313  30.678  33.827  1.00  0.00     0.034 A 
ATOM     53  C   UNL A   1      42.488  26.200  28.603  1.00  0.00     0.034 A 
ATOM     54  C   UNL A   1      42.396  29.760  34.053  1.00  0.00     0.049 A 
ATOM     55  C   UNL A   1      43.364  26.239  29.830  1.00  0.00     0.074 A 
ATOM     56  C   UNL A   1      43.231  29.670  35.154  1.00  0.00     0.029 A 
ATOM     57  N   UNL A   1      42.803  28.783  33.160  1.00  0.00    -0.354 N 
ATOM     58  N   UNL A   1      43.229  26.955  30.921  1.00  0.00    -0.248 NA
ATOM     59  C   UNL A   1      44.519  25.327  29.853  1.00  0.00     0.031 C 
ATOM     60  C   UNL A   1      44.153  28.645  34.919  1.00  0.00     0.029 A 
ATOM     61  C   UNL A   1      43.881  28.087  33.680  1.00  0.00     0.049 A 
ATOM     62  H   UNL A   1      42.388  28.609  32.285  1.00  0.00     0.167 HD
ATOM     63  C   UNL A   1      44.255  26.554  31.771  1.00  0.00     0.074 A 
ATOM     64  C   UNL A   1      44.993  25.518  31.078  1.00  0.00     0.031 C 
ATOM     65  C   UNL A   1      44.567  27.012  33.009  1.00  0.00     0.034 A 
BRANCH  52  66
ATOM     66  C   UNL A   1      41.011  31.699  34.890  1.00  0.00     0.023 A 
ATOM     67  C   UNL A   1      41.900  32.774  35.082  1.00  0.00     0.012 A 
ATOM     68  C   UNL A   1      39.833  31.626  35.658  1.00  0.00     0.148 A 
ATOM     69  C   UNL A   1      41.635  33.751  36.042  1.00  0.00     0.002 A 
ATOM     70  C   UNL A   1      39.557  32.623  36.587  1.00  0.00     0.091 A 
ATOM     71  F   UNL A   1      39.014  30.579  35.478  1.00  0.00    -0.205 F 
ATOM     72  C   UNL A   1      40.461  33.680  36.786  1.00  0.00     0.022 A 
BRANCH  70  73
ATOM     73  S   UNL A   1      38.038  32.652  37.544  1.00  0.00     0.127 S 
ATOM     74  O   UNL A   1      38.057  34.010  38.085  1.00  0.00    -0.237 OA
ATOM     75  O   UNL A   1      37.020  32.420  36.518  1.00  0.00    -0.237 OA
ATOM     76  O   UNL A   1      38.164  31.583  38.524  1.00  0.00    -0.744 OA
ENDBRANCH  70  73
ENDBRANCH  52  66
BRANCH  53  77
ATOM     77  C   UNL A   1      42.779  25.245  27.495  1.00  0.00     0.023 A 
ATOM     78  C   UNL A   1      43.634  25.641  26.448  1.00  0.00     0.012 A 
ATOM     79  C   UNL A   1      42.223  23.952  27.478  1.00  0.00     0.148 A 
ATOM     80  C   UNL A   1      43.910  24.775  25.389  1.00  0.00     0.002 A 
ATOM     81  C   UNL A   1      42.542  23.077  26.446  1.00  0.00     0.091 A 
ATOM     82  F   UNL A   1      41.393  23.604  28.471  1.00  0.00    -0.205 F 
ATOM     83  C   UNL A   1      43.372  23.490  25.393  1.00  0.00     0.022 A 
BRANCH  81  84
ATOM     84  S   UNL A   1      41.987  21.367  26.433  1.00  0.00     0.127 S 
ATOM     85  O   UNL A   1      42.220  20.966  27.818  1.00  0.00    -0.237 OA
ATOM     86  O   UNL A   1      40.579  21.507  26.060  1.00  0.00    -0.237 OA
ATOM     87  O   UNL A   1      42.809  20.702  25.431  1.00  0.00    -0.744 OA
ENDBRANCH  81  84
ENDBRANCH  53  77
BRANCH  65  88
ATOM     88  C   UNL A   1      45.735  26.380  33.721  1.00  0.00     0.023 A 
ATOM     89  C   UNL A   1      47.049  26.697  33.325  1.00  0.00     0.012 A 
ATOM     90  C   UNL A   1      45.533  25.540  34.834  1.00  0.00     0.148 A 
ATOM     91  C   UNL A   1      48.144  26.164  34.006  1.00  0.00     0.002 A 
ATOM     92  C   UNL A   1      46.628  25.048  35.535  1.00  0.00     0.091 A 
ATOM     93  F   UNL A   1      44.276  25.231  35.186  1.00  0.00    -0.205 F 
ATOM     94  C   UNL A   1      47.934  25.351  35.117  1.00  0.00     0.022 A 
BRANCH  92  95
ATOM     95  S   UNL A   1      46.439  24.069  37.031  1.00  0.00     0.127 S 
ATOM     96  O   UNL A   1      47.826  23.742  37.352  1.00  0.00    -0.237 OA
ATOM     97  O   UNL A   1      45.807  25.017  37.951  1.00  0.00    -0.237 OA
ATOM     98  O   UNL A   1      45.593  22.942  36.660  1.00  0.00    -0.744 OA
ENDBRANCH  92  95
ENDBRANCH  65  88
ENDBRANCH  39  40
ENDBRANCH  32  34
ENDBRANCH  31  32
ENDBRANCH  30  31
ENDBRANCH  29  30
ENDBRANCH  28  29
ENDBRANCH  27  28
ENDBRANCH   1  27
TORSDOF 24
ENDMDL
MODEL 2
REMARK VINA RESULT:      -9.6      2.285      2.687
REMARK SMILES CN(C)C(=O)c1cccc(NCc2cc(C(=O)OCCOCCOCCOC(=O)c3ccc(-c4c5nc(c(-c6cccc(S(=O)(=O)[O-])c6F)c6ccc([nH]6)c(-c6cccc(S(=O)(=O)[O-])c6F)c6nc(c(-c7cccc(S(=O)(=O)[O-])c7F)c7ccc4[nH]7)C=C6)C=C5)cc3)cs2)c1
REMARK SMILES IDX 22 1 21 2 20 3 19 4 18 5 16 6 17 7 15 8 13 9 14 10 94 11
REMARK SMILES IDX 93 12 12 13 11 14 10 16 6 17 7 18 95 19 8 20 9 21 4 22 1 23
REMARK SMILES IDX 2 24 3 25 5 26 23 27 24 28 25 29 26 30 27 31 28 32 29 33
REMARK SMILES IDX 30 34 31 35 92 36 32 37 91 38 33 39 34 40 35 41 85 42 36 43
REMARK SMILES IDX 90 44 84 45 86 46 37 47 89 48 83 49 82 50 38 52 70 53 50 54
REMARK SMILES IDX 69 55 51 56 54 57 68 58 87 59 52 60 53 61 67 63 88 64 55 65
REMARK SMILES IDX 39 66 40 67 48 68 41 69 43 70 49 71 42 72 44 73 45 74 46 75
REMARK SMILES IDX 47 76 71 77 72 78 80 79 73 80 75 81 81 82 74 83 76 84 77 85
REMARK SMILES IDX 78 86 79 87 56 88 57 89 65 90 58 91 60 92 66 93 59 94 61 95
REMARK SMILES IDX 62 96 63 97 64 98
REMARK H PARENT 11 15 86 51 54 62
REMARK Flexibility Score: inf
ROOT
ATOM      1  C   UNL A   1      31.840  26.285  27.076  1.00  0.00     0.188 C 
ENDROOT
BRANCH   1   2
ATOM      2  O   UNL A   1      31.008  26.111  25.935  1.00  0.00    -0.376 OA
BRANCH   2   3
ATOM      3  C   UNL A   1      30.678  24.809  25.477  1.00  0.00     0.202 C 
BRANCH   3   4
ATOM      4  C   UNL A   1      30.628  23.684  26.513  1.00  0.00     0.261 C 
BRANCH   4   5
ATOM      5  O   UNL A   1      31.820  22.882  26.551  1.00  0.00    -0.460 OA
BRANCH   5   6
ATOM      6  C   UNL A   1      31.954  21.992  25.523  1.00  0.00     0.339 C 
ATOM      7  O   UNL A   1      31.384  20.911  25.460  1.00  0.00    -0.246 OA
BRANCH   6   8
ATOM      8  C   UNL A   1      32.792  22.497  24.438  1.00  0.00     0.071 A 
ATOM      9  C   UNL A   1      33.458  23.353  22.347  1.00  0.00     0.025 A 
ATOM     10  C   UNL A   1      32.402  22.874  23.107  1.00  0.00     0.033 A 
ATOM     11  S   UNL A   1      34.929  23.280  23.221  1.00  0.00    -0.146 S 
ATOM     12  C   UNL A   1      34.155  22.660  24.606  1.00  0.00     0.080 A 
BRANCH   9  13
ATOM     13  C   UNL A   1      33.411  23.920  20.946  1.00  0.00     0.159 C 
BRANCH  13  14
ATOM     14  N   UNL A   1      32.555  25.079  20.758  1.00  0.00    -0.380 N 
ATOM     15  H   UNL A   1      32.060  25.120  19.908  1.00  0.00     0.160 HD
BRANCH  14  16
ATOM     16  C   UNL A   1      32.354  26.127  21.628  1.00  0.00     0.035 A 
ATOM     17  C   UNL A   1      30.767  27.586  22.791  1.00  0.00     0.042 A 
ATOM     18  C   UNL A   1      31.820  28.283  23.386  1.00  0.00     0.014 A 
ATOM     19  C   UNL A   1      31.038  26.534  21.902  1.00  0.00     0.039 A 
ATOM     20  C   UNL A   1      33.131  27.906  23.114  1.00  0.00     0.003 A 
ATOM     21  C   UNL A   1      33.389  26.842  22.242  1.00  0.00     0.026 A 
BRANCH  17  22
ATOM     22  C   UNL A   1      29.383  28.051  23.053  1.00  0.00     0.253 C 
ATOM     23  C   UNL A   1      27.646  29.757  22.987  1.00  0.00     0.146 C 
ATOM     24  N   UNL A   1      28.968  29.300  22.598  1.00  0.00    -0.345 N 
ATOM     25  C   UNL A   1      29.684  30.127  21.636  1.00  0.00     0.146 C 
ATOM     26  O   UNL A   1      28.643  27.289  23.675  1.00  0.00    -0.269 OA
ENDBRANCH  17  22
ENDBRANCH  14  16
ENDBRANCH  13  14
ENDBRANCH   9  13
ENDBRANCH   6   8
ENDBRANCH   5   6
ENDBRANCH   4   5
ENDBRANCH   3   4
ENDBRANCH   2   3
ENDBRANCH   1   2
BRANCH   1  27
ATOM     27  C   UNL A   1      31.777  27.589  27.893  1.00  0.00     0.188 C 
BRANCH  27  28
ATOM     28  O   UNL A   1      32.325  28.727  27.245  1.00  0.00    -0.376 OA
BRANCH  28  29
ATOM     29  C   UNL A   1      31.444  29.828  27.065  1.00  0.00     0.202 C 
BRANCH  29  30
ATOM     30  C   UNL A   1      32.080  31.026  26.352  1.00  0.00     0.261 C 
BRANCH  30  31
ATOM     31  O   UNL A   1      33.496  31.162  26.553  1.00  0.00    -0.460 OA
BRANCH  31  32
ATOM     32  C   UNL A   1      33.893  32.028  27.512  1.00  0.00     0.338 C 
ATOM     33  O   UNL A   1      33.261  32.969  27.957  1.00  0.00    -0.246 OA
BRANCH  32  34
ATOM     34  C   UNL A   1      35.176  31.548  28.061  1.00  0.00     0.060 A 
ATOM     35  C   UNL A   1      35.281  30.207  28.449  1.00  0.00     0.016 A 
ATOM     36  C   UNL A   1      36.262  32.417  28.206  1.00  0.00     0.016 A 
ATOM     37  C   UNL A   1      36.467  29.743  29.024  1.00  0.00     0.010 A 
ATOM     38  C   UNL A   1      37.443  31.951  28.789  1.00  0.00     0.010 A 
ATOM     39  C   UNL A   1      37.541  30.621  29.231  1.00  0.00    -0.014 A 
BRANCH  39  40
ATOM     40  C   UNL A   1      38.700  30.188  30.048  1.00  0.00     0.031 A 
ATOM     41  C   UNL A   1      38.872  30.766  31.428  1.00  0.00     0.074 A 
ATOM     42  C   UNL A   1      39.592  29.298  29.577  1.00  0.00     0.049 A 
ATOM     43  N   UNL A   1      39.776  30.493  32.333  1.00  0.00    -0.248 NA
ATOM     44  C   UNL A   1      37.897  31.788  31.841  1.00  0.00     0.031 C 
ATOM     45  C   UNL A   1      39.558  28.687  28.250  1.00  0.00     0.029 A 
ATOM     46  N   UNL A   1      40.715  28.767  30.165  1.00  0.00    -0.354 N 
ATOM     47  C   UNL A   1      39.487  31.313  33.415  1.00  0.00     0.074 A 
ATOM     48  C   UNL A   1      38.337  32.112  33.047  1.00  0.00     0.031 C 
ATOM     49  C   UNL A   1      40.626  27.879  28.116  1.00  0.00     0.029 A 
ATOM     50  C   UNL A   1      41.419  27.919  29.345  1.00  0.00     0.049 A 
ATOM     51  H   UNL A   1      40.989  28.976  31.087  1.00  0.00     0.167 HD
ATOM     52  C   UNL A   1      40.103  31.382  34.619  1.00  0.00     0.034 A 
ATOM     53  C   UNL A   1      42.570  27.252  29.562  1.00  0.00     0.034 A 
ATOM     54  C   UNL A   1      41.238  30.584  34.994  1.00  0.00     0.049 A 
ATOM     55  C   UNL A   1      43.239  27.344  30.910  1.00  0.00     0.074 A 
ATOM     56  C   UNL A   1      41.901  30.548  36.209  1.00  0.00     0.029 A 
ATOM     57  N   UNL A   1      41.887  29.690  34.157  1.00  0.00    -0.354 N 
ATOM     58  N   UNL A   1      42.858  28.002  31.979  1.00  0.00    -0.248 NA
ATOM     59  C   UNL A   1      44.475  26.568  31.096  1.00  0.00     0.031 C 
ATOM     60  C   UNL A   1      42.960  29.641  36.102  1.00  0.00     0.029 A 
ATOM     61  C   UNL A   1      42.947  29.102  34.826  1.00  0.00     0.049 A 
ATOM     62  H   UNL A   1      41.633  29.502  33.225  1.00  0.00     0.167 HD
ATOM     63  C   UNL A   1      43.781  27.688  32.971  1.00  0.00     0.074 A 
ATOM     64  C   UNL A   1      44.731  26.767  32.383  1.00  0.00     0.031 C 
ATOM     65  C   UNL A   1      43.847  28.134  34.251  1.00  0.00     0.034 A 
BRANCH  52  66
ATOM     66  C   UNL A   1      39.526  32.324  35.640  1.00  0.00     0.023 A 
ATOM     67  C   UNL A   1      38.514  31.863  36.505  1.00  0.00     0.012 A 
ATOM     68  C   UNL A   1      40.014  33.637  35.780  1.00  0.00     0.148 A 
ATOM     69  C   UNL A   1      37.976  32.704  37.479  1.00  0.00     0.002 A 
ATOM     70  C   UNL A   1      39.499  34.457  36.776  1.00  0.00     0.091 A 
ATOM     71  F   UNL A   1      40.957  34.064  34.928  1.00  0.00    -0.205 F 
ATOM     72  C   UNL A   1      38.474  33.996  37.620  1.00  0.00     0.022 A 
BRANCH  70  73
ATOM     73  S   UNL A   1      40.124  36.114  37.079  1.00  0.00     0.127 S 
ATOM     74  O   UNL A   1      41.543  35.854  37.318  1.00  0.00    -0.237 OA
ATOM     75  O   UNL A   1      39.834  36.791  35.814  1.00  0.00    -0.237 OA
ATOM     76  O   UNL A   1      39.375  36.620  38.220  1.00  0.00    -0.744 OA
ENDBRANCH  70  73
ENDBRANCH  52  66
BRANCH  53  77
ATOM     77  C   UNL A   1      43.135  26.375  28.496  1.00  0.00     0.023 A 
ATOM     78  C   UNL A   1      42.582  25.097  28.286  1.00  0.00     0.012 A 
ATOM     79  C   UNL A   1      44.205  26.803  27.686  1.00  0.00     0.148 A 
ATOM     80  C   UNL A   1      43.103  24.248  27.308  1.00  0.00     0.002 A 
ATOM     81  C   UNL A   1      44.685  25.973  26.680  1.00  0.00     0.091 A 
ATOM     82  F   UNL A   1      44.732  28.013  27.917  1.00  0.00    -0.205 F 
ATOM     83  C   UNL A   1      44.147  24.689  26.499  1.00  0.00     0.022 A 
BRANCH  81  84
ATOM     84  S   UNL A   1      45.948  26.506  25.519  1.00  0.00     0.127 S 
ATOM     85  O   UNL A   1      46.047  25.349  24.632  1.00  0.00    -0.237 OA
ATOM     86  O   UNL A   1      45.331  27.690  24.921  1.00  0.00    -0.237 OA
ATOM     87  O   UNL A   1      47.125  26.789  26.329  1.00  0.00    -0.744 OA
ENDBRANCH  81  84
ENDBRANCH  53  77
BRANCH  65  88
ATOM     88  C   UNL A   1      44.957  27.612  35.125  1.00  0.00     0.023 A 
ATOM     89  C   UNL A   1      44.754  26.446  35.889  1.00  0.00     0.012 A 
ATOM     90  C   UNL A   1      46.226  28.225  35.124  1.00  0.00     0.148 A 
ATOM     91  C   UNL A   1      45.787  25.916  36.663  1.00  0.00     0.002 A 
ATOM     92  C   UNL A   1      47.263  27.666  35.864  1.00  0.00     0.091 A 
ATOM     93  F   UNL A   1      46.397  29.346  34.408  1.00  0.00    -0.205 F 
ATOM     94  C   UNL A   1      47.042  26.518  36.641  1.00  0.00     0.022 A 
BRANCH  92  95
ATOM     95  S   UNL A   1      48.932  28.330  35.814  1.00  0.00     0.127 S 
ATOM     96  O   UNL A   1      49.646  27.414  36.699  1.00  0.00    -0.237 OA
ATOM     97  O   UNL A   1      49.279  28.205  34.397  1.00  0.00    -0.237 OA
ATOM     98  O   UNL A   1      48.823  29.706  36.282  1.00  0.00    -0.744 OA
ENDBRANCH  92  95
ENDBRANCH  65  88
ENDBRANCH  39  40
ENDBRANCH  32  34
ENDBRANCH  31  32
ENDBRANCH  30  31
ENDBRANCH  29  30
ENDBRANCH  28  29
ENDBRANCH  27  28
ENDBRANCH   1  27
TORSDOF 24
ENDMDL
MODEL 3
REMARK VINA RESULT:      -8.8      6.246      9.866
REMARK SMILES CN(C)C(=O)c1cccc(NCc2cc(C(=O)OCCOCCOCCOC(=O)c3ccc(-c4c5nc(c(-c6cccc(S(=O)(=O)[O-])c6F)c6ccc([nH]6)c(-c6cccc(S(=O)(=O)[O-])c6F)c6nc(c(-c7cccc(S(=O)(=O)[O-])c7F)c7ccc4[nH]7)C=C6)C=C5)cc3)cs2)c1
REMARK SMILES IDX 22 1 21 2 20 3 19 4 18 5 16 6 17 7 15 8 13 9 14 10 94 11
REMARK SMILES IDX 93 12 12 13 11 14 10 16 6 17 7 18 95 19 8 20 9 21 4 22 1 23
REMARK SMILES IDX 2 24 3 25 5 26 23 27 24 28 25 29 26 30 27 31 28 32 29 33
REMARK SMILES IDX 30 34 31 35 92 36 32 37 91 38 33 39 34 40 35 41 85 42 36 43
REMARK SMILES IDX 90 44 84 45 86 46 37 47 89 48 83 49 82 50 38 52 70 53 50 54
REMARK SMILES IDX 69 55 51 56 54 57 68 58 87 59 52 60 53 61 67 63 88 64 55 65
REMARK SMILES IDX 39 66 40 67 48 68 41 69 43 70 49 71 42 72 44 73 45 74 46 75
REMARK SMILES IDX 47 76 71 77 72 78 80 79 73 80 75 81 81 82 74 83 76 84 77 85
REMARK SMILES IDX 78 86 79 87 56 88 57 89 65 90 58 91 60 92 66 93 59 94 61 95
REMARK SMILES IDX 62 96 63 97 64 98
REMARK H PARENT 11 15 86 51 54 62
REMARK Flexibility Score: inf
ROOT
ATOM      1  C   UNL A   1      35.946  32.940  28.520  1.00  0.00     0.188 C 
ENDROOT
BRANCH   1   2
ATOM      2  O   UNL A   1      35.403  31.940  27.667  1.00  0.00    -0.376 OA
BRANCH   2   3
ATOM      3  C   UNL A   1      35.915  30.617  27.694  1.00  0.00     0.202 C 
BRANCH   3   4
ATOM      4  C   UNL A   1      34.908  29.465  27.635  1.00  0.00     0.261 C 
BRANCH   4   5
ATOM      5  O   UNL A   1      34.006  29.545  26.519  1.00  0.00    -0.460 OA
BRANCH   5   6
ATOM      6  C   UNL A   1      32.827  28.873  26.675  1.00  0.00     0.339 C 
ATOM      7  O   UNL A   1      32.063  29.018  27.620  1.00  0.00    -0.246 OA
BRANCH   6   8
ATOM      8  C   UNL A   1      32.512  28.006  25.542  1.00  0.00     0.071 A 
ATOM      9  C   UNL A   1      31.369  26.503  24.133  1.00  0.00     0.025 A 
ATOM     10  C   UNL A   1      31.366  27.160  25.354  1.00  0.00     0.033 A 
ATOM     11  S   UNL A   1      32.793  26.857  23.247  1.00  0.00    -0.146 S 
ATOM     12  C   UNL A   1      33.368  27.906  24.460  1.00  0.00     0.080 A 
BRANCH   9  13
ATOM     13  C   UNL A   1      30.295  25.608  23.556  1.00  0.00     0.159 C 
BRANCH  13  14
ATOM     14  N   UNL A   1      30.424  24.191  23.853  1.00  0.00    -0.380 N 
ATOM     15  H   UNL A   1      29.872  23.582  23.311  1.00  0.00     0.160 HD
BRANCH  14  16
ATOM     16  C   UNL A   1      31.226  23.598  24.802  1.00  0.00     0.035 A 
ATOM     17  C   UNL A   1      33.321  22.442  25.321  1.00  0.00     0.042 A 
ATOM     18  C   UNL A   1      32.950  22.339  26.663  1.00  0.00     0.014 A 
ATOM     19  C   UNL A   1      32.454  23.046  24.400  1.00  0.00     0.039 A 
ATOM     20  C   UNL A   1      31.731  22.865  27.079  1.00  0.00     0.003 A 
ATOM     21  C   UNL A   1      30.882  23.484  26.154  1.00  0.00     0.026 A 
BRANCH  17  22
ATOM     22  C   UNL A   1      34.599  21.817  24.899  1.00  0.00     0.253 C 
ATOM     23  C   UNL A   1      36.920  21.963  24.175  1.00  0.00     0.146 C 
ATOM     24  N   UNL A   1      35.731  22.606  24.705  1.00  0.00    -0.345 N 
ATOM     25  C   UNL A   1      35.877  23.991  25.133  1.00  0.00     0.146 C 
ATOM     26  O   UNL A   1      34.602  20.596  24.739  1.00  0.00    -0.269 OA
ENDBRANCH  17  22
ENDBRANCH  14  16
ENDBRANCH  13  14
ENDBRANCH   9  13
ENDBRANCH   6   8
ENDBRANCH   5   6
ENDBRANCH   4   5
ENDBRANCH   3   4
ENDBRANCH   2   3
ENDBRANCH   1   2
BRANCH   1  27
ATOM     27  C   UNL A   1      35.018  33.802  29.398  1.00  0.00     0.188 C 
BRANCH  27  28
ATOM     28  O   UNL A   1      35.267  33.717  30.793  1.00  0.00    -0.376 OA
BRANCH  28  29
ATOM     29  C   UNL A   1      35.435  32.406  31.318  1.00  0.00     0.202 C 
BRANCH  29  30
ATOM     30  C   UNL A   1      36.794  32.173  31.987  1.00  0.00     0.261 C 
BRANCH  30  31
ATOM     31  O   UNL A   1      37.822  33.096  31.598  1.00  0.00    -0.460 OA
BRANCH  31  32
ATOM     32  C   UNL A   1      38.912  33.164  32.396  1.00  0.00     0.338 C 
ATOM     33  O   UNL A   1      38.973  33.642  33.514  1.00  0.00    -0.246 OA
BRANCH  32  34
ATOM     34  C   UNL A   1      40.002  32.407  31.749  1.00  0.00     0.060 A 
ATOM     35  C   UNL A   1      41.008  31.860  32.553  1.00  0.00     0.016 A 
ATOM     36  C   UNL A   1      40.038  32.253  30.361  1.00  0.00     0.016 A 
ATOM     37  C   UNL A   1      42.080  31.188  31.960  1.00  0.00     0.010 A 
ATOM     38  C   UNL A   1      41.116  31.588  29.770  1.00  0.00     0.010 A 
ATOM     39  C   UNL A   1      42.158  31.081  30.563  1.00  0.00    -0.014 A 
BRANCH  39  40
ATOM     40  C   UNL A   1      43.403  30.580  29.932  1.00  0.00     0.031 A 
ATOM     41  C   UNL A   1      43.524  29.109  29.634  1.00  0.00     0.074 A 
ATOM     42  C   UNL A   1      44.415  31.412  29.627  1.00  0.00     0.049 A 
ATOM     43  N   UNL A   1      44.493  28.462  29.040  1.00  0.00    -0.248 NA
ATOM     44  C   UNL A   1      42.405  28.255  30.064  1.00  0.00     0.031 C 
ATOM     45  C   UNL A   1      44.439  32.849  29.891  1.00  0.00     0.029 A 
ATOM     46  N   UNL A   1      45.632  31.155  29.043  1.00  0.00    -0.354 N 
ATOM     47  C   UNL A   1      44.108  27.127  29.033  1.00  0.00     0.074 A 
ATOM     48  C   UNL A   1      42.827  27.052  29.703  1.00  0.00     0.031 C 
ATOM     49  C   UNL A   1      45.622  33.345  29.488  1.00  0.00     0.029 A 
ATOM     50  C   UNL A   1      46.440  32.262  28.943  1.00  0.00     0.049 A 
ATOM     51  H   UNL A   1      45.900  30.263  28.727  1.00  0.00     0.167 HD
ATOM     52  C   UNL A   1      44.747  26.060  28.498  1.00  0.00     0.034 A 
ATOM     53  C   UNL A   1      47.695  32.387  28.465  1.00  0.00     0.034 A 
ATOM     54  C   UNL A   1      46.013  26.130  27.822  1.00  0.00     0.049 A 
ATOM     55  C   UNL A   1      48.387  31.184  27.874  1.00  0.00     0.074 A 
ATOM     56  C   UNL A   1      46.715  25.110  27.203  1.00  0.00     0.029 A 
ATOM     57  N   UNL A   1      46.774  27.280  27.686  1.00  0.00    -0.354 N 
ATOM     58  N   UNL A   1      47.938  29.960  27.730  1.00  0.00    -0.248 NA
ATOM     59  C   UNL A   1      49.742  31.389  27.339  1.00  0.00     0.031 C 
ATOM     60  C   UNL A   1      47.908  25.642  26.704  1.00  0.00     0.029 A 
ATOM     61  C   UNL A   1      47.941  26.996  26.998  1.00  0.00     0.049 A 
ATOM     62  H   UNL A   1      46.522  28.168  28.028  1.00  0.00     0.167 HD
ATOM     63  C   UNL A   1      48.936  29.263  27.057  1.00  0.00     0.074 A 
ATOM     64  C   UNL A   1      50.007  30.205  26.804  1.00  0.00     0.031 C 
ATOM     65  C   UNL A   1      48.971  27.956  26.693  1.00  0.00     0.034 A 
BRANCH  52  66
ATOM     66  C   UNL A   1      44.055  24.727  28.579  1.00  0.00     0.023 A 
ATOM     67  C   UNL A   1      44.220  23.936  29.734  1.00  0.00     0.012 A 
ATOM     68  C   UNL A   1      43.208  24.280  27.548  1.00  0.00     0.148 A 
ATOM     69  C   UNL A   1      43.572  22.707  29.851  1.00  0.00     0.002 A 
ATOM     70  C   UNL A   1      42.537  23.070  27.687  1.00  0.00     0.091 A 
ATOM     71  F   UNL A   1      43.087  25.034  26.446  1.00  0.00    -0.205 F 
ATOM     72  C   UNL A   1      42.725  22.280  28.833  1.00  0.00     0.022 A 
BRANCH  70  73
ATOM     73  S   UNL A   1      41.373  22.469  26.459  1.00  0.00     0.127 S 
ATOM     74  O   UNL A   1      40.431  23.583  26.374  1.00  0.00    -0.237 OA
ATOM     75  O   UNL A   1      42.224  22.300  25.280  1.00  0.00    -0.237 OA
ATOM     76  O   UNL A   1      40.833  21.228  26.996  1.00  0.00    -0.744 OA
ENDBRANCH  70  73
ENDBRANCH  52  66
BRANCH  53  77
ATOM     77  C   UNL A   1      48.362  33.720  28.461  1.00  0.00     0.023 A 
ATOM     78  C   UNL A   1      49.134  34.111  29.572  1.00  0.00     0.012 A 
ATOM     79  C   UNL A   1      48.244  34.595  27.364  1.00  0.00     0.148 A 
ATOM     80  C   UNL A   1      49.755  35.361  29.603  1.00  0.00     0.002 A 
ATOM     81  C   UNL A   1      48.905  35.817  27.380  1.00  0.00     0.091 A 
ATOM     82  F   UNL A   1      47.485  34.214  26.327  1.00  0.00    -0.205 F 
ATOM     83  C   UNL A   1      49.649  36.209  28.504  1.00  0.00     0.022 A 
BRANCH  81  84
ATOM     84  S   UNL A   1      48.918  36.920  25.961  1.00  0.00     0.127 S 
ATOM     85  O   UNL A   1      49.457  36.055  24.915  1.00  0.00    -0.237 OA
ATOM     86  O   UNL A   1      47.499  37.249  25.819  1.00  0.00    -0.237 OA
ATOM     87  O   UNL A   1      49.757  38.044  26.352  1.00  0.00    -0.744 OA
ENDBRANCH  81  84
ENDBRANCH  53  77
BRANCH  65  88
ATOM     88  C   UNL A   1      50.184  27.462  25.949  1.00  0.00     0.023 A 
ATOM     89  C   UNL A   1      51.201  26.781  26.647  1.00  0.00     0.012 A 
ATOM     90  C   UNL A   1      50.279  27.598  24.550  1.00  0.00     0.148 A 
ATOM     91  C   UNL A   1      52.307  26.270  25.968  1.00  0.00     0.002 A 
ATOM     92  C   UNL A   1      51.363  27.048  23.874  1.00  0.00     0.091 A 
ATOM     93  F   UNL A   1      49.313  28.268  23.904  1.00  0.00    -0.205 F 
ATOM     94  C   UNL A   1      52.382  26.392  24.583  1.00  0.00     0.022 A 
BRANCH  92  95
ATOM     95  S   UNL A   1      51.484  27.083  22.082  1.00  0.00     0.127 S 
ATOM     96  O   UNL A   1      51.701  28.504  21.824  1.00  0.00    -0.237 OA
ATOM     97  O   UNL A   1      52.649  26.233  21.828  1.00  0.00    -0.237 OA
ATOM     98  O   UNL A   1      50.226  26.535  21.591  1.00  0.00    -0.744 OA
ENDBRANCH  92  95
ENDBRANCH  65  88
ENDBRANCH  39  40
ENDBRANCH  32  34
ENDBRANCH  31  32
ENDBRANCH  30  31
ENDBRANCH  29  30
ENDBRANCH  28  29
ENDBRANCH  27  28
ENDBRANCH   1  27
TORSDOF 24
ENDMDL
