MODEL 1
REMARK VINA RESULT:      -9.6      0.000      0.000
REMARK SMILES CO[C@@H]1C[C@H](C(=O)OCCOCCOCCOC(=O)c2ccc(-c3c4nc(c(-c5cccc(S(=O)(=O)[O-])c5F)c5ccc([nH]5)c(-c5cccc(S(=O)(=O)[O-])c5F)c5nc(c(-c6cccc(S(=O)(=O)[O-])c6F)c6ccc3[nH]6)C=C5)C=C4)cc2)N(C(=O)c2ccn(C)c(=O)c2)C1
REMARK SMILES IDX 13 1 12 2 11 3 10 4 9 5 8 6 6 7 7 8 5 9 3 10 4 11 94 12
REMARK SMILES IDX 83 13 2 14 1 15 84 16 85 17 86 18 87 19 93 20 88 21 91 22
REMARK SMILES IDX 89 23 92 24 90 25 14 26 15 27 16 28 17 29 18 30 19 31 20 32
REMARK SMILES IDX 21 33 82 34 22 35 81 36 23 37 24 38 25 39 75 40 26 41 80 42
REMARK SMILES IDX 74 43 76 44 27 45 79 46 73 47 72 48 28 50 60 51 40 52 59 53
REMARK SMILES IDX 41 54 44 55 58 56 77 57 42 58 43 59 57 61 78 62 45 63 29 64
REMARK SMILES IDX 30 65 38 66 31 67 33 68 39 69 32 70 34 71 35 72 36 73 37 74
REMARK SMILES IDX 61 75 62 76 70 77 63 78 65 79 71 80 64 81 66 82 67 83 68 84
REMARK SMILES IDX 69 85 46 86 47 87 55 88 48 89 50 90 56 91 49 92 51 93 52 94
REMARK SMILES IDX 53 95 54 96
REMARK H PARENT 76 49 44 60
REMARK Flexibility Score: inf
ROOT
ATOM      1  C   UNL A   1      40.840  20.195  26.981  1.00  0.00     0.188 C 
ENDROOT
BRANCH   1   2
ATOM      2  C   UNL A   1      40.674  21.502  26.195  1.00  0.00     0.188 C 
BRANCH   2   3
ATOM      3  O   UNL A   1      39.398  22.126  26.286  1.00  0.00    -0.376 OA
BRANCH   3   4
ATOM      4  C   UNL A   1      38.305  21.485  25.622  1.00  0.00     0.202 C 
BRANCH   4   5
ATOM      5  C   UNL A   1      36.949  22.210  25.635  1.00  0.00     0.261 C 
BRANCH   5   6
ATOM      6  O   UNL A   1      35.860  21.353  26.035  1.00  0.00    -0.462 OA
BRANCH   6   7
ATOM      7  C   UNL A   1      34.710  21.980  26.385  1.00  0.00     0.329 C 
ATOM      8  O   UNL A   1      34.372  22.185  27.549  1.00  0.00    -0.250 OA
BRANCH   7   9
ATOM      9  C   UNL A   1      33.936  22.562  25.178  1.00  0.00     0.198 C 
ATOM     10  C   UNL A   1      32.446  20.819  24.437  1.00  0.00     0.140 C 
ATOM     11  C   UNL A   1      33.644  21.654  23.986  1.00  0.00     0.071 C 
ATOM     12  C   UNL A   1      31.727  21.706  25.464  1.00  0.00     0.152 C 
ATOM     13  N   UNL A   1      32.588  22.861  25.656  1.00  0.00    -0.322 N 
BRANCH  10  14
ATOM     14  O   UNL A   1      32.949  19.635  25.058  1.00  0.00    -0.380 OA
ATOM     15  C   UNL A   1      32.546  18.454  24.380  1.00  0.00     0.195 C 
ENDBRANCH  10  14
BRANCH  13  16
ATOM     16  C   UNL A   1      32.173  23.953  26.380  1.00  0.00     0.254 C 
ATOM     17  O   UNL A   1      31.651  23.847  27.488  1.00  0.00    -0.269 OA
BRANCH  16  18
ATOM     18  C   UNL A   1      32.316  25.298  25.756  1.00  0.00     0.046 A 
ATOM     19  C   UNL A   1      33.504  26.091  25.956  1.00  0.00     0.032 A 
ATOM     20  C   UNL A   1      31.250  25.810  25.125  1.00  0.00     0.085 A 
ATOM     21  C   UNL A   1      33.533  27.362  25.535  1.00  0.00     0.089 A 
ATOM     22  C   UNL A   1      31.285  27.207  24.621  1.00  0.00     0.251 A 
ATOM     23  N   UNL A   1      32.444  27.929  24.893  1.00  0.00    -0.319 N 
ATOM     24  O   UNL A   1      30.298  27.634  24.028  1.00  0.00    -0.269 OA
ATOM     25  C   UNL A   1      32.518  29.333  24.508  1.00  0.00     0.153 C 
ENDBRANCH  16  18
ENDBRANCH  13  16
ENDBRANCH   7   9
ENDBRANCH   6   7
ENDBRANCH   5   6
ENDBRANCH   4   5
ENDBRANCH   3   4
ENDBRANCH   2   3
ENDBRANCH   1   2
BRANCH   1  26
ATOM     26  O   UNL A   1      42.156  19.683  26.961  1.00  0.00    -0.376 OA
BRANCH  26  27
ATOM     27  C   UNL A   1      42.482  18.508  26.232  1.00  0.00     0.202 C 
BRANCH  27  28
ATOM     28  C   UNL A   1      43.862  18.312  25.563  1.00  0.00     0.261 C 
BRANCH  28  29
ATOM     29  O   UNL A   1      44.775  19.420  25.555  1.00  0.00    -0.460 OA
BRANCH  29  30
ATOM     30  C   UNL A   1      44.746  20.261  24.494  1.00  0.00     0.338 C 
ATOM     31  O   UNL A   1      44.542  19.949  23.331  1.00  0.00    -0.246 OA
BRANCH  30  32
ATOM     32  C   UNL A   1      44.691  21.650  25.030  1.00  0.00     0.060 A 
ATOM     33  C   UNL A   1      44.323  22.685  24.155  1.00  0.00     0.016 A 
ATOM     34  C   UNL A   1      44.871  21.923  26.390  1.00  0.00     0.016 A 
ATOM     35  C   UNL A   1      44.174  23.993  24.626  1.00  0.00     0.010 A 
ATOM     36  C   UNL A   1      44.740  23.236  26.858  1.00  0.00     0.010 A 
ATOM     37  C   UNL A   1      44.424  24.284  25.974  1.00  0.00    -0.014 A 
BRANCH  37  38
ATOM     38  C   UNL A   1      44.571  25.692  26.425  1.00  0.00     0.031 A 
ATOM     39  C   UNL A   1      45.944  26.310  26.364  1.00  0.00     0.074 A 
ATOM     40  C   UNL A   1      43.536  26.408  26.901  1.00  0.00     0.049 A 
ATOM     41  N   UNL A   1      46.349  27.481  26.777  1.00  0.00    -0.248 NA
ATOM     42  C   UNL A   1      47.005  25.485  25.762  1.00  0.00     0.031 C 
ATOM     43  C   UNL A   1      42.155  25.943  26.999  1.00  0.00     0.029 A 
ATOM     44  N   UNL A   1      43.502  27.679  27.426  1.00  0.00    -0.354 N 
ATOM     45  C   UNL A   1      47.714  27.522  26.518  1.00  0.00     0.074 A 
ATOM     46  C   UNL A   1      48.071  26.252  25.923  1.00  0.00     0.031 C 
ATOM     47  C   UNL A   1      41.413  26.903  27.581  1.00  0.00     0.029 A 
ATOM     48  C   UNL A   1      42.272  28.037  27.925  1.00  0.00     0.049 A 
ATOM     49  H   UNL A   1      44.284  28.276  27.442  1.00  0.00     0.167 HD
ATOM     50  C   UNL A   1      48.594  28.525  26.744  1.00  0.00     0.034 A 
ATOM     51  C   UNL A   1      41.890  29.138  28.606  1.00  0.00     0.034 A 
ATOM     52  C   UNL A   1      48.241  29.792  27.321  1.00  0.00     0.049 A 
ATOM     53  C   UNL A   1      42.897  30.229  28.880  1.00  0.00     0.074 A 
ATOM     54  C   UNL A   1      49.056  30.887  27.550  1.00  0.00     0.029 A 
ATOM     55  N   UNL A   1      46.977  30.130  27.778  1.00  0.00    -0.354 N 
ATOM     56  N   UNL A   1      44.161  30.295  28.538  1.00  0.00    -0.248 NA
ATOM     57  C   UNL A   1      42.416  31.414  29.610  1.00  0.00     0.031 C 
ATOM     58  C   UNL A   1      48.292  31.874  28.180  1.00  0.00     0.029 A 
ATOM     59  C   UNL A   1      46.992  31.412  28.301  1.00  0.00     0.049 A 
ATOM     60  H   UNL A   1      46.186  29.545  27.736  1.00  0.00     0.167 HD
ATOM     61  C   UNL A   1      44.612  31.541  28.966  1.00  0.00     0.074 A 
ATOM     62  C   UNL A   1      43.482  32.203  29.584  1.00  0.00     0.031 C 
ATOM     63  C   UNL A   1      45.849  32.086  28.862  1.00  0.00     0.034 A 
BRANCH  50  64
ATOM     64  C   UNL A   1      50.029  28.293  26.355  1.00  0.00     0.023 A 
ATOM     65  C   UNL A   1      50.440  28.504  25.023  1.00  0.00     0.012 A 
ATOM     66  C   UNL A   1      50.983  27.915  27.321  1.00  0.00     0.148 A 
ATOM     67  C   UNL A   1      51.769  28.308  24.651  1.00  0.00     0.002 A 
ATOM     68  C   UNL A   1      52.314  27.770  26.954  1.00  0.00     0.091 A 
ATOM     69  F   UNL A   1      50.568  27.697  28.577  1.00  0.00    -0.205 F 
ATOM     70  C   UNL A   1      52.707  27.953  25.617  1.00  0.00     0.022 A 
BRANCH  68  71
ATOM     71  S   UNL A   1      53.610  27.395  28.138  1.00  0.00     0.127 S 
ATOM     72  O   UNL A   1      53.363  28.400  29.172  1.00  0.00    -0.237 OA
ATOM     73  O   UNL A   1      53.280  26.024  28.529  1.00  0.00    -0.237 OA
ATOM     74  O   UNL A   1      54.868  27.537  27.418  1.00  0.00    -0.744 OA
ENDBRANCH  68  71
ENDBRANCH  50  64
BRANCH  51  75
ATOM     75  C   UNL A   1      40.478  29.284  29.066  1.00  0.00     0.023 A 
ATOM     76  C   UNL A   1      39.473  29.623  28.139  1.00  0.00     0.012 A 
ATOM     77  C   UNL A   1      40.128  29.096  30.418  1.00  0.00     0.148 A 
ATOM     78  C   UNL A   1      38.153  29.807  28.554  1.00  0.00     0.002 A 
ATOM     79  C   UNL A   1      38.802  29.223  30.814  1.00  0.00     0.091 A 
ATOM     80  F   UNL A   1      41.100  28.791  31.289  1.00  0.00    -0.205 F 
ATOM     81  C   UNL A   1      37.816  29.599  29.888  1.00  0.00     0.022 A 
BRANCH  79  82
ATOM     82  S   UNL A   1      38.250  28.848  32.482  1.00  0.00     0.127 S 
ATOM     83  O   UNL A   1      38.927  29.881  33.261  1.00  0.00    -0.237 OA
ATOM     84  O   UNL A   1      36.802  29.018  32.360  1.00  0.00    -0.237 OA
ATOM     85  O   UNL A   1      38.677  27.481  32.742  1.00  0.00    -0.744 OA
ENDBRANCH  79  82
ENDBRANCH  51  75
BRANCH  63  86
ATOM     86  C   UNL A   1      46.053  33.492  29.368  1.00  0.00     0.023 A 
ATOM     87  C   UNL A   1      46.529  33.715  30.674  1.00  0.00     0.012 A 
ATOM     88  C   UNL A   1      45.855  34.592  28.508  1.00  0.00     0.148 A 
ATOM     89  C   UNL A   1      46.773  35.011  31.129  1.00  0.00     0.002 A 
ATOM     90  C   UNL A   1      46.150  35.877  28.950  1.00  0.00     0.091 A 
ATOM     91  F   UNL A   1      45.387  34.363  27.272  1.00  0.00    -0.205 F 
ATOM     92  C   UNL A   1      46.596  36.090  30.264  1.00  0.00     0.022 A 
BRANCH  90  93
ATOM     93  S   UNL A   1      46.050  37.314  27.877  1.00  0.00     0.127 S 
ATOM     94  O   UNL A   1      44.813  37.051  27.143  1.00  0.00    -0.237 OA
ATOM     95  O   UNL A   1      45.966  38.414  28.838  1.00  0.00    -0.237 OA
ATOM     96  O   UNL A   1      47.265  37.304  27.073  1.00  0.00    -0.744 OA
ENDBRANCH  90  93
ENDBRANCH  63  86
ENDBRANCH  37  38
ENDBRANCH  30  32
ENDBRANCH  29  30
ENDBRANCH  28  29
ENDBRANCH  27  28
ENDBRANCH  26  27
ENDBRANCH   1  26
TORSDOF 23
ENDMDL
MODEL 2
REMARK VINA RESULT:      -9.2      5.369      9.309
REMARK SMILES CO[C@@H]1C[C@H](C(=O)OCCOCCOCCOC(=O)c2ccc(-c3c4nc(c(-c5cccc(S(=O)(=O)[O-])c5F)c5ccc([nH]5)c(-c5cccc(S(=O)(=O)[O-])c5F)c5nc(c(-c6cccc(S(=O)(=O)[O-])c6F)c6ccc3[nH]6)C=C5)C=C4)cc2)N(C(=O)c2ccn(C)c(=O)c2)C1
REMARK SMILES IDX 13 1 12 2 11 3 10 4 9 5 8 6 6 7 7 8 5 9 3 10 4 11 94 12
REMARK SMILES IDX 83 13 2 14 1 15 84 16 85 17 86 18 87 19 93 20 88 21 91 22
REMARK SMILES IDX 89 23 92 24 90 25 14 26 15 27 16 28 17 29 18 30 19 31 20 32
REMARK SMILES IDX 21 33 82 34 22 35 81 36 23 37 24 38 25 39 75 40 26 41 80 42
REMARK SMILES IDX 74 43 76 44 27 45 79 46 73 47 72 48 28 50 60 51 40 52 59 53
REMARK SMILES IDX 41 54 44 55 58 56 77 57 42 58 43 59 57 61 78 62 45 63 29 64
REMARK SMILES IDX 30 65 38 66 31 67 33 68 39 69 32 70 34 71 35 72 36 73 37 74
REMARK SMILES IDX 61 75 62 76 70 77 63 78 65 79 71 80 64 81 66 82 67 83 68 84
REMARK SMILES IDX 69 85 46 86 47 87 55 88 48 89 50 90 56 91 49 92 51 93 52 94
REMARK SMILES IDX 53 95 54 96
REMARK H PARENT 76 49 44 60
REMARK Flexibility Score: inf
ROOT
ATOM      1  C   UNL A   1      40.879  23.373  26.445  1.00  0.00     0.188 C 
ENDROOT
BRANCH   1   2
ATOM      2  C   UNL A   1      39.534  22.678  26.689  1.00  0.00     0.188 C 
BRANCH   2   3
ATOM      3  O   UNL A   1      39.241  21.571  25.843  1.00  0.00    -0.376 OA
BRANCH   3   4
ATOM      4  C   UNL A   1      37.941  21.526  25.248  1.00  0.00     0.202 C 
BRANCH   4   5
ATOM      5  C   UNL A   1      36.817  22.307  25.949  1.00  0.00     0.261 C 
BRANCH   5   6
ATOM      6  O   UNL A   1      35.596  21.547  26.065  1.00  0.00    -0.462 OA
BRANCH   6   7
ATOM      7  C   UNL A   1      34.495  22.247  26.433  1.00  0.00     0.329 C 
ATOM      8  O   UNL A   1      34.252  22.576  27.592  1.00  0.00    -0.250 OA
BRANCH   7   9
ATOM      9  C   UNL A   1      33.650  22.738  25.233  1.00  0.00     0.198 C 
ATOM     10  C   UNL A   1      32.273  20.872  24.579  1.00  0.00     0.140 C 
ATOM     11  C   UNL A   1      33.395  21.780  24.074  1.00  0.00     0.071 C 
ATOM     12  C   UNL A   1      31.518  21.733  25.602  1.00  0.00     0.152 C 
ATOM     13  N   UNL A   1      32.297  22.952  25.741  1.00  0.00    -0.322 N 
BRANCH  10  14
ATOM     14  O   UNL A   1      32.878  19.746  25.216  1.00  0.00    -0.380 OA
ATOM     15  C   UNL A   1      33.673  18.980  24.322  1.00  0.00     0.195 C 
ENDBRANCH  10  14
BRANCH  13  16
ATOM     16  C   UNL A   1      31.821  24.030  26.447  1.00  0.00     0.254 C 
ATOM     17  O   UNL A   1      31.434  23.935  27.611  1.00  0.00    -0.269 OA
BRANCH  16  18
ATOM     18  C   UNL A   1      31.725  25.338  25.742  1.00  0.00     0.046 A 
ATOM     19  C   UNL A   1      32.476  26.486  26.189  1.00  0.00     0.032 A 
ATOM     20  C   UNL A   1      30.810  25.456  24.768  1.00  0.00     0.085 A 
ATOM     21  C   UNL A   1      32.236  27.688  25.650  1.00  0.00     0.089 A 
ATOM     22  C   UNL A   1      30.563  26.779  24.138  1.00  0.00     0.251 A 
ATOM     23  N   UNL A   1      31.287  27.850  24.653  1.00  0.00    -0.319 N 
ATOM     24  O   UNL A   1      29.734  26.844  23.234  1.00  0.00    -0.269 OA
ATOM     25  C   UNL A   1      31.034  29.193  24.147  1.00  0.00     0.153 C 
ENDBRANCH  16  18
ENDBRANCH  13  16
ENDBRANCH   7   9
ENDBRANCH   6   7
ENDBRANCH   5   6
ENDBRANCH   4   5
ENDBRANCH   3   4
ENDBRANCH   2   3
ENDBRANCH   1   2
BRANCH   1  26
ATOM     26  O   UNL A   1      41.898  22.501  26.004  1.00  0.00    -0.376 OA
BRANCH  26  27
ATOM     27  C   UNL A   1      42.978  22.967  25.207  1.00  0.00     0.202 C 
BRANCH  27  28
ATOM     28  C   UNL A   1      43.186  24.468  24.900  1.00  0.00     0.261 C 
BRANCH  28  29
ATOM     29  O   UNL A   1      44.485  25.034  25.135  1.00  0.00    -0.460 OA
BRANCH  29  30
ATOM     30  C   UNL A   1      45.096  24.759  26.311  1.00  0.00     0.338 C 
ATOM     31  O   UNL A   1      46.172  24.198  26.452  1.00  0.00    -0.246 OA
BRANCH  30  32
ATOM     32  C   UNL A   1      44.387  25.529  27.371  1.00  0.00     0.060 A 
ATOM     33  C   UNL A   1      44.558  26.922  27.406  1.00  0.00     0.016 A 
ATOM     34  C   UNL A   1      43.472  24.920  28.236  1.00  0.00     0.016 A 
ATOM     35  C   UNL A   1      43.850  27.700  28.327  1.00  0.00     0.010 A 
ATOM     36  C   UNL A   1      42.777  25.698  29.170  1.00  0.00     0.010 A 
ATOM     37  C   UNL A   1      42.986  27.087  29.244  1.00  0.00    -0.014 A 
BRANCH  37  38
ATOM     38  C   UNL A   1      42.468  27.845  30.413  1.00  0.00     0.031 A 
ATOM     39  C   UNL A   1      41.262  28.723  30.203  1.00  0.00     0.074 A 
ATOM     40  C   UNL A   1      43.051  27.788  31.624  1.00  0.00     0.049 A 
ATOM     41  N   UNL A   1      40.675  29.544  31.032  1.00  0.00    -0.248 NA
ATOM     42  C   UNL A   1      40.641  28.670  28.869  1.00  0.00     0.031 C 
ATOM     43  C   UNL A   1      44.209  26.969  31.973  1.00  0.00     0.029 A 
ATOM     44  N   UNL A   1      42.759  28.469  32.784  1.00  0.00    -0.354 N 
ATOM     45  C   UNL A   1      39.641  30.132  30.314  1.00  0.00     0.074 A 
ATOM     46  C   UNL A   1      39.687  29.581  28.976  1.00  0.00     0.031 C 
ATOM     47  C   UNL A   1      44.551  27.218  33.250  1.00  0.00     0.029 A 
ATOM     48  C   UNL A   1      43.656  28.237  33.800  1.00  0.00     0.049 A 
ATOM     49  H   UNL A   1      41.980  29.064  32.877  1.00  0.00     0.167 HD
ATOM     50  C   UNL A   1      38.726  31.040  30.726  1.00  0.00     0.034 A 
ATOM     51  C   UNL A   1      43.760  28.803  35.021  1.00  0.00     0.034 A 
ATOM     52  C   UNL A   1      38.668  31.578  32.056  1.00  0.00     0.049 A 
ATOM     53  C   UNL A   1      42.750  29.842  35.447  1.00  0.00     0.074 A 
ATOM     54  C   UNL A   1      37.750  32.472  32.581  1.00  0.00     0.029 A 
ATOM     55  N   UNL A   1      39.570  31.289  33.068  1.00  0.00    -0.354 N 
ATOM     56  N   UNL A   1      41.716  30.312  34.791  1.00  0.00    -0.248 NA
ATOM     57  C   UNL A   1      42.904  30.408  36.798  1.00  0.00     0.031 C 
ATOM     58  C   UNL A   1      38.120  32.753  33.899  1.00  0.00     0.029 A 
ATOM     59  C   UNL A   1      39.240  31.999  34.210  1.00  0.00     0.049 A 
ATOM     60  H   UNL A   1      40.332  30.672  32.986  1.00  0.00     0.167 HD
ATOM     61  C   UNL A   1      41.073  31.188  35.662  1.00  0.00     0.074 A 
ATOM     62  C   UNL A   1      41.827  31.177  36.898  1.00  0.00     0.031 C 
ATOM     63  C   UNL A   1      39.963  31.937  35.455  1.00  0.00     0.034 A 
BRANCH  50  64
ATOM     64  C   UNL A   1      37.704  31.504  29.723  1.00  0.00     0.023 A 
ATOM     65  C   UNL A   1      37.750  32.825  29.232  1.00  0.00     0.012 A 
ATOM     66  C   UNL A   1      36.728  30.616  29.229  1.00  0.00     0.148 A 
ATOM     67  C   UNL A   1      36.819  33.264  28.291  1.00  0.00     0.002 A 
ATOM     68  C   UNL A   1      35.836  31.047  28.256  1.00  0.00     0.091 A 
ATOM     69  F   UNL A   1      36.687  29.372  29.726  1.00  0.00    -0.205 F 
ATOM     70  C   UNL A   1      35.871  32.374  27.795  1.00  0.00     0.022 A 
BRANCH  68  71
ATOM     71  S   UNL A   1      34.631  29.954  27.495  1.00  0.00     0.127 S 
ATOM     72  O   UNL A   1      34.302  29.061  28.606  1.00  0.00    -0.237 OA
ATOM     73  O   UNL A   1      33.565  30.885  27.125  1.00  0.00    -0.237 OA
ATOM     74  O   UNL A   1      35.310  29.326  26.370  1.00  0.00    -0.744 OA
ENDBRANCH  68  71
ENDBRANCH  50  64
BRANCH  51  75
ATOM     75  C   UNL A   1      44.852  28.390  35.949  1.00  0.00     0.023 A 
ATOM     76  C   UNL A   1      46.139  28.946  35.804  1.00  0.00     0.012 A 
ATOM     77  C   UNL A   1      44.625  27.444  36.969  1.00  0.00     0.148 A 
ATOM     78  C   UNL A   1      47.187  28.543  36.633  1.00  0.00     0.002 A 
ATOM     79  C   UNL A   1      45.659  27.091  37.828  1.00  0.00     0.091 A 
ATOM     80  F   UNL A   1      43.400  26.912  37.080  1.00  0.00    -0.205 F 
ATOM     81  C   UNL A   1      46.946  27.624  37.650  1.00  0.00     0.022 A 
BRANCH  79  82
ATOM     82  S   UNL A   1      45.414  26.015  39.246  1.00  0.00     0.127 S 
ATOM     83  O   UNL A   1      44.176  26.543  39.812  1.00  0.00    -0.237 OA
ATOM     84  O   UNL A   1      45.290  24.706  38.605  1.00  0.00    -0.237 OA
ATOM     85  O   UNL A   1      46.602  26.172  40.071  1.00  0.00    -0.744 OA
ENDBRANCH  79  82
ENDBRANCH  51  75
BRANCH  63  86
ATOM     86  C   UNL A   1      39.442  32.770  36.600  1.00  0.00     0.023 A 
ATOM     87  C   UNL A   1      39.830  34.117  36.733  1.00  0.00     0.012 A 
ATOM     88  C   UNL A   1      38.493  32.234  37.495  1.00  0.00     0.148 A 
ATOM     89  C   UNL A   1      39.309  34.907  37.757  1.00  0.00     0.002 A 
ATOM     90  C   UNL A   1      37.938  33.042  38.480  1.00  0.00     0.091 A 
ATOM     91  F   UNL A   1      38.145  30.945  37.363  1.00  0.00    -0.205 F 
ATOM     92  C   UNL A   1      38.354  34.375  38.622  1.00  0.00     0.022 A 
BRANCH  90  93
ATOM     93  S   UNL A   1      36.629  32.473  39.572  1.00  0.00     0.127 S 
ATOM     94  O   UNL A   1      37.078  31.117  39.891  1.00  0.00    -0.237 OA
ATOM     95  O   UNL A   1      36.719  33.420  40.683  1.00  0.00    -0.237 OA
ATOM     96  O   UNL A   1      35.396  32.556  38.803  1.00  0.00    -0.744 OA
ENDBRANCH  90  93
ENDBRANCH  63  86
ENDBRANCH  37  38
ENDBRANCH  30  32
ENDBRANCH  29  30
ENDBRANCH  28  29
ENDBRANCH  27  28
ENDBRANCH  26  27
ENDBRANCH   1  26
TORSDOF 23
ENDMDL
MODEL 3
REMARK VINA RESULT:      -8.8      6.401     11.100
REMARK SMILES CO[C@@H]1C[C@H](C(=O)OCCOCCOCCOC(=O)c2ccc(-c3c4nc(c(-c5cccc(S(=O)(=O)[O-])c5F)c5ccc([nH]5)c(-c5cccc(S(=O)(=O)[O-])c5F)c5nc(c(-c6cccc(S(=O)(=O)[O-])c6F)c6ccc3[nH]6)C=C5)C=C4)cc2)N(C(=O)c2ccn(C)c(=O)c2)C1
REMARK SMILES IDX 13 1 12 2 11 3 10 4 9 5 8 6 6 7 7 8 5 9 3 10 4 11 94 12
REMARK SMILES IDX 83 13 2 14 1 15 84 16 85 17 86 18 87 19 93 20 88 21 91 22
REMARK SMILES IDX 89 23 92 24 90 25 14 26 15 27 16 28 17 29 18 30 19 31 20 32
REMARK SMILES IDX 21 33 82 34 22 35 81 36 23 37 24 38 25 39 75 40 26 41 80 42
REMARK SMILES IDX 74 43 76 44 27 45 79 46 73 47 72 48 28 50 60 51 40 52 59 53
REMARK SMILES IDX 41 54 44 55 58 56 77 57 42 58 43 59 57 61 78 62 45 63 29 64
REMARK SMILES IDX 30 65 38 66 31 67 33 68 39 69 32 70 34 71 35 72 36 73 37 74
REMARK SMILES IDX 61 75 62 76 70 77 63 78 65 79 71 80 64 81 66 82 67 83 68 84
REMARK SMILES IDX 69 85 46 86 47 87 55 88 48 89 50 90 56 91 49 92 51 93 52 94
REMARK SMILES IDX 53 95 54 96
REMARK H PARENT 76 49 44 60
REMARK Flexibility Score: inf
ROOT
ATOM      1  C   UNL A   1      33.186  30.377  26.736  1.00  0.00     0.188 C 
ENDROOT
BRANCH   1   2
ATOM      2  C   UNL A   1      32.085  29.334  26.973  1.00  0.00     0.188 C 
BRANCH   2   3
ATOM      3  O   UNL A   1      31.550  28.716  25.807  1.00  0.00    -0.376 OA
BRANCH   3   4
ATOM      4  C   UNL A   1      32.174  27.509  25.360  1.00  0.00     0.202 C 
BRANCH   4   5
ATOM      5  C   UNL A   1      32.620  26.506  26.436  1.00  0.00     0.261 C 
BRANCH   5   6
ATOM      6  O   UNL A   1      33.830  25.805  26.080  1.00  0.00    -0.462 OA
BRANCH   6   7
ATOM      7  C   UNL A   1      33.676  24.729  25.271  1.00  0.00     0.329 C 
ATOM      8  O   UNL A   1      34.009  24.712  24.088  1.00  0.00    -0.250 OA
BRANCH   7   9
ATOM      9  C   UNL A   1      33.190  23.464  26.017  1.00  0.00     0.198 C 
ATOM     10  C   UNL A   1      30.965  23.023  25.205  1.00  0.00     0.140 C 
ATOM     11  C   UNL A   1      31.735  23.393  26.473  1.00  0.00     0.071 C 
ATOM     12  C   UNL A   1      31.984  22.257  24.348  1.00  0.00     0.152 C 
ATOM     13  N   UNL A   1      33.250  22.367  25.054  1.00  0.00    -0.322 N 
BRANCH  10  14
ATOM     14  O   UNL A   1      30.576  24.237  24.562  1.00  0.00    -0.380 OA
ATOM     15  C   UNL A   1      30.537  24.113  23.147  1.00  0.00     0.195 C 
ENDBRANCH  10  14
BRANCH  13  16
ATOM     16  C   UNL A   1      34.353  21.646  24.662  1.00  0.00     0.254 C 
ATOM     17  O   UNL A   1      35.325  22.173  24.124  1.00  0.00    -0.269 OA
BRANCH  16  18
ATOM     18  C   UNL A   1      34.325  20.170  24.854  1.00  0.00     0.046 A 
ATOM     19  C   UNL A   1      35.520  19.375  24.713  1.00  0.00     0.032 A 
ATOM     20  C   UNL A   1      33.130  19.584  25.017  1.00  0.00     0.085 A 
ATOM     21  C   UNL A   1      35.433  18.039  24.713  1.00  0.00     0.089 A 
ATOM     22  C   UNL A   1      33.027  18.103  25.056  1.00  0.00     0.251 A 
ATOM     23  N   UNL A   1      34.214  17.400  24.864  1.00  0.00    -0.319 N 
ATOM     24  O   UNL A   1      31.919  17.603  25.230  1.00  0.00    -0.269 OA
ATOM     25  C   UNL A   1      34.179  15.944  24.801  1.00  0.00     0.153 C 
ENDBRANCH  16  18
ENDBRANCH  13  16
ENDBRANCH   7   9
ENDBRANCH   6   7
ENDBRANCH   5   6
ENDBRANCH   4   5
ENDBRANCH   3   4
ENDBRANCH   2   3
ENDBRANCH   1   2
BRANCH   1  26
ATOM     26  O   UNL A   1      33.663  30.979  27.921  1.00  0.00    -0.376 OA
BRANCH  26  27
ATOM     27  C   UNL A   1      34.194  32.297  27.919  1.00  0.00     0.202 C 
BRANCH  27  28
ATOM     28  C   UNL A   1      33.289  33.548  27.851  1.00  0.00     0.261 C 
BRANCH  28  29
ATOM     29  O   UNL A   1      33.731  34.741  28.518  1.00  0.00    -0.460 OA
BRANCH  29  30
ATOM     30  C   UNL A   1      33.451  34.873  29.836  1.00  0.00     0.338 C 
ATOM     31  O   UNL A   1      32.355  35.105  30.322  1.00  0.00    -0.246 OA
BRANCH  30  32
ATOM     32  C   UNL A   1      34.636  34.379  30.593  1.00  0.00     0.060 A 
ATOM     33  C   UNL A   1      35.914  34.670  30.090  1.00  0.00     0.016 A 
ATOM     34  C   UNL A   1      34.506  33.755  31.838  1.00  0.00     0.016 A 
ATOM     35  C   UNL A   1      37.058  34.303  30.805  1.00  0.00     0.010 A 
ATOM     36  C   UNL A   1      35.652  33.372  32.545  1.00  0.00     0.010 A 
ATOM     37  C   UNL A   1      36.934  33.613  32.018  1.00  0.00    -0.014 A 
BRANCH  37  38
ATOM     38  C   UNL A   1      38.115  32.952  32.632  1.00  0.00     0.031 A 
ATOM     39  C   UNL A   1      38.684  31.742  31.938  1.00  0.00     0.074 A 
ATOM     40  C   UNL A   1      38.662  33.382  33.784  1.00  0.00     0.049 A 
ATOM     41  N   UNL A   1      39.647  30.943  32.313  1.00  0.00    -0.248 NA
ATOM     42  C   UNL A   1      38.073  31.384  30.647  1.00  0.00     0.031 C 
ATOM     43  C   UNL A   1      38.226  34.546  34.550  1.00  0.00     0.029 A 
ATOM     44  N   UNL A   1      39.694  32.857  34.527  1.00  0.00    -0.354 N 
ATOM     45  C   UNL A   1      39.735  29.969  31.326  1.00  0.00     0.074 A 
ATOM     46  C   UNL A   1      38.720  30.271  30.340  1.00  0.00     0.031 C 
ATOM     47  C   UNL A   1      38.963  34.629  35.674  1.00  0.00     0.029 A 
ATOM     48  C   UNL A   1      39.901  33.508  35.721  1.00  0.00     0.049 A 
ATOM     49  H   UNL A   1      40.234  32.089  34.231  1.00  0.00     0.167 HD
ATOM     50  C   UNL A   1      40.588  28.922  31.236  1.00  0.00     0.034 A 
ATOM     51  C   UNL A   1      40.730  33.215  36.745  1.00  0.00     0.034 A 
ATOM     52  C   UNL A   1      41.607  28.628  32.205  1.00  0.00     0.049 A 
ATOM     53  C   UNL A   1      41.647  32.020  36.640  1.00  0.00     0.074 A 
ATOM     54  C   UNL A   1      42.548  27.613  32.179  1.00  0.00     0.029 A 
ATOM     55  N   UNL A   1      41.810  29.333  33.381  1.00  0.00    -0.354 N 
ATOM     56  N   UNL A   1      41.790  31.167  35.654  1.00  0.00    -0.248 NA
ATOM     57  C   UNL A   1      42.543  31.764  37.781  1.00  0.00     0.031 C 
ATOM     58  C   UNL A   1      43.295  27.682  33.359  1.00  0.00     0.029 A 
ATOM     59  C   UNL A   1      42.851  28.768  34.096  1.00  0.00     0.049 A 
ATOM     60  H   UNL A   1      41.291  30.120  33.664  1.00  0.00     0.167 HD
ATOM     61  C   UNL A   1      42.817  30.308  36.033  1.00  0.00     0.074 A 
ATOM     62  C   UNL A   1      43.270  30.747  37.336  1.00  0.00     0.031 C 
ATOM     63  C   UNL A   1      43.335  29.247  35.366  1.00  0.00     0.034 A 
BRANCH  50  64
ATOM     64  C   UNL A   1      40.459  28.019  30.039  1.00  0.00     0.023 A 
ATOM     65  C   UNL A   1      39.516  26.972  30.047  1.00  0.00     0.012 A 
ATOM     66  C   UNL A   1      41.239  28.239  28.887  1.00  0.00     0.148 A 
ATOM     67  C   UNL A   1      39.374  26.136  28.940  1.00  0.00     0.002 A 
ATOM     68  C   UNL A   1      41.058  27.434  27.770  1.00  0.00     0.091 A 
ATOM     69  F   UNL A   1      42.146  29.225  28.908  1.00  0.00    -0.205 F 
ATOM     70  C   UNL A   1      40.135  26.374  27.799  1.00  0.00     0.022 A 
BRANCH  68  71
ATOM     71  S   UNL A   1      41.931  27.710  26.225  1.00  0.00     0.127 S 
ATOM     72  O   UNL A   1      41.512  29.071  25.891  1.00  0.00    -0.237 OA
ATOM     73  O   UNL A   1      43.329  27.586  26.638  1.00  0.00    -0.237 OA
ATOM     74  O   UNL A   1      41.471  26.673  25.311  1.00  0.00    -0.744 OA
ENDBRANCH  68  71
ENDBRANCH  50  64
BRANCH  51  75
ATOM     75  C   UNL A   1      40.754  34.078  37.961  1.00  0.00     0.023 A 
ATOM     76  C   UNL A   1      41.658  35.157  38.035  1.00  0.00     0.012 A 
ATOM     77  C   UNL A   1      39.892  33.831  39.048  1.00  0.00     0.148 A 
ATOM     78  C   UNL A   1      41.728  35.951  39.180  1.00  0.00     0.002 A 
ATOM     79  C   UNL A   1      39.927  34.662  40.162  1.00  0.00     0.091 A 
ATOM     80  F   UNL A   1      39.052  32.790  38.969  1.00  0.00    -0.205 F 
ATOM     81  C   UNL A   1      40.857  35.710  40.238  1.00  0.00     0.022 A 
BRANCH  79  82
ATOM     82  S   UNL A   1      38.759  34.511  41.518  1.00  0.00     0.127 S 
ATOM     83  O   UNL A   1      38.148  33.213  41.244  1.00  0.00    -0.237 OA
ATOM     84  O   UNL A   1      39.648  34.542  42.680  1.00  0.00    -0.237 OA
ATOM     85  O   UNL A   1      37.873  35.661  41.407  1.00  0.00    -0.744 OA
ENDBRANCH  79  82
ENDBRANCH  51  75
BRANCH  63  86
ATOM     86  C   UNL A   1      44.495  28.511  35.989  1.00  0.00     0.023 A 
ATOM     87  C   UNL A   1      45.818  28.871  35.672  1.00  0.00     0.012 A 
ATOM     88  C   UNL A   1      44.264  27.516  36.961  1.00  0.00     0.148 A 
ATOM     89  C   UNL A   1      46.894  28.231  36.287  1.00  0.00     0.002 A 
ATOM     90  C   UNL A   1      45.340  26.919  37.609  1.00  0.00     0.091 A 
ATOM     91  F   UNL A   1      42.998  27.174  37.241  1.00  0.00    -0.205 F 
ATOM     92  C   UNL A   1      46.656  27.266  37.264  1.00  0.00     0.022 A 
BRANCH  90  93
ATOM     93  S   UNL A   1      45.129  25.741  38.949  1.00  0.00     0.127 S 
ATOM     94  O   UNL A   1      44.483  24.623  38.262  1.00  0.00    -0.237 OA
ATOM     95  O   UNL A   1      46.510  25.488  39.360  1.00  0.00    -0.237 OA
ATOM     96  O   UNL A   1      44.311  26.411  39.951  1.00  0.00    -0.744 OA
ENDBRANCH  90  93
ENDBRANCH  63  86
ENDBRANCH  37  38
ENDBRANCH  30  32
ENDBRANCH  29  30
ENDBRANCH  28  29
ENDBRANCH  27  28
ENDBRANCH  26  27
ENDBRANCH   1  26
TORSDOF 23
ENDMDL
