MODEL 1
REMARK VINA RESULT:     -10.5      0.000      0.000
REMARK SMILES Cc1ccn2c([C@H]3C[C@@H]3C(=O)OCCOCCOCCOC(=O)c3ccc(-c4c5nc(c(-c6cccc(S(=O)(=O)[O-])c6F)c6ccc([nH]6)c(-c6cccc(S(=O)(=O)[O-])c6F)c6nc(c(-c7cccc(S(=O)(=O)[O-])c7F)c7ccc4[nH]7)C=C6)C=C5)cc3)nnc2c1
REMARK SMILES IDX 17 1 16 2 15 3 14 4 13 5 12 6 10 7 11 8 9 9 7 10 8 11 6 12
REMARK SMILES IDX 1 13 2 14 3 15 90 16 4 17 89 18 5 19 88 20 87 21 18 22 19 23
REMARK SMILES IDX 20 24 21 25 22 26 23 27 24 28 25 29 86 30 26 31 85 32 27 33
REMARK SMILES IDX 28 34 29 35 79 36 30 37 84 38 78 39 80 40 31 41 83 42 77 43
REMARK SMILES IDX 76 44 32 46 64 47 44 48 63 49 45 50 48 51 62 52 81 53 46 54
REMARK SMILES IDX 47 55 61 57 82 58 49 59 33 60 34 61 42 62 35 63 37 64 43 65
REMARK SMILES IDX 36 66 38 67 39 68 40 69 41 70 65 71 66 72 74 73 67 74 69 75
REMARK SMILES IDX 75 76 68 77 70 78 71 79 72 80 73 81 50 82 51 83 59 84 52 85
REMARK SMILES IDX 54 86 60 87 53 88 55 89 56 90 57 91 58 92
REMARK H PARENT 80 45 48 56
REMARK Flexibility Score: inf
ROOT
ATOM      1  C   UNL A   1      32.955  36.292  30.437  1.00  0.00     0.188 C 
ENDROOT
BRANCH   1   2
ATOM      2  C   UNL A   1      32.823  36.260  31.976  1.00  0.00     0.188 C 
BRANCH   2   3
ATOM      3  O   UNL A   1      33.137  34.979  32.476  1.00  0.00    -0.376 OA
BRANCH   3   4
ATOM      4  C   UNL A   1      34.138  34.852  33.452  1.00  0.00     0.202 C 
BRANCH   4   5
ATOM      5  C   UNL A   1      35.629  34.801  33.067  1.00  0.00     0.261 C 
BRANCH   5   6
ATOM      6  O   UNL A   1      36.404  33.776  33.715  1.00  0.00    -0.463 OA
BRANCH   6   7
ATOM      7  C   UNL A   1      37.691  34.089  34.060  1.00  0.00     0.309 C 
ATOM      8  O   UNL A   1      38.348  34.951  33.517  1.00  0.00    -0.252 OA
BRANCH   7   9
ATOM      9  C   UNL A   1      38.159  33.305  35.260  1.00  0.00     0.110 C 
ATOM     10  C   UNL A   1      37.681  33.568  36.710  1.00  0.00     0.073 C 
ATOM     11  C   UNL A   1      39.055  33.980  36.245  1.00  0.00     0.028 C 
BRANCH  10  12
ATOM     12  C   UNL A   1      37.574  32.392  37.719  1.00  0.00     0.141 A 
ATOM     13  C   UNL A   1      35.848  32.362  42.996  1.00  0.00     0.044 C 
ATOM     14  C   UNL A   1      36.479  32.176  41.645  1.00  0.00    -0.046 A 
ATOM     15  C   UNL A   1      37.441  33.209  41.294  1.00  0.00     0.022 A 
ATOM     16  C   UNL A   1      36.215  31.187  40.758  1.00  0.00     0.053 A 
ATOM     17  C   UNL A   1      37.806  33.382  40.015  1.00  0.00     0.095 A 
ATOM     18  C   UNL A   1      36.810  31.258  39.454  1.00  0.00     0.161 A 
ATOM     19  N   UNL A   1      37.400  32.459  39.083  1.00  0.00    -0.286 N 
ATOM     20  N   UNL A   1      37.016  30.405  38.472  1.00  0.00    -0.130 NA
ATOM     21  N   UNL A   1      37.585  31.113  37.409  1.00  0.00    -0.134 NA
ENDBRANCH  10  12
ENDBRANCH   7   9
ENDBRANCH   6   7
ENDBRANCH   5   6
ENDBRANCH   4   5
ENDBRANCH   3   4
ENDBRANCH   2   3
ENDBRANCH   1   2
BRANCH   1  22
ATOM     22  O   UNL A   1      32.663  35.081  29.737  1.00  0.00    -0.376 OA
BRANCH  22  23
ATOM     23  C   UNL A   1      33.467  34.776  28.601  1.00  0.00     0.202 C 
BRANCH  23  24
ATOM     24  C   UNL A   1      33.606  33.283  28.261  1.00  0.00     0.261 C 
BRANCH  24  25
ATOM     25  O   UNL A   1      34.907  32.772  28.640  1.00  0.00    -0.460 OA
BRANCH  25  26
ATOM     26  C   UNL A   1      35.087  32.459  29.951  1.00  0.00     0.338 C 
ATOM     27  O   UNL A   1      34.246  32.572  30.827  1.00  0.00    -0.246 OA
BRANCH  26  28
ATOM     28  C   UNL A   1      36.314  31.608  30.069  1.00  0.00     0.060 A 
ATOM     29  C   UNL A   1      37.443  31.879  30.862  1.00  0.00     0.016 A 
ATOM     30  C   UNL A   1      36.391  30.558  29.172  1.00  0.00     0.016 A 
ATOM     31  C   UNL A   1      38.666  31.162  30.671  1.00  0.00     0.010 A 
ATOM     32  C   UNL A   1      37.601  29.881  28.997  1.00  0.00     0.010 A 
ATOM     33  C   UNL A   1      38.794  30.181  29.673  1.00  0.00    -0.014 A 
BRANCH  33  34
ATOM     34  C   UNL A   1      39.907  29.157  29.608  1.00  0.00     0.031 A 
ATOM     35  C   UNL A   1      40.301  28.794  30.983  1.00  0.00     0.074 A 
ATOM     36  C   UNL A   1      40.621  28.527  28.615  1.00  0.00     0.049 A 
ATOM     37  N   UNL A   1      41.412  29.199  31.503  1.00  0.00    -0.248 NA
ATOM     38  C   UNL A   1      39.384  28.151  31.927  1.00  0.00     0.031 C 
ATOM     39  C   UNL A   1      40.635  28.838  27.195  1.00  0.00     0.029 A 
ATOM     40  N   UNL A   1      41.480  27.419  28.634  1.00  0.00    -0.354 N 
ATOM     41  C   UNL A   1      41.450  28.631  32.755  1.00  0.00     0.074 A 
ATOM     42  C   UNL A   1      40.118  28.162  33.042  1.00  0.00     0.031 C 
ATOM     43  C   UNL A   1      41.205  27.842  26.462  1.00  0.00     0.029 A 
ATOM     44  C   UNL A   1      41.759  26.844  27.361  1.00  0.00     0.049 A 
ATOM     45  H   UNL A   1      41.863  27.063  29.469  1.00  0.00     0.167 HD
ATOM     46  C   UNL A   1      42.643  28.357  33.332  1.00  0.00     0.034 A 
ATOM     47  C   UNL A   1      42.623  25.828  27.027  1.00  0.00     0.034 A 
ATOM     48  C   UNL A   1      43.745  28.984  32.650  1.00  0.00     0.049 A 
ATOM     49  C   UNL A   1      43.819  26.165  27.837  1.00  0.00     0.074 A 
ATOM     50  C   UNL A   1      44.316  30.239  32.628  1.00  0.00     0.029 A 
ATOM     51  N   UNL A   1      44.181  28.321  31.531  1.00  0.00    -0.354 N 
ATOM     52  N   UNL A   1      44.540  27.233  27.636  1.00  0.00    -0.248 NA
ATOM     53  C   UNL A   1      44.154  25.400  29.034  1.00  0.00     0.031 C 
ATOM     54  C   UNL A   1      45.038  30.346  31.405  1.00  0.00     0.029 A 
ATOM     55  C   UNL A   1      44.903  29.152  30.709  1.00  0.00     0.049 A 
ATOM     56  H   UNL A   1      43.999  27.373  31.341  1.00  0.00     0.167 HD
ATOM     57  C   UNL A   1      45.039  27.512  28.888  1.00  0.00     0.074 A 
ATOM     58  C   UNL A   1      44.951  26.278  29.643  1.00  0.00     0.031 C 
ATOM     59  C   UNL A   1      45.134  28.790  29.334  1.00  0.00     0.034 A 
BRANCH  46  60
ATOM     60  C   UNL A   1      42.841  27.231  34.293  1.00  0.00     0.023 A 
ATOM     61  C   UNL A   1      42.640  27.486  35.660  1.00  0.00     0.012 A 
ATOM     62  C   UNL A   1      43.438  26.002  33.930  1.00  0.00     0.148 A 
ATOM     63  C   UNL A   1      42.998  26.545  36.628  1.00  0.00     0.002 A 
ATOM     64  C   UNL A   1      43.723  25.041  34.889  1.00  0.00     0.091 A 
ATOM     65  F   UNL A   1      43.854  25.810  32.671  1.00  0.00    -0.205 F 
ATOM     66  C   UNL A   1      43.520  25.314  36.243  1.00  0.00     0.022 A 
BRANCH  64  67
ATOM     67  S   UNL A   1      44.371  23.433  34.424  1.00  0.00     0.127 S 
ATOM     68  O   UNL A   1      44.407  22.746  35.711  1.00  0.00    -0.237 OA
ATOM     69  O   UNL A   1      43.353  22.952  33.489  1.00  0.00    -0.237 OA
ATOM     70  O   UNL A   1      45.663  23.707  33.808  1.00  0.00    -0.744 OA
ENDBRANCH  64  67
ENDBRANCH  46  60
BRANCH  47  71
ATOM     71  C   UNL A   1      42.743  24.685  26.012  1.00  0.00     0.023 A 
ATOM     72  C   UNL A   1      43.838  24.726  25.104  1.00  0.00     0.012 A 
ATOM     73  C   UNL A   1      42.111  23.425  26.130  1.00  0.00     0.148 A 
ATOM     74  C   UNL A   1      44.398  23.576  24.523  1.00  0.00     0.002 A 
ATOM     75  C   UNL A   1      42.718  22.255  25.607  1.00  0.00     0.091 A 
ATOM     76  F   UNL A   1      40.945  23.360  26.784  1.00  0.00    -0.205 F 
ATOM     77  C   UNL A   1      43.877  22.332  24.829  1.00  0.00     0.022 A 
BRANCH  75  78
ATOM     78  S   UNL A   1      42.254  20.560  26.090  1.00  0.00     0.127 S 
ATOM     79  O   UNL A   1      42.400  20.591  27.543  1.00  0.00    -0.237 OA
ATOM     80  O   UNL A   1      40.869  20.485  25.625  1.00  0.00    -0.237 OA
ATOM     81  O   UNL A   1      43.184  19.685  25.391  1.00  0.00    -0.744 OA
ENDBRANCH  75  78
ENDBRANCH  47  71
BRANCH  59  82
ATOM     82  C   UNL A   1      45.322  29.858  28.309  1.00  0.00     0.023 A 
ATOM     83  C   UNL A   1      44.252  30.475  27.637  1.00  0.00     0.012 A 
ATOM     84  C   UNL A   1      46.632  30.296  28.074  1.00  0.00     0.148 A 
ATOM     85  C   UNL A   1      44.490  31.521  26.741  1.00  0.00     0.002 A 
ATOM     86  C   UNL A   1      46.863  31.361  27.216  1.00  0.00     0.091 A 
ATOM     87  F   UNL A   1      47.630  29.670  28.715  1.00  0.00    -0.205 F 
ATOM     88  C   UNL A   1      45.795  31.974  26.541  1.00  0.00     0.022 A 
BRANCH  86  89
ATOM     89  S   UNL A   1      48.500  32.061  27.007  1.00  0.00     0.127 S 
ATOM     90  O   UNL A   1      48.263  33.114  26.022  1.00  0.00    -0.237 OA
ATOM     91  O   UNL A   1      48.802  32.540  28.356  1.00  0.00    -0.237 OA
ATOM     92  O   UNL A   1      49.353  30.969  26.555  1.00  0.00    -0.744 OA
ENDBRANCH  86  89
ENDBRANCH  59  82
ENDBRANCH  33  34
ENDBRANCH  26  28
ENDBRANCH  25  26
ENDBRANCH  24  25
ENDBRANCH  23  24
ENDBRANCH  22  23
ENDBRANCH   1  22
TORSDOF 21
ENDMDL
MODEL 2
REMARK VINA RESULT:     -10.3      4.689     12.860
REMARK SMILES Cc1ccn2c([C@H]3C[C@@H]3C(=O)OCCOCCOCCOC(=O)c3ccc(-c4c5nc(c(-c6cccc(S(=O)(=O)[O-])c6F)c6ccc([nH]6)c(-c6cccc(S(=O)(=O)[O-])c6F)c6nc(c(-c7cccc(S(=O)(=O)[O-])c7F)c7ccc4[nH]7)C=C6)C=C5)cc3)nnc2c1
REMARK SMILES IDX 17 1 16 2 15 3 14 4 13 5 12 6 10 7 11 8 9 9 7 10 8 11 6 12
REMARK SMILES IDX 1 13 2 14 3 15 90 16 4 17 89 18 5 19 88 20 87 21 18 22 19 23
REMARK SMILES IDX 20 24 21 25 22 26 23 27 24 28 25 29 86 30 26 31 85 32 27 33
REMARK SMILES IDX 28 34 29 35 79 36 30 37 84 38 78 39 80 40 31 41 83 42 77 43
REMARK SMILES IDX 76 44 32 46 64 47 44 48 63 49 45 50 48 51 62 52 81 53 46 54
REMARK SMILES IDX 47 55 61 57 82 58 49 59 33 60 34 61 42 62 35 63 37 64 43 65
REMARK SMILES IDX 36 66 38 67 39 68 40 69 41 70 65 71 66 72 74 73 67 74 69 75
REMARK SMILES IDX 75 76 68 77 70 78 71 79 72 80 73 81 50 82 51 83 59 84 52 85
REMARK SMILES IDX 54 86 60 87 53 88 55 89 56 90 57 91 58 92
REMARK H PARENT 80 45 48 56
REMARK Flexibility Score: inf
ROOT
ATOM      1  C   UNL A   1      42.655  18.737  26.746  1.00  0.00     0.188 C 
ENDROOT
BRANCH   1   2
ATOM      2  C   UNL A   1      41.392  19.619  26.866  1.00  0.00     0.188 C 
BRANCH   2   3
ATOM      3  O   UNL A   1      41.718  20.981  26.691  1.00  0.00    -0.376 OA
BRANCH   3   4
ATOM      4  C   UNL A   1      40.869  21.962  27.229  1.00  0.00     0.202 C 
BRANCH   4   5
ATOM      5  C   UNL A   1      39.911  22.769  26.332  1.00  0.00     0.261 C 
BRANCH   5   6
ATOM      6  O   UNL A   1      38.513  22.469  26.488  1.00  0.00    -0.463 OA
BRANCH   6   7
ATOM      7  C   UNL A   1      37.995  21.476  25.702  1.00  0.00     0.309 C 
ATOM      8  O   UNL A   1      38.668  20.672  25.092  1.00  0.00    -0.252 OA
BRANCH   7   9
ATOM      9  C   UNL A   1      36.489  21.433  25.766  1.00  0.00     0.110 C 
ATOM     10  C   UNL A   1      35.571  21.278  24.528  1.00  0.00     0.073 C 
ATOM     11  C   UNL A   1      35.721  22.600  25.239  1.00  0.00     0.028 C 
BRANCH  10  12
ATOM     12  C   UNL A   1      34.214  20.532  24.655  1.00  0.00     0.141 A 
ATOM     13  C   UNL A   1      33.172  15.166  25.630  1.00  0.00     0.044 C 
ATOM     14  C   UNL A   1      33.232  16.610  25.220  1.00  0.00    -0.046 A 
ATOM     15  C   UNL A   1      34.214  16.892  24.185  1.00  0.00     0.022 A 
ATOM     16  C   UNL A   1      32.501  17.628  25.735  1.00  0.00     0.053 A 
ATOM     17  C   UNL A   1      34.632  18.150  23.979  1.00  0.00     0.095 A 
ATOM     18  C   UNL A   1      32.803  18.968  25.320  1.00  0.00     0.161 A 
ATOM     19  N   UNL A   1      33.990  19.173  24.629  1.00  0.00    -0.286 N 
ATOM     20  N   UNL A   1      32.177  20.126  25.369  1.00  0.00    -0.130 NA
ATOM     21  N   UNL A   1      33.044  21.097  24.859  1.00  0.00    -0.134 NA
ENDBRANCH  10  12
ENDBRANCH   7   9
ENDBRANCH   6   7
ENDBRANCH   5   6
ENDBRANCH   4   5
ENDBRANCH   3   4
ENDBRANCH   2   3
ENDBRANCH   1   2
BRANCH   1  22
ATOM     22  O   UNL A   1      43.002  18.277  25.439  1.00  0.00    -0.376 OA
BRANCH  22  23
ATOM     23  C   UNL A   1      44.346  18.482  25.012  1.00  0.00     0.202 C 
BRANCH  23  24
ATOM     24  C   UNL A   1      44.519  19.262  23.699  1.00  0.00     0.261 C 
BRANCH  24  25
ATOM     25  O   UNL A   1      44.590  20.689  23.935  1.00  0.00    -0.460 OA
BRANCH  25  26
ATOM     26  C   UNL A   1      45.725  21.160  24.517  1.00  0.00     0.338 C 
ATOM     27  O   UNL A   1      46.862  20.853  24.199  1.00  0.00    -0.246 OA
BRANCH  26  28
ATOM     28  C   UNL A   1      45.376  22.378  25.316  1.00  0.00     0.060 A 
ATOM     29  C   UNL A   1      45.668  22.595  26.674  1.00  0.00     0.016 A 
ATOM     30  C   UNL A   1      44.537  23.278  24.682  1.00  0.00     0.016 A 
ATOM     31  C   UNL A   1      45.032  23.648  27.404  1.00  0.00     0.010 A 
ATOM     32  C   UNL A   1      43.921  24.291  25.421  1.00  0.00     0.010 A 
ATOM     33  C   UNL A   1      44.080  24.488  26.802  1.00  0.00    -0.014 A 
BRANCH  33  34
ATOM     34  C   UNL A   1      43.608  25.808  27.375  1.00  0.00     0.031 A 
ATOM     35  C   UNL A   1      44.604  26.849  27.053  1.00  0.00     0.074 A 
ATOM     36  C   UNL A   1      42.530  26.245  28.110  1.00  0.00     0.049 A 
ATOM     37  N   UNL A   1      45.393  27.338  27.950  1.00  0.00    -0.248 NA
ATOM     38  C   UNL A   1      44.925  27.239  25.678  1.00  0.00     0.031 C 
ATOM     39  C   UNL A   1      41.520  25.437  28.774  1.00  0.00     0.029 A 
ATOM     40  N   UNL A   1      42.052  27.529  28.404  1.00  0.00    -0.354 N 
ATOM     41  C   UNL A   1      46.130  28.297  27.294  1.00  0.00     0.074 A 
ATOM     42  C   UNL A   1      45.948  28.071  25.883  1.00  0.00     0.031 C 
ATOM     43  C   UNL A   1      40.443  26.178  29.150  1.00  0.00     0.029 A 
ATOM     44  C   UNL A   1      40.718  27.582  28.898  1.00  0.00     0.049 A 
ATOM     45  H   UNL A   1      42.600  28.338  28.278  1.00  0.00     0.167 HD
ATOM     46  C   UNL A   1      46.610  29.361  27.980  1.00  0.00     0.034 A 
ATOM     47  C   UNL A   1      39.996  28.655  29.365  1.00  0.00     0.034 A 
ATOM     48  C   UNL A   1      46.520  29.187  29.406  1.00  0.00     0.049 A 
ATOM     49  C   UNL A   1      41.000  29.359  30.199  1.00  0.00     0.074 A 
ATOM     50  C   UNL A   1      47.253  28.536  30.376  1.00  0.00     0.029 A 
ATOM     51  N   UNL A   1      45.285  29.451  29.941  1.00  0.00    -0.354 N 
ATOM     52  N   UNL A   1      41.502  28.854  31.292  1.00  0.00    -0.248 NA
ATOM     53  C   UNL A   1      41.622  30.598  29.740  1.00  0.00     0.031 C 
ATOM     54  C   UNL A   1      46.384  28.331  31.486  1.00  0.00     0.029 A 
ATOM     55  C   UNL A   1      45.142  28.868  31.177  1.00  0.00     0.049 A 
ATOM     56  H   UNL A   1      44.590  29.988  29.496  1.00  0.00     0.167 HD
ATOM     57  C   UNL A   1      42.756  29.419  31.349  1.00  0.00     0.074 A 
ATOM     58  C   UNL A   1      42.703  30.606  30.520  1.00  0.00     0.031 C 
ATOM     59  C   UNL A   1      43.831  28.695  31.750  1.00  0.00     0.034 A 
BRANCH  46  60
ATOM     60  C   UNL A   1      46.822  30.701  27.356  1.00  0.00     0.023 A 
ATOM     61  C   UNL A   1      48.103  31.271  27.435  1.00  0.00     0.012 A 
ATOM     62  C   UNL A   1      45.762  31.518  26.901  1.00  0.00     0.148 A 
ATOM     63  C   UNL A   1      48.328  32.596  27.056  1.00  0.00     0.002 A 
ATOM     64  C   UNL A   1      46.002  32.809  26.455  1.00  0.00     0.091 A 
ATOM     65  F   UNL A   1      44.496  31.095  27.022  1.00  0.00    -0.205 F 
ATOM     66  C   UNL A   1      47.282  33.360  26.545  1.00  0.00     0.022 A 
BRANCH  64  67
ATOM     67  S   UNL A   1      44.682  33.812  25.765  1.00  0.00     0.127 S 
ATOM     68  O   UNL A   1      43.735  33.855  26.875  1.00  0.00    -0.237 OA
ATOM     69  O   UNL A   1      45.371  35.071  25.483  1.00  0.00    -0.237 OA
ATOM     70  O   UNL A   1      44.242  33.094  24.576  1.00  0.00    -0.744 OA
ENDBRANCH  64  67
ENDBRANCH  46  60
BRANCH  47  71
ATOM     71  C   UNL A   1      38.548  29.158  29.410  1.00  0.00     0.023 A 
ATOM     72  C   UNL A   1      37.725  28.691  30.474  1.00  0.00     0.012 A 
ATOM     73  C   UNL A   1      38.065  30.306  28.740  1.00  0.00     0.148 A 
ATOM     74  C   UNL A   1      36.631  29.417  30.973  1.00  0.00     0.002 A 
ATOM     75  C   UNL A   1      37.009  31.078  29.287  1.00  0.00     0.091 A 
ATOM     76  F   UNL A   1      38.658  30.667  27.595  1.00  0.00    -0.205 F 
ATOM     77  C   UNL A   1      36.314  30.644  30.421  1.00  0.00     0.022 A 
BRANCH  75  78
ATOM     78  S   UNL A   1      36.625  32.785  28.782  1.00  0.00     0.127 S 
ATOM     79  O   UNL A   1      35.823  32.589  27.578  1.00  0.00    -0.237 OA
ATOM     80  O   UNL A   1      35.869  33.276  29.937  1.00  0.00    -0.237 OA
ATOM     81  O   UNL A   1      37.912  33.432  28.574  1.00  0.00    -0.744 OA
ENDBRANCH  75  78
ENDBRANCH  47  71
BRANCH  59  82
ATOM     82  C   UNL A   1      43.582  27.574  32.702  1.00  0.00     0.023 A 
ATOM     83  C   UNL A   1      43.951  26.243  32.436  1.00  0.00     0.012 A 
ATOM     84  C   UNL A   1      43.014  27.900  33.942  1.00  0.00     0.148 A 
ATOM     85  C   UNL A   1      43.756  25.250  33.400  1.00  0.00     0.002 A 
ATOM     86  C   UNL A   1      42.860  26.921  34.912  1.00  0.00     0.091 A 
ATOM     87  F   UNL A   1      42.654  29.175  34.153  1.00  0.00    -0.205 F 
ATOM     88  C   UNL A   1      43.224  25.592  34.644  1.00  0.00     0.022 A 
BRANCH  86  89
ATOM     89  S   UNL A   1      42.290  27.318  36.565  1.00  0.00     0.127 S 
ATOM     90  O   UNL A   1      42.017  25.997  37.124  1.00  0.00    -0.237 OA
ATOM     91  O   UNL A   1      43.455  27.997  37.134  1.00  0.00    -0.237 OA
ATOM     92  O   UNL A   1      41.123  28.175  36.396  1.00  0.00    -0.744 OA
ENDBRANCH  86  89
ENDBRANCH  59  82
ENDBRANCH  33  34
ENDBRANCH  26  28
ENDBRANCH  25  26
ENDBRANCH  24  25
ENDBRANCH  23  24
ENDBRANCH  22  23
ENDBRANCH   1  22
TORSDOF 21
ENDMDL
MODEL 3
REMARK VINA RESULT:     -10.1      4.673     12.144
REMARK SMILES Cc1ccn2c([C@H]3C[C@@H]3C(=O)OCCOCCOCCOC(=O)c3ccc(-c4c5nc(c(-c6cccc(S(=O)(=O)[O-])c6F)c6ccc([nH]6)c(-c6cccc(S(=O)(=O)[O-])c6F)c6nc(c(-c7cccc(S(=O)(=O)[O-])c7F)c7ccc4[nH]7)C=C6)C=C5)cc3)nnc2c1
REMARK SMILES IDX 17 1 16 2 15 3 14 4 13 5 12 6 10 7 11 8 9 9 7 10 8 11 6 12
REMARK SMILES IDX 1 13 2 14 3 15 90 16 4 17 89 18 5 19 88 20 87 21 18 22 19 23
REMARK SMILES IDX 20 24 21 25 22 26 23 27 24 28 25 29 86 30 26 31 85 32 27 33
REMARK SMILES IDX 28 34 29 35 79 36 30 37 84 38 78 39 80 40 31 41 83 42 77 43
REMARK SMILES IDX 76 44 32 46 64 47 44 48 63 49 45 50 48 51 62 52 81 53 46 54
REMARK SMILES IDX 47 55 61 57 82 58 49 59 33 60 34 61 42 62 35 63 37 64 43 65
REMARK SMILES IDX 36 66 38 67 39 68 40 69 41 70 65 71 66 72 74 73 67 74 69 75
REMARK SMILES IDX 75 76 68 77 70 78 71 79 72 80 73 81 50 82 51 83 59 84 52 85
REMARK SMILES IDX 54 86 60 87 53 88 55 89 56 90 57 91 58 92
REMARK H PARENT 80 45 48 56
REMARK Flexibility Score: inf
ROOT
ATOM      1  C   UNL A   1      42.387  20.056  26.550  1.00  0.00     0.188 C 
ENDROOT
BRANCH   1   2
ATOM      2  C   UNL A   1      42.104  21.513  26.981  1.00  0.00     0.188 C 
BRANCH   2   3
ATOM      3  O   UNL A   1      41.190  22.124  26.098  1.00  0.00    -0.376 OA
BRANCH   3   4
ATOM      4  C   UNL A   1      40.154  22.913  26.624  1.00  0.00     0.202 C 
BRANCH   4   5
ATOM      5  C   UNL A   1      38.702  22.400  26.672  1.00  0.00     0.261 C 
BRANCH   5   6
ATOM      6  O   UNL A   1      38.047  22.269  25.398  1.00  0.00    -0.463 OA
BRANCH   6   7
ATOM      7  C   UNL A   1      36.685  22.408  25.378  1.00  0.00     0.309 C 
ATOM      8  O   UNL A   1      35.935  21.851  26.151  1.00  0.00    -0.252 OA
BRANCH   7   9
ATOM      9  C   UNL A   1      36.236  23.415  24.349  1.00  0.00     0.110 C 
ATOM     10  C   UNL A   1      34.937  23.285  23.516  1.00  0.00     0.073 C 
ATOM     11  C   UNL A   1      36.293  23.033  22.907  1.00  0.00     0.028 C 
BRANCH  10  12
ATOM     12  C   UNL A   1      34.165  24.559  23.076  1.00  0.00     0.141 A 
ATOM     13  C   UNL A   1      33.325  29.335  25.780  1.00  0.00     0.044 C 
ATOM     14  C   UNL A   1      33.313  28.088  24.942  1.00  0.00    -0.046 A 
ATOM     15  C   UNL A   1      33.045  26.872  25.695  1.00  0.00     0.022 A 
ATOM     16  C   UNL A   1      33.549  28.005  23.612  1.00  0.00     0.053 A 
ATOM     17  C   UNL A   1      33.353  25.676  25.173  1.00  0.00     0.095 A 
ATOM     18  C   UNL A   1      33.641  26.704  23.011  1.00  0.00     0.161 A 
ATOM     19  N   UNL A   1      33.750  25.612  23.861  1.00  0.00    -0.286 N 
ATOM     20  N   UNL A   1      33.580  26.235  21.782  1.00  0.00    -0.130 NA
ATOM     21  N   UNL A   1      33.821  24.860  21.842  1.00  0.00    -0.134 NA
ENDBRANCH  10  12
ENDBRANCH   7   9
ENDBRANCH   6   7
ENDBRANCH   5   6
ENDBRANCH   4   5
ENDBRANCH   3   4
ENDBRANCH   2   3
ENDBRANCH   1   2
BRANCH   1  22
ATOM     22  O   UNL A   1      42.966  19.864  25.258  1.00  0.00    -0.376 OA
BRANCH  22  23
ATOM     23  C   UNL A   1      43.743  18.686  25.062  1.00  0.00     0.202 C 
BRANCH  23  24
ATOM     24  C   UNL A   1      45.244  18.908  24.813  1.00  0.00     0.261 C 
BRANCH  24  25
ATOM     25  O   UNL A   1      45.767  19.973  25.643  1.00  0.00    -0.460 OA
BRANCH  25  26
ATOM     26  C   UNL A   1      46.282  21.056  25.003  1.00  0.00     0.338 C 
ATOM     27  O   UNL A   1      46.978  21.021  24.001  1.00  0.00    -0.246 OA
BRANCH  26  28
ATOM     28  C   UNL A   1      45.553  22.276  25.477  1.00  0.00     0.060 A 
ATOM     29  C   UNL A   1      44.593  23.006  24.755  1.00  0.00     0.016 A 
ATOM     30  C   UNL A   1      46.016  22.814  26.665  1.00  0.00     0.016 A 
ATOM     31  C   UNL A   1      44.188  24.310  25.180  1.00  0.00     0.010 A 
ATOM     32  C   UNL A   1      45.612  24.095  27.051  1.00  0.00     0.010 A 
ATOM     33  C   UNL A   1      44.747  24.920  26.315  1.00  0.00    -0.014 A 
BRANCH  33  34
ATOM     34  C   UNL A   1      44.164  26.124  27.024  1.00  0.00     0.031 A 
ATOM     35  C   UNL A   1      45.015  27.298  26.745  1.00  0.00     0.074 A 
ATOM     36  C   UNL A   1      43.091  26.369  27.848  1.00  0.00     0.049 A 
ATOM     37  N   UNL A   1      45.796  27.802  27.640  1.00  0.00    -0.248 NA
ATOM     38  C   UNL A   1      45.206  27.834  25.395  1.00  0.00     0.031 C 
ATOM     39  C   UNL A   1      42.220  25.396  28.489  1.00  0.00     0.029 A 
ATOM     40  N   UNL A   1      42.489  27.560  28.278  1.00  0.00    -0.354 N 
ATOM     41  C   UNL A   1      46.379  28.892  27.034  1.00  0.00     0.074 A 
ATOM     42  C   UNL A   1      46.139  28.761  25.620  1.00  0.00     0.031 C 
ATOM     43  C   UNL A   1      41.091  25.973  28.983  1.00  0.00     0.029 A 
ATOM     44  C   UNL A   1      41.189  27.415  28.841  1.00  0.00     0.049 A 
ATOM     45  H   UNL A   1      42.933  28.435  28.196  1.00  0.00     0.167 HD
ATOM     46  C   UNL A   1      46.775  29.945  27.786  1.00  0.00     0.034 A 
ATOM     47  C   UNL A   1      40.380  28.354  29.436  1.00  0.00     0.034 A 
ATOM     48  C   UNL A   1      46.792  29.646  29.194  1.00  0.00     0.049 A 
ATOM     49  C   UNL A   1      41.347  29.101  30.277  1.00  0.00     0.074 A 
ATOM     50  C   UNL A   1      47.652  29.010  30.065  1.00  0.00     0.029 A 
ATOM     51  N   UNL A   1      45.570  29.718  29.812  1.00  0.00    -0.354 N 
ATOM     52  N   UNL A   1      41.967  28.572  31.295  1.00  0.00    -0.248 NA
ATOM     53  C   UNL A   1      41.795  30.438  29.897  1.00  0.00     0.031 C 
ATOM     54  C   UNL A   1      46.880  28.614  31.195  1.00  0.00     0.029 A 
ATOM     55  C   UNL A   1      45.569  29.024  30.998  1.00  0.00     0.049 A 
ATOM     56  H   UNL A   1      44.793  30.204  29.452  1.00  0.00     0.167 HD
ATOM     57  C   UNL A   1      43.150  29.274  31.338  1.00  0.00     0.074 A 
ATOM     58  C   UNL A   1      42.913  30.510  30.619  1.00  0.00     0.031 C 
ATOM     59  C   UNL A   1      44.323  28.652  31.619  1.00  0.00     0.034 A 
BRANCH  46  60
ATOM     60  C   UNL A   1      46.796  31.347  27.272  1.00  0.00     0.023 A 
ATOM     61  C   UNL A   1      48.045  31.963  27.086  1.00  0.00     0.012 A 
ATOM     62  C   UNL A   1      45.640  32.156  27.186  1.00  0.00     0.148 A 
ATOM     63  C   UNL A   1      48.140  33.328  26.802  1.00  0.00     0.002 A 
ATOM     64  C   UNL A   1      45.735  33.494  26.831  1.00  0.00     0.091 A 
ATOM     65  F   UNL A   1      44.455  31.667  27.576  1.00  0.00    -0.205 F 
ATOM     66  C   UNL A   1      46.985  34.090  26.654  1.00  0.00     0.022 A 
BRANCH  64  67
ATOM     67  S   UNL A   1      44.264  34.497  26.604  1.00  0.00     0.127 S 
ATOM     68  O   UNL A   1      44.842  35.802  26.297  1.00  0.00    -0.237 OA
ATOM     69  O   UNL A   1      43.607  33.827  25.482  1.00  0.00    -0.237 OA
ATOM     70  O   UNL A   1      43.539  34.399  27.864  1.00  0.00    -0.744 OA
ENDBRANCH  64  67
ENDBRANCH  46  60
BRANCH  47  71
ATOM     71  C   UNL A   1      38.890  28.677  29.598  1.00  0.00     0.023 A 
ATOM     72  C   UNL A   1      38.255  28.257  30.801  1.00  0.00     0.012 A 
ATOM     73  C   UNL A   1      38.186  29.658  28.862  1.00  0.00     0.148 A 
ATOM     74  C   UNL A   1      37.131  28.903  31.342  1.00  0.00     0.002 A 
ATOM     75  C   UNL A   1      37.098  30.361  29.440  1.00  0.00     0.091 A 
ATOM     76  F   UNL A   1      38.600  29.935  27.619  1.00  0.00    -0.205 F 
ATOM     77  C   UNL A   1      36.592  29.999  30.693  1.00  0.00     0.022 A 
BRANCH  75  78
ATOM     78  S   UNL A   1      36.432  31.927  28.789  1.00  0.00     0.127 S 
ATOM     79  O   UNL A   1      35.553  32.372  29.867  1.00  0.00    -0.237 OA
ATOM     80  O   UNL A   1      37.648  32.727  28.633  1.00  0.00    -0.237 OA
ATOM     81  O   UNL A   1      35.763  31.581  27.545  1.00  0.00    -0.744 OA
ENDBRANCH  75  78
ENDBRANCH  47  71
BRANCH  59  82
ATOM     82  C   UNL A   1      44.260  27.436  32.480  1.00  0.00     0.023 A 
ATOM     83  C   UNL A   1      44.290  26.127  31.966  1.00  0.00     0.012 A 
ATOM     84  C   UNL A   1      44.240  27.633  33.868  1.00  0.00     0.148 A 
ATOM     85  C   UNL A   1      44.302  25.029  32.830  1.00  0.00     0.002 A 
ATOM     86  C   UNL A   1      44.295  26.544  34.724  1.00  0.00     0.091 A 
ATOM     87  F   UNL A   1      44.190  28.894  34.323  1.00  0.00    -0.205 F 
ATOM     88  C   UNL A   1      44.319  25.237  34.209  1.00  0.00     0.022 A 
BRANCH  86  89
ATOM     89  S   UNL A   1      44.433  26.750  36.499  1.00  0.00     0.127 S 
ATOM     90  O   UNL A   1      43.251  27.548  36.812  1.00  0.00    -0.237 OA
ATOM     91  O   UNL A   1      44.381  25.365  36.972  1.00  0.00    -0.237 OA
ATOM     92  O   UNL A   1      45.710  27.413  36.732  1.00  0.00    -0.744 OA
ENDBRANCH  86  89
ENDBRANCH  59  82
ENDBRANCH  33  34
ENDBRANCH  26  28
ENDBRANCH  25  26
ENDBRANCH  24  25
ENDBRANCH  23  24
ENDBRANCH  22  23
ENDBRANCH   1  22
TORSDOF 21
ENDMDL
