MODEL 1
REMARK VINA RESULT:     -11.6      0.000      0.000
REMARK SMILES Cc1ccc(N2C(=O)C[C@H](Sc3ccccc3C(=O)OCCOCCOCCOC(=O)c3ccc(-c4c5nc(c(-c6cccc(S(=O)(=O)[O-])c6F)c6ccc([nH]6)c(-c6cccc(S(=O)(=O)[O-])c6F)c6nc(c(-c7cccc(S(=O)(=O)[O-])c7F)c7ccc4[nH]7)C=C6)C=C5)cc3)C2=O)cc1
REMARK SMILES IDX 24 1 23 2 22 3 21 4 20 5 18 6 19 7 17 8 12 9 13 10 14 11
REMARK SMILES IDX 16 12 15 13 11 14 10 15 6 16 7 17 95 18 8 19 9 20 96 21 5 22
REMARK SMILES IDX 1 23 2 24 3 25 98 26 4 27 97 28 25 29 26 30 27 31 28 32
REMARK SMILES IDX 29 33 30 34 31 35 32 36 33 37 94 38 34 39 93 40 35 41 36 42
REMARK SMILES IDX 37 43 87 44 38 45 92 46 86 47 88 48 39 49 91 50 85 51 84 52
REMARK SMILES IDX 40 54 72 55 52 56 71 57 53 58 56 59 70 60 89 61 54 62 55 63
REMARK SMILES IDX 69 65 90 66 57 67 41 68 42 69 50 70 43 71 45 72 51 73 44 74
REMARK SMILES IDX 46 75 47 76 48 77 49 78 73 79 74 80 82 81 75 82 77 83 83 84
REMARK SMILES IDX 76 85 78 86 79 87 80 88 81 89 58 90 59 91 67 92 60 93 62 94
REMARK SMILES IDX 68 95 61 96 63 97 64 98 65 99 66 100
REMARK H PARENT 88 53 56 64
REMARK Flexibility Score: inf
ROOT
ATOM      1  C   UNL A   1      35.540  33.647  33.985  1.00  0.00     0.188 C 
ENDROOT
BRANCH   1   2
ATOM      2  O   UNL A   1      35.174  34.998  34.268  1.00  0.00    -0.376 OA
BRANCH   2   3
ATOM      3  C   UNL A   1      34.509  35.782  33.257  1.00  0.00     0.202 C 
BRANCH   3   4
ATOM      4  C   UNL A   1      33.570  35.202  32.122  1.00  0.00     0.261 C 
BRANCH   4   5
ATOM      5  O   UNL A   1      34.197  34.530  30.929  1.00  0.00    -0.460 OA
BRANCH   5   6
ATOM      6  C   UNL A   1      33.807  34.157  29.631  1.00  0.00     0.339 C 
ATOM      7  O   UNL A   1      32.769  34.631  29.178  1.00  0.00    -0.246 OA
BRANCH   6   8
ATOM      8  C   UNL A   1      34.643  32.771  28.734  1.00  0.00     0.073 A 
ATOM      9  C   UNL A   1      34.735  31.257  29.003  1.00  0.00     0.023 A 
ATOM     10  C   UNL A   1      35.986  30.634  29.184  1.00  0.00     0.016 A 
ATOM     11  C   UNL A   1      37.095  31.306  28.688  1.00  0.00     0.001 A 
ATOM     12  C   UNL A   1      35.744  33.293  28.066  1.00  0.00     0.017 A 
ATOM     13  C   UNL A   1      36.952  32.563  28.059  1.00  0.00     0.001 A 
BRANCH   9  14
ATOM     14  S   UNL A   1      34.100  30.132  27.307  1.00  0.00    -0.111 SA
BRANCH  14  15
ATOM     15  C   UNL A   1      32.062  30.227  26.824  1.00  0.00     0.151 C 
ATOM     16  N   UNL A   1      31.854  28.133  25.704  1.00  0.00    -0.250 N 
ATOM     17  C   UNL A   1      31.491  29.027  24.748  1.00  0.00     0.235 C 
ATOM     18  C   UNL A   1      31.797  28.706  26.962  1.00  0.00     0.247 C 
ATOM     19  O   UNL A   1      31.334  28.872  23.542  1.00  0.00    -0.274 OA
ATOM     20  C   UNL A   1      31.350  30.332  25.435  1.00  0.00     0.126 C 
ATOM     21  O   UNL A   1      31.551  28.118  28.008  1.00  0.00    -0.273 OA
BRANCH  16  22
ATOM     22  C   UNL A   1      32.394  26.874  25.384  1.00  0.00     0.052 A 
ATOM     23  C   UNL A   1      34.381  23.449  23.690  1.00  0.00     0.044 C 
ATOM     24  C   UNL A   1      33.689  24.620  24.315  1.00  0.00    -0.051 A 
ATOM     25  C   UNL A   1      32.333  24.839  24.060  1.00  0.00     0.005 A 
ATOM     26  C   UNL A   1      34.381  25.509  25.145  1.00  0.00     0.005 A 
ATOM     27  C   UNL A   1      31.699  25.971  24.570  1.00  0.00     0.027 A 
ATOM     28  C   UNL A   1      33.734  26.619  25.693  1.00  0.00     0.027 A 
ENDBRANCH  16  22
ENDBRANCH  14  15
ENDBRANCH   9  14
ENDBRANCH   6   8
ENDBRANCH   5   6
ENDBRANCH   4   5
ENDBRANCH   3   4
ENDBRANCH   2   3
ENDBRANCH   1   2
BRANCH   1  29
ATOM     29  C   UNL A   1      37.012  33.243  34.078  1.00  0.00     0.188 C 
BRANCH  29  30
ATOM     30  O   UNL A   1      37.302  32.865  35.411  1.00  0.00    -0.376 OA
BRANCH  30  31
ATOM     31  C   UNL A   1      38.457  32.092  35.642  1.00  0.00     0.202 C 
BRANCH  31  32
ATOM     32  C   UNL A   1      38.790  31.139  34.494  1.00  0.00     0.261 C 
BRANCH  32  33
ATOM     33  O   UNL A   1      37.808  30.094  34.269  1.00  0.00    -0.460 OA
BRANCH  33  34
ATOM     34  C   UNL A   1      37.727  29.510  33.032  1.00  0.00     0.338 C 
ATOM     35  O   UNL A   1      36.679  29.400  32.421  1.00  0.00    -0.246 OA
BRANCH  34  36
ATOM     36  C   UNL A   1      39.050  29.283  32.427  1.00  0.00     0.060 A 
ATOM     37  C   UNL A   1      39.766  30.086  31.557  1.00  0.00     0.016 A 
ATOM     38  C   UNL A   1      39.677  28.158  32.791  1.00  0.00     0.016 A 
ATOM     39  C   UNL A   1      40.969  29.637  30.839  1.00  0.00     0.010 A 
ATOM     40  C   UNL A   1      40.810  27.768  32.054  1.00  0.00     0.010 A 
ATOM     41  C   UNL A   1      41.585  28.403  30.986  1.00  0.00    -0.014 A 
BRANCH  41  42
ATOM     42  C   UNL A   1      43.056  27.943  30.055  1.00  0.00     0.031 A 
ATOM     43  C   UNL A   1      43.856  26.356  29.671  1.00  0.00     0.074 A 
ATOM     44  C   UNL A   1      43.466  28.849  29.111  1.00  0.00     0.049 A 
ATOM     45  N   UNL A   1      44.747  26.162  28.702  1.00  0.00    -0.248 NA
ATOM     46  C   UNL A   1      43.734  24.963  30.264  1.00  0.00     0.031 C 
ATOM     47  C   UNL A   1      43.724  28.454  27.726  1.00  0.00     0.029 A 
ATOM     48  N   UNL A   1      43.548  30.255  29.036  1.00  0.00    -0.354 N 
ATOM     49  C   UNL A   1      44.811  24.772  28.421  1.00  0.00     0.074 A 
ATOM     50  C   UNL A   1      44.486  24.104  29.596  1.00  0.00     0.031 C 
ATOM     51  C   UNL A   1      43.974  29.520  26.969  1.00  0.00     0.029 A 
ATOM     52  C   UNL A   1      44.225  30.626  27.855  1.00  0.00     0.049 A 
ATOM     53  H   UNL A   1      43.188  30.883  29.704  1.00  0.00     0.167 HD
ATOM     54  C   UNL A   1      44.813  24.237  27.167  1.00  0.00     0.034 A 
ATOM     55  C   UNL A   1      45.245  31.515  27.650  1.00  0.00     0.034 A 
ATOM     56  C   UNL A   1      45.332  25.225  26.260  1.00  0.00     0.049 A 
ATOM     57  C   UNL A   1      46.478  30.793  27.067  1.00  0.00     0.074 A 
ATOM     58  C   UNL A   1      44.838  25.955  25.206  1.00  0.00     0.029 A 
ATOM     59  N   UNL A   1      46.563  25.757  26.589  1.00  0.00    -0.354 N 
ATOM     60  N   UNL A   1      46.455  29.648  26.434  1.00  0.00    -0.248 NA
ATOM     61  C   UNL A   1      47.860  31.256  27.232  1.00  0.00     0.031 C 
ATOM     62  C   UNL A   1      45.730  27.052  25.021  1.00  0.00     0.029 A 
ATOM     63  C   UNL A   1      46.776  26.942  25.927  1.00  0.00     0.049 A 
ATOM     64  H   UNL A   1      47.202  25.342  27.212  1.00  0.00     0.167 HD
ATOM     65  C   UNL A   1      47.707  29.082  26.485  1.00  0.00     0.074 A 
ATOM     66  C   UNL A   1      48.568  30.175  26.876  1.00  0.00     0.031 C 
ATOM     67  C   UNL A   1      47.929  27.741  26.325  1.00  0.00     0.034 A 
BRANCH  54  68
ATOM     68  C   UNL A   1      44.291  22.847  26.695  1.00  0.00     0.023 A 
ATOM     69  C   UNL A   1      45.191  22.107  25.890  1.00  0.00     0.012 A 
ATOM     70  C   UNL A   1      42.994  22.250  26.843  1.00  0.00     0.148 A 
ATOM     71  C   UNL A   1      44.858  20.899  25.260  1.00  0.00     0.002 A 
ATOM     72  C   UNL A   1      42.681  20.998  26.264  1.00  0.00     0.091 A 
ATOM     73  F   UNL A   1      42.021  22.908  27.484  1.00  0.00    -0.205 F 
ATOM     74  C   UNL A   1      43.609  20.336  25.455  1.00  0.00     0.022 A 
BRANCH  72  75
ATOM     75  S   UNL A   1      41.106  20.122  26.477  1.00  0.00     0.127 S 
ATOM     76  O   UNL A   1      41.080  19.864  27.918  1.00  0.00    -0.237 OA
ATOM     77  O   UNL A   1      40.131  21.120  26.033  1.00  0.00    -0.237 OA
ATOM     78  O   UNL A   1      41.179  18.931  25.641  1.00  0.00    -0.744 OA
ENDBRANCH  72  75
ENDBRANCH  54  68
BRANCH  55  79
ATOM     79  C   UNL A   1      45.274  32.686  28.572  1.00  0.00     0.023 A 
ATOM     80  C   UNL A   1      46.079  32.600  29.736  1.00  0.00     0.012 A 
ATOM     81  C   UNL A   1      44.938  33.948  28.110  1.00  0.00     0.148 A 
ATOM     82  C   UNL A   1      46.714  33.734  30.255  1.00  0.00     0.002 A 
ATOM     83  C   UNL A   1      45.825  34.966  28.375  1.00  0.00     0.091 A 
ATOM     84  F   UNL A   1      44.008  34.139  27.171  1.00  0.00    -0.205 F 
ATOM     85  C   UNL A   1      46.657  34.913  29.514  1.00  0.00     0.022 A 
BRANCH  83  86
ATOM     86  S   UNL A   1      46.716  35.357  26.815  1.00  0.00     0.127 S 
ATOM     87  O   UNL A   1      45.828  36.316  26.153  1.00  0.00    -0.237 OA
ATOM     88  O   UNL A   1      47.910  35.919  27.414  1.00  0.00    -0.237 OA
ATOM     89  O   UNL A   1      46.942  34.115  26.114  1.00  0.00    -0.744 OA
ENDBRANCH  83  86
ENDBRANCH  55  79
BRANCH  67  90
ATOM     90  C   UNL A   1      49.255  27.048  26.628  1.00  0.00     0.023 A 
ATOM     91  C   UNL A   1      50.165  26.683  25.616  1.00  0.00     0.012 A 
ATOM     92  C   UNL A   1      49.694  26.865  27.966  1.00  0.00     0.148 A 
ATOM     93  C   UNL A   1      51.371  26.031  25.906  1.00  0.00     0.002 A 
ATOM     94  C   UNL A   1      50.954  26.341  28.250  1.00  0.00     0.091 A 
ATOM     95  F   UNL A   1      48.883  27.193  28.984  1.00  0.00    -0.205 F 
ATOM     96  C   UNL A   1      51.770  25.865  27.225  1.00  0.00     0.022 A 
BRANCH  94  97
ATOM     97  S   UNL A   1      51.621  26.409  29.919  1.00  0.00     0.127 S 
ATOM     98  O   UNL A   1      53.011  26.012  29.712  1.00  0.00    -0.237 OA
ATOM     99  O   UNL A   1      51.439  27.818  30.281  1.00  0.00    -0.237 OA
ATOM    100  O   UNL A   1      50.790  25.489  30.684  1.00  0.00    -0.744 OA
ENDBRANCH  94  97
ENDBRANCH  67  90
ENDBRANCH  41  42
ENDBRANCH  34  36
ENDBRANCH  33  34
ENDBRANCH  32  33
ENDBRANCH  31  32
ENDBRANCH  30  31
ENDBRANCH  29  30
ENDBRANCH   1  29
TORSDOF 23
ENDMDL
MODEL 2
REMARK VINA RESULT:     -10.9      3.291      6.922
REMARK SMILES Cc1ccc(N2C(=O)C[C@H](Sc3ccccc3C(=O)OCCOCCOCCOC(=O)c3ccc(-c4c5nc(c(-c6cccc(S(=O)(=O)[O-])c6F)c6ccc([nH]6)c(-c6cccc(S(=O)(=O)[O-])c6F)c6nc(c(-c7cccc(S(=O)(=O)[O-])c7F)c7ccc4[nH]7)C=C6)C=C5)cc3)C2=O)cc1
REMARK SMILES IDX 24 1 23 2 22 3 21 4 20 5 18 6 19 7 17 8 12 9 13 10 14 11
REMARK SMILES IDX 16 12 15 13 11 14 10 15 6 16 7 17 95 18 8 19 9 20 96 21 5 22
REMARK SMILES IDX 1 23 2 24 3 25 98 26 4 27 97 28 25 29 26 30 27 31 28 32
REMARK SMILES IDX 29 33 30 34 31 35 32 36 33 37 94 38 34 39 93 40 35 41 36 42
REMARK SMILES IDX 37 43 87 44 38 45 92 46 86 47 88 48 39 49 91 50 85 51 84 52
REMARK SMILES IDX 40 54 72 55 52 56 71 57 53 58 56 59 70 60 89 61 54 62 55 63
REMARK SMILES IDX 69 65 90 66 57 67 41 68 42 69 50 70 43 71 45 72 51 73 44 74
REMARK SMILES IDX 46 75 47 76 48 77 49 78 73 79 74 80 82 81 75 82 77 83 83 84
REMARK SMILES IDX 76 85 78 86 79 87 80 88 81 89 58 90 59 91 67 92 60 93 62 94
REMARK SMILES IDX 68 95 61 96 63 97 64 98 65 99 66 100
REMARK H PARENT 88 53 56 64
REMARK Flexibility Score: inf
ROOT
ATOM      1  C   UNL A   1      36.013  34.202  33.277  1.00  0.00     0.188 C 
ENDROOT
BRANCH   1   2
ATOM      2  O   UNL A   1      35.456  35.462  33.655  1.00  0.00    -0.376 OA
BRANCH   2   3
ATOM      3  C   UNL A   1      34.440  36.067  32.830  1.00  0.00     0.202 C 
BRANCH   3   4
ATOM      4  C   UNL A   1      33.555  35.303  31.763  1.00  0.00     0.261 C 
BRANCH   4   5
ATOM      5  O   UNL A   1      34.162  34.943  30.434  1.00  0.00    -0.460 OA
BRANCH   5   6
ATOM      6  C   UNL A   1      33.745  34.329  29.240  1.00  0.00     0.339 C 
ATOM      7  O   UNL A   1      32.670  34.670  28.756  1.00  0.00    -0.246 OA
BRANCH   6   8
ATOM      8  C   UNL A   1      34.616  32.842  28.565  1.00  0.00     0.073 A 
ATOM      9  C   UNL A   1      34.631  31.359  28.984  1.00  0.00     0.023 A 
ATOM     10  C   UNL A   1      35.837  30.727  29.346  1.00  0.00     0.016 A 
ATOM     11  C   UNL A   1      37.010  31.320  28.901  1.00  0.00     0.001 A 
ATOM     12  C   UNL A   1      35.794  33.269  27.963  1.00  0.00     0.017 A 
ATOM     13  C   UNL A   1      36.971  32.513  28.145  1.00  0.00     0.001 A 
BRANCH   9  14
ATOM     14  S   UNL A   1      34.123  30.090  27.348  1.00  0.00    -0.111 SA
BRANCH  14  15
ATOM     15  C   UNL A   1      32.111  30.072  26.759  1.00  0.00     0.151 C 
ATOM     16  N   UNL A   1      31.977  27.821  25.988  1.00  0.00    -0.250 N 
ATOM     17  C   UNL A   1      31.655  28.541  24.882  1.00  0.00     0.235 C 
ATOM     18  C   UNL A   1      31.852  28.590  27.130  1.00  0.00     0.247 C 
ATOM     19  O   UNL A   1      31.560  28.189  23.712  1.00  0.00    -0.274 OA
ATOM     20  C   UNL A   1      31.469  29.938  25.338  1.00  0.00     0.126 C 
ATOM     21  O   UNL A   1      31.559  28.177  28.246  1.00  0.00    -0.273 OA
BRANCH  16  22
ATOM     22  C   UNL A   1      32.543  26.535  25.904  1.00  0.00     0.052 A 
ATOM     23  C   UNL A   1      34.119  22.691  24.768  1.00  0.00     0.044 C 
ATOM     24  C   UNL A   1      33.591  24.024  25.199  1.00  0.00    -0.051 A 
ATOM     25  C   UNL A   1      32.271  24.136  25.643  1.00  0.00     0.005 A 
ATOM     26  C   UNL A   1      34.396  25.168  25.153  1.00  0.00     0.005 A 
ATOM     27  C   UNL A   1      31.746  25.385  25.969  1.00  0.00     0.027 A 
ATOM     28  C   UNL A   1      33.883  26.413  25.522  1.00  0.00     0.027 A 
ENDBRANCH  16  22
ENDBRANCH  14  15
ENDBRANCH   9  14
ENDBRANCH   6   8
ENDBRANCH   5   6
ENDBRANCH   4   5
ENDBRANCH   3   4
ENDBRANCH   2   3
ENDBRANCH   1   2
BRANCH   1  29
ATOM     29  C   UNL A   1      37.244  33.684  34.019  1.00  0.00     0.188 C 
BRANCH  29  30
ATOM     30  O   UNL A   1      36.900  32.496  34.707  1.00  0.00    -0.376 OA
BRANCH  30  31
ATOM     31  C   UNL A   1      37.932  31.586  35.013  1.00  0.00     0.202 C 
BRANCH  31  32
ATOM     32  C   UNL A   1      38.103  30.486  33.965  1.00  0.00     0.261 C 
BRANCH  32  33
ATOM     33  O   UNL A   1      39.439  30.378  33.412  1.00  0.00    -0.460 OA
BRANCH  33  34
ATOM     34  C   UNL A   1      40.350  29.557  34.025  1.00  0.00     0.338 C 
ATOM     35  O   UNL A   1      40.195  29.125  35.153  1.00  0.00    -0.246 OA
BRANCH  34  36
ATOM     36  C   UNL A   1      41.373  29.053  33.093  1.00  0.00     0.060 A 
ATOM     37  C   UNL A   1      42.634  28.553  33.362  1.00  0.00     0.016 A 
ATOM     38  C   UNL A   1      41.032  29.039  31.799  1.00  0.00     0.016 A 
ATOM     39  C   UNL A   1      43.650  28.306  32.327  1.00  0.00     0.010 A 
ATOM     40  C   UNL A   1      42.050  28.818  30.853  1.00  0.00     0.010 A 
ATOM     41  C   UNL A   1      43.466  28.462  30.961  1.00  0.00    -0.014 A 
BRANCH  41  42
ATOM     42  C   UNL A   1      44.776  28.138  29.769  1.00  0.00     0.031 A 
ATOM     43  C   UNL A   1      46.288  29.025  29.291  1.00  0.00     0.074 A 
ATOM     44  C   UNL A   1      44.940  26.824  29.413  1.00  0.00     0.049 A 
ATOM     45  N   UNL A   1      47.314  28.491  28.632  1.00  0.00    -0.248 NA
ATOM     46  C   UNL A   1      46.764  30.452  29.502  1.00  0.00     0.031 C 
ATOM     47  C   UNL A   1      46.246  26.167  29.474  1.00  0.00     0.029 A 
ATOM     48  N   UNL A   1      44.078  25.740  29.145  1.00  0.00    -0.354 N 
ATOM     49  C   UNL A   1      48.451  29.319  28.821  1.00  0.00     0.074 A 
ATOM     50  C   UNL A   1      47.985  30.613  29.018  1.00  0.00     0.031 C 
ATOM     51  C   UNL A   1      46.134  24.866  29.217  1.00  0.00     0.029 A 
ATOM     52  C   UNL A   1      44.829  24.652  28.651  1.00  0.00     0.049 A 
ATOM     53  H   UNL A   1      43.103  25.741  29.281  1.00  0.00     0.167 HD
ATOM     54  C   UNL A   1      49.698  28.860  29.127  1.00  0.00     0.034 A 
ATOM     55  C   UNL A   1      44.622  23.840  27.568  1.00  0.00     0.034 A 
ATOM     56  C   UNL A   1      49.807  27.508  28.648  1.00  0.00     0.049 A 
ATOM     57  C   UNL A   1      45.803  23.950  26.581  1.00  0.00     0.074 A 
ATOM     58  C   UNL A   1      49.955  26.266  29.217  1.00  0.00     0.029 A 
ATOM     59  N   UNL A   1      49.508  27.317  27.313  1.00  0.00    -0.354 N 
ATOM     60  N   UNL A   1      47.008  24.360  26.885  1.00  0.00    -0.248 NA
ATOM     61  C   UNL A   1      45.701  23.694  25.140  1.00  0.00     0.031 C 
ATOM     62  C   UNL A   1      49.566  25.318  28.226  1.00  0.00     0.029 A 
ATOM     63  C   UNL A   1      49.240  25.994  27.057  1.00  0.00     0.049 A 
ATOM     64  H   UNL A   1      49.490  28.032  26.637  1.00  0.00     0.167 HD
ATOM     65  C   UNL A   1      47.640  24.785  25.740  1.00  0.00     0.074 A 
ATOM     66  C   UNL A   1      46.837  24.232  24.673  1.00  0.00     0.031 C 
ATOM     67  C   UNL A   1      48.696  25.656  25.748  1.00  0.00     0.034 A 
BRANCH  54  68
ATOM     68  C   UNL A   1      50.835  29.569  29.923  1.00  0.00     0.023 A 
ATOM     69  C   UNL A   1      51.678  30.405  29.151  1.00  0.00     0.012 A 
ATOM     70  C   UNL A   1      51.240  29.411  31.290  1.00  0.00     0.148 A 
ATOM     71  C   UNL A   1      52.832  31.022  29.656  1.00  0.00     0.002 A 
ATOM     72  C   UNL A   1      52.366  30.089  31.815  1.00  0.00     0.091 A 
ATOM     73  F   UNL A   1      50.592  28.555  32.089  1.00  0.00    -0.205 F 
ATOM     74  C   UNL A   1      53.171  30.876  30.989  1.00  0.00     0.022 A 
BRANCH  72  75
ATOM     75  S   UNL A   1      52.896  30.028  33.550  1.00  0.00     0.127 S 
ATOM     76  O   UNL A   1      53.713  31.237  33.674  1.00  0.00    -0.237 OA
ATOM     77  O   UNL A   1      51.623  30.094  34.269  1.00  0.00    -0.237 OA
ATOM     78  O   UNL A   1      53.623  28.776  33.716  1.00  0.00    -0.744 OA
ENDBRANCH  72  75
ENDBRANCH  54  68
BRANCH  55  79
ATOM     79  C   UNL A   1      43.196  23.607  27.201  1.00  0.00     0.023 A 
ATOM     80  C   UNL A   1      42.386  22.869  28.099  1.00  0.00     0.012 A 
ATOM     81  C   UNL A   1      42.562  24.444  26.296  1.00  0.00     0.148 A 
ATOM     82  C   UNL A   1      41.023  23.156  28.238  1.00  0.00     0.002 A 
ATOM     83  C   UNL A   1      41.352  24.974  26.679  1.00  0.00     0.091 A 
ATOM     84  F   UNL A   1      43.206  25.002  25.268  1.00  0.00    -0.205 F 
ATOM     85  C   UNL A   1      40.520  24.279  27.585  1.00  0.00     0.022 A 
BRANCH  83  86
ATOM     86  S   UNL A   1      41.621  26.740  27.114  1.00  0.00     0.127 S 
ATOM     87  O   UNL A   1      40.558  27.432  26.380  1.00  0.00    -0.237 OA
ATOM     88  O   UNL A   1      41.417  26.617  28.543  1.00  0.00    -0.237 OA
ATOM     89  O   UNL A   1      42.973  27.084  26.743  1.00  0.00    -0.744 OA
ENDBRANCH  83  86
ENDBRANCH  55  79
BRANCH  67  90
ATOM     90  C   UNL A   1      49.250  26.343  24.503  1.00  0.00     0.023 A 
ATOM     91  C   UNL A   1      48.444  27.117  23.645  1.00  0.00     0.012 A 
ATOM     92  C   UNL A   1      50.643  26.344  24.229  1.00  0.00     0.148 A 
ATOM     93  C   UNL A   1      48.961  27.728  22.495  1.00  0.00     0.002 A 
ATOM     94  C   UNL A   1      51.171  27.067  23.160  1.00  0.00     0.091 A 
ATOM     95  F   UNL A   1      51.475  25.632  25.005  1.00  0.00    -0.205 F 
ATOM     96  C   UNL A   1      50.328  27.709  22.255  1.00  0.00     0.022 A 
BRANCH  94  97
ATOM     97  S   UNL A   1      52.946  27.320  23.012  1.00  0.00     0.127 S 
ATOM     98  O   UNL A   1      53.273  27.961  24.283  1.00  0.00    -0.237 OA
ATOM     99  O   UNL A   1      53.455  25.953  22.872  1.00  0.00    -0.237 OA
ATOM    100  O   UNL A   1      53.101  28.136  21.815  1.00  0.00    -0.744 OA
ENDBRANCH  94  97
ENDBRANCH  67  90
ENDBRANCH  41  42
ENDBRANCH  34  36
ENDBRANCH  33  34
ENDBRANCH  32  33
ENDBRANCH  31  32
ENDBRANCH  30  31
ENDBRANCH  29  30
ENDBRANCH   1  29
TORSDOF 23
ENDMDL
MODEL 3
REMARK VINA RESULT:     -10.8      3.943      7.470
REMARK SMILES Cc1ccc(N2C(=O)C[C@H](Sc3ccccc3C(=O)OCCOCCOCCOC(=O)c3ccc(-c4c5nc(c(-c6cccc(S(=O)(=O)[O-])c6F)c6ccc([nH]6)c(-c6cccc(S(=O)(=O)[O-])c6F)c6nc(c(-c7cccc(S(=O)(=O)[O-])c7F)c7ccc4[nH]7)C=C6)C=C5)cc3)C2=O)cc1
REMARK SMILES IDX 24 1 23 2 22 3 21 4 20 5 18 6 19 7 17 8 12 9 13 10 14 11
REMARK SMILES IDX 16 12 15 13 11 14 10 15 6 16 7 17 95 18 8 19 9 20 96 21 5 22
REMARK SMILES IDX 1 23 2 24 3 25 98 26 4 27 97 28 25 29 26 30 27 31 28 32
REMARK SMILES IDX 29 33 30 34 31 35 32 36 33 37 94 38 34 39 93 40 35 41 36 42
REMARK SMILES IDX 37 43 87 44 38 45 92 46 86 47 88 48 39 49 91 50 85 51 84 52
REMARK SMILES IDX 40 54 72 55 52 56 71 57 53 58 56 59 70 60 89 61 54 62 55 63
REMARK SMILES IDX 69 65 90 66 57 67 41 68 42 69 50 70 43 71 45 72 51 73 44 74
REMARK SMILES IDX 46 75 47 76 48 77 49 78 73 79 74 80 82 81 75 82 77 83 83 84
REMARK SMILES IDX 76 85 78 86 79 87 80 88 81 89 58 90 59 91 67 92 60 93 62 94
REMARK SMILES IDX 68 95 61 96 63 97 64 98 65 99 66 100
REMARK H PARENT 88 53 56 64
REMARK Flexibility Score: inf
ROOT
ATOM      1  C   UNL A   1      37.342  33.600  33.995  1.00  0.00     0.188 C 
ENDROOT
BRANCH   1   2
ATOM      2  O   UNL A   1      38.499  33.077  33.341  1.00  0.00    -0.376 OA
BRANCH   2   3
ATOM      3  C   UNL A   1      39.094  31.852  33.817  1.00  0.00     0.202 C 
BRANCH   3   4
ATOM      4  C   UNL A   1      38.935  30.433  33.132  1.00  0.00     0.261 C 
BRANCH   4   5
ATOM      5  O   UNL A   1      40.019  29.942  32.211  1.00  0.00    -0.460 OA
BRANCH   5   6
ATOM      6  C   UNL A   1      40.397  28.725  31.617  1.00  0.00     0.339 C 
ATOM      7  O   UNL A   1      41.231  28.032  32.193  1.00  0.00    -0.246 OA
BRANCH   6   8
ATOM      8  C   UNL A   1      39.902  28.303  29.884  1.00  0.00     0.073 A 
ATOM      9  C   UNL A   1      40.538  28.604  28.513  1.00  0.00     0.023 A 
ATOM     10  C   UNL A   1      39.825  29.324  27.533  1.00  0.00     0.016 A 
ATOM     11  C   UNL A   1      38.443  29.357  27.665  1.00  0.00     0.001 A 
ATOM     12  C   UNL A   1      38.518  28.181  29.850  1.00  0.00     0.017 A 
ATOM     13  C   UNL A   1      37.810  28.714  28.753  1.00  0.00     0.001 A 
BRANCH   9  14
ATOM     14  S   UNL A   1      40.836  26.816  27.392  1.00  0.00    -0.111 SA
BRANCH  14  15
ATOM     15  C   UNL A   1      40.144  25.036  28.257  1.00  0.00     0.151 C 
ATOM     16  N   UNL A   1      41.492  23.491  27.042  1.00  0.00    -0.250 N 
ATOM     17  C   UNL A   1      40.228  23.106  26.726  1.00  0.00     0.235 C 
ATOM     18  C   UNL A   1      41.497  24.285  28.174  1.00  0.00     0.247 C 
ATOM     19  O   UNL A   1      39.831  22.339  25.856  1.00  0.00    -0.274 OA
ATOM     20  C   UNL A   1      39.329  23.853  27.636  1.00  0.00     0.126 C 
ATOM     21  O   UNL A   1      42.405  24.363  28.993  1.00  0.00    -0.273 OA
BRANCH  16  22
ATOM     22  C   UNL A   1      42.582  23.250  26.186  1.00  0.00     0.052 A 
ATOM     23  C   UNL A   1      46.406  22.853  24.244  1.00  0.00     0.044 C 
ATOM     24  C   UNL A   1      45.062  22.963  24.892  1.00  0.00    -0.051 A 
ATOM     25  C   UNL A   1      44.261  24.080  24.639  1.00  0.00     0.005 A 
ATOM     26  C   UNL A   1      44.595  21.970  25.761  1.00  0.00     0.005 A 
ATOM     27  C   UNL A   1      43.043  24.232  25.301  1.00  0.00     0.027 A 
ATOM     28  C   UNL A   1      43.355  22.102  26.389  1.00  0.00     0.027 A 
ENDBRANCH  16  22
ENDBRANCH  14  15
ENDBRANCH   9  14
ENDBRANCH   6   8
ENDBRANCH   5   6
ENDBRANCH   4   5
ENDBRANCH   3   4
ENDBRANCH   2   3
ENDBRANCH   1   2
BRANCH   1  29
ATOM     29  C   UNL A   1      36.058  32.771  34.004  1.00  0.00     0.188 C 
BRANCH  29  30
ATOM     30  O   UNL A   1      34.946  33.646  34.018  1.00  0.00    -0.376 OA
BRANCH  30  31
ATOM     31  C   UNL A   1      35.051  34.859  33.308  1.00  0.00     0.202 C 
BRANCH  31  32
ATOM     32  C   UNL A   1      34.358  34.827  31.946  1.00  0.00     0.261 C 
BRANCH  32  33
ATOM     33  O   UNL A   1      35.239  34.565  30.823  1.00  0.00    -0.460 OA
BRANCH  33  34
ATOM     34  C   UNL A   1      35.671  33.283  30.601  1.00  0.00     0.338 C 
ATOM     35  O   UNL A   1      34.909  32.337  30.503  1.00  0.00    -0.246 OA
BRANCH  34  36
ATOM     36  C   UNL A   1      37.096  33.222  30.235  1.00  0.00     0.060 A 
ATOM     37  C   UNL A   1      37.899  32.118  30.014  1.00  0.00     0.016 A 
ATOM     38  C   UNL A   1      37.705  34.401  30.052  1.00  0.00     0.016 A 
ATOM     39  C   UNL A   1      39.363  32.188  29.889  1.00  0.00     0.010 A 
ATOM     40  C   UNL A   1      39.109  34.408  29.960  1.00  0.00     0.010 A 
ATOM     41  C   UNL A   1      40.120  33.351  29.898  1.00  0.00    -0.014 A 
BRANCH  41  42
ATOM     42  C   UNL A   1      41.914  33.334  29.743  1.00  0.00     0.031 A 
ATOM     43  C   UNL A   1      43.186  32.063  30.006  1.00  0.00     0.074 A 
ATOM     44  C   UNL A   1      42.444  34.278  28.902  1.00  0.00     0.049 A 
ATOM     45  N   UNL A   1      44.430  32.114  29.534  1.00  0.00    -0.248 NA
ATOM     46  C   UNL A   1      43.186  30.731  30.736  1.00  0.00     0.031 C 
ATOM     47  C   UNL A   1      43.381  33.921  27.836  1.00  0.00     0.029 A 
ATOM     48  N   UNL A   1      42.177  35.634  28.618  1.00  0.00    -0.354 N 
ATOM     49  C   UNL A   1      44.974  30.803  29.556  1.00  0.00     0.074 A 
ATOM     50  C   UNL A   1      44.352  30.121  30.595  1.00  0.00     0.031 C 
ATOM     51  C   UNL A   1      43.648  34.976  27.069  1.00  0.00     0.029 A 
ATOM     52  C   UNL A   1      43.182  36.144  27.768  1.00  0.00     0.049 A 
ATOM     53  H   UNL A   1      41.409  36.146  28.959  1.00  0.00     0.167 HD
ATOM     54  C   UNL A   1      45.670  30.238  28.529  1.00  0.00     0.034 A 
ATOM     55  C   UNL A   1      43.914  37.298  27.841  1.00  0.00     0.034 A 
ATOM     56  C   UNL A   1      46.255  31.297  27.750  1.00  0.00     0.049 A 
ATOM     57  C   UNL A   1      45.419  36.974  27.948  1.00  0.00     0.074 A 
ATOM     58  C   UNL A   1      46.104  31.786  26.475  1.00  0.00     0.029 A 
ATOM     59  N   UNL A   1      47.027  32.203  28.450  1.00  0.00    -0.354 N 
ATOM     60  N   UNL A   1      45.980  35.852  27.575  1.00  0.00    -0.248 NA
ATOM     61  C   UNL A   1      46.411  37.855  28.574  1.00  0.00     0.031 C 
ATOM     62  C   UNL A   1      46.663  33.097  26.476  1.00  0.00     0.029 A 
ATOM     63  C   UNL A   1      47.190  33.363  27.733  1.00  0.00     0.049 A 
ATOM     64  H   UNL A   1      47.410  32.039  29.342  1.00  0.00     0.167 HD
ATOM     65  C   UNL A   1      47.180  35.710  28.230  1.00  0.00     0.074 A 
ATOM     66  C   UNL A   1      47.459  37.035  28.736  1.00  0.00     0.031 C 
ATOM     67  C   UNL A   1      47.794  34.501  28.416  1.00  0.00     0.034 A 
BRANCH  54  68
ATOM     68  C   UNL A   1      45.796  28.735  28.141  1.00  0.00     0.023 A 
ATOM     69  C   UNL A   1      44.573  28.085  27.844  1.00  0.00     0.012 A 
ATOM     70  C   UNL A   1      46.941  27.871  28.159  1.00  0.00     0.148 A 
ATOM     71  C   UNL A   1      44.463  26.707  27.605  1.00  0.00     0.002 A 
ATOM     72  C   UNL A   1      46.839  26.493  27.850  1.00  0.00     0.091 A 
ATOM     73  F   UNL A   1      48.134  28.344  28.540  1.00  0.00    -0.205 F 
ATOM     74  C   UNL A   1      45.595  25.912  27.595  1.00  0.00     0.022 A 
BRANCH  72  75
ATOM     75  S   UNL A   1      48.243  25.346  27.752  1.00  0.00     0.127 S 
ATOM     76  O   UNL A   1      47.612  24.115  27.273  1.00  0.00    -0.237 OA
ATOM     77  O   UNL A   1      49.108  25.995  26.765  1.00  0.00    -0.237 OA
ATOM     78  O   UNL A   1      48.805  25.268  29.093  1.00  0.00    -0.744 OA
ENDBRANCH  72  75
ENDBRANCH  54  68
BRANCH  55  79
ATOM     79  C   UNL A   1      43.225  38.460  28.471  1.00  0.00     0.023 A 
ATOM     80  C   UNL A   1      43.748  38.969  29.686  1.00  0.00     0.012 A 
ATOM     81  C   UNL A   1      42.429  39.299  27.707  1.00  0.00     0.148 A 
ATOM     82  C   UNL A   1      43.674  40.335  29.983  1.00  0.00     0.002 A 
ATOM     83  C   UNL A   1      42.674  40.649  27.804  1.00  0.00     0.091 A 
ATOM     84  F   UNL A   1      41.708  38.854  26.676  1.00  0.00    -0.205 F 
ATOM     85  C   UNL A   1      43.210  41.196  28.991  1.00  0.00     0.022 A 
BRANCH  83  86
ATOM     86  S   UNL A   1      43.549  41.176  26.276  1.00  0.00     0.127 S 
ATOM     87  O   UNL A   1      44.378  40.013  25.947  1.00  0.00    -0.237 OA
ATOM     88  O   UNL A   1      42.379  41.366  25.443  1.00  0.00    -0.237 OA
ATOM     89  O   UNL A   1      44.260  42.396  26.573  1.00  0.00    -0.744 OA
ENDBRANCH  83  86
ENDBRANCH  55  79
BRANCH  67  90
ATOM     90  C   UNL A   1      48.980  34.275  29.349  1.00  0.00     0.023 A 
ATOM     91  C   UNL A   1      50.309  34.530  28.957  1.00  0.00     0.012 A 
ATOM     92  C   UNL A   1      48.781  33.925  30.711  1.00  0.00     0.148 A 
ATOM     93  C   UNL A   1      51.391  34.301  29.817  1.00  0.00     0.002 A 
ATOM     94  C   UNL A   1      49.851  33.832  31.599  1.00  0.00     0.091 A 
ATOM     95  F   UNL A   1      47.542  33.671  31.159  1.00  0.00    -0.205 F 
ATOM     96  C   UNL A   1      51.162  33.958  31.142  1.00  0.00     0.022 A 
BRANCH  94  97
ATOM     97  S   UNL A   1      49.565  33.704  33.371  1.00  0.00     0.127 S 
ATOM     98  O   UNL A   1      50.922  33.761  33.906  1.00  0.00    -0.237 OA
ATOM     99  O   UNL A   1      48.751  34.890  33.651  1.00  0.00    -0.237 OA
ATOM    100  O   UNL A   1      48.853  32.444  33.538  1.00  0.00    -0.744 OA
ENDBRANCH  94  97
ENDBRANCH  67  90
ENDBRANCH  41  42
ENDBRANCH  34  36
ENDBRANCH  33  34
ENDBRANCH  32  33
ENDBRANCH  31  32
ENDBRANCH  30  31
ENDBRANCH  29  30
ENDBRANCH   1  29
TORSDOF 23
ENDMDL
