MODEL 1
REMARK VINA RESULT:     -10.5      0.000      0.000
REMARK SMILES O=C(Cn1nc(C(=O)OCCOCCOCCOC(=O)c2ccc(-c3c4nc(c(-c5cccc(S(=O)(=O)[O-])c5F)c5ccc([nH]5)c(-c5cccc(S(=O)(=O)[O-])c5F)c5nc(c(-c6cccc(S(=O)(=O)[O-])c6F)c6ccc3[nH]6)C=C5)C=C4)cc2)c2ccccc2c1=O)Nc1ccc2c(c1)C(=O)c1ccccc1C2=O
REMARK SMILES IDX 13 1 12 2 11 3 10 4 9 5 7 6 8 7 6 8 4 9 5 10 90 11 89 12
REMARK SMILES IDX 91 13 84 14 88 15 85 16 87 17 86 18 3 19 2 20 1 21 92 22
REMARK SMILES IDX 93 24 94 25 98 26 95 27 97 28 96 29 99 30 107 31 100 32
REMARK SMILES IDX 101 33 106 34 108 35 102 36 105 37 103 38 104 39 14 40 15 41
REMARK SMILES IDX 16 42 17 43 18 44 19 45 20 46 21 47 22 48 83 49 23 50 82 51
REMARK SMILES IDX 24 52 25 53 26 54 76 55 27 56 81 57 75 58 77 59 28 60 80 61
REMARK SMILES IDX 74 62 73 63 29 65 61 66 41 67 60 68 42 69 45 70 59 71 78 72
REMARK SMILES IDX 43 73 44 74 58 76 79 77 46 78 30 79 31 80 39 81 32 82 34 83
REMARK SMILES IDX 40 84 33 85 35 86 36 87 37 88 38 89 62 90 63 91 71 92 64 93
REMARK SMILES IDX 66 94 72 95 65 96 67 97 68 98 69 99 70 100 47 101 48 102
REMARK SMILES IDX 56 103 49 104 51 105 57 106 50 107 52 108 53 109 54 110
REMARK SMILES IDX 55 111
REMARK H PARENT 92 23 77 64 45 75
REMARK Flexibility Score: inf
ROOT
ATOM      1  C   UNL A   1      38.624  21.981  25.819  1.00  0.00     0.188 C 
ENDROOT
BRANCH   1   2
ATOM      2  O   UNL A   1      37.670  23.031  25.950  1.00  0.00    -0.376 OA
BRANCH   2   3
ATOM      3  C   UNL A   1      36.350  22.724  25.520  1.00  0.00     0.202 C 
BRANCH   3   4
ATOM      4  C   UNL A   1      35.289  23.268  26.475  1.00  0.00     0.261 C 
BRANCH   4   5
ATOM      5  O   UNL A   1      34.405  22.243  26.947  1.00  0.00    -0.458 OA
BRANCH   5   6
ATOM      6  C   UNL A   1      33.154  22.618  27.267  1.00  0.00     0.359 C 
ATOM      7  O   UNL A   1      32.614  22.540  28.353  1.00  0.00    -0.244 OA
BRANCH   6   8
ATOM      8  C   UNL A   1      32.496  23.247  26.045  1.00  0.00     0.176 A 
ATOM      9  N   UNL A   1      31.498  25.092  25.070  1.00  0.00    -0.219 N 
ATOM     10  N   UNL A   1      32.066  24.472  26.168  1.00  0.00    -0.161 NA
ATOM     11  C   UNL A   1      31.587  24.565  23.782  1.00  0.00     0.275 A 
ATOM     12  C   UNL A   1      31.881  23.125  23.689  1.00  0.00     0.051 A 
ATOM     13  O   UNL A   1      31.417  25.216  22.755  1.00  0.00    -0.267 OA
ATOM     14  C   UNL A   1      32.356  22.454  24.811  1.00  0.00     0.022 A 
ATOM     15  C   UNL A   1      31.676  22.442  22.484  1.00  0.00     0.014 A 
ATOM     16  C   UNL A   1      32.654  21.088  24.724  1.00  0.00     0.011 A 
ATOM     17  C   UNL A   1      31.954  21.079  22.405  1.00  0.00     0.001 A 
ATOM     18  C   UNL A   1      32.450  20.406  23.519  1.00  0.00     0.001 A 
BRANCH   9  19
ATOM     19  C   UNL A   1      31.112  26.494  25.248  1.00  0.00     0.248 C 
BRANCH  19  20
ATOM     20  C   UNL A   1      31.828  27.144  26.446  1.00  0.00     0.246 C 
ATOM     21  O   UNL A   1      31.225  27.516  27.449  1.00  0.00    -0.273 OA
ATOM     22  N   UNL A   1      33.189  27.329  26.215  1.00  0.00    -0.324 N 
ATOM     23  H   UNL A   1      33.682  26.595  25.782  1.00  0.00     0.169 HD
BRANCH  22  24
ATOM     24  C   UNL A   1      33.918  28.493  26.557  1.00  0.00     0.042 A 
ATOM     25  C   UNL A   1      33.169  29.644  26.860  1.00  0.00     0.027 A 
ATOM     26  C   UNL A   1      35.281  28.457  26.857  1.00  0.00     0.039 A 
ATOM     27  C   UNL A   1      33.725  30.675  27.623  1.00  0.00     0.015 A 
ATOM     28  C   UNL A   1      35.812  29.455  27.674  1.00  0.00     0.036 A 
ATOM     29  C   UNL A   1      35.021  30.518  28.108  1.00  0.00     0.034 A 
ATOM     30  C   UNL A   1      37.116  29.223  28.322  1.00  0.00     0.194 C 
ATOM     31  C   UNL A   1      35.452  31.288  29.296  1.00  0.00     0.194 C 
ATOM     32  O   UNL A   1      38.047  28.705  27.735  1.00  0.00    -0.289 OA
ATOM     33  C   UNL A   1      37.164  29.555  29.758  1.00  0.00     0.034 A 
ATOM     34  C   UNL A   1      36.322  30.556  30.246  1.00  0.00     0.034 A 
ATOM     35  O   UNL A   1      35.003  32.397  29.541  1.00  0.00    -0.289 OA
ATOM     36  C   UNL A   1      37.910  28.759  30.629  1.00  0.00     0.013 A 
ATOM     37  C   UNL A   1      36.190  30.752  31.621  1.00  0.00     0.013 A 
ATOM     38  C   UNL A   1      37.754  28.934  32.004  1.00  0.00     0.001 A 
ATOM     39  C   UNL A   1      36.891  29.919  32.497  1.00  0.00     0.001 A 
ENDBRANCH  22  24
ENDBRANCH  19  20
ENDBRANCH   9  19
ENDBRANCH   6   8
ENDBRANCH   5   6
ENDBRANCH   4   5
ENDBRANCH   3   4
ENDBRANCH   2   3
ENDBRANCH   1   2
BRANCH   1  40
ATOM     40  C   UNL A   1      39.813  22.080  26.796  1.00  0.00     0.188 C 
BRANCH  40  41
ATOM     41  O   UNL A   1      41.135  21.991  26.277  1.00  0.00    -0.376 OA
BRANCH  41  42
ATOM     42  C   UNL A   1      42.024  23.082  26.476  1.00  0.00     0.202 C 
BRANCH  42  43
ATOM     43  C   UNL A   1      41.447  24.325  27.155  1.00  0.00     0.261 C 
BRANCH  43  44
ATOM     44  O   UNL A   1      42.399  25.400  27.219  1.00  0.00    -0.460 OA
BRANCH  44  45
ATOM     45  C   UNL A   1      42.158  26.445  26.389  1.00  0.00     0.338 C 
ATOM     46  O   UNL A   1      41.643  26.406  25.286  1.00  0.00    -0.246 OA
BRANCH  45  47
ATOM     47  C   UNL A   1      42.462  27.705  27.100  1.00  0.00     0.060 A 
ATOM     48  C   UNL A   1      42.208  28.949  26.516  1.00  0.00     0.016 A 
ATOM     49  C   UNL A   1      42.994  27.623  28.393  1.00  0.00     0.016 A 
ATOM     50  C   UNL A   1      42.463  30.115  27.244  1.00  0.00     0.010 A 
ATOM     51  C   UNL A   1      43.266  28.790  29.110  1.00  0.00     0.010 A 
ATOM     52  C   UNL A   1      42.986  30.043  28.546  1.00  0.00    -0.014 A 
BRANCH  52  53
ATOM     53  C   UNL A   1      43.121  31.273  29.363  1.00  0.00     0.031 A 
ATOM     54  C   UNL A   1      42.047  31.702  30.315  1.00  0.00     0.074 A 
ATOM     55  C   UNL A   1      44.227  32.026  29.214  1.00  0.00     0.049 A 
ATOM     56  N   UNL A   1      42.042  32.718  31.138  1.00  0.00    -0.248 NA
ATOM     57  C   UNL A   1      40.817  30.896  30.345  1.00  0.00     0.031 C 
ATOM     58  C   UNL A   1      45.316  31.742  28.278  1.00  0.00     0.029 A 
ATOM     59  N   UNL A   1      44.612  33.186  29.836  1.00  0.00    -0.354 N 
ATOM     60  C   UNL A   1      40.814  32.683  31.783  1.00  0.00     0.074 A 
ATOM     61  C   UNL A   1      40.087  31.553  31.240  1.00  0.00     0.031 C 
ATOM     62  C   UNL A   1      46.246  32.704  28.385  1.00  0.00     0.029 A 
ATOM     63  C   UNL A   1      45.821  33.669  29.397  1.00  0.00     0.049 A 
ATOM     64  H   UNL A   1      44.074  33.630  30.530  1.00  0.00     0.167 HD
ATOM     65  C   UNL A   1      40.351  33.502  32.757  1.00  0.00     0.034 A 
ATOM     66  C   UNL A   1      46.519  34.757  29.775  1.00  0.00     0.034 A 
ATOM     67  C   UNL A   1      41.089  34.600  33.322  1.00  0.00     0.049 A 
ATOM     68  C   UNL A   1      45.993  35.630  30.878  1.00  0.00     0.074 A 
ATOM     69  C   UNL A   1      40.728  35.423  34.375  1.00  0.00     0.029 A 
ATOM     70  N   UNL A   1      42.330  35.034  32.884  1.00  0.00    -0.354 N 
ATOM     71  N   UNL A   1      44.899  35.490  31.583  1.00  0.00    -0.248 NA
ATOM     72  C   UNL A   1      46.812  36.790  31.259  1.00  0.00     0.031 C 
ATOM     73  C   UNL A   1      41.748  36.359  34.571  1.00  0.00     0.029 A 
ATOM     74  C   UNL A   1      42.743  36.120  33.638  1.00  0.00     0.049 A 
ATOM     75  H   UNL A   1      42.840  34.632  32.145  1.00  0.00     0.167 HD
ATOM     76  C   UNL A   1      44.903  36.531  32.502  1.00  0.00     0.074 A 
ATOM     77  C   UNL A   1      46.119  37.285  32.277  1.00  0.00     0.031 C 
ATOM     78  C   UNL A   1      43.971  36.843  33.435  1.00  0.00     0.034 A 
BRANCH  65  79
ATOM     79  C   UNL A   1      39.003  33.204  33.349  1.00  0.00     0.023 A 
ATOM     80  C   UNL A   1      38.930  32.384  34.492  1.00  0.00     0.012 A 
ATOM     81  C   UNL A   1      37.839  33.830  32.866  1.00  0.00     0.148 A 
ATOM     82  C   UNL A   1      37.716  32.189  35.148  1.00  0.00     0.002 A 
ATOM     83  C   UNL A   1      36.636  33.651  33.539  1.00  0.00     0.091 A 
ATOM     84  F   UNL A   1      37.934  34.594  31.768  1.00  0.00    -0.205 F 
ATOM     85  C   UNL A   1      36.572  32.831  34.679  1.00  0.00     0.022 A 
BRANCH  83  86
ATOM     86  S   UNL A   1      35.113  34.469  33.049  1.00  0.00     0.127 S 
ATOM     87  O   UNL A   1      34.157  33.362  33.104  1.00  0.00    -0.237 OA
ATOM     88  O   UNL A   1      34.950  35.471  34.101  1.00  0.00    -0.237 OA
ATOM     89  O   UNL A   1      35.356  35.008  31.718  1.00  0.00    -0.744 OA
ENDBRANCH  83  86
ENDBRANCH  65  79
BRANCH  66  90
ATOM     90  C   UNL A   1      47.840  35.022  29.150  1.00  0.00     0.023 A 
ATOM     91  C   UNL A   1      49.004  34.537  29.778  1.00  0.00     0.012 A 
ATOM     92  C   UNL A   1      47.943  35.681  27.912  1.00  0.00     0.148 A 
ATOM     93  C   UNL A   1      50.252  34.711  29.183  1.00  0.00     0.002 A 
ATOM     94  C   UNL A   1      49.186  35.820  27.307  1.00  0.00     0.091 A 
ATOM     95  F   UNL A   1      46.819  36.139  27.344  1.00  0.00    -0.205 F 
ATOM     96  C   UNL A   1      50.343  35.342  27.944  1.00  0.00     0.022 A 
BRANCH  94  97
ATOM     97  S   UNL A   1      49.393  36.529  25.671  1.00  0.00     0.127 S 
ATOM     98  O   UNL A   1      50.846  36.520  25.525  1.00  0.00    -0.237 OA
ATOM     99  O   UNL A   1      48.682  35.564  24.833  1.00  0.00    -0.237 OA
ATOM    100  O   UNL A   1      48.777  37.848  25.732  1.00  0.00    -0.744 OA
ENDBRANCH  94  97
ENDBRANCH  66  90
BRANCH  78 101
ATOM    101  C   UNL A   1      44.208  38.060  34.285  1.00  0.00     0.023 A 
ATOM    102  C   UNL A   1      45.053  37.956  35.406  1.00  0.00     0.012 A 
ATOM    103  C   UNL A   1      43.681  39.316  33.924  1.00  0.00     0.148 A 
ATOM    104  C   UNL A   1      45.365  39.082  36.165  1.00  0.00     0.002 A 
ATOM    105  C   UNL A   1      44.020  40.441  34.668  1.00  0.00     0.091 A 
ATOM    106  F   UNL A   1      42.867  39.386  32.861  1.00  0.00    -0.205 F 
ATOM    107  C   UNL A   1      44.858  40.325  35.791  1.00  0.00     0.022 A 
BRANCH 105 108
ATOM    108  S   UNL A   1      43.474  42.094  34.224  1.00  0.00     0.127 S 
ATOM    109  O   UNL A   1      42.039  41.893  34.035  1.00  0.00    -0.237 OA
ATOM    110  O   UNL A   1      43.831  42.869  35.413  1.00  0.00    -0.237 OA
ATOM    111  O   UNL A   1      44.218  42.453  33.024  1.00  0.00    -0.744 OA
ENDBRANCH 105 108
ENDBRANCH  78 101
ENDBRANCH  52  53
ENDBRANCH  45  47
ENDBRANCH  44  45
ENDBRANCH  43  44
ENDBRANCH  42  43
ENDBRANCH  41  42
ENDBRANCH  40  41
ENDBRANCH   1  40
TORSDOF 23
ENDMDL
MODEL 2
REMARK VINA RESULT:      -9.9      2.422      6.952
REMARK SMILES O=C(Cn1nc(C(=O)OCCOCCOCCOC(=O)c2ccc(-c3c4nc(c(-c5cccc(S(=O)(=O)[O-])c5F)c5ccc([nH]5)c(-c5cccc(S(=O)(=O)[O-])c5F)c5nc(c(-c6cccc(S(=O)(=O)[O-])c6F)c6ccc3[nH]6)C=C5)C=C4)cc2)c2ccccc2c1=O)Nc1ccc2c(c1)C(=O)c1ccccc1C2=O
REMARK SMILES IDX 13 1 12 2 11 3 10 4 9 5 7 6 8 7 6 8 4 9 5 10 90 11 89 12
REMARK SMILES IDX 91 13 84 14 88 15 85 16 87 17 86 18 3 19 2 20 1 21 92 22
REMARK SMILES IDX 93 24 94 25 98 26 95 27 97 28 96 29 99 30 107 31 100 32
REMARK SMILES IDX 101 33 106 34 108 35 102 36 105 37 103 38 104 39 14 40 15 41
REMARK SMILES IDX 16 42 17 43 18 44 19 45 20 46 21 47 22 48 83 49 23 50 82 51
REMARK SMILES IDX 24 52 25 53 26 54 76 55 27 56 81 57 75 58 77 59 28 60 80 61
REMARK SMILES IDX 74 62 73 63 29 65 61 66 41 67 60 68 42 69 45 70 59 71 78 72
REMARK SMILES IDX 43 73 44 74 58 76 79 77 46 78 30 79 31 80 39 81 32 82 34 83
REMARK SMILES IDX 40 84 33 85 35 86 36 87 37 88 38 89 62 90 63 91 71 92 64 93
REMARK SMILES IDX 66 94 72 95 65 96 67 97 68 98 69 99 70 100 47 101 48 102
REMARK SMILES IDX 56 103 49 104 51 105 57 106 50 107 52 108 53 109 54 110
REMARK SMILES IDX 55 111
REMARK H PARENT 92 23 77 64 45 75
REMARK Flexibility Score: inf
ROOT
ATOM      1  C   UNL A   1      39.195  21.833  25.996  1.00  0.00     0.188 C 
ENDROOT
BRANCH   1   2
ATOM      2  O   UNL A   1      38.294  22.916  26.209  1.00  0.00    -0.376 OA
BRANCH   2   3
ATOM      3  C   UNL A   1      37.083  22.865  25.465  1.00  0.00     0.202 C 
BRANCH   3   4
ATOM      4  C   UNL A   1      35.895  23.411  26.256  1.00  0.00     0.261 C 
BRANCH   4   5
ATOM      5  O   UNL A   1      34.961  22.383  26.614  1.00  0.00    -0.458 OA
BRANCH   5   6
ATOM      6  C   UNL A   1      33.813  22.778  27.190  1.00  0.00     0.359 C 
ATOM      7  O   UNL A   1      33.543  22.782  28.376  1.00  0.00    -0.244 OA
BRANCH   6   8
ATOM      8  C   UNL A   1      32.873  23.310  26.114  1.00  0.00     0.176 A 
ATOM      9  N   UNL A   1      31.495  25.008  25.360  1.00  0.00    -0.219 N 
ATOM     10  N   UNL A   1      32.323  24.472  26.330  1.00  0.00    -0.161 NA
ATOM     11  C   UNL A   1      31.418  24.485  24.069  1.00  0.00     0.275 A 
ATOM     12  C   UNL A   1      31.868  23.094  23.904  1.00  0.00     0.051 A 
ATOM     13  O   UNL A   1      30.987  25.102  23.099  1.00  0.00    -0.267 OA
ATOM     14  C   UNL A   1      32.616  22.496  24.913  1.00  0.00     0.022 A 
ATOM     15  C   UNL A   1      31.538  22.381  22.745  1.00  0.00     0.014 A 
ATOM     16  C   UNL A   1      33.062  21.178  24.754  1.00  0.00     0.011 A 
ATOM     17  C   UNL A   1      31.965  21.063  22.597  1.00  0.00     0.001 A 
ATOM     18  C   UNL A   1      32.733  20.466  23.596  1.00  0.00     0.001 A 
BRANCH   9  19
ATOM     19  C   UNL A   1      30.975  26.352  25.624  1.00  0.00     0.248 C 
BRANCH  19  20
ATOM     20  C   UNL A   1      31.816  27.101  26.673  1.00  0.00     0.246 C 
ATOM     21  O   UNL A   1      31.401  27.332  27.806  1.00  0.00    -0.273 OA
ATOM     22  N   UNL A   1      33.032  27.547  26.161  1.00  0.00    -0.324 N 
ATOM     23  H   UNL A   1      33.538  26.928  25.585  1.00  0.00     0.169 HD
BRANCH  22  24
ATOM     24  C   UNL A   1      33.598  28.821  26.405  1.00  0.00     0.042 A 
ATOM     25  C   UNL A   1      32.700  29.886  26.600  1.00  0.00     0.027 A 
ATOM     26  C   UNL A   1      34.947  28.989  26.719  1.00  0.00     0.039 A 
ATOM     27  C   UNL A   1      33.102  31.042  27.275  1.00  0.00     0.015 A 
ATOM     28  C   UNL A   1      35.328  30.113  27.451  1.00  0.00     0.036 A 
ATOM     29  C   UNL A   1      34.398  31.097  27.783  1.00  0.00     0.034 A 
ATOM     30  C   UNL A   1      36.638  30.111  28.128  1.00  0.00     0.194 C 
ATOM     31  C   UNL A   1      34.702  32.016  28.903  1.00  0.00     0.194 C 
ATOM     32  O   UNL A   1      37.640  29.670  27.597  1.00  0.00    -0.289 OA
ATOM     33  C   UNL A   1      36.614  30.567  29.530  1.00  0.00     0.034 A 
ATOM     34  C   UNL A   1      35.640  31.488  29.921  1.00  0.00     0.034 A 
ATOM     35  O   UNL A   1      34.109  33.074  29.045  1.00  0.00    -0.289 OA
ATOM     36  C   UNL A   1      37.439  29.954  30.473  1.00  0.00     0.013 A 
ATOM     37  C   UNL A   1      35.456  31.782  31.272  1.00  0.00     0.013 A 
ATOM     38  C   UNL A   1      37.234  30.223  31.826  1.00  0.00     0.001 A 
ATOM     39  C   UNL A   1      36.241  31.127  32.224  1.00  0.00     0.001 A 
ENDBRANCH  22  24
ENDBRANCH  19  20
ENDBRANCH   9  19
ENDBRANCH   6   8
ENDBRANCH   5   6
ENDBRANCH   4   5
ENDBRANCH   3   4
ENDBRANCH   2   3
ENDBRANCH   1   2
BRANCH   1  40
ATOM     40  C   UNL A   1      40.351  21.764  27.014  1.00  0.00     0.188 C 
BRANCH  40  41
ATOM     41  O   UNL A   1      41.670  22.072  26.574  1.00  0.00    -0.376 OA
BRANCH  41  42
ATOM     42  C   UNL A   1      42.251  23.309  26.968  1.00  0.00     0.202 C 
BRANCH  42  43
ATOM     43  C   UNL A   1      41.723  23.937  28.259  1.00  0.00     0.261 C 
BRANCH  43  44
ATOM     44  O   UNL A   1      41.793  25.372  28.232  1.00  0.00    -0.460 OA
BRANCH  44  45
ATOM     45  C   UNL A   1      40.666  26.021  28.620  1.00  0.00     0.338 C 
ATOM     46  O   UNL A   1      39.532  25.579  28.640  1.00  0.00    -0.246 OA
BRANCH  45  47
ATOM     47  C   UNL A   1      41.039  27.329  29.198  1.00  0.00     0.060 A 
ATOM     48  C   UNL A   1      42.005  27.431  30.202  1.00  0.00     0.016 A 
ATOM     49  C   UNL A   1      40.411  28.476  28.698  1.00  0.00     0.016 A 
ATOM     50  C   UNL A   1      42.364  28.694  30.686  1.00  0.00     0.010 A 
ATOM     51  C   UNL A   1      40.757  29.734  29.196  1.00  0.00     0.010 A 
ATOM     52  C   UNL A   1      41.748  29.851  30.181  1.00  0.00    -0.014 A 
BRANCH  52  53
ATOM     53  C   UNL A   1      42.231  31.191  30.594  1.00  0.00     0.031 A 
ATOM     54  C   UNL A   1      43.240  31.944  29.782  1.00  0.00     0.074 A 
ATOM     55  C   UNL A   1      41.765  31.717  31.742  1.00  0.00     0.049 A 
ATOM     56  N   UNL A   1      43.717  33.145  29.980  1.00  0.00    -0.248 NA
ATOM     57  C   UNL A   1      43.792  31.264  28.601  1.00  0.00     0.031 C 
ATOM     58  C   UNL A   1      40.823  31.056  32.647  1.00  0.00     0.029 A 
ATOM     59  N   UNL A   1      42.026  32.919  32.349  1.00  0.00    -0.354 N 
ATOM     60  C   UNL A   1      44.628  33.369  28.958  1.00  0.00     0.074 A 
ATOM     61  C   UNL A   1      44.653  32.168  28.148  1.00  0.00     0.031 C 
ATOM     62  C   UNL A   1      40.588  31.859  33.697  1.00  0.00     0.029 A 
ATOM     63  C   UNL A   1      41.358  33.091  33.537  1.00  0.00     0.049 A 
ATOM     64  H   UNL A   1      42.635  33.593  31.970  1.00  0.00     0.167 HD
ATOM     65  C   UNL A   1      45.351  34.486  28.705  1.00  0.00     0.034 A 
ATOM     66  C   UNL A   1      41.351  34.128  34.396  1.00  0.00     0.034 A 
ATOM     67  C   UNL A   1      45.295  35.692  29.488  1.00  0.00     0.049 A 
ATOM     68  C   UNL A   1      42.142  35.363  34.074  1.00  0.00     0.074 A 
ATOM     69  C   UNL A   1      45.929  36.899  29.247  1.00  0.00     0.029 A 
ATOM     70  N   UNL A   1      44.574  35.847  30.661  1.00  0.00    -0.354 N 
ATOM     71  N   UNL A   1      42.878  35.614  33.020  1.00  0.00    -0.248 NA
ATOM     72  C   UNL A   1      42.077  36.469  35.041  1.00  0.00     0.031 C 
ATOM     73  C   UNL A   1      45.595  37.783  30.278  1.00  0.00     0.029 A 
ATOM     74  C   UNL A   1      44.755  37.125  31.160  1.00  0.00     0.049 A 
ATOM     75  H   UNL A   1      44.017  35.151  31.077  1.00  0.00     0.167 HD
ATOM     76  C   UNL A   1      43.350  36.910  33.186  1.00  0.00     0.074 A 
ATOM     77  C   UNL A   1      42.803  37.401  34.434  1.00  0.00     0.031 C 
ATOM     78  C   UNL A   1      44.178  37.620  32.383  1.00  0.00     0.034 A 
BRANCH  65  79
ATOM     79  C   UNL A   1      46.220  34.502  27.479  1.00  0.00     0.023 A 
ATOM     80  C   UNL A   1      45.749  35.157  26.324  1.00  0.00     0.012 A 
ATOM     81  C   UNL A   1      47.533  33.998  27.508  1.00  0.00     0.148 A 
ATOM     82  C   UNL A   1      46.572  35.308  25.210  1.00  0.00     0.002 A 
ATOM     83  C   UNL A   1      48.358  34.174  26.403  1.00  0.00     0.091 A 
ATOM     84  F   UNL A   1      47.951  33.368  28.616  1.00  0.00    -0.205 F 
ATOM     85  C   UNL A   1      47.879  34.827  25.253  1.00  0.00     0.022 A 
BRANCH  83  86
ATOM     86  S   UNL A   1      50.072  33.637  26.370  1.00  0.00     0.127 S 
ATOM     87  O   UNL A   1      50.663  34.488  27.403  1.00  0.00    -0.237 OA
ATOM     88  O   UNL A   1      49.959  32.225  26.732  1.00  0.00    -0.237 OA
ATOM     89  O   UNL A   1      50.546  33.890  25.017  1.00  0.00    -0.744 OA
ENDBRANCH  83  86
ENDBRANCH  65  79
BRANCH  66  90
ATOM     90  C   UNL A   1      40.491  34.061  35.605  1.00  0.00     0.023 A 
ATOM     91  C   UNL A   1      39.099  34.217  35.463  1.00  0.00     0.012 A 
ATOM     92  C   UNL A   1      41.033  33.773  36.871  1.00  0.00     0.148 A 
ATOM     93  C   UNL A   1      38.258  34.094  36.568  1.00  0.00     0.002 A 
ATOM     94  C   UNL A   1      40.186  33.615  37.961  1.00  0.00     0.091 A 
ATOM     95  F   UNL A   1      42.362  33.639  36.975  1.00  0.00    -0.205 F 
ATOM     96  C   UNL A   1      38.799  33.783  37.814  1.00  0.00     0.022 A 
BRANCH  94  97
ATOM     97  S   UNL A   1      40.777  33.119  39.582  1.00  0.00     0.127 S 
ATOM     98  O   UNL A   1      41.535  31.912  39.265  1.00  0.00    -0.237 OA
ATOM     99  O   UNL A   1      41.588  34.273  39.972  1.00  0.00    -0.237 OA
ATOM    100  O   UNL A   1      39.583  32.917  40.391  1.00  0.00    -0.744 OA
ENDBRANCH  94  97
ENDBRANCH  66  90
BRANCH  78 101
ATOM    101  C   UNL A   1      44.566  39.004  32.822  1.00  0.00     0.023 A 
ATOM    102  C   UNL A   1      45.697  39.168  33.645  1.00  0.00     0.012 A 
ATOM    103  C   UNL A   1      43.880  40.140  32.349  1.00  0.00     0.148 A 
ATOM    104  C   UNL A   1      46.137  40.442  33.999  1.00  0.00     0.002 A 
ATOM    105  C   UNL A   1      44.341  41.409  32.681  1.00  0.00     0.091 A 
ATOM    106  F   UNL A   1      42.798  39.957  31.580  1.00  0.00    -0.205 F 
ATOM    107  C   UNL A   1      45.467  41.562  33.510  1.00  0.00     0.022 A 
BRANCH 105 108
ATOM    108  S   UNL A   1      43.588  42.910  32.044  1.00  0.00     0.127 S 
ATOM    109  O   UNL A   1      44.479  43.940  32.575  1.00  0.00    -0.237 OA
ATOM    110  O   UNL A   1      43.677  42.712  30.597  1.00  0.00    -0.237 OA
ATOM    111  O   UNL A   1      42.229  42.930  32.569  1.00  0.00    -0.744 OA
ENDBRANCH 105 108
ENDBRANCH  78 101
ENDBRANCH  52  53
ENDBRANCH  45  47
ENDBRANCH  44  45
ENDBRANCH  43  44
ENDBRANCH  42  43
ENDBRANCH  41  42
ENDBRANCH  40  41
ENDBRANCH   1  40
TORSDOF 23
ENDMDL
MODEL 3
REMARK VINA RESULT:      -9.6      4.110      7.626
REMARK SMILES O=C(Cn1nc(C(=O)OCCOCCOCCOC(=O)c2ccc(-c3c4nc(c(-c5cccc(S(=O)(=O)[O-])c5F)c5ccc([nH]5)c(-c5cccc(S(=O)(=O)[O-])c5F)c5nc(c(-c6cccc(S(=O)(=O)[O-])c6F)c6ccc3[nH]6)C=C5)C=C4)cc2)c2ccccc2c1=O)Nc1ccc2c(c1)C(=O)c1ccccc1C2=O
REMARK SMILES IDX 13 1 12 2 11 3 10 4 9 5 7 6 8 7 6 8 4 9 5 10 90 11 89 12
REMARK SMILES IDX 91 13 84 14 88 15 85 16 87 17 86 18 3 19 2 20 1 21 92 22
REMARK SMILES IDX 93 24 94 25 98 26 95 27 97 28 96 29 99 30 107 31 100 32
REMARK SMILES IDX 101 33 106 34 108 35 102 36 105 37 103 38 104 39 14 40 15 41
REMARK SMILES IDX 16 42 17 43 18 44 19 45 20 46 21 47 22 48 83 49 23 50 82 51
REMARK SMILES IDX 24 52 25 53 26 54 76 55 27 56 81 57 75 58 77 59 28 60 80 61
REMARK SMILES IDX 74 62 73 63 29 65 61 66 41 67 60 68 42 69 45 70 59 71 78 72
REMARK SMILES IDX 43 73 44 74 58 76 79 77 46 78 30 79 31 80 39 81 32 82 34 83
REMARK SMILES IDX 40 84 33 85 35 86 36 87 37 88 38 89 62 90 63 91 71 92 64 93
REMARK SMILES IDX 66 94 72 95 65 96 67 97 68 98 69 99 70 100 47 101 48 102
REMARK SMILES IDX 56 103 49 104 51 105 57 106 50 107 52 108 53 109 54 110
REMARK SMILES IDX 55 111
REMARK H PARENT 92 23 77 64 45 75
REMARK Flexibility Score: inf
ROOT
ATOM      1  C   UNL A   1      43.492  28.125  30.320  1.00  0.00     0.188 C 
ENDROOT
BRANCH   1   2
ATOM      2  O   UNL A   1      42.126  27.809  30.069  1.00  0.00    -0.376 OA
BRANCH   2   3
ATOM      3  C   UNL A   1      41.892  26.852  29.043  1.00  0.00     0.202 C 
BRANCH   3   4
ATOM      4  C   UNL A   1      42.127  27.430  27.648  1.00  0.00     0.261 C 
BRANCH   4   5
ATOM      5  O   UNL A   1      43.052  26.645  26.882  1.00  0.00    -0.458 OA
BRANCH   5   6
ATOM      6  C   UNL A   1      42.600  26.129  25.727  1.00  0.00     0.359 C 
ATOM      7  O   UNL A   1      42.358  26.724  24.695  1.00  0.00    -0.244 OA
BRANCH   6   8
ATOM      8  C   UNL A   1      42.491  24.615  25.868  1.00  0.00     0.176 A 
ATOM      9  N   UNL A   1      41.229  22.774  26.476  1.00  0.00    -0.219 N 
ATOM     10  N   UNL A   1      41.383  24.145  26.369  1.00  0.00    -0.161 NA
ATOM     11  C   UNL A   1      42.090  21.872  25.852  1.00  0.00     0.275 A 
ATOM     12  C   UNL A   1      43.415  22.393  25.476  1.00  0.00     0.051 A 
ATOM     13  O   UNL A   1      41.815  20.697  25.625  1.00  0.00    -0.267 OA
ATOM     14  C   UNL A   1      43.626  23.768  25.460  1.00  0.00     0.022 A 
ATOM     15  C   UNL A   1      44.450  21.509  25.146  1.00  0.00     0.014 A 
ATOM     16  C   UNL A   1      44.879  24.270  25.087  1.00  0.00     0.011 A 
ATOM     17  C   UNL A   1      45.701  22.010  24.794  1.00  0.00     0.001 A 
ATOM     18  C   UNL A   1      45.913  23.387  24.756  1.00  0.00     0.001 A 
BRANCH   9  19
ATOM     19  C   UNL A   1      39.931  22.306  26.969  1.00  0.00     0.248 C 
BRANCH  19  20
ATOM     20  C   UNL A   1      38.760  22.891  26.158  1.00  0.00     0.246 C 
ATOM     21  O   UNL A   1      38.104  23.851  26.551  1.00  0.00    -0.273 OA
ATOM     22  N   UNL A   1      38.495  22.159  25.003  1.00  0.00    -0.324 N 
ATOM     23  H   UNL A   1      39.265  21.858  24.467  1.00  0.00     0.169 HD
BRANCH  22  24
ATOM     24  C   UNL A   1      37.203  21.815  24.539  1.00  0.00     0.042 A 
ATOM     25  C   UNL A   1      36.640  20.632  25.052  1.00  0.00     0.027 A 
ATOM     26  C   UNL A   1      36.400  22.714  23.837  1.00  0.00     0.039 A 
ATOM     27  C   UNL A   1      35.256  20.436  25.030  1.00  0.00     0.015 A 
ATOM     28  C   UNL A   1      35.016  22.547  23.877  1.00  0.00     0.036 A 
ATOM     29  C   UNL A   1      34.448  21.453  24.527  1.00  0.00     0.034 A 
ATOM     30  C   UNL A   1      34.152  23.680  23.497  1.00  0.00     0.194 C 
ATOM     31  C   UNL A   1      33.030  21.527  24.941  1.00  0.00     0.194 C 
ATOM     32  O   UNL A   1      34.401  24.393  22.544  1.00  0.00    -0.289 OA
ATOM     33  C   UNL A   1      33.040  23.953  24.427  1.00  0.00     0.034 A 
ATOM     34  C   UNL A   1      32.503  22.893  25.162  1.00  0.00     0.034 A 
ATOM     35  O   UNL A   1      32.387  20.525  25.215  1.00  0.00    -0.289 OA
ATOM     36  C   UNL A   1      32.662  25.270  24.689  1.00  0.00     0.013 A 
ATOM     37  C   UNL A   1      31.600  23.145  26.195  1.00  0.00     0.013 A 
ATOM     38  C   UNL A   1      31.783  25.524  25.742  1.00  0.00     0.001 A 
ATOM     39  C   UNL A   1      31.262  24.467  26.497  1.00  0.00     0.001 A 
ENDBRANCH  22  24
ENDBRANCH  19  20
ENDBRANCH   9  19
ENDBRANCH   6   8
ENDBRANCH   5   6
ENDBRANCH   4   5
ENDBRANCH   3   4
ENDBRANCH   2   3
ENDBRANCH   1   2
BRANCH   1  40
ATOM     40  C   UNL A   1      44.403  26.894  30.505  1.00  0.00     0.188 C 
BRANCH  40  41
ATOM     41  O   UNL A   1      45.333  26.887  31.582  1.00  0.00    -0.376 OA
BRANCH  41  42
ATOM     42  C   UNL A   1      46.561  26.188  31.422  1.00  0.00     0.202 C 
BRANCH  42  43
ATOM     43  C   UNL A   1      46.835  25.586  30.043  1.00  0.00     0.261 C 
BRANCH  43  44
ATOM     44  O   UNL A   1      47.981  26.179  29.410  1.00  0.00    -0.460 OA
BRANCH  44  45
ATOM     45  C   UNL A   1      47.792  26.599  28.133  1.00  0.00     0.338 C 
ATOM     46  O   UNL A   1      47.804  25.917  27.124  1.00  0.00    -0.246 OA
BRANCH  45  47
ATOM     47  C   UNL A   1      47.388  28.020  28.149  1.00  0.00     0.060 A 
ATOM     48  C   UNL A   1      47.798  28.881  29.171  1.00  0.00     0.016 A 
ATOM     49  C   UNL A   1      46.594  28.494  27.097  1.00  0.00     0.016 A 
ATOM     50  C   UNL A   1      47.434  30.231  29.120  1.00  0.00     0.010 A 
ATOM     51  C   UNL A   1      46.217  29.838  27.059  1.00  0.00     0.010 A 
ATOM     52  C   UNL A   1      46.649  30.718  28.062  1.00  0.00    -0.014 A 
BRANCH  52  53
ATOM     53  C   UNL A   1      46.386  32.172  27.938  1.00  0.00     0.031 A 
ATOM     54  C   UNL A   1      45.078  32.769  28.361  1.00  0.00     0.074 A 
ATOM     55  C   UNL A   1      47.342  32.956  27.406  1.00  0.00     0.049 A 
ATOM     56  N   UNL A   1      44.719  34.027  28.368  1.00  0.00    -0.248 NA
ATOM     57  C   UNL A   1      44.037  31.842  28.826  1.00  0.00     0.031 C 
ATOM     58  C   UNL A   1      48.634  32.482  26.907  1.00  0.00     0.029 A 
ATOM     59  N   UNL A   1      47.373  34.309  27.187  1.00  0.00    -0.354 N 
ATOM     60  C   UNL A   1      43.411  34.048  28.833  1.00  0.00     0.074 A 
ATOM     61  C   UNL A   1      43.031  32.672  29.078  1.00  0.00     0.031 C 
ATOM     62  C   UNL A   1      49.331  33.528  26.435  1.00  0.00     0.029 A 
ATOM     63  C   UNL A   1      48.538  34.744  26.602  1.00  0.00     0.049 A 
ATOM     64  H   UNL A   1      46.631  34.911  27.425  1.00  0.00     0.167 HD
ATOM     65  C   UNL A   1      42.616  35.121  29.059  1.00  0.00     0.034 A 
ATOM     66  C   UNL A   1      48.933  35.983  26.253  1.00  0.00     0.034 A 
ATOM     67  C   UNL A   1      43.009  36.489  28.851  1.00  0.00     0.049 A 
ATOM     68  C   UNL A   1      48.040  37.156  26.542  1.00  0.00     0.074 A 
ATOM     69  C   UNL A   1      42.295  37.639  29.141  1.00  0.00     0.029 A 
ATOM     70  N   UNL A   1      44.213  36.896  28.299  1.00  0.00    -0.354 N 
ATOM     71  N   UNL A   1      46.868  37.170  27.126  1.00  0.00    -0.248 NA
ATOM     72  C   UNL A   1      48.538  38.485  26.156  1.00  0.00     0.031 C 
ATOM     73  C   UNL A   1      43.065  38.743  28.760  1.00  0.00     0.029 A 
ATOM     74  C   UNL A   1      44.257  38.279  28.230  1.00  0.00     0.049 A 
ATOM     75  H   UNL A   1      44.930  36.292  27.999  1.00  0.00     0.167 HD
ATOM     76  C   UNL A   1      46.493  38.505  27.193  1.00  0.00     0.074 A 
ATOM     77  C   UNL A   1      47.571  39.275  26.608  1.00  0.00     0.031 C 
ATOM     78  C   UNL A   1      45.348  39.041  27.681  1.00  0.00     0.034 A 
BRANCH  65  79
ATOM     79  C   UNL A   1      41.252  34.879  29.640  1.00  0.00     0.023 A 
ATOM     80  C   UNL A   1      40.148  34.800  28.768  1.00  0.00     0.012 A 
ATOM     81  C   UNL A   1      41.080  34.601  31.009  1.00  0.00     0.148 A 
ATOM     82  C   UNL A   1      38.889  34.449  29.250  1.00  0.00     0.002 A 
ATOM     83  C   UNL A   1      39.827  34.228  31.479  1.00  0.00     0.091 A 
ATOM     84  F   UNL A   1      42.145  34.697  31.818  1.00  0.00    -0.205 F 
ATOM     85  C   UNL A   1      38.730  34.152  30.602  1.00  0.00     0.022 A 
BRANCH  83  86
ATOM     86  S   UNL A   1      39.521  33.777  33.191  1.00  0.00     0.127 S 
ATOM     87  O   UNL A   1      39.938  34.992  33.891  1.00  0.00    -0.237 OA
ATOM     88  O   UNL A   1      38.079  33.535  33.192  1.00  0.00    -0.237 OA
ATOM     89  O   UNL A   1      40.343  32.603  33.450  1.00  0.00    -0.744 OA
ENDBRANCH  83  86
ENDBRANCH  65  79
BRANCH  66  90
ATOM     90  C   UNL A   1      50.283  36.174  25.665  1.00  0.00     0.023 A 
ATOM     91  C   UNL A   1      50.419  36.232  24.265  1.00  0.00     0.012 A 
ATOM     92  C   UNL A   1      51.413  36.370  26.481  1.00  0.00     0.148 A 
ATOM     93  C   UNL A   1      51.663  36.476  23.685  1.00  0.00     0.002 A 
ATOM     94  C   UNL A   1      52.642  36.649  25.898  1.00  0.00     0.091 A 
ATOM     95  F   UNL A   1      51.253  36.300  27.810  1.00  0.00    -0.205 F 
ATOM     96  C   UNL A   1      52.771  36.695  24.500  1.00  0.00     0.022 A 
BRANCH  94  97
ATOM     97  S   UNL A   1      54.105  37.041  26.863  1.00  0.00     0.127 S 
ATOM     98  O   UNL A   1      54.703  38.113  26.072  1.00  0.00    -0.237 OA
ATOM     99  O   UNL A   1      53.520  37.464  28.135  1.00  0.00    -0.237 OA
ATOM    100  O   UNL A   1      54.875  35.806  26.930  1.00  0.00    -0.744 OA
ENDBRANCH  94  97
ENDBRANCH  66  90
BRANCH  78 101
ATOM    101  C   UNL A   1      45.178  40.532  27.596  1.00  0.00     0.023 A 
ATOM    102  C   UNL A   1      45.406  41.312  28.747  1.00  0.00     0.012 A 
ATOM    103  C   UNL A   1      44.894  41.166  26.371  1.00  0.00     0.148 A 
ATOM    104  C   UNL A   1      45.344  42.703  28.683  1.00  0.00     0.002 A 
ATOM    105  C   UNL A   1      44.863  42.555  26.308  1.00  0.00     0.091 A 
ATOM    106  F   UNL A   1      44.666  40.401  25.294  1.00  0.00    -0.205 F 
ATOM    107  C   UNL A   1      45.084  43.324  27.463  1.00  0.00     0.022 A 
BRANCH 105 108
ATOM    108  S   UNL A   1      44.605  43.447  24.770  1.00  0.00     0.127 S 
ATOM    109  O   UNL A   1      45.002  44.804  25.143  1.00  0.00    -0.237 OA
ATOM    110  O   UNL A   1      45.527  42.770  23.859  1.00  0.00    -0.237 OA
ATOM    111  O   UNL A   1      43.196  43.278  24.440  1.00  0.00    -0.744 OA
ENDBRANCH 105 108
ENDBRANCH  78 101
ENDBRANCH  52  53
ENDBRANCH  45  47
ENDBRANCH  44  45
ENDBRANCH  43  44
ENDBRANCH  42  43
ENDBRANCH  41  42
ENDBRANCH  40  41
ENDBRANCH   1  40
TORSDOF 23
ENDMDL
