MODEL 1
REMARK VINA RESULT:     -10.2      0.000      0.000
REMARK SMILES CC(C)C[C@@H](NC(=O)c1cccnc1)C(=O)OCCOCCOCCOC(=O)c1ccc(-c2c3nc(c(-c4cccc(S(=O)(=O)[O-])c4F)c4ccc([nH]4)c(-c4cccc(S(=O)(=O)[O-])c4F)c4nc(c(-c5cccc(S(=O)(=O)[O-])c5F)c5ccc2[nH]5)C=C4)C=C3)cc1
REMARK SMILES IDX 22 1 21 2 20 3 19 4 18 5 17 6 15 7 16 8 5 9 4 10 2 11 1 12
REMARK SMILES IDX 3 13 6 14 7 15 8 17 9 18 10 19 14 20 11 21 13 22 12 23 23 24
REMARK SMILES IDX 24 25 25 26 26 27 27 28 28 29 29 30 30 31 91 32 31 33 90 34
REMARK SMILES IDX 32 35 33 36 34 37 84 38 35 39 89 40 83 41 85 42 36 43 88 44
REMARK SMILES IDX 82 45 81 46 37 48 69 49 49 50 68 51 50 52 53 53 67 54 86 55
REMARK SMILES IDX 51 56 52 57 66 59 87 60 54 61 38 62 39 63 47 64 40 65 42 66
REMARK SMILES IDX 48 67 41 68 43 69 44 70 45 71 46 72 70 73 71 74 79 75 72 76
REMARK SMILES IDX 74 77 80 78 73 79 75 80 76 81 77 82 78 83 55 84 56 85 64 86
REMARK SMILES IDX 57 87 59 88 65 89 58 90 60 91 61 92 62 93 63 94
REMARK H PARENT 6 16 85 47 53 58
REMARK Flexibility Score: inf
ROOT
ATOM      1  C   UNL A   1      33.201  21.045  24.629  1.00  0.00     0.188 C 
ENDROOT
BRANCH   1   2
ATOM      2  C   UNL A   1      33.089  22.156  23.586  1.00  0.00     0.188 C 
BRANCH   2   3
ATOM      3  O   UNL A   1      31.770  22.649  23.440  1.00  0.00    -0.376 OA
BRANCH   3   4
ATOM      4  C   UNL A   1      31.565  23.931  24.007  1.00  0.00     0.202 C 
BRANCH   4   5
ATOM      5  C   UNL A   1      30.305  24.686  23.563  1.00  0.00     0.261 C 
BRANCH   5   6
ATOM      6  O   UNL A   1      30.361  25.956  22.884  1.00  0.00    -0.462 OA
BRANCH   6   7
ATOM      7  C   UNL A   1      30.081  27.105  23.544  1.00  0.00     0.328 C 
ATOM      8  O   UNL A   1      29.569  27.160  24.655  1.00  0.00    -0.250 OA
BRANCH   7   9
ATOM      9  C   UNL A   1      30.380  28.361  22.694  1.00  0.00     0.192 C 
BRANCH   9  10
ATOM     10  C   UNL A   1      29.969  29.676  23.418  1.00  0.00     0.040 C 
BRANCH  10  11
ATOM     11  C   UNL A   1      29.028  30.651  22.666  1.00  0.00    -0.015 C 
ATOM     12  C   UNL A   1      28.261  30.003  21.509  1.00  0.00     0.007 C 
ATOM     13  C   UNL A   1      27.999  31.225  23.656  1.00  0.00     0.007 C 
ENDBRANCH  10  11
ENDBRANCH   9  10
BRANCH   9  14
ATOM     14  N   UNL A   1      31.764  28.485  22.187  1.00  0.00    -0.339 N 
ATOM     15  C   UNL A   1      33.007  28.403  22.761  1.00  0.00     0.253 C 
ATOM     16  H   UNL A   1      31.801  28.668  21.220  1.00  0.00     0.164 HD
ATOM     17  O   UNL A   1      34.002  28.509  22.047  1.00  0.00    -0.269 OA
BRANCH  15  18
ATOM     18  C   UNL A   1      33.214  28.295  24.208  1.00  0.00     0.058 A 
ATOM     19  C   UNL A   1      33.500  27.090  24.844  1.00  0.00     0.017 A 
ATOM     20  C   UNL A   1      33.195  29.454  24.973  1.00  0.00     0.124 A 
ATOM     21  C   UNL A   1      33.645  27.075  26.234  1.00  0.00     0.021 A 
ATOM     22  N   UNL A   1      33.353  29.472  26.323  1.00  0.00    -0.264 NA
ATOM     23  C   UNL A   1      33.560  28.276  26.922  1.00  0.00     0.111 A 
ENDBRANCH  15  18
ENDBRANCH   9  14
ENDBRANCH   7   9
ENDBRANCH   6   7
ENDBRANCH   5   6
ENDBRANCH   4   5
ENDBRANCH   3   4
ENDBRANCH   2   3
ENDBRANCH   1   2
BRANCH   1  24
ATOM     24  O   UNL A   1      34.422  20.360  24.855  1.00  0.00    -0.376 OA
BRANCH  24  25
ATOM     25  C   UNL A   1      35.621  21.111  24.967  1.00  0.00     0.202 C 
BRANCH  25  26
ATOM     26  C   UNL A   1      37.000  20.417  24.952  1.00  0.00     0.261 C 
BRANCH  26  27
ATOM     27  O   UNL A   1      38.157  21.264  25.012  1.00  0.00    -0.460 OA
BRANCH  27  28
ATOM     28  C   UNL A   1      39.107  20.908  25.912  1.00  0.00     0.338 C 
ATOM     29  O   UNL A   1      39.586  19.795  26.065  1.00  0.00    -0.246 OA
BRANCH  28  30
ATOM     30  C   UNL A   1      39.678  22.141  26.518  1.00  0.00     0.060 A 
ATOM     31  C   UNL A   1      39.127  23.376  26.133  1.00  0.00     0.016 A 
ATOM     32  C   UNL A   1      40.687  22.097  27.482  1.00  0.00     0.016 A 
ATOM     33  C   UNL A   1      39.592  24.565  26.691  1.00  0.00     0.010 A 
ATOM     34  C   UNL A   1      41.192  23.296  28.002  1.00  0.00     0.010 A 
ATOM     35  C   UNL A   1      40.671  24.534  27.579  1.00  0.00    -0.014 A 
BRANCH  35  36
ATOM     36  C   UNL A   1      41.426  25.789  27.815  1.00  0.00     0.031 A 
ATOM     37  C   UNL A   1      40.715  26.894  28.551  1.00  0.00     0.074 A 
ATOM     38  C   UNL A   1      42.708  25.943  27.436  1.00  0.00     0.049 A 
ATOM     39  N   UNL A   1      41.136  28.089  28.868  1.00  0.00    -0.248 NA
ATOM     40  C   UNL A   1      39.338  26.606  28.992  1.00  0.00     0.031 C 
ATOM     41  C   UNL A   1      43.518  24.943  26.746  1.00  0.00     0.029 A 
ATOM     42  N   UNL A   1      43.546  27.024  27.569  1.00  0.00    -0.354 N 
ATOM     43  C   UNL A   1      40.074  28.700  29.524  1.00  0.00     0.074 A 
ATOM     44  C   UNL A   1      38.981  27.754  29.544  1.00  0.00     0.031 C 
ATOM     45  C   UNL A   1      44.727  25.473  26.478  1.00  0.00     0.029 A 
ATOM     46  C   UNL A   1      44.767  26.853  26.961  1.00  0.00     0.049 A 
ATOM     47  H   UNL A   1      43.295  27.844  28.052  1.00  0.00     0.167 HD
ATOM     48  C   UNL A   1      40.014  29.932  30.080  1.00  0.00     0.034 A 
ATOM     49  C   UNL A   1      45.785  27.722  26.794  1.00  0.00     0.034 A 
ATOM     50  C   UNL A   1      41.097  30.873  30.067  1.00  0.00     0.049 A 
ATOM     51  C   UNL A   1      45.676  29.109  27.380  1.00  0.00     0.074 A 
ATOM     52  C   UNL A   1      41.138  32.145  30.610  1.00  0.00     0.029 A 
ATOM     53  N   UNL A   1      42.328  30.651  29.472  1.00  0.00    -0.354 N 
ATOM     54  N   UNL A   1      44.701  29.640  28.080  1.00  0.00    -0.248 NA
ATOM     55  C   UNL A   1      46.825  30.006  27.186  1.00  0.00     0.031 C 
ATOM     56  C   UNL A   1      42.388  32.701  30.323  1.00  0.00     0.029 A 
ATOM     57  C   UNL A   1      43.138  31.762  29.631  1.00  0.00     0.049 A 
ATOM     58  H   UNL A   1      42.589  29.825  29.004  1.00  0.00     0.167 HD
ATOM     59  C   UNL A   1      45.136  30.912  28.440  1.00  0.00     0.074 A 
ATOM     60  C   UNL A   1      46.472  31.064  27.902  1.00  0.00     0.031 C 
ATOM     61  C   UNL A   1      44.486  31.875  29.141  1.00  0.00     0.034 A 
BRANCH  48  62
ATOM     62  C   UNL A   1      38.733  30.318  30.771  1.00  0.00     0.023 A 
ATOM     63  C   UNL A   1      38.562  30.016  32.138  1.00  0.00     0.012 A 
ATOM     64  C   UNL A   1      37.719  31.009  30.082  1.00  0.00     0.148 A 
ATOM     65  C   UNL A   1      37.388  30.371  32.802  1.00  0.00     0.002 A 
ATOM     66  C   UNL A   1      36.572  31.400  30.761  1.00  0.00     0.091 A 
ATOM     67  F   UNL A   1      37.891  31.261  28.776  1.00  0.00    -0.205 F 
ATOM     68  C   UNL A   1      36.399  31.072  32.116  1.00  0.00     0.022 A 
BRANCH  66  69
ATOM     69  S   UNL A   1      35.274  32.373  29.990  1.00  0.00     0.127 S 
ATOM     70  O   UNL A   1      34.330  32.534  31.095  1.00  0.00    -0.237 OA
ATOM     71  O   UNL A   1      35.989  33.593  29.615  1.00  0.00    -0.237 OA
ATOM     72  O   UNL A   1      34.790  31.581  28.868  1.00  0.00    -0.744 OA
ENDBRANCH  66  69
ENDBRANCH  48  62
BRANCH  49  73
ATOM     73  C   UNL A   1      47.011  27.314  26.048  1.00  0.00     0.023 A 
ATOM     74  C   UNL A   1      48.040  26.621  26.714  1.00  0.00     0.012 A 
ATOM     75  C   UNL A   1      47.171  27.629  24.684  1.00  0.00     0.148 A 
ATOM     76  C   UNL A   1      49.223  26.288  26.050  1.00  0.00     0.002 A 
ATOM     77  C   UNL A   1      48.326  27.244  24.013  1.00  0.00     0.091 A 
ATOM     78  F   UNL A   1      46.192  28.309  24.071  1.00  0.00    -0.205 F 
ATOM     79  C   UNL A   1      49.362  26.591  24.698  1.00  0.00     0.022 A 
BRANCH  77  80
ATOM     80  S   UNL A   1      48.533  27.481  22.245  1.00  0.00     0.127 S 
ATOM     81  O   UNL A   1      49.735  28.311  22.193  1.00  0.00    -0.237 OA
ATOM     82  O   UNL A   1      48.712  26.107  21.775  1.00  0.00    -0.237 OA
ATOM     83  O   UNL A   1      47.304  28.115  21.788  1.00  0.00    -0.744 OA
ENDBRANCH  77  80
ENDBRANCH  49  73
BRANCH  61  84
ATOM     84  C   UNL A   1      45.222  33.162  29.417  1.00  0.00     0.023 A 
ATOM     85  C   UNL A   1      45.108  34.247  28.524  1.00  0.00     0.012 A 
ATOM     86  C   UNL A   1      45.974  33.317  30.600  1.00  0.00     0.148 A 
ATOM     87  C   UNL A   1      45.763  35.450  28.783  1.00  0.00     0.002 A 
ATOM     88  C   UNL A   1      46.580  34.537  30.876  1.00  0.00     0.091 A 
ATOM     89  F   UNL A   1      46.083  32.270  31.430  1.00  0.00    -0.205 F 
ATOM     90  C   UNL A   1      46.489  35.599  29.964  1.00  0.00     0.022 A 
BRANCH  88  91
ATOM     91  S   UNL A   1      47.452  34.850  32.416  1.00  0.00     0.127 S 
ATOM     92  O   UNL A   1      48.558  33.898  32.331  1.00  0.00    -0.237 OA
ATOM     93  O   UNL A   1      47.843  36.254  32.271  1.00  0.00    -0.237 OA
ATOM     94  O   UNL A   1      46.490  34.599  33.480  1.00  0.00    -0.744 OA
ENDBRANCH  88  91
ENDBRANCH  61  84
ENDBRANCH  35  36
ENDBRANCH  28  30
ENDBRANCH  27  28
ENDBRANCH  26  27
ENDBRANCH  25  26
ENDBRANCH  24  25
ENDBRANCH   1  24
TORSDOF 24
ENDMDL
MODEL 2
REMARK VINA RESULT:     -10.2      1.659      2.713
REMARK SMILES CC(C)C[C@@H](NC(=O)c1cccnc1)C(=O)OCCOCCOCCOC(=O)c1ccc(-c2c3nc(c(-c4cccc(S(=O)(=O)[O-])c4F)c4ccc([nH]4)c(-c4cccc(S(=O)(=O)[O-])c4F)c4nc(c(-c5cccc(S(=O)(=O)[O-])c5F)c5ccc2[nH]5)C=C4)C=C3)cc1
REMARK SMILES IDX 22 1 21 2 20 3 19 4 18 5 17 6 15 7 16 8 5 9 4 10 2 11 1 12
REMARK SMILES IDX 3 13 6 14 7 15 8 17 9 18 10 19 14 20 11 21 13 22 12 23 23 24
REMARK SMILES IDX 24 25 25 26 26 27 27 28 28 29 29 30 30 31 91 32 31 33 90 34
REMARK SMILES IDX 32 35 33 36 34 37 84 38 35 39 89 40 83 41 85 42 36 43 88 44
REMARK SMILES IDX 82 45 81 46 37 48 69 49 49 50 68 51 50 52 53 53 67 54 86 55
REMARK SMILES IDX 51 56 52 57 66 59 87 60 54 61 38 62 39 63 47 64 40 65 42 66
REMARK SMILES IDX 48 67 41 68 43 69 44 70 45 71 46 72 70 73 71 74 79 75 72 76
REMARK SMILES IDX 74 77 80 78 73 79 75 80 76 81 77 82 78 83 55 84 56 85 64 86
REMARK SMILES IDX 57 87 59 88 65 89 58 90 60 91 61 92 62 93 63 94
REMARK H PARENT 6 16 85 47 53 58
REMARK Flexibility Score: inf
ROOT
ATOM      1  C   UNL A   1      33.110  20.559  24.958  1.00  0.00     0.188 C 
ENDROOT
BRANCH   1   2
ATOM      2  C   UNL A   1      32.748  21.963  24.476  1.00  0.00     0.188 C 
BRANCH   2   3
ATOM      3  O   UNL A   1      31.441  22.357  24.849  1.00  0.00    -0.376 OA
BRANCH   3   4
ATOM      4  C   UNL A   1      31.378  23.080  26.065  1.00  0.00     0.202 C 
BRANCH   4   5
ATOM      5  C   UNL A   1      30.327  24.194  26.150  1.00  0.00     0.261 C 
BRANCH   5   6
ATOM      6  O   UNL A   1      30.631  25.572  25.854  1.00  0.00    -0.462 OA
BRANCH   6   7
ATOM      7  C   UNL A   1      30.458  26.065  24.605  1.00  0.00     0.328 C 
ATOM      8  O   UNL A   1      29.494  25.822  23.890  1.00  0.00    -0.250 OA
BRANCH   7   9
ATOM      9  C   UNL A   1      31.672  26.892  24.125  1.00  0.00     0.192 C 
BRANCH   9  10
ATOM     10  C   UNL A   1      31.791  26.923  22.573  1.00  0.00     0.040 C 
BRANCH  10  11
ATOM     11  C   UNL A   1      33.027  26.243  21.930  1.00  0.00    -0.015 C 
ATOM     12  C   UNL A   1      33.713  25.218  22.837  1.00  0.00     0.007 C 
ATOM     13  C   UNL A   1      32.594  25.523  20.640  1.00  0.00     0.007 C 
ENDBRANCH  10  11
ENDBRANCH   9  10
BRANCH   9  14
ATOM     14  N   UNL A   1      31.769  28.269  24.658  1.00  0.00    -0.339 N 
ATOM     15  C   UNL A   1      31.042  29.418  24.483  1.00  0.00     0.253 C 
ATOM     16  H   UNL A   1      32.527  28.386  25.275  1.00  0.00     0.164 HD
ATOM     17  O   UNL A   1      31.353  30.424  25.117  1.00  0.00    -0.269 OA
BRANCH  15  18
ATOM     18  C   UNL A   1      29.965  29.541  23.496  1.00  0.00     0.058 A 
ATOM     19  C   UNL A   1      28.638  29.229  23.780  1.00  0.00     0.017 A 
ATOM     20  C   UNL A   1      30.266  30.056  22.242  1.00  0.00     0.124 A 
ATOM     21  C   UNL A   1      27.684  29.341  22.765  1.00  0.00     0.021 A 
ATOM     22  N   UNL A   1      29.355  30.195  21.243  1.00  0.00    -0.264 NA
ATOM     23  C   UNL A   1      28.086  29.819  21.527  1.00  0.00     0.111 A 
ENDBRANCH  15  18
ENDBRANCH   9  14
ENDBRANCH   7   9
ENDBRANCH   6   7
ENDBRANCH   5   6
ENDBRANCH   4   5
ENDBRANCH   3   4
ENDBRANCH   2   3
ENDBRANCH   1   2
BRANCH   1  24
ATOM     24  O   UNL A   1      34.415  20.030  24.785  1.00  0.00    -0.376 OA
BRANCH  24  25
ATOM     25  C   UNL A   1      35.532  20.816  25.169  1.00  0.00     0.202 C 
BRANCH  25  26
ATOM     26  C   UNL A   1      36.973  20.285  25.008  1.00  0.00     0.261 C 
BRANCH  26  27
ATOM     27  O   UNL A   1      38.036  21.244  25.108  1.00  0.00    -0.460 OA
BRANCH  27  28
ATOM     28  C   UNL A   1      39.077  20.896  25.904  1.00  0.00     0.338 C 
ATOM     29  O   UNL A   1      39.610  19.800  25.968  1.00  0.00    -0.246 OA
BRANCH  28  30
ATOM     30  C   UNL A   1      39.651  22.128  26.507  1.00  0.00     0.060 A 
ATOM     31  C   UNL A   1      39.057  23.359  26.175  1.00  0.00     0.016 A 
ATOM     32  C   UNL A   1      40.708  22.087  27.420  1.00  0.00     0.016 A 
ATOM     33  C   UNL A   1      39.525  24.546  26.734  1.00  0.00     0.010 A 
ATOM     34  C   UNL A   1      41.213  23.286  27.940  1.00  0.00     0.010 A 
ATOM     35  C   UNL A   1      40.647  24.521  27.569  1.00  0.00    -0.014 A 
BRANCH  35  36
ATOM     36  C   UNL A   1      41.387  25.786  27.793  1.00  0.00     0.031 A 
ATOM     37  C   UNL A   1      40.660  26.892  28.514  1.00  0.00     0.074 A 
ATOM     38  C   UNL A   1      42.669  25.951  27.418  1.00  0.00     0.049 A 
ATOM     39  N   UNL A   1      41.067  28.095  28.819  1.00  0.00    -0.248 NA
ATOM     40  C   UNL A   1      39.284  26.593  28.953  1.00  0.00     0.031 C 
ATOM     41  C   UNL A   1      43.492  24.952  26.743  1.00  0.00     0.029 A 
ATOM     42  N   UNL A   1      43.494  27.042  27.542  1.00  0.00    -0.354 N 
ATOM     43  C   UNL A   1      39.995  28.702  29.464  1.00  0.00     0.074 A 
ATOM     44  C   UNL A   1      38.913  27.743  29.490  1.00  0.00     0.031 C 
ATOM     45  C   UNL A   1      44.696  25.492  26.473  1.00  0.00     0.029 A 
ATOM     46  C   UNL A   1      44.719  26.877  26.942  1.00  0.00     0.049 A 
ATOM     47  H   UNL A   1      43.232  27.864  28.015  1.00  0.00     0.167 HD
ATOM     48  C   UNL A   1      39.919  29.939  30.005  1.00  0.00     0.034 A 
ATOM     49  C   UNL A   1      45.729  27.756  26.768  1.00  0.00     0.034 A 
ATOM     50  C   UNL A   1      40.992  30.892  29.987  1.00  0.00     0.049 A 
ATOM     51  C   UNL A   1      45.602  29.148  27.339  1.00  0.00     0.074 A 
ATOM     52  C   UNL A   1      41.017  32.170  30.516  1.00  0.00     0.029 A 
ATOM     53  N   UNL A   1      42.228  30.677  29.399  1.00  0.00    -0.354 N 
ATOM     54  N   UNL A   1      44.618  29.676  28.029  1.00  0.00    -0.248 NA
ATOM     55  C   UNL A   1      46.742  30.056  27.139  1.00  0.00     0.031 C 
ATOM     56  C   UNL A   1      42.262  32.736  30.227  1.00  0.00     0.029 A 
ATOM     57  C   UNL A   1      43.024  31.798  29.549  1.00  0.00     0.049 A 
ATOM     58  H   UNL A   1      42.500  29.849  28.941  1.00  0.00     0.167 HD
ATOM     59  C   UNL A   1      45.037  30.958  28.376  1.00  0.00     0.074 A 
ATOM     60  C   UNL A   1      46.374  31.118  27.842  1.00  0.00     0.031 C 
ATOM     61  C   UNL A   1      44.374  31.921  29.063  1.00  0.00     0.034 A 
BRANCH  48  62
ATOM     62  C   UNL A   1      38.631  30.318  30.687  1.00  0.00     0.023 A 
ATOM     63  C   UNL A   1      38.425  29.958  32.035  1.00  0.00     0.012 A 
ATOM     64  C   UNL A   1      37.646  31.061  30.009  1.00  0.00     0.148 A 
ATOM     65  C   UNL A   1      37.243  30.305  32.689  1.00  0.00     0.002 A 
ATOM     66  C   UNL A   1      36.492  31.443  30.682  1.00  0.00     0.091 A 
ATOM     67  F   UNL A   1      37.851  31.368  28.720  1.00  0.00    -0.205 F 
ATOM     68  C   UNL A   1      36.284  31.056  32.017  1.00  0.00     0.022 A 
BRANCH  66  69
ATOM     69  S   UNL A   1      35.229  32.475  29.930  1.00  0.00     0.127 S 
ATOM     70  O   UNL A   1      34.678  31.577  28.917  1.00  0.00    -0.237 OA
ATOM     71  O   UNL A   1      34.339  32.741  31.061  1.00  0.00    -0.237 OA
ATOM     72  O   UNL A   1      35.923  33.647  29.413  1.00  0.00    -0.744 OA
ENDBRANCH  66  69
ENDBRANCH  48  62
BRANCH  49  73
ATOM     73  C   UNL A   1      46.962  27.353  26.032  1.00  0.00     0.023 A 
ATOM     74  C   UNL A   1      47.994  26.675  26.710  1.00  0.00     0.012 A 
ATOM     75  C   UNL A   1      47.127  27.659  24.667  1.00  0.00     0.148 A 
ATOM     76  C   UNL A   1      49.183  26.347  26.055  1.00  0.00     0.002 A 
ATOM     77  C   UNL A   1      48.289  27.279  24.006  1.00  0.00     0.091 A 
ATOM     78  F   UNL A   1      46.145  28.325  24.043  1.00  0.00    -0.205 F 
ATOM     79  C   UNL A   1      49.327  26.642  24.701  1.00  0.00     0.022 A 
BRANCH  77  80
ATOM     80  S   UNL A   1      48.503  27.504  22.237  1.00  0.00     0.127 S 
ATOM     81  O   UNL A   1      49.755  28.257  22.181  1.00  0.00    -0.237 OA
ATOM     82  O   UNL A   1      48.594  26.122  21.765  1.00  0.00    -0.237 OA
ATOM     83  O   UNL A   1      47.315  28.215  21.784  1.00  0.00    -0.744 OA
ENDBRANCH  77  80
ENDBRANCH  49  73
BRANCH  61  84
ATOM     84  C   UNL A   1      45.094  33.219  29.328  1.00  0.00     0.023 A 
ATOM     85  C   UNL A   1      45.911  33.354  30.468  1.00  0.00     0.012 A 
ATOM     86  C   UNL A   1      45.016  34.282  28.405  1.00  0.00     0.148 A 
ATOM     87  C   UNL A   1      46.603  34.540  30.708  1.00  0.00     0.002 A 
ATOM     88  C   UNL A   1      45.751  35.441  28.624  1.00  0.00     0.091 A 
ATOM     89  F   UNL A   1      44.224  34.141  27.332  1.00  0.00    -0.205 F 
ATOM     90  C   UNL A   1      46.532  35.579  29.781  1.00  0.00     0.022 A 
BRANCH  88  91
ATOM     91  S   UNL A   1      45.797  36.789  27.437  1.00  0.00     0.127 S 
ATOM     92  O   UNL A   1      46.611  37.779  28.141  1.00  0.00    -0.237 OA
ATOM     93  O   UNL A   1      46.454  36.167  26.286  1.00  0.00    -0.237 OA
ATOM     94  O   UNL A   1      44.410  37.169  27.207  1.00  0.00    -0.744 OA
ENDBRANCH  88  91
ENDBRANCH  61  84
ENDBRANCH  35  36
ENDBRANCH  28  30
ENDBRANCH  27  28
ENDBRANCH  26  27
ENDBRANCH  25  26
ENDBRANCH  24  25
ENDBRANCH   1  24
TORSDOF 24
ENDMDL
MODEL 3
REMARK VINA RESULT:     -10.0      2.444      7.860
REMARK SMILES CC(C)C[C@@H](NC(=O)c1cccnc1)C(=O)OCCOCCOCCOC(=O)c1ccc(-c2c3nc(c(-c4cccc(S(=O)(=O)[O-])c4F)c4ccc([nH]4)c(-c4cccc(S(=O)(=O)[O-])c4F)c4nc(c(-c5cccc(S(=O)(=O)[O-])c5F)c5ccc2[nH]5)C=C4)C=C3)cc1
REMARK SMILES IDX 22 1 21 2 20 3 19 4 18 5 17 6 15 7 16 8 5 9 4 10 2 11 1 12
REMARK SMILES IDX 3 13 6 14 7 15 8 17 9 18 10 19 14 20 11 21 13 22 12 23 23 24
REMARK SMILES IDX 24 25 25 26 26 27 27 28 28 29 29 30 30 31 91 32 31 33 90 34
REMARK SMILES IDX 32 35 33 36 34 37 84 38 35 39 89 40 83 41 85 42 36 43 88 44
REMARK SMILES IDX 82 45 81 46 37 48 69 49 49 50 68 51 50 52 53 53 67 54 86 55
REMARK SMILES IDX 51 56 52 57 66 59 87 60 54 61 38 62 39 63 47 64 40 65 42 66
REMARK SMILES IDX 48 67 41 68 43 69 44 70 45 71 46 72 70 73 71 74 79 75 72 76
REMARK SMILES IDX 74 77 80 78 73 79 75 80 76 81 77 82 78 83 55 84 56 85 64 86
REMARK SMILES IDX 57 87 59 88 65 89 58 90 60 91 61 92 62 93 63 94
REMARK H PARENT 6 16 85 47 53 58
REMARK Flexibility Score: inf
ROOT
ATOM      1  C   UNL A   1      33.782  20.261  24.666  1.00  0.00     0.188 C 
ENDROOT
BRANCH   1   2
ATOM      2  C   UNL A   1      33.323  21.429  23.794  1.00  0.00     0.188 C 
BRANCH   2   3
ATOM      3  O   UNL A   1      32.022  21.884  24.117  1.00  0.00    -0.376 OA
BRANCH   3   4
ATOM      4  C   UNL A   1      31.926  23.285  24.299  1.00  0.00     0.202 C 
BRANCH   4   5
ATOM      5  C   UNL A   1      30.758  23.991  23.600  1.00  0.00     0.261 C 
BRANCH   5   6
ATOM      6  O   UNL A   1      30.860  25.333  23.081  1.00  0.00    -0.462 OA
BRANCH   6   7
ATOM      7  C   UNL A   1      30.110  26.333  23.601  1.00  0.00     0.328 C 
ATOM      8  O   UNL A   1      29.386  26.220  24.582  1.00  0.00    -0.250 OA
BRANCH   7   9
ATOM      9  C   UNL A   1      30.181  27.624  22.754  1.00  0.00     0.192 C 
BRANCH   9  10
ATOM     10  C   UNL A   1      29.587  28.854  23.500  1.00  0.00     0.040 C 
BRANCH  10  11
ATOM     11  C   UNL A   1      29.448  30.180  22.710  1.00  0.00    -0.015 C 
ATOM     12  C   UNL A   1      28.425  30.120  21.572  1.00  0.00     0.007 C 
ATOM     13  C   UNL A   1      29.022  31.302  23.674  1.00  0.00     0.007 C 
ENDBRANCH  10  11
ENDBRANCH   9  10
BRANCH   9  14
ATOM     14  N   UNL A   1      31.513  27.969  22.210  1.00  0.00    -0.339 N 
ATOM     15  C   UNL A   1      32.746  28.196  22.765  1.00  0.00     0.253 C 
ATOM     16  H   UNL A   1      31.513  28.057  21.229  1.00  0.00     0.164 HD
ATOM     17  O   UNL A   1      33.701  28.426  22.025  1.00  0.00    -0.269 OA
BRANCH  15  18
ATOM     18  C   UNL A   1      32.970  28.279  24.211  1.00  0.00     0.058 A 
ATOM     19  C   UNL A   1      32.803  29.455  24.937  1.00  0.00     0.017 A 
ATOM     20  C   UNL A   1      33.295  27.120  24.903  1.00  0.00     0.124 A 
ATOM     21  C   UNL A   1      33.076  29.450  26.308  1.00  0.00     0.021 A 
ATOM     22  N   UNL A   1      33.545  27.081  26.238  1.00  0.00    -0.264 NA
ATOM     23  C   UNL A   1      33.442  28.254  26.906  1.00  0.00     0.111 A 
ENDBRANCH  15  18
ENDBRANCH   9  14
ENDBRANCH   7   9
ENDBRANCH   6   7
ENDBRANCH   5   6
ENDBRANCH   4   5
ENDBRANCH   3   4
ENDBRANCH   2   3
ENDBRANCH   1   2
BRANCH   1  24
ATOM     24  O   UNL A   1      35.156  19.938  24.809  1.00  0.00    -0.376 OA
BRANCH  24  25
ATOM     25  C   UNL A   1      36.074  20.968  25.139  1.00  0.00     0.202 C 
BRANCH  25  26
ATOM     26  C   UNL A   1      37.592  20.692  25.200  1.00  0.00     0.261 C 
BRANCH  26  27
ATOM     27  O   UNL A   1      38.449  21.816  25.446  1.00  0.00    -0.460 OA
BRANCH  27  28
ATOM     28  C   UNL A   1      39.539  21.574  26.217  1.00  0.00     0.338 C 
ATOM     29  O   UNL A   1      40.179  20.536  26.268  1.00  0.00    -0.246 OA
BRANCH  28  30
ATOM     30  C   UNL A   1      40.003  22.858  26.806  1.00  0.00     0.060 A 
ATOM     31  C   UNL A   1      39.383  24.042  26.369  1.00  0.00     0.016 A 
ATOM     32  C   UNL A   1      40.979  22.909  27.803  1.00  0.00     0.016 A 
ATOM     33  C   UNL A   1      39.746  25.274  26.908  1.00  0.00     0.010 A 
ATOM     34  C   UNL A   1      41.383  24.153  28.306  1.00  0.00     0.010 A 
ATOM     35  C   UNL A   1      40.794  25.342  27.831  1.00  0.00    -0.014 A 
BRANCH  35  36
ATOM     36  C   UNL A   1      41.454  26.651  28.056  1.00  0.00     0.031 A 
ATOM     37  C   UNL A   1      42.866  26.807  27.554  1.00  0.00     0.074 A 
ATOM     38  C   UNL A   1      40.825  27.686  28.642  1.00  0.00     0.049 A 
ATOM     39  N   UNL A   1      43.671  27.832  27.638  1.00  0.00    -0.248 NA
ATOM     40  C   UNL A   1      43.446  25.643  26.859  1.00  0.00     0.031 C 
ATOM     41  C   UNL A   1      39.453  27.676  29.143  1.00  0.00     0.029 A 
ATOM     42  N   UNL A   1      41.281  28.950  28.929  1.00  0.00    -0.354 N 
ATOM     43  C   UNL A   1      44.854  27.432  27.027  1.00  0.00     0.074 A 
ATOM     44  C   UNL A   1      44.671  26.065  26.595  1.00  0.00     0.031 C 
ATOM     45  C   UNL A   1      39.191  28.866  29.715  1.00  0.00     0.029 A 
ATOM     46  C   UNL A   1      40.381  29.713  29.635  1.00  0.00     0.049 A 
ATOM     47  H   UNL A   1      42.168  29.278  28.656  1.00  0.00     0.167 HD
ATOM     48  C   UNL A   1      45.988  28.141  26.825  1.00  0.00     0.034 A 
ATOM     49  C   UNL A   1      40.518  30.941  30.177  1.00  0.00     0.034 A 
ATOM     50  C   UNL A   1      46.172  29.500  27.247  1.00  0.00     0.049 A 
ATOM     51  C   UNL A   1      41.811  31.695  29.980  1.00  0.00     0.074 A 
ATOM     52  C   UNL A   1      47.282  30.309  27.082  1.00  0.00     0.029 A 
ATOM     53  N   UNL A   1      45.227  30.249  27.930  1.00  0.00    -0.354 N 
ATOM     54  N   UNL A   1      42.887  31.339  29.319  1.00  0.00    -0.248 NA
ATOM     55  C   UNL A   1      41.896  33.038  30.573  1.00  0.00     0.031 C 
ATOM     56  C   UNL A   1      47.015  31.542  27.685  1.00  0.00     0.029 A 
ATOM     57  C   UNL A   1      45.727  31.512  28.196  1.00  0.00     0.049 A 
ATOM     58  H   UNL A   1      44.332  29.930  28.188  1.00  0.00     0.167 HD
ATOM     59  C   UNL A   1      43.755  32.425  29.384  1.00  0.00     0.074 A 
ATOM     60  C   UNL A   1      43.070  33.462  30.128  1.00  0.00     0.031 C 
ATOM     61  C   UNL A   1      45.011  32.552  28.886  1.00  0.00     0.034 A 
BRANCH  48  62
ATOM     62  C   UNL A   1      47.109  27.457  26.089  1.00  0.00     0.023 A 
ATOM     63  C   UNL A   1      47.150  27.508  24.680  1.00  0.00     0.012 A 
ATOM     64  C   UNL A   1      48.139  26.801  26.788  1.00  0.00     0.148 A 
ATOM     65  C   UNL A   1      48.183  26.890  23.977  1.00  0.00     0.002 A 
ATOM     66  C   UNL A   1      49.189  26.227  26.083  1.00  0.00     0.091 A 
ATOM     67  F   UNL A   1      48.066  26.741  28.126  1.00  0.00    -0.205 F 
ATOM     68  C   UNL A   1      49.207  26.260  24.678  1.00  0.00     0.022 A 
BRANCH  66  69
ATOM     69  S   UNL A   1      50.596  25.459  26.894  1.00  0.00     0.127 S 
ATOM     70  O   UNL A   1      51.451  25.131  25.755  1.00  0.00    -0.237 OA
ATOM     71  O   UNL A   1      51.093  26.547  27.737  1.00  0.00    -0.237 OA
ATOM     72  O   UNL A   1      50.064  24.316  27.624  1.00  0.00    -0.744 OA
ENDBRANCH  66  69
ENDBRANCH  48  62
BRANCH  49  73
ATOM     73  C   UNL A   1      39.399  31.553  30.951  1.00  0.00     0.023 A 
ATOM     74  C   UNL A   1      38.386  32.263  30.278  1.00  0.00     0.012 A 
ATOM     75  C   UNL A   1      39.348  31.455  32.355  1.00  0.00     0.148 A 
ATOM     76  C   UNL A   1      37.366  32.898  30.990  1.00  0.00     0.002 A 
ATOM     77  C   UNL A   1      38.298  32.040  33.054  1.00  0.00     0.091 A 
ATOM     78  F   UNL A   1      40.332  30.796  32.982  1.00  0.00    -0.205 F 
ATOM     79  C   UNL A   1      37.318  32.780  32.377  1.00  0.00     0.022 A 
BRANCH  77  80
ATOM     80  S   UNL A   1      38.089  31.829  34.825  1.00  0.00     0.127 S 
ATOM     81  O   UNL A   1      38.152  30.376  34.963  1.00  0.00    -0.237 OA
ATOM     82  O   UNL A   1      39.247  32.549  35.354  1.00  0.00    -0.237 OA
ATOM     83  O   UNL A   1      36.807  32.442  35.145  1.00  0.00    -0.744 OA
ENDBRANCH  77  80
ENDBRANCH  49  73
BRANCH  61  84
ATOM     84  C   UNL A   1      45.713  33.872  29.078  1.00  0.00     0.023 A 
ATOM     85  C   UNL A   1      46.552  34.070  30.193  1.00  0.00     0.012 A 
ATOM     86  C   UNL A   1      45.595  34.894  28.114  1.00  0.00     0.148 A 
ATOM     87  C   UNL A   1      47.228  35.277  30.367  1.00  0.00     0.002 A 
ATOM     88  C   UNL A   1      46.312  36.074  28.267  1.00  0.00     0.091 A 
ATOM     89  F   UNL A   1      44.781  34.693  27.067  1.00  0.00    -0.205 F 
ATOM     90  C   UNL A   1      47.117  36.274  29.399  1.00  0.00     0.022 A 
BRANCH  88  91
ATOM     91  S   UNL A   1      46.307  37.371  27.024  1.00  0.00     0.127 S 
ATOM     92  O   UNL A   1      47.231  38.344  27.604  1.00  0.00    -0.237 OA
ATOM     93  O   UNL A   1      46.820  36.672  25.844  1.00  0.00    -0.237 OA
ATOM     94  O   UNL A   1      44.923  37.812  26.909  1.00  0.00    -0.744 OA
ENDBRANCH  88  91
ENDBRANCH  61  84
ENDBRANCH  35  36
ENDBRANCH  28  30
ENDBRANCH  27  28
ENDBRANCH  26  27
ENDBRANCH  25  26
ENDBRANCH  24  25
ENDBRANCH   1  24
TORSDOF 24
ENDMDL
