MODEL 1
REMARK VINA RESULT:      -8.3      0.000      0.000
REMARK SMILES C[C@@H](Cc1cccs1)N(C)c1ncc(C(=O)OCCOCCOCCOC(=O)c2ccc(-c3c4nc(c(-c5cccc(S(=O)(=O)[O-])c5F)c5ccc([nH]5)c(-c5cccc(S(=O)(=O)[O-])c5F)c5nc(c(-c6cccc(S(=O)(=O)[O-])c6F)c6ccc3[nH]6)C=C5)C=C4)cc2)s1
REMARK SMILES IDX 21 1 20 2 19 3 18 4 17 5 15 6 16 7 14 8 11 9 12 10 92 11
REMARK SMILES IDX 13 12 9 13 10 14 2 15 1 16 3 17 4 18 5 19 8 20 6 21 7 22
REMARK SMILES IDX 22 23 23 24 24 25 25 26 26 27 27 28 28 29 29 30 30 31 91 32
REMARK SMILES IDX 31 33 90 34 32 35 33 36 34 37 84 38 35 39 89 40 83 41 85 42
REMARK SMILES IDX 36 43 88 44 82 45 81 46 37 48 69 49 49 50 68 51 50 52 53 53
REMARK SMILES IDX 67 54 86 55 51 56 52 57 66 59 87 60 54 61 38 62 39 63 47 64
REMARK SMILES IDX 40 65 42 66 48 67 41 68 43 69 44 70 45 71 46 72 70 73 71 74
REMARK SMILES IDX 79 75 72 76 74 77 80 78 73 79 75 80 76 81 77 82 78 83 55 84
REMARK SMILES IDX 56 85 64 86 57 87 59 88 65 89 58 90 60 91 61 92 62 93 63 94
REMARK H PARENT 85 47 53 58
REMARK Flexibility Score: inf
ROOT
ATOM      1  C   UNL A   1      39.508  21.584  26.114  1.00  0.00     0.188 C 
ENDROOT
BRANCH   1   2
ATOM      2  O   UNL A   1      38.550  22.619  25.900  1.00  0.00    -0.376 OA
BRANCH   2   3
ATOM      3  C   UNL A   1      37.226  22.292  25.498  1.00  0.00     0.202 C 
BRANCH   3   4
ATOM      4  C   UNL A   1      36.425  23.382  24.787  1.00  0.00     0.261 C 
BRANCH   4   5
ATOM      5  O   UNL A   1      35.386  22.849  23.950  1.00  0.00    -0.459 OA
BRANCH   5   6
ATOM      6  C   UNL A   1      34.114  23.069  24.389  1.00  0.00     0.350 C 
ATOM      7  O   UNL A   1      33.377  22.201  24.843  1.00  0.00    -0.245 OA
BRANCH   6   8
ATOM      8  C   UNL A   1      33.798  24.467  24.305  1.00  0.00     0.134 A 
ATOM      9  C   UNL A   1      32.841  26.659  24.733  1.00  0.00     0.186 A 
ATOM     10  N   UNL A   1      33.282  26.587  23.495  1.00  0.00    -0.228 NA
ATOM     11  S   UNL A   1      33.301  25.307  25.712  1.00  0.00    -0.090 S 
ATOM     12  C   UNL A   1      33.841  25.347  23.249  1.00  0.00     0.141 A 
BRANCH   9  13
ATOM     13  N   UNL A   1      32.037  27.651  25.210  1.00  0.00    -0.348 N 
ATOM     14  C   UNL A   1      30.857  28.050  24.459  1.00  0.00     0.146 C 
BRANCH  13  15
ATOM     15  C   UNL A   1      32.517  28.530  26.295  1.00  0.00     0.086 C 
ATOM     16  C   UNL A   1      31.799  28.265  27.617  1.00  0.00     0.031 C 
BRANCH  15  17
ATOM     17  C   UNL A   1      34.062  28.652  26.397  1.00  0.00     0.071 C 
BRANCH  17  18
ATOM     18  C   UNL A   1      34.657  29.632  27.380  1.00  0.00     0.007 A 
ATOM     19  C   UNL A   1      35.794  29.462  28.152  1.00  0.00     0.015 A 
ATOM     20  S   UNL A   1      34.014  31.208  27.585  1.00  0.00    -0.149 S 
ATOM     21  C   UNL A   1      36.052  30.572  29.007  1.00  0.00     0.012 A 
ATOM     22  C   UNL A   1      35.137  31.582  28.820  1.00  0.00     0.065 A 
ENDBRANCH  17  18
ENDBRANCH  15  17
ENDBRANCH  13  15
ENDBRANCH   9  13
ENDBRANCH   6   8
ENDBRANCH   5   6
ENDBRANCH   4   5
ENDBRANCH   3   4
ENDBRANCH   2   3
ENDBRANCH   1   2
BRANCH   1  23
ATOM     23  C   UNL A   1      40.925  21.964  26.586  1.00  0.00     0.188 C 
BRANCH  23  24
ATOM     24  O   UNL A   1      41.934  21.622  25.648  1.00  0.00    -0.376 OA
BRANCH  24  25
ATOM     25  C   UNL A   1      43.170  22.303  25.764  1.00  0.00     0.202 C 
BRANCH  25  26
ATOM     26  C   UNL A   1      43.303  23.584  24.930  1.00  0.00     0.261 C 
BRANCH  26  27
ATOM     27  O   UNL A   1      43.347  24.810  25.674  1.00  0.00    -0.460 OA
BRANCH  27  28
ATOM     28  C   UNL A   1      42.300  25.654  25.537  1.00  0.00     0.338 C 
ATOM     29  O   UNL A   1      41.178  25.365  25.161  1.00  0.00    -0.246 OA
BRANCH  28  30
ATOM     30  C   UNL A   1      42.694  26.971  26.088  1.00  0.00     0.060 A 
ATOM     31  C   UNL A   1      43.674  27.020  27.087  1.00  0.00     0.016 A 
ATOM     32  C   UNL A   1      42.091  28.148  25.633  1.00  0.00     0.016 A 
ATOM     33  C   UNL A   1      44.014  28.244  27.670  1.00  0.00     0.010 A 
ATOM     34  C   UNL A   1      42.426  29.371  26.227  1.00  0.00     0.010 A 
ATOM     35  C   UNL A   1      43.360  29.420  27.276  1.00  0.00    -0.014 A 
BRANCH  35  36
ATOM     36  C   UNL A   1      43.504  30.652  28.091  1.00  0.00     0.031 A 
ATOM     37  C   UNL A   1      44.652  31.580  27.789  1.00  0.00     0.074 A 
ATOM     38  C   UNL A   1      42.642  30.953  29.080  1.00  0.00     0.049 A 
ATOM     39  N   UNL A   1      44.957  32.728  28.336  1.00  0.00    -0.248 NA
ATOM     40  C   UNL A   1      45.581  31.155  26.727  1.00  0.00     0.031 C 
ATOM     41  C   UNL A   1      41.505  30.133  29.493  1.00  0.00     0.029 A 
ATOM     42  N   UNL A   1      42.610  32.029  29.935  1.00  0.00    -0.354 N 
ATOM     43  C   UNL A   1      46.115  33.156  27.698  1.00  0.00     0.074 A 
ATOM     44  C   UNL A   1      46.471  32.138  26.734  1.00  0.00     0.031 C 
ATOM     45  C   UNL A   1      40.902  30.723  30.541  1.00  0.00     0.029 A 
ATOM     46  C   UNL A   1      41.611  31.957  30.876  1.00  0.00     0.049 A 
ATOM     47  H   UNL A   1      43.245  32.780  29.878  1.00  0.00     0.167 HD
ATOM     48  C   UNL A   1      46.810  34.304  27.876  1.00  0.00     0.034 A 
ATOM     49  C   UNL A   1      41.309  32.791  31.893  1.00  0.00     0.034 A 
ATOM     50  C   UNL A   1      46.455  35.328  28.818  1.00  0.00     0.049 A 
ATOM     51  C   UNL A   1      42.109  34.058  32.078  1.00  0.00     0.074 A 
ATOM     52  C   UNL A   1      47.067  36.552  29.026  1.00  0.00     0.029 A 
ATOM     53  N   UNL A   1      45.407  35.245  29.717  1.00  0.00    -0.354 N 
ATOM     54  N   UNL A   1      43.097  34.526  31.355  1.00  0.00    -0.248 NA
ATOM     55  C   UNL A   1      41.724  34.930  33.201  1.00  0.00     0.031 C 
ATOM     56  C   UNL A   1      46.394  37.203  30.067  1.00  0.00     0.029 A 
ATOM     57  C   UNL A   1      45.358  36.389  30.495  1.00  0.00     0.049 A 
ATOM     58  H   UNL A   1      44.787  34.483  29.794  1.00  0.00     0.167 HD
ATOM     59  C   UNL A   1      43.429  35.758  31.912  1.00  0.00     0.074 A 
ATOM     60  C   UNL A   1      42.521  35.975  33.019  1.00  0.00     0.031 C 
ATOM     61  C   UNL A   1      44.410  36.623  31.553  1.00  0.00     0.034 A 
BRANCH  48  62
ATOM     62  C   UNL A   1      48.005  34.534  26.993  1.00  0.00     0.023 A 
ATOM     63  C   UNL A   1      47.852  35.286  25.809  1.00  0.00     0.012 A 
ATOM     64  C   UNL A   1      49.281  34.061  27.354  1.00  0.00     0.148 A 
ATOM     65  C   UNL A   1      48.947  35.544  24.987  1.00  0.00     0.002 A 
ATOM     66  C   UNL A   1      50.374  34.352  26.547  1.00  0.00     0.091 A 
ATOM     67  F   UNL A   1      49.398  33.326  28.470  1.00  0.00    -0.205 F 
ATOM     68  C   UNL A   1      50.208  35.086  25.361  1.00  0.00     0.022 A 
BRANCH  66  69
ATOM     69  S   UNL A   1      52.048  33.862  26.974  1.00  0.00     0.127 S 
ATOM     70  O   UNL A   1      52.033  33.998  28.429  1.00  0.00    -0.237 OA
ATOM     71  O   UNL A   1      52.100  32.483  26.490  1.00  0.00    -0.237 OA
ATOM     72  O   UNL A   1      52.926  34.786  26.268  1.00  0.00    -0.744 OA
ENDBRANCH  66  69
ENDBRANCH  48  62
BRANCH  49  73
ATOM     73  C   UNL A   1      40.162  32.488  32.796  1.00  0.00     0.023 A 
ATOM     74  C   UNL A   1      40.348  31.609  33.881  1.00  0.00     0.012 A 
ATOM     75  C   UNL A   1      38.891  33.055  32.583  1.00  0.00     0.148 A 
ATOM     76  C   UNL A   1      39.283  31.277  34.720  1.00  0.00     0.002 A 
ATOM     77  C   UNL A   1      37.847  32.759  33.451  1.00  0.00     0.091 A 
ATOM     78  F   UNL A   1      38.725  33.866  31.529  1.00  0.00    -0.205 F 
ATOM     79  C   UNL A   1      38.035  31.859  34.511  1.00  0.00     0.022 A 
BRANCH  77  80
ATOM     80  S   UNL A   1      36.240  33.552  33.318  1.00  0.00     0.127 S 
ATOM     81  O   UNL A   1      36.581  34.957  33.525  1.00  0.00    -0.237 OA
ATOM     82  O   UNL A   1      35.841  33.210  31.951  1.00  0.00    -0.237 OA
ATOM     83  O   UNL A   1      35.418  32.935  34.349  1.00  0.00    -0.744 OA
ENDBRANCH  77  80
ENDBRANCH  49  73
BRANCH  61  84
ATOM     84  C   UNL A   1      44.548  37.901  32.340  1.00  0.00     0.023 A 
ATOM     85  C   UNL A   1      45.364  37.925  33.488  1.00  0.00     0.012 A 
ATOM     86  C   UNL A   1      43.943  39.094  31.897  1.00  0.00     0.148 A 
ATOM     87  C   UNL A   1      45.554  39.109  34.198  1.00  0.00     0.002 A 
ATOM     88  C   UNL A   1      44.172  40.280  32.585  1.00  0.00     0.091 A 
ATOM     89  F   UNL A   1      43.154  39.049  30.814  1.00  0.00    -0.205 F 
ATOM     90  C   UNL A   1      44.969  40.288  33.741  1.00  0.00     0.022 A 
BRANCH  88  91
ATOM     91  S   UNL A   1      43.534  41.858  32.008  1.00  0.00     0.127 S 
ATOM     92  O   UNL A   1      44.360  42.806  32.753  1.00  0.00    -0.237 OA
ATOM     93  O   UNL A   1      43.812  41.806  30.572  1.00  0.00    -0.237 OA
ATOM     94  O   UNL A   1      42.116  41.857  32.344  1.00  0.00    -0.744 OA
ENDBRANCH  88  91
ENDBRANCH  61  84
ENDBRANCH  35  36
ENDBRANCH  28  30
ENDBRANCH  27  28
ENDBRANCH  26  27
ENDBRANCH  25  26
ENDBRANCH  24  25
ENDBRANCH  23  24
ENDBRANCH   1  23
TORSDOF 24
ENDMDL
MODEL 2
REMARK VINA RESULT:      -8.2      1.085      7.744
REMARK SMILES C[C@@H](Cc1cccs1)N(C)c1ncc(C(=O)OCCOCCOCCOC(=O)c2ccc(-c3c4nc(c(-c5cccc(S(=O)(=O)[O-])c5F)c5ccc([nH]5)c(-c5cccc(S(=O)(=O)[O-])c5F)c5nc(c(-c6cccc(S(=O)(=O)[O-])c6F)c6ccc3[nH]6)C=C5)C=C4)cc2)s1
REMARK SMILES IDX 21 1 20 2 19 3 18 4 17 5 15 6 16 7 14 8 11 9 12 10 92 11
REMARK SMILES IDX 13 12 9 13 10 14 2 15 1 16 3 17 4 18 5 19 8 20 6 21 7 22
REMARK SMILES IDX 22 23 23 24 24 25 25 26 26 27 27 28 28 29 29 30 30 31 91 32
REMARK SMILES IDX 31 33 90 34 32 35 33 36 34 37 84 38 35 39 89 40 83 41 85 42
REMARK SMILES IDX 36 43 88 44 82 45 81 46 37 48 69 49 49 50 68 51 50 52 53 53
REMARK SMILES IDX 67 54 86 55 51 56 52 57 66 59 87 60 54 61 38 62 39 63 47 64
REMARK SMILES IDX 40 65 42 66 48 67 41 68 43 69 44 70 45 71 46 72 70 73 71 74
REMARK SMILES IDX 79 75 72 76 74 77 80 78 73 79 75 80 76 81 77 82 78 83 55 84
REMARK SMILES IDX 56 85 64 86 57 87 59 88 65 89 58 90 60 91 61 92 62 93 63 94
REMARK H PARENT 85 47 53 58
REMARK Flexibility Score: inf
ROOT
ATOM      1  C   UNL A   1      38.484  21.789  25.781  1.00  0.00     0.188 C 
ENDROOT
BRANCH   1   2
ATOM      2  O   UNL A   1      37.386  22.698  25.767  1.00  0.00    -0.376 OA
BRANCH   2   3
ATOM      3  C   UNL A   1      36.113  22.272  25.300  1.00  0.00     0.202 C 
BRANCH   3   4
ATOM      4  C   UNL A   1      35.535  23.000  24.087  1.00  0.00     0.261 C 
BRANCH   4   5
ATOM      5  O   UNL A   1      34.543  22.223  23.396  1.00  0.00    -0.459 OA
BRANCH   5   6
ATOM      6  C   UNL A   1      33.251  22.491  23.739  1.00  0.00     0.350 C 
ATOM      7  O   UNL A   1      32.537  21.742  24.395  1.00  0.00    -0.245 OA
BRANCH   6   8
ATOM      8  C   UNL A   1      32.881  23.801  23.282  1.00  0.00     0.134 A 
ATOM      9  C   UNL A   1      31.847  25.994  23.113  1.00  0.00     0.186 A 
ATOM     10  N   UNL A   1      32.272  25.598  21.932  1.00  0.00    -0.228 NA
ATOM     11  S   UNL A   1      32.372  24.980  24.415  1.00  0.00    -0.090 S 
ATOM     12  C   UNL A   1      32.874  24.357  22.024  1.00  0.00     0.141 A 
BRANCH   9  13
ATOM     13  N   UNL A   1      31.013  27.052  23.318  1.00  0.00    -0.348 N 
ATOM     14  C   UNL A   1      29.687  26.831  23.873  1.00  0.00     0.146 C 
BRANCH  13  15
ATOM     15  C   UNL A   1      31.311  28.356  22.695  1.00  0.00     0.086 C 
ATOM     16  C   UNL A   1      30.053  29.190  22.461  1.00  0.00     0.031 C 
BRANCH  15  17
ATOM     17  C   UNL A   1      32.501  29.125  23.333  1.00  0.00     0.071 C 
BRANCH  17  18
ATOM     18  C   UNL A   1      32.609  29.193  24.837  1.00  0.00     0.007 A 
ATOM     19  C   UNL A   1      31.711  29.770  25.719  1.00  0.00     0.015 A 
ATOM     20  S   UNL A   1      33.882  28.421  25.686  1.00  0.00    -0.149 S 
ATOM     21  C   UNL A   1      32.142  29.694  27.074  1.00  0.00     0.012 A 
ATOM     22  C   UNL A   1      33.329  29.010  27.194  1.00  0.00     0.065 A 
ENDBRANCH  17  18
ENDBRANCH  15  17
ENDBRANCH  13  15
ENDBRANCH   9  13
ENDBRANCH   6   8
ENDBRANCH   5   6
ENDBRANCH   4   5
ENDBRANCH   3   4
ENDBRANCH   2   3
ENDBRANCH   1   2
BRANCH   1  23
ATOM     23  C   UNL A   1      39.756  22.164  26.567  1.00  0.00     0.188 C 
BRANCH  23  24
ATOM     24  O   UNL A   1      40.941  21.632  25.996  1.00  0.00    -0.376 OA
BRANCH  24  25
ATOM     25  C   UNL A   1      42.163  22.227  26.393  1.00  0.00     0.202 C 
BRANCH  25  26
ATOM     26  C   UNL A   1      42.580  23.477  25.607  1.00  0.00     0.261 C 
BRANCH  26  27
ATOM     27  O   UNL A   1      42.688  24.686  26.372  1.00  0.00    -0.460 OA
BRANCH  27  28
ATOM     28  C   UNL A   1      41.711  25.607  26.213  1.00  0.00     0.338 C 
ATOM     29  O   UNL A   1      40.549  25.391  25.921  1.00  0.00    -0.246 OA
BRANCH  28  30
ATOM     30  C   UNL A   1      42.248  26.925  26.624  1.00  0.00     0.060 A 
ATOM     31  C   UNL A   1      43.219  26.974  27.632  1.00  0.00     0.016 A 
ATOM     32  C   UNL A   1      41.787  28.104  26.032  1.00  0.00     0.016 A 
ATOM     33  C   UNL A   1      43.692  28.209  28.085  1.00  0.00     0.010 A 
ATOM     34  C   UNL A   1      42.254  29.340  26.495  1.00  0.00     0.010 A 
ATOM     35  C   UNL A   1      43.178  29.400  27.551  1.00  0.00    -0.014 A 
BRANCH  35  36
ATOM     36  C   UNL A   1      43.456  30.691  28.229  1.00  0.00     0.031 A 
ATOM     37  C   UNL A   1      42.523  31.141  29.323  1.00  0.00     0.074 A 
ATOM     38  C   UNL A   1      44.509  31.458  27.890  1.00  0.00     0.049 A 
ATOM     39  N   UNL A   1      42.583  32.205  30.081  1.00  0.00    -0.248 NA
ATOM     40  C   UNL A   1      41.364  30.273  29.599  1.00  0.00     0.031 C 
ATOM     41  C   UNL A   1      45.474  31.156  26.836  1.00  0.00     0.029 A 
ATOM     42  N   UNL A   1      44.925  32.668  28.392  1.00  0.00    -0.354 N 
ATOM     43  C   UNL A   1      41.471  32.142  30.912  1.00  0.00     0.074 A 
ATOM     44  C   UNL A   1      40.740  30.946  30.555  1.00  0.00     0.031 C 
ATOM     45  C   UNL A   1      46.356  32.168  26.751  1.00  0.00     0.029 A 
ATOM     46  C   UNL A   1      46.016  33.191  27.739  1.00  0.00     0.049 A 
ATOM     47  H   UNL A   1      44.482  33.118  29.148  1.00  0.00     0.167 HD
ATOM     48  C   UNL A   1      41.100  32.988  31.902  1.00  0.00     0.034 A 
ATOM     49  C   UNL A   1      46.660  34.363  27.918  1.00  0.00     0.034 A 
ATOM     50  C   UNL A   1      41.827  34.168  32.274  1.00  0.00     0.049 A 
ATOM     51  C   UNL A   1      46.218  35.295  29.019  1.00  0.00     0.074 A 
ATOM     52  C   UNL A   1      41.558  35.054  33.303  1.00  0.00     0.029 A 
ATOM     53  N   UNL A   1      42.956  34.638  31.625  1.00  0.00    -0.354 N 
ATOM     54  N   UNL A   1      45.264  35.135  29.905  1.00  0.00    -0.248 NA
ATOM     55  C   UNL A   1      46.967  36.554  29.168  1.00  0.00     0.031 C 
ATOM     56  C   UNL A   1      42.520  36.070  33.265  1.00  0.00     0.029 A 
ATOM     57  C   UNL A   1      43.392  35.808  32.221  1.00  0.00     0.049 A 
ATOM     58  H   UNL A   1      43.386  34.203  30.852  1.00  0.00     0.167 HD
ATOM     59  C   UNL A   1      45.320  36.253  30.734  1.00  0.00     0.074 A 
ATOM     60  C   UNL A   1      46.417  37.070  30.260  1.00  0.00     0.031 C 
ATOM     61  C   UNL A   1      44.524  36.582  31.780  1.00  0.00     0.034 A 
BRANCH  48  62
ATOM     62  C   UNL A   1      39.866  32.636  32.687  1.00  0.00     0.023 A 
ATOM     63  C   UNL A   1      39.963  31.698  33.735  1.00  0.00     0.012 A 
ATOM     64  C   UNL A   1      38.634  33.266  32.431  1.00  0.00     0.148 A 
ATOM     65  C   UNL A   1      38.845  31.375  34.503  1.00  0.00     0.002 A 
ATOM     66  C   UNL A   1      37.532  32.965  33.222  1.00  0.00     0.091 A 
ATOM     67  F   UNL A   1      38.560  34.135  31.413  1.00  0.00    -0.205 F 
ATOM     68  C   UNL A   1      37.634  32.015  34.253  1.00  0.00     0.022 A 
BRANCH  66  69
ATOM     69  S   UNL A   1      35.945  33.781  33.023  1.00  0.00     0.127 S 
ATOM     70  O   UNL A   1      35.124  33.073  34.003  1.00  0.00    -0.237 OA
ATOM     71  O   UNL A   1      36.262  35.165  33.378  1.00  0.00    -0.237 OA
ATOM     72  O   UNL A   1      35.568  33.585  31.629  1.00  0.00    -0.744 OA
ENDBRANCH  66  69
ENDBRANCH  48  62
BRANCH  49  73
ATOM     73  C   UNL A   1      47.833  34.711  27.065  1.00  0.00     0.023 A 
ATOM     74  C   UNL A   1      47.627  35.370  25.838  1.00  0.00     0.012 A 
ATOM     75  C   UNL A   1      49.146  34.387  27.457  1.00  0.00     0.148 A 
ATOM     76  C   UNL A   1      48.702  35.673  25.002  1.00  0.00     0.002 A 
ATOM     77  C   UNL A   1      50.218  34.736  26.643  1.00  0.00     0.091 A 
ATOM     78  F   UNL A   1      49.322  33.734  28.615  1.00  0.00    -0.205 F 
ATOM     79  C   UNL A   1      49.998  35.366  25.409  1.00  0.00     0.022 A 
BRANCH  77  80
ATOM     80  S   UNL A   1      51.923  34.476  27.145  1.00  0.00     0.127 S 
ATOM     81  O   UNL A   1      51.920  33.058  27.493  1.00  0.00    -0.237 OA
ATOM     82  O   UNL A   1      52.657  34.808  25.923  1.00  0.00    -0.237 OA
ATOM     83  O   UNL A   1      52.147  35.403  28.245  1.00  0.00    -0.744 OA
ENDBRANCH  77  80
ENDBRANCH  49  73
BRANCH  61  84
ATOM     84  C   UNL A   1      44.813  37.868  32.510  1.00  0.00     0.023 A 
ATOM     85  C   UNL A   1      45.708  37.863  33.598  1.00  0.00     0.012 A 
ATOM     86  C   UNL A   1      44.270  39.091  32.068  1.00  0.00     0.148 A 
ATOM     87  C   UNL A   1      46.037  39.051  34.251  1.00  0.00     0.002 A 
ATOM     88  C   UNL A   1      44.636  40.276  32.696  1.00  0.00     0.091 A 
ATOM     89  F   UNL A   1      43.405  39.075  31.044  1.00  0.00    -0.205 F 
ATOM     90  C   UNL A   1      45.511  40.257  33.794  1.00  0.00     0.022 A 
BRANCH  88  91
ATOM     91  S   UNL A   1      44.078  41.881  32.109  1.00  0.00     0.127 S 
ATOM     92  O   UNL A   1      44.079  42.667  33.341  1.00  0.00    -0.237 OA
ATOM     93  O   UNL A   1      45.123  42.248  31.152  1.00  0.00    -0.237 OA
ATOM     94  O   UNL A   1      42.771  41.648  31.509  1.00  0.00    -0.744 OA
ENDBRANCH  88  91
ENDBRANCH  61  84
ENDBRANCH  35  36
ENDBRANCH  28  30
ENDBRANCH  27  28
ENDBRANCH  26  27
ENDBRANCH  25  26
ENDBRANCH  24  25
ENDBRANCH  23  24
ENDBRANCH   1  23
TORSDOF 24
ENDMDL
MODEL 3
REMARK VINA RESULT:      -8.1      3.061      8.983
REMARK SMILES C[C@@H](Cc1cccs1)N(C)c1ncc(C(=O)OCCOCCOCCOC(=O)c2ccc(-c3c4nc(c(-c5cccc(S(=O)(=O)[O-])c5F)c5ccc([nH]5)c(-c5cccc(S(=O)(=O)[O-])c5F)c5nc(c(-c6cccc(S(=O)(=O)[O-])c6F)c6ccc3[nH]6)C=C5)C=C4)cc2)s1
REMARK SMILES IDX 21 1 20 2 19 3 18 4 17 5 15 6 16 7 14 8 11 9 12 10 92 11
REMARK SMILES IDX 13 12 9 13 10 14 2 15 1 16 3 17 4 18 5 19 8 20 6 21 7 22
REMARK SMILES IDX 22 23 23 24 24 25 25 26 26 27 27 28 28 29 29 30 30 31 91 32
REMARK SMILES IDX 31 33 90 34 32 35 33 36 34 37 84 38 35 39 89 40 83 41 85 42
REMARK SMILES IDX 36 43 88 44 82 45 81 46 37 48 69 49 49 50 68 51 50 52 53 53
REMARK SMILES IDX 67 54 86 55 51 56 52 57 66 59 87 60 54 61 38 62 39 63 47 64
REMARK SMILES IDX 40 65 42 66 48 67 41 68 43 69 44 70 45 71 46 72 70 73 71 74
REMARK SMILES IDX 79 75 72 76 74 77 80 78 73 79 75 80 76 81 77 82 78 83 55 84
REMARK SMILES IDX 56 85 64 86 57 87 59 88 65 89 58 90 60 91 61 92 62 93 63 94
REMARK H PARENT 85 47 53 58
REMARK Flexibility Score: inf
ROOT
ATOM      1  C   UNL A   1      33.199  33.317  27.706  1.00  0.00     0.188 C 
ENDROOT
BRANCH   1   2
ATOM      2  O   UNL A   1      33.253  31.896  27.596  1.00  0.00    -0.376 OA
BRANCH   2   3
ATOM      3  C   UNL A   1      32.238  31.197  26.888  1.00  0.00     0.202 C 
BRANCH   3   4
ATOM      4  C   UNL A   1      32.672  29.991  26.057  1.00  0.00     0.261 C 
BRANCH   4   5
ATOM      5  O   UNL A   1      31.597  29.068  25.817  1.00  0.00    -0.459 OA
BRANCH   5   6
ATOM      6  C   UNL A   1      31.480  28.632  24.531  1.00  0.00     0.350 C 
ATOM      7  O   UNL A   1      31.772  29.297  23.544  1.00  0.00    -0.245 OA
BRANCH   6   8
ATOM      8  C   UNL A   1      31.035  27.267  24.511  1.00  0.00     0.134 A 
ATOM      9  C   UNL A   1      30.820  24.889  24.965  1.00  0.00     0.186 A 
ATOM     10  N   UNL A   1      30.282  25.182  23.800  1.00  0.00    -0.228 NA
ATOM     11  S   UNL A   1      31.263  26.282  25.893  1.00  0.00    -0.090 S 
ATOM     12  C   UNL A   1      30.388  26.536  23.542  1.00  0.00     0.141 A 
BRANCH   9  13
ATOM     13  N   UNL A   1      31.083  23.624  25.397  1.00  0.00    -0.348 N 
ATOM     14  C   UNL A   1      30.431  23.119  26.596  1.00  0.00     0.146 C 
BRANCH  13  15
ATOM     15  C   UNL A   1      32.244  22.889  24.859  1.00  0.00     0.086 C 
ATOM     16  C   UNL A   1      31.893  22.086  23.607  1.00  0.00     0.031 C 
BRANCH  15  17
ATOM     17  C   UNL A   1      33.553  23.720  24.762  1.00  0.00     0.071 C 
BRANCH  17  18
ATOM     18  C   UNL A   1      34.878  22.999  24.707  1.00  0.00     0.007 A 
ATOM     19  C   UNL A   1      35.990  23.341  23.957  1.00  0.00     0.015 A 
ATOM     20  S   UNL A   1      35.215  21.652  25.712  1.00  0.00    -0.149 S 
ATOM     21  C   UNL A   1      37.063  22.417  24.108  1.00  0.00     0.012 A 
ATOM     22  C   UNL A   1      36.761  21.428  25.015  1.00  0.00     0.065 A 
ENDBRANCH  17  18
ENDBRANCH  15  17
ENDBRANCH  13  15
ENDBRANCH   9  13
ENDBRANCH   6   8
ENDBRANCH   5   6
ENDBRANCH   4   5
ENDBRANCH   3   4
ENDBRANCH   2   3
ENDBRANCH   1   2
BRANCH   1  23
ATOM     23  C   UNL A   1      33.671  33.985  29.012  1.00  0.00     0.188 C 
BRANCH  23  24
ATOM     24  O   UNL A   1      34.843  33.392  29.549  1.00  0.00    -0.376 OA
BRANCH  24  25
ATOM     25  C   UNL A   1      34.674  32.550  30.675  1.00  0.00     0.202 C 
BRANCH  25  26
ATOM     26  C   UNL A   1      35.694  32.739  31.805  1.00  0.00     0.261 C 
BRANCH  26  27
ATOM     27  O   UNL A   1      36.010  31.561  32.562  1.00  0.00    -0.460 OA
BRANCH  27  28
ATOM     28  C   UNL A   1      36.694  30.583  31.926  1.00  0.00     0.338 C 
ATOM     29  O   UNL A   1      36.299  29.456  31.690  1.00  0.00    -0.246 OA
BRANCH  28  30
ATOM     30  C   UNL A   1      37.953  31.164  31.405  1.00  0.00     0.060 A 
ATOM     31  C   UNL A   1      38.098  31.330  30.023  1.00  0.00     0.016 A 
ATOM     32  C   UNL A   1      38.988  31.528  32.272  1.00  0.00     0.016 A 
ATOM     33  C   UNL A   1      39.303  31.813  29.502  1.00  0.00     0.010 A 
ATOM     34  C   UNL A   1      40.196  32.000  31.747  1.00  0.00     0.010 A 
ATOM     35  C   UNL A   1      40.374  32.107  30.357  1.00  0.00    -0.014 A 
BRANCH  35  36
ATOM     36  C   UNL A   1      41.729  32.329  29.792  1.00  0.00     0.031 A 
ATOM     37  C   UNL A   1      42.148  33.740  29.469  1.00  0.00     0.074 A 
ATOM     38  C   UNL A   1      42.578  31.310  29.565  1.00  0.00     0.049 A 
ATOM     39  N   UNL A   1      43.289  34.182  29.008  1.00  0.00    -0.248 NA
ATOM     40  C   UNL A   1      41.143  34.793  29.696  1.00  0.00     0.031 C 
ATOM     41  C   UNL A   1      42.293  29.898  29.807  1.00  0.00     0.029 A 
ATOM     42  N   UNL A   1      43.854  31.313  29.053  1.00  0.00    -0.354 N 
ATOM     43  C   UNL A   1      43.137  35.558  28.878  1.00  0.00     0.074 A 
ATOM     44  C   UNL A   1      41.789  35.878  29.291  1.00  0.00     0.031 C 
ATOM     45  C   UNL A   1      43.354  29.167  29.419  1.00  0.00     0.029 A 
ATOM     46  C   UNL A   1      44.389  30.057  28.896  1.00  0.00     0.049 A 
ATOM     47  H   UNL A   1      44.337  32.139  28.819  1.00  0.00     0.167 HD
ATOM     48  C   UNL A   1      44.044  36.479  28.476  1.00  0.00     0.034 A 
ATOM     49  C   UNL A   1      45.577  29.673  28.384  1.00  0.00     0.034 A 
ATOM     50  C   UNL A   1      45.390  36.173  28.081  1.00  0.00     0.049 A 
ATOM     51  C   UNL A   1      46.565  30.720  27.930  1.00  0.00     0.074 A 
ATOM     52  C   UNL A   1      46.398  37.048  27.715  1.00  0.00     0.029 A 
ATOM     53  N   UNL A   1      45.913  34.895  27.985  1.00  0.00    -0.354 N 
ATOM     54  N   UNL A   1      46.465  32.026  27.974  1.00  0.00    -0.248 NA
ATOM     55  C   UNL A   1      47.846  30.236  27.389  1.00  0.00     0.031 C 
ATOM     56  C   UNL A   1      47.528  36.294  27.381  1.00  0.00     0.029 A 
ATOM     57  C   UNL A   1      47.227  34.953  27.553  1.00  0.00     0.049 A 
ATOM     58  H   UNL A   1      45.423  34.066  28.192  1.00  0.00     0.167 HD
ATOM     59  C   UNL A   1      47.678  32.519  27.500  1.00  0.00     0.074 A 
ATOM     60  C   UNL A   1      48.506  31.371  27.197  1.00  0.00     0.031 C 
ATOM     61  C   UNL A   1      48.064  33.806  27.315  1.00  0.00     0.034 A 
BRANCH  48  62
ATOM     62  C   UNL A   1      43.619  37.921  28.491  1.00  0.00     0.023 A 
ATOM     63  C   UNL A   1      43.052  38.483  27.328  1.00  0.00     0.012 A 
ATOM     64  C   UNL A   1      43.727  38.702  29.657  1.00  0.00     0.148 A 
ATOM     65  C   UNL A   1      42.619  39.808  27.320  1.00  0.00     0.002 A 
ATOM     66  C   UNL A   1      43.261  40.011  29.652  1.00  0.00     0.091 A 
ATOM     67  F   UNL A   1      44.293  38.155  30.742  1.00  0.00    -0.205 F 
ATOM     68  C   UNL A   1      42.714  40.567  28.483  1.00  0.00     0.022 A 
BRANCH  66  69
ATOM     69  S   UNL A   1      43.280  41.050  31.116  1.00  0.00     0.127 S 
ATOM     70  O   UNL A   1      44.714  41.259  31.311  1.00  0.00    -0.237 OA
ATOM     71  O   UNL A   1      42.547  42.234  30.665  1.00  0.00    -0.237 OA
ATOM     72  O   UNL A   1      42.610  40.284  32.158  1.00  0.00    -0.744 OA
ENDBRANCH  66  69
ENDBRANCH  48  62
BRANCH  49  73
ATOM     73  C   UNL A   1      45.931  28.226  28.315  1.00  0.00     0.023 A 
ATOM     74  C   UNL A   1      46.513  27.600  29.434  1.00  0.00     0.012 A 
ATOM     75  C   UNL A   1      45.702  27.470  27.149  1.00  0.00     0.148 A 
ATOM     76  C   UNL A   1      46.889  26.257  29.385  1.00  0.00     0.002 A 
ATOM     77  C   UNL A   1      46.034  26.120  27.123  1.00  0.00     0.091 A 
ATOM     78  F   UNL A   1      45.174  28.089  26.083  1.00  0.00    -0.205 F 
ATOM     79  C   UNL A   1      46.641  25.515  28.233  1.00  0.00     0.022 A 
BRANCH  77  80
ATOM     80  S   UNL A   1      45.645  25.069  25.719  1.00  0.00     0.127 S 
ATOM     81  O   UNL A   1      46.072  23.757  26.199  1.00  0.00    -0.237 OA
ATOM     82  O   UNL A   1      44.196  25.239  25.599  1.00  0.00    -0.237 OA
ATOM     83  O   UNL A   1      46.403  25.618  24.604  1.00  0.00    -0.744 OA
ENDBRANCH  77  80
ENDBRANCH  49  73
BRANCH  61  84
ATOM     84  C   UNL A   1      49.451  34.056  26.781  1.00  0.00     0.023 A 
ATOM     85  C   UNL A   1      49.640  34.243  25.398  1.00  0.00     0.012 A 
ATOM     86  C   UNL A   1      50.549  34.194  27.653  1.00  0.00     0.148 A 
ATOM     87  C   UNL A   1      50.905  34.535  24.888  1.00  0.00     0.002 A 
ATOM     88  C   UNL A   1      51.798  34.528  27.142  1.00  0.00     0.091 A 
ATOM     89  F   UNL A   1      50.355  33.995  28.965  1.00  0.00    -0.205 F 
ATOM     90  C   UNL A   1      51.981  34.690  25.759  1.00  0.00     0.022 A 
BRANCH  88  91
ATOM     91  S   UNL A   1      53.214  34.839  28.206  1.00  0.00     0.127 S 
ATOM     92  O   UNL A   1      53.429  33.525  28.808  1.00  0.00    -0.237 OA
ATOM     93  O   UNL A   1      54.244  35.248  27.251  1.00  0.00    -0.237 OA
ATOM     94  O   UNL A   1      52.795  35.892  29.122  1.00  0.00    -0.744 OA
ENDBRANCH  88  91
ENDBRANCH  61  84
ENDBRANCH  35  36
ENDBRANCH  28  30
ENDBRANCH  27  28
ENDBRANCH  26  27
ENDBRANCH  25  26
ENDBRANCH  24  25
ENDBRANCH  23  24
ENDBRANCH   1  23
TORSDOF 24
ENDMDL
