MODEL 1
REMARK VINA RESULT:     -10.9      0.000      0.000
REMARK SMILES CC(C)(C)c1ccc(NS(=O)(=O)c2cccc(C(=O)OCCOCCOCCOC(=O)c3ccc(-c4c5nc(c(-c6cccc(S(=O)(=O)[O-])c6F)c6ccc([nH]6)c(-c6cccc(S(=O)(=O)[O-])c6F)c6nc(c(-c7cccc(S(=O)(=O)[O-])c7F)c7ccc4[nH]7)C=C6)C=C5)cc3)c2)cc1
REMARK SMILES IDX 24 1 23 2 22 3 21 4 20 5 18 6 19 7 17 8 13 9 14 10 95 11
REMARK SMILES IDX 15 12 16 13 10 14 11 15 12 16 9 17 8 19 5 20 6 21 97 22 7 23
REMARK SMILES IDX 96 24 2 25 1 26 3 27 4 28 25 29 26 30 27 31 28 32 29 33
REMARK SMILES IDX 30 34 31 35 32 36 33 37 94 38 34 39 93 40 35 41 36 42 37 43
REMARK SMILES IDX 87 44 38 45 92 46 86 47 88 48 39 49 91 50 85 51 84 52 40 54
REMARK SMILES IDX 72 55 52 56 71 57 53 58 56 59 70 60 89 61 54 62 55 63 69 65
REMARK SMILES IDX 90 66 57 67 41 68 42 69 50 70 43 71 45 72 51 73 44 74 46 75
REMARK SMILES IDX 47 76 48 77 49 78 73 79 74 80 82 81 75 82 77 83 83 84 76 85
REMARK SMILES IDX 78 86 79 87 80 88 81 89 58 90 59 91 67 92 60 93 62 94 68 95
REMARK SMILES IDX 61 96 63 97 64 98 65 99 66 100
REMARK H PARENT 9 18 88 53 56 64
REMARK Flexibility Score: inf
ROOT
ATOM      1  C   UNL A   1      29.921  25.763  25.735  1.00  0.00     0.188 C 
ENDROOT
BRANCH   1   2
ATOM      2  O   UNL A   1      30.717  24.671  25.339  1.00  0.00    -0.376 OA
BRANCH   2   3
ATOM      3  C   UNL A   1      30.633  24.196  24.007  1.00  0.00     0.202 C 
BRANCH   3   4
ATOM      4  C   UNL A   1      31.028  25.026  22.768  1.00  0.00     0.261 C 
BRANCH   4   5
ATOM      5  O   UNL A   1      32.187  24.621  22.028  1.00  0.00    -0.460 OA
BRANCH   5   6
ATOM      6  C   UNL A   1      33.265  25.429  22.126  1.00  0.00     0.338 C 
ATOM      7  O   UNL A   1      33.657  26.211  21.272  1.00  0.00    -0.246 OA
BRANCH   6   8
ATOM      8  C   UNL A   1      33.888  25.339  23.473  1.00  0.00     0.061 A 
ATOM      9  C   UNL A   1      35.464  24.430  25.080  1.00  0.00     0.088 A 
ATOM     10  C   UNL A   1      35.222  25.524  25.917  1.00  0.00     0.022 A 
ATOM     11  C   UNL A   1      34.807  24.339  23.839  1.00  0.00     0.038 A 
ATOM     12  C   UNL A   1      34.232  26.451  25.598  1.00  0.00     0.002 A 
ATOM     13  C   UNL A   1      33.572  26.363  24.377  1.00  0.00     0.016 A 
BRANCH   9  14
ATOM     14  S   UNL A   1      36.753  23.272  25.503  1.00  0.00     0.261 S 
ATOM     15  O   UNL A   1      37.649  23.949  26.419  1.00  0.00    -0.201 OA
ATOM     16  O   UNL A   1      37.273  22.726  24.264  1.00  0.00    -0.201 OA
BRANCH  14  17
ATOM     17  N   UNL A   1      36.111  21.931  26.346  1.00  0.00    -0.280 N 
ATOM     18  H   UNL A   1      36.205  21.877  27.325  1.00  0.00     0.180 HD
BRANCH  17  19
ATOM     19  C   UNL A   1      35.437  20.886  25.635  1.00  0.00     0.049 A 
ATOM     20  C   UNL A   1      34.008  18.759  24.420  1.00  0.00    -0.042 A 
ATOM     21  C   UNL A   1      33.346  19.853  25.010  1.00  0.00     0.006 A 
ATOM     22  C   UNL A   1      35.415  18.786  24.422  1.00  0.00     0.006 A 
ATOM     23  C   UNL A   1      34.048  20.912  25.587  1.00  0.00     0.027 A 
ATOM     24  C   UNL A   1      36.126  19.833  25.037  1.00  0.00     0.027 A 
BRANCH  20  25
ATOM     25  C   UNL A   1      33.190  17.568  23.878  1.00  0.00    -0.013 C 
ATOM     26  C   UNL A   1      32.304  17.912  22.660  1.00  0.00     0.016 C 
ATOM     27  C   UNL A   1      32.249  16.996  24.964  1.00  0.00     0.016 C 
ATOM     28  C   UNL A   1      34.179  16.466  23.441  1.00  0.00     0.016 C 
ENDBRANCH  20  25
ENDBRANCH  17  19
ENDBRANCH  14  17
ENDBRANCH   9  14
ENDBRANCH   6   8
ENDBRANCH   5   6
ENDBRANCH   4   5
ENDBRANCH   3   4
ENDBRANCH   2   3
ENDBRANCH   1   2
BRANCH   1  29
ATOM     29  C   UNL A   1      30.691  27.101  25.759  1.00  0.00     0.188 C 
BRANCH  29  30
ATOM     30  O   UNL A   1      30.609  28.000  24.660  1.00  0.00    -0.376 OA
BRANCH  30  31
ATOM     31  C   UNL A   1      31.256  29.265  24.730  1.00  0.00     0.202 C 
BRANCH  31  32
ATOM     32  C   UNL A   1      31.832  29.803  26.052  1.00  0.00     0.261 C 
BRANCH  32  33
ATOM     33  O   UNL A   1      33.115  30.436  25.977  1.00  0.00    -0.460 OA
BRANCH  33  34
ATOM     34  C   UNL A   1      33.418  31.249  27.019  1.00  0.00     0.338 C 
ATOM     35  O   UNL A   1      32.680  32.048  27.572  1.00  0.00    -0.246 OA
BRANCH  34  36
ATOM     36  C   UNL A   1      34.758  30.910  27.533  1.00  0.00     0.060 A 
ATOM     37  C   UNL A   1      35.103  29.555  27.623  1.00  0.00     0.016 A 
ATOM     38  C   UNL A   1      35.637  31.900  27.976  1.00  0.00     0.016 A 
ATOM     39  C   UNL A   1      36.324  29.183  28.181  1.00  0.00     0.010 A 
ATOM     40  C   UNL A   1      36.854  31.522  28.556  1.00  0.00     0.010 A 
ATOM     41  C   UNL A   1      37.188  30.163  28.687  1.00  0.00    -0.014 A 
BRANCH  41  42
ATOM     42  C   UNL A   1      38.369  29.741  29.476  1.00  0.00     0.031 A 
ATOM     43  C   UNL A   1      38.555  30.293  30.863  1.00  0.00     0.074 A 
ATOM     44  C   UNL A   1      39.252  28.858  28.978  1.00  0.00     0.049 A 
ATOM     45  N   UNL A   1      39.477  30.014  31.747  1.00  0.00    -0.248 NA
ATOM     46  C   UNL A   1      37.570  31.290  31.315  1.00  0.00     0.031 C 
ATOM     47  C   UNL A   1      39.189  28.264  27.643  1.00  0.00     0.029 A 
ATOM     48  N   UNL A   1      40.384  28.320  29.534  1.00  0.00    -0.354 N 
ATOM     49  C   UNL A   1      39.196  30.807  32.853  1.00  0.00     0.074 A 
ATOM     50  C   UNL A   1      38.027  31.594  32.522  1.00  0.00     0.031 C 
ATOM     51  C   UNL A   1      40.253  27.459  27.476  1.00  0.00     0.029 A 
ATOM     52  C   UNL A   1      41.074  27.489  28.685  1.00  0.00     0.049 A 
ATOM     53  H   UNL A   1      40.675  28.512  30.456  1.00  0.00     0.167 HD
ATOM     54  C   UNL A   1      39.838  30.863  34.043  1.00  0.00     0.034 A 
ATOM     55  C   UNL A   1      42.239  26.834  28.863  1.00  0.00     0.034 A 
ATOM     56  C   UNL A   1      40.993  30.073  34.377  1.00  0.00     0.049 A 
ATOM     57  C   UNL A   1      42.942  26.924  30.192  1.00  0.00     0.074 A 
ATOM     58  C   UNL A   1      41.681  30.021  35.576  1.00  0.00     0.029 A 
ATOM     59  N   UNL A   1      41.642  29.212  33.507  1.00  0.00    -0.354 N 
ATOM     60  N   UNL A   1      42.579  27.561  31.279  1.00  0.00    -0.248 NA
ATOM     61  C   UNL A   1      44.198  26.171  30.333  1.00  0.00     0.031 C 
ATOM     62  C   UNL A   1      42.760  29.143  35.423  1.00  0.00     0.029 A 
ATOM     63  C   UNL A   1      42.730  28.631  34.136  1.00  0.00     0.049 A 
ATOM     64  H   UNL A   1      41.368  29.038  32.577  1.00  0.00     0.167 HD
ATOM     65  C   UNL A   1      43.539  27.259  32.239  1.00  0.00     0.074 A 
ATOM     66  C   UNL A   1      44.487  26.362  31.613  1.00  0.00     0.031 C 
ATOM     67  C   UNL A   1      43.637  27.698  33.520  1.00  0.00     0.034 A 
BRANCH  54  68
ATOM     68  C   UNL A   1      39.281  31.787  35.091  1.00  0.00     0.023 A 
ATOM     69  C   UNL A   1      38.250  31.332  35.939  1.00  0.00     0.012 A 
ATOM     70  C   UNL A   1      39.808  33.079  35.275  1.00  0.00     0.148 A 
ATOM     71  C   UNL A   1      37.734  32.158  36.935  1.00  0.00     0.002 A 
ATOM     72  C   UNL A   1      39.315  33.883  36.297  1.00  0.00     0.091 A 
ATOM     73  F   UNL A   1      40.769  33.503  34.442  1.00  0.00    -0.205 F 
ATOM     74  C   UNL A   1      38.273  33.428  37.122  1.00  0.00     0.022 A 
BRANCH  72  75
ATOM     75  S   UNL A   1      39.994  35.505  36.662  1.00  0.00     0.127 S 
ATOM     76  O   UNL A   1      39.348  35.816  37.936  1.00  0.00    -0.237 OA
ATOM     77  O   UNL A   1      41.428  35.226  36.758  1.00  0.00    -0.237 OA
ATOM     78  O   UNL A   1      39.618  36.358  35.543  1.00  0.00    -0.744 OA
ENDBRANCH  72  75
ENDBRANCH  54  68
BRANCH  55  79
ATOM     79  C   UNL A   1      42.793  25.991  27.767  1.00  0.00     0.023 A 
ATOM     80  C   UNL A   1      43.831  26.494  26.959  1.00  0.00     0.012 A 
ATOM     81  C   UNL A   1      42.306  24.692  27.529  1.00  0.00     0.148 A 
ATOM     82  C   UNL A   1      44.354  25.729  25.915  1.00  0.00     0.002 A 
ATOM     83  C   UNL A   1      42.866  23.915  26.522  1.00  0.00     0.091 A 
ATOM     84  F   UNL A   1      41.302  24.239  28.295  1.00  0.00    -0.205 F 
ATOM     85  C   UNL A   1      43.879  24.438  25.703  1.00  0.00     0.022 A 
BRANCH  83  86
ATOM     86  S   UNL A   1      42.403  22.200  26.260  1.00  0.00     0.127 S 
ATOM     87  O   UNL A   1      40.969  22.313  26.008  1.00  0.00    -0.237 OA
ATOM     88  O   UNL A   1      43.210  21.845  25.092  1.00  0.00    -0.237 OA
ATOM     89  O   UNL A   1      42.780  21.504  27.482  1.00  0.00    -0.744 OA
ENDBRANCH  83  86
ENDBRANCH  55  79
BRANCH  67  90
ATOM     90  C   UNL A   1      44.792  27.194  34.346  1.00  0.00     0.023 A 
ATOM     91  C   UNL A   1      45.985  27.942  34.412  1.00  0.00     0.012 A 
ATOM     92  C   UNL A   1      44.674  26.015  35.108  1.00  0.00     0.148 A 
ATOM     93  C   UNL A   1      47.053  27.507  35.196  1.00  0.00     0.002 A 
ATOM     94  C   UNL A   1      45.726  25.612  35.924  1.00  0.00     0.091 A 
ATOM     95  F   UNL A   1      43.541  25.303  35.018  1.00  0.00    -0.205 F 
ATOM     96  C   UNL A   1      46.920  26.350  35.960  1.00  0.00     0.022 A 
BRANCH  94  97
ATOM     97  S   UNL A   1      45.603  24.185  37.011  1.00  0.00     0.127 S 
ATOM     98  O   UNL A   1      46.988  24.024  37.450  1.00  0.00    -0.237 OA
ATOM     99  O   UNL A   1      44.685  24.659  38.047  1.00  0.00    -0.237 OA
ATOM    100  O   UNL A   1      45.074  23.105  36.188  1.00  0.00    -0.744 OA
ENDBRANCH  94  97
ENDBRANCH  67  90
ENDBRANCH  41  42
ENDBRANCH  34  36
ENDBRANCH  33  34
ENDBRANCH  32  33
ENDBRANCH  31  32
ENDBRANCH  30  31
ENDBRANCH  29  30
ENDBRANCH   1  29
TORSDOF 24
ENDMDL
MODEL 2
REMARK VINA RESULT:     -10.6      0.501      7.477
REMARK SMILES CC(C)(C)c1ccc(NS(=O)(=O)c2cccc(C(=O)OCCOCCOCCOC(=O)c3ccc(-c4c5nc(c(-c6cccc(S(=O)(=O)[O-])c6F)c6ccc([nH]6)c(-c6cccc(S(=O)(=O)[O-])c6F)c6nc(c(-c7cccc(S(=O)(=O)[O-])c7F)c7ccc4[nH]7)C=C6)C=C5)cc3)c2)cc1
REMARK SMILES IDX 24 1 23 2 22 3 21 4 20 5 18 6 19 7 17 8 13 9 14 10 95 11
REMARK SMILES IDX 15 12 16 13 10 14 11 15 12 16 9 17 8 19 5 20 6 21 97 22 7 23
REMARK SMILES IDX 96 24 2 25 1 26 3 27 4 28 25 29 26 30 27 31 28 32 29 33
REMARK SMILES IDX 30 34 31 35 32 36 33 37 94 38 34 39 93 40 35 41 36 42 37 43
REMARK SMILES IDX 87 44 38 45 92 46 86 47 88 48 39 49 91 50 85 51 84 52 40 54
REMARK SMILES IDX 72 55 52 56 71 57 53 58 56 59 70 60 89 61 54 62 55 63 69 65
REMARK SMILES IDX 90 66 57 67 41 68 42 69 50 70 43 71 45 72 51 73 44 74 46 75
REMARK SMILES IDX 47 76 48 77 49 78 73 79 74 80 82 81 75 82 77 83 83 84 76 85
REMARK SMILES IDX 78 86 79 87 80 88 81 89 58 90 59 91 67 92 60 93 62 94 68 95
REMARK SMILES IDX 61 96 63 97 64 98 65 99 66 100
REMARK H PARENT 9 18 88 53 56 64
REMARK Flexibility Score: inf
ROOT
ATOM      1  C   UNL A   1      29.652  25.895  25.010  1.00  0.00     0.188 C 
ENDROOT
BRANCH   1   2
ATOM      2  O   UNL A   1      30.484  24.767  24.870  1.00  0.00    -0.376 OA
BRANCH   2   3
ATOM      3  C   UNL A   1      30.718  24.230  23.580  1.00  0.00     0.202 C 
BRANCH   3   4
ATOM      4  C   UNL A   1      31.068  25.081  22.341  1.00  0.00     0.261 C 
BRANCH   4   5
ATOM      5  O   UNL A   1      32.332  24.854  21.704  1.00  0.00    -0.460 OA
BRANCH   5   6
ATOM      6  C   UNL A   1      33.311  25.737  22.000  1.00  0.00     0.338 C 
ATOM      7  O   UNL A   1      33.660  26.681  21.306  1.00  0.00    -0.246 OA
BRANCH   6   8
ATOM      8  C   UNL A   1      33.870  25.491  23.355  1.00  0.00     0.061 A 
ATOM      9  C   UNL A   1      35.384  24.413  24.916  1.00  0.00     0.088 A 
ATOM     10  C   UNL A   1      35.082  25.395  25.867  1.00  0.00     0.022 A 
ATOM     11  C   UNL A   1      34.789  24.466  23.642  1.00  0.00     0.038 A 
ATOM     12  C   UNL A   1      34.093  26.341  25.613  1.00  0.00     0.002 A 
ATOM     13  C   UNL A   1      33.493  26.394  24.359  1.00  0.00     0.016 A 
BRANCH   9  14
ATOM     14  S   UNL A   1      36.672  23.228  25.260  1.00  0.00     0.261 S 
ATOM     15  O   UNL A   1      37.719  23.933  25.971  1.00  0.00    -0.201 OA
ATOM     16  O   UNL A   1      36.982  22.548  24.017  1.00  0.00    -0.201 OA
BRANCH  14  17
ATOM     17  N   UNL A   1      36.106  22.003  26.309  1.00  0.00    -0.280 N 
ATOM     18  H   UNL A   1      36.302  22.054  27.273  1.00  0.00     0.180 HD
BRANCH  17  19
ATOM     19  C   UNL A   1      35.345  20.905  25.793  1.00  0.00     0.049 A 
ATOM     20  C   UNL A   1      33.906  18.791  24.568  1.00  0.00    -0.042 A 
ATOM     21  C   UNL A   1      35.310  18.863  24.503  1.00  0.00     0.006 A 
ATOM     22  C   UNL A   1      33.246  19.792  25.304  1.00  0.00     0.006 A 
ATOM     23  C   UNL A   1      36.022  19.890  25.127  1.00  0.00     0.027 A 
ATOM     24  C   UNL A   1      33.957  20.850  25.900  1.00  0.00     0.027 A 
BRANCH  20  25
ATOM     25  C   UNL A   1      33.158  17.691  23.786  1.00  0.00    -0.013 C 
ATOM     26  C   UNL A   1      32.147  16.888  24.636  1.00  0.00     0.016 C 
ATOM     27  C   UNL A   1      34.145  16.665  23.182  1.00  0.00     0.016 C 
ATOM     28  C   UNL A   1      32.373  18.366  22.641  1.00  0.00     0.016 C 
ENDBRANCH  20  25
ENDBRANCH  17  19
ENDBRANCH  14  17
ENDBRANCH   9  14
ENDBRANCH   6   8
ENDBRANCH   5   6
ENDBRANCH   4   5
ENDBRANCH   3   4
ENDBRANCH   2   3
ENDBRANCH   1   2
BRANCH   1  29
ATOM     29  C   UNL A   1      30.435  27.202  25.254  1.00  0.00     0.188 C 
BRANCH  29  30
ATOM     30  O   UNL A   1      30.469  28.220  24.261  1.00  0.00    -0.376 OA
BRANCH  30  31
ATOM     31  C   UNL A   1      31.067  29.476  24.555  1.00  0.00     0.202 C 
BRANCH  31  32
ATOM     32  C   UNL A   1      31.703  29.765  25.927  1.00  0.00     0.261 C 
BRANCH  32  33
ATOM     33  O   UNL A   1      33.034  30.296  25.911  1.00  0.00    -0.460 OA
BRANCH  33  34
ATOM     34  C   UNL A   1      33.310  31.186  26.896  1.00  0.00     0.338 C 
ATOM     35  O   UNL A   1      32.560  32.026  27.364  1.00  0.00    -0.246 OA
BRANCH  34  36
ATOM     36  C   UNL A   1      34.633  30.884  27.475  1.00  0.00     0.060 A 
ATOM     37  C   UNL A   1      34.964  29.540  27.691  1.00  0.00     0.016 A 
ATOM     38  C   UNL A   1      35.509  31.903  27.854  1.00  0.00     0.016 A 
ATOM     39  C   UNL A   1      36.166  29.210  28.313  1.00  0.00     0.010 A 
ATOM     40  C   UNL A   1      36.706  31.569  28.497  1.00  0.00     0.010 A 
ATOM     41  C   UNL A   1      37.024  30.225  28.755  1.00  0.00    -0.014 A 
BRANCH  41  42
ATOM     42  C   UNL A   1      38.180  29.866  29.611  1.00  0.00     0.031 A 
ATOM     43  C   UNL A   1      39.202  28.894  29.087  1.00  0.00     0.074 A 
ATOM     44  C   UNL A   1      38.335  30.419  30.827  1.00  0.00     0.049 A 
ATOM     45  N   UNL A   1      40.317  28.490  29.638  1.00  0.00    -0.248 NA
ATOM     46  C   UNL A   1      38.933  28.299  27.767  1.00  0.00     0.031 C 
ATOM     47  C   UNL A   1      37.408  31.361  31.450  1.00  0.00     0.029 A 
ATOM     48  N   UNL A   1      39.325  30.251  31.760  1.00  0.00    -0.354 N 
ATOM     49  C   UNL A   1      40.875  27.585  28.745  1.00  0.00     0.074 A 
ATOM     50  C   UNL A   1      39.968  27.485  27.622  1.00  0.00     0.031 C 
ATOM     51  C   UNL A   1      37.863  31.671  32.676  1.00  0.00     0.029 A 
ATOM     52  C   UNL A   1      39.106  30.944  32.927  1.00  0.00     0.049 A 
ATOM     53  H   UNL A   1      40.119  29.687  31.610  1.00  0.00     0.167 HD
ATOM     54  C   UNL A   1      42.047  26.913  28.838  1.00  0.00     0.034 A 
ATOM     55  C   UNL A   1      39.823  30.978  34.068  1.00  0.00     0.034 A 
ATOM     56  C   UNL A   1      42.955  27.021  29.947  1.00  0.00     0.049 A 
ATOM     57  C   UNL A   1      41.116  30.210  34.152  1.00  0.00     0.074 A 
ATOM     58  C   UNL A   1      44.191  26.420  30.108  1.00  0.00     0.029 A 
ATOM     59  N   UNL A   1      42.720  27.762  31.094  1.00  0.00    -0.354 N 
ATOM     60  N   UNL A   1      41.705  29.479  33.236  1.00  0.00    -0.248 NA
ATOM     61  C   UNL A   1      41.864  30.303  35.415  1.00  0.00     0.031 C 
ATOM     62  C   UNL A   1      44.693  26.782  31.363  1.00  0.00     0.029 A 
ATOM     63  C   UNL A   1      43.781  27.627  31.974  1.00  0.00     0.049 A 
ATOM     64  H   UNL A   1      41.915  28.306  31.259  1.00  0.00     0.167 HD
ATOM     65  C   UNL A   1      42.905  29.055  33.798  1.00  0.00     0.074 A 
ATOM     66  C   UNL A   1      42.970  29.632  35.125  1.00  0.00     0.031 C 
ATOM     67  C   UNL A   1      43.860  28.248  33.270  1.00  0.00     0.034 A 
BRANCH  54  68
ATOM     68  C   UNL A   1      42.433  26.026  27.685  1.00  0.00     0.023 A 
ATOM     69  C   UNL A   1      43.270  26.534  26.670  1.00  0.00     0.012 A 
ATOM     70  C   UNL A   1      42.018  24.682  27.632  1.00  0.00     0.148 A 
ATOM     71  C   UNL A   1      43.665  25.725  25.606  1.00  0.00     0.002 A 
ATOM     72  C   UNL A   1      42.448  23.871  26.588  1.00  0.00     0.091 A 
ATOM     73  F   UNL A   1      41.201  24.226  28.593  1.00  0.00    -0.205 F 
ATOM     74  C   UNL A   1      43.263  24.393  25.570  1.00  0.00     0.022 A 
BRANCH  72  75
ATOM     75  S   UNL A   1      42.044  22.124  26.493  1.00  0.00     0.127 S 
ATOM     76  O   UNL A   1      40.587  22.164  26.375  1.00  0.00    -0.237 OA
ATOM     77  O   UNL A   1      42.743  21.710  25.275  1.00  0.00    -0.237 OA
ATOM     78  O   UNL A   1      42.558  21.527  27.717  1.00  0.00    -0.744 OA
ENDBRANCH  72  75
ENDBRANCH  54  68
BRANCH  55  79
ATOM     79  C   UNL A   1      39.359  31.812  35.212  1.00  0.00     0.023 A 
ATOM     80  C   UNL A   1      38.494  31.254  36.174  1.00  0.00     0.012 A 
ATOM     81  C   UNL A   1      39.780  33.147  35.360  1.00  0.00     0.148 A 
ATOM     82  C   UNL A   1      38.032  32.021  37.244  1.00  0.00     0.002 A 
ATOM     83  C   UNL A   1      39.360  33.888  36.457  1.00  0.00     0.091 A 
ATOM     84  F   UNL A   1      40.588  33.665  34.423  1.00  0.00    -0.205 F 
ATOM     85  C   UNL A   1      38.472  33.333  37.392  1.00  0.00     0.022 A 
BRANCH  83  86
ATOM     86  S   UNL A   1      39.975  35.542  36.793  1.00  0.00     0.127 S 
ATOM     87  O   UNL A   1      39.575  36.260  35.586  1.00  0.00    -0.237 OA
ATOM     88  O   UNL A   1      39.231  35.902  38.000  1.00  0.00    -0.237 OA
ATOM     89  O   UNL A   1      41.409  35.391  36.995  1.00  0.00    -0.744 OA
ENDBRANCH  83  86
ENDBRANCH  55  79
BRANCH  67  90
ATOM     90  C   UNL A   1      45.077  27.960  34.112  1.00  0.00     0.023 A 
ATOM     91  C   UNL A   1      46.198  28.809  34.037  1.00  0.00     0.012 A 
ATOM     92  C   UNL A   1      45.084  26.887  35.025  1.00  0.00     0.148 A 
ATOM     93  C   UNL A   1      47.320  28.577  34.831  1.00  0.00     0.002 A 
ATOM     94  C   UNL A   1      46.188  26.688  35.848  1.00  0.00     0.091 A 
ATOM     95  F   UNL A   1      44.018  26.075  35.071  1.00  0.00    -0.205 F 
ATOM     96  C   UNL A   1      47.311  27.524  35.744  1.00  0.00     0.022 A 
BRANCH  94  97
ATOM     97  S   UNL A   1      46.221  25.414  37.115  1.00  0.00     0.127 S 
ATOM     98  O   UNL A   1      45.754  24.244  36.374  1.00  0.00    -0.237 OA
ATOM     99  O   UNL A   1      47.636  25.377  37.486  1.00  0.00    -0.237 OA
ATOM    100  O   UNL A   1      45.336  25.884  38.173  1.00  0.00    -0.744 OA
ENDBRANCH  94  97
ENDBRANCH  67  90
ENDBRANCH  41  42
ENDBRANCH  34  36
ENDBRANCH  33  34
ENDBRANCH  32  33
ENDBRANCH  31  32
ENDBRANCH  30  31
ENDBRANCH  29  30
ENDBRANCH   1  29
TORSDOF 24
ENDMDL
MODEL 3
REMARK VINA RESULT:     -10.0      2.849      4.511
REMARK SMILES CC(C)(C)c1ccc(NS(=O)(=O)c2cccc(C(=O)OCCOCCOCCOC(=O)c3ccc(-c4c5nc(c(-c6cccc(S(=O)(=O)[O-])c6F)c6ccc([nH]6)c(-c6cccc(S(=O)(=O)[O-])c6F)c6nc(c(-c7cccc(S(=O)(=O)[O-])c7F)c7ccc4[nH]7)C=C6)C=C5)cc3)c2)cc1
REMARK SMILES IDX 24 1 23 2 22 3 21 4 20 5 18 6 19 7 17 8 13 9 14 10 95 11
REMARK SMILES IDX 15 12 16 13 10 14 11 15 12 16 9 17 8 19 5 20 6 21 97 22 7 23
REMARK SMILES IDX 96 24 2 25 1 26 3 27 4 28 25 29 26 30 27 31 28 32 29 33
REMARK SMILES IDX 30 34 31 35 32 36 33 37 94 38 34 39 93 40 35 41 36 42 37 43
REMARK SMILES IDX 87 44 38 45 92 46 86 47 88 48 39 49 91 50 85 51 84 52 40 54
REMARK SMILES IDX 72 55 52 56 71 57 53 58 56 59 70 60 89 61 54 62 55 63 69 65
REMARK SMILES IDX 90 66 57 67 41 68 42 69 50 70 43 71 45 72 51 73 44 74 46 75
REMARK SMILES IDX 47 76 48 77 49 78 73 79 74 80 82 81 75 82 77 83 83 84 76 85
REMARK SMILES IDX 78 86 79 87 80 88 81 89 58 90 59 91 67 92 60 93 62 94 68 95
REMARK SMILES IDX 61 96 63 97 64 98 65 99 66 100
REMARK H PARENT 9 18 88 53 56 64
REMARK Flexibility Score: inf
ROOT
ATOM      1  C   UNL A   1      35.069  32.797  27.832  1.00  0.00     0.188 C 
ENDROOT
BRANCH   1   2
ATOM      2  O   UNL A   1      34.750  31.456  27.538  1.00  0.00    -0.376 OA
BRANCH   2   3
ATOM      3  C   UNL A   1      33.394  31.046  27.543  1.00  0.00     0.202 C 
BRANCH   3   4
ATOM      4  C   UNL A   1      32.851  29.849  26.735  1.00  0.00     0.261 C 
BRANCH   4   5
ATOM      5  O   UNL A   1      32.984  28.539  27.302  1.00  0.00    -0.460 OA
BRANCH   5   6
ATOM      6  C   UNL A   1      31.899  27.740  27.209  1.00  0.00     0.338 C 
ATOM      7  O   UNL A   1      30.917  27.775  27.937  1.00  0.00    -0.246 OA
BRANCH   6   8
ATOM      8  C   UNL A   1      31.981  26.851  26.021  1.00  0.00     0.061 A 
ATOM      9  C   UNL A   1      32.888  24.979  24.769  1.00  0.00     0.088 A 
ATOM     10  C   UNL A   1      31.784  25.035  23.911  1.00  0.00     0.022 A 
ATOM     11  C   UNL A   1      32.985  25.881  25.844  1.00  0.00     0.038 A 
ATOM     12  C   UNL A   1      30.853  26.064  24.026  1.00  0.00     0.002 A 
ATOM     13  C   UNL A   1      30.947  26.965  25.082  1.00  0.00     0.016 A 
BRANCH   9  14
ATOM     14  S   UNL A   1      34.052  23.636  24.612  1.00  0.00     0.261 S 
ATOM     15  O   UNL A   1      35.347  24.146  25.014  1.00  0.00    -0.201 OA
ATOM     16  O   UNL A   1      33.884  23.067  23.288  1.00  0.00    -0.201 OA
BRANCH  14  17
ATOM     17  N   UNL A   1      33.666  22.370  25.694  1.00  0.00    -0.280 N 
ATOM     18  H   UNL A   1      33.348  22.581  26.601  1.00  0.00     0.180 HD
BRANCH  17  19
ATOM     19  C   UNL A   1      33.802  21.004  25.284  1.00  0.00     0.049 A 
ATOM     20  C   UNL A   1      33.985  18.242  24.670  1.00  0.00    -0.042 A 
ATOM     21  C   UNL A   1      32.743  18.873  24.873  1.00  0.00     0.006 A 
ATOM     22  C   UNL A   1      35.133  19.051  24.743  1.00  0.00     0.006 A 
ATOM     23  C   UNL A   1      32.650  20.238  25.152  1.00  0.00     0.027 A 
ATOM     24  C   UNL A   1      35.047  20.418  25.063  1.00  0.00     0.027 A 
BRANCH  20  25
ATOM     25  C   UNL A   1      34.043  16.715  24.457  1.00  0.00    -0.013 C 
ATOM     26  C   UNL A   1      35.235  16.024  25.157  1.00  0.00     0.016 C 
ATOM     27  C   UNL A   1      34.146  16.363  22.954  1.00  0.00     0.016 C 
ATOM     28  C   UNL A   1      32.746  16.101  25.028  1.00  0.00     0.016 C 
ENDBRANCH  20  25
ENDBRANCH  17  19
ENDBRANCH  14  17
ENDBRANCH   9  14
ENDBRANCH   6   8
ENDBRANCH   5   6
ENDBRANCH   4   5
ENDBRANCH   3   4
ENDBRANCH   2   3
ENDBRANCH   1   2
BRANCH   1  29
ATOM     29  C   UNL A   1      34.207  33.393  28.965  1.00  0.00     0.188 C 
BRANCH  29  30
ATOM     30  O   UNL A   1      33.171  34.322  28.670  1.00  0.00    -0.376 OA
BRANCH  30  31
ATOM     31  C   UNL A   1      33.318  35.688  29.042  1.00  0.00     0.202 C 
BRANCH  31  32
ATOM     32  C   UNL A   1      32.555  36.283  30.239  1.00  0.00     0.261 C 
BRANCH  32  33
ATOM     33  O   UNL A   1      33.272  36.353  31.478  1.00  0.00    -0.460 OA
BRANCH  33  34
ATOM     34  C   UNL A   1      33.121  35.279  32.291  1.00  0.00     0.338 C 
ATOM     35  O   UNL A   1      32.096  34.897  32.830  1.00  0.00    -0.246 OA
BRANCH  34  36
ATOM     36  C   UNL A   1      34.371  34.496  32.306  1.00  0.00     0.060 A 
ATOM     37  C   UNL A   1      34.332  33.207  32.855  1.00  0.00     0.016 A 
ATOM     38  C   UNL A   1      35.573  35.038  31.847  1.00  0.00     0.016 A 
ATOM     39  C   UNL A   1      35.503  32.463  32.969  1.00  0.00     0.010 A 
ATOM     40  C   UNL A   1      36.752  34.295  31.982  1.00  0.00     0.010 A 
ATOM     41  C   UNL A   1      36.726  33.019  32.570  1.00  0.00    -0.014 A 
BRANCH  41  42
ATOM     42  C   UNL A   1      37.982  32.309  32.906  1.00  0.00     0.031 A 
ATOM     43  C   UNL A   1      38.716  32.679  34.166  1.00  0.00     0.074 A 
ATOM     44  C   UNL A   1      38.451  31.327  32.116  1.00  0.00     0.049 A 
ATOM     45  N   UNL A   1      39.794  32.148  34.681  1.00  0.00    -0.248 NA
ATOM     46  C   UNL A   1      38.162  33.796  34.949  1.00  0.00     0.031 C 
ATOM     47  C   UNL A   1      37.839  30.887  30.863  1.00  0.00     0.029 A 
ATOM     48  N   UNL A   1      39.563  30.535  32.245  1.00  0.00    -0.354 N 
ATOM     49  C   UNL A   1      40.057  32.870  35.838  1.00  0.00     0.074 A 
ATOM     50  C   UNL A   1      39.036  33.890  35.941  1.00  0.00     0.031 C 
ATOM     51  C   UNL A   1      38.598  29.916  30.326  1.00  0.00     0.029 A 
ATOM     52  C   UNL A   1      39.752  29.674  31.191  1.00  0.00     0.049 A 
ATOM     53  H   UNL A   1      40.169  30.578  33.021  1.00  0.00     0.167 HD
ATOM     54  C   UNL A   1      41.045  32.689  36.746  1.00  0.00     0.034 A 
ATOM     55  C   UNL A   1      40.748  28.797  30.949  1.00  0.00     0.034 A 
ATOM     56  C   UNL A   1      42.053  31.668  36.651  1.00  0.00     0.049 A 
ATOM     57  C   UNL A   1      41.844  28.625  31.968  1.00  0.00     0.074 A 
ATOM     58  C   UNL A   1      43.064  31.372  37.548  1.00  0.00     0.029 A 
ATOM     59  N   UNL A   1      42.191  30.787  35.590  1.00  0.00    -0.354 N 
ATOM     60  N   UNL A   1      41.992  29.212  33.131  1.00  0.00    -0.248 NA
ATOM     61  C   UNL A   1      42.891  27.639  31.658  1.00  0.00     0.031 C 
ATOM     62  C   UNL A   1      43.827  30.325  37.017  1.00  0.00     0.029 A 
ATOM     63  C   UNL A   1      43.277  29.954  35.802  1.00  0.00     0.049 A 
ATOM     64  H   UNL A   1      41.603  30.759  34.801  1.00  0.00     0.167 HD
ATOM     65  C   UNL A   1      43.125  28.644  33.705  1.00  0.00     0.074 A 
ATOM     66  C   UNL A   1      43.611  27.648  32.772  1.00  0.00     0.031 C 
ATOM     67  C   UNL A   1      43.720  28.931  34.891  1.00  0.00     0.034 A 
BRANCH  54  68
ATOM     68  C   UNL A   1      41.062  33.596  37.946  1.00  0.00     0.023 A 
ATOM     69  C   UNL A   1      41.800  34.797  37.896  1.00  0.00     0.012 A 
ATOM     70  C   UNL A   1      40.310  33.293  39.096  1.00  0.00     0.148 A 
ATOM     71  C   UNL A   1      41.811  35.668  38.984  1.00  0.00     0.002 A 
ATOM     72  C   UNL A   1      40.294  34.187  40.161  1.00  0.00     0.091 A 
ATOM     73  F   UNL A   1      39.636  32.134  39.134  1.00  0.00    -0.205 F 
ATOM     74  C   UNL A   1      41.051  35.369  40.111  1.00  0.00     0.022 A 
BRANCH  72  75
ATOM     75  S   UNL A   1      39.289  33.925  41.626  1.00  0.00     0.127 S 
ATOM     76  O   UNL A   1      39.950  32.773  42.237  1.00  0.00    -0.237 OA
ATOM     77  O   UNL A   1      39.466  35.184  42.352  1.00  0.00    -0.237 OA
ATOM     78  O   UNL A   1      37.934  33.689  41.146  1.00  0.00    -0.744 OA
ENDBRANCH  72  75
ENDBRANCH  54  68
BRANCH  55  79
ATOM     79  C   UNL A   1      40.729  27.974  29.708  1.00  0.00     0.023 A 
ATOM     80  C   UNL A   1      39.874  26.858  29.626  1.00  0.00     0.012 A 
ATOM     81  C   UNL A   1      41.541  28.299  28.605  1.00  0.00     0.148 A 
ATOM     82  C   UNL A   1      39.851  26.062  28.480  1.00  0.00     0.002 A 
ATOM     83  C   UNL A   1      41.475  27.534  27.447  1.00  0.00     0.091 A 
ATOM     84  F   UNL A   1      42.363  29.353  28.710  1.00  0.00    -0.205 F 
ATOM     85  C   UNL A   1      40.643  26.405  27.388  1.00  0.00     0.022 A 
BRANCH  83  86
ATOM     86  S   UNL A   1      42.365  27.976  25.951  1.00  0.00     0.127 S 
ATOM     87  O   UNL A   1      41.983  29.374  25.779  1.00  0.00    -0.237 OA
ATOM     88  O   UNL A   1      43.755  27.760  26.353  1.00  0.00    -0.237 OA
ATOM     89  O   UNL A   1      41.888  27.056  24.927  1.00  0.00    -0.744 OA
ENDBRANCH  83  86
ENDBRANCH  55  79
BRANCH  67  90
ATOM     90  C   UNL A   1      44.948  28.141  35.267  1.00  0.00     0.023 A 
ATOM     91  C   UNL A   1      46.190  28.456  34.682  1.00  0.00     0.012 A 
ATOM     92  C   UNL A   1      44.883  27.131  36.248  1.00  0.00     0.148 A 
ATOM     93  C   UNL A   1      47.342  27.757  35.041  1.00  0.00     0.002 A 
ATOM     94  C   UNL A   1      46.044  26.470  36.635  1.00  0.00     0.091 A 
ATOM     95  F   UNL A   1      43.690  26.829  36.780  1.00  0.00    -0.205 F 
ATOM     96  C   UNL A   1      47.272  26.773  36.025  1.00  0.00     0.022 A 
BRANCH  94  97
ATOM     97  S   UNL A   1      46.058  25.255  37.960  1.00  0.00     0.127 S 
ATOM     98  O   UNL A   1      47.468  25.247  38.343  1.00  0.00    -0.237 OA
ATOM     99  O   UNL A   1      45.160  25.857  38.947  1.00  0.00    -0.237 OA
ATOM    100  O   UNL A   1      45.558  24.020  37.370  1.00  0.00    -0.744 OA
ENDBRANCH  94  97
ENDBRANCH  67  90
ENDBRANCH  41  42
ENDBRANCH  34  36
ENDBRANCH  33  34
ENDBRANCH  32  33
ENDBRANCH  31  32
ENDBRANCH  30  31
ENDBRANCH  29  30
ENDBRANCH   1  29
TORSDOF 24
ENDMDL
