MODEL 1
REMARK VINA RESULT:     -11.1      0.000      0.000
REMARK SMILES CCCCc1cc(S(F)(F)(F)(F)F)cc2c1O[C@@H](C(F)(F)F)C(C(=O)OCCOCCOCCOC(=O)c1ccc(-c3c4nc(c(-c5cccc(S(=O)(=O)[O-])c5F)c5ccc([nH]5)c(-c5cccc(S(=O)(=O)[O-])c5F)c5nc(c(-c6cccc(S(=O)(=O)[O-])c6F)c6ccc3[nH]6)C=C5)C=C4)cc1)=C2
REMARK SMILES IDX 30 1 29 2 28 3 27 4 26 5 24 6 25 7 23 8 5 9 6 10 16 11 7 12
REMARK SMILES IDX 15 13 17 14 14 15 101 16 18 17 4 18 3 19 2 20 1 21 8 22 9 23
REMARK SMILES IDX 10 24 11 25 12 26 13 27 19 28 20 29 21 30 22 31 31 32 32 33
REMARK SMILES IDX 33 34 34 35 35 36 36 37 37 38 38 39 39 40 100 41 40 42 99 43
REMARK SMILES IDX 41 44 42 45 43 46 93 47 44 48 98 49 92 50 94 51 45 52 97 53
REMARK SMILES IDX 91 54 90 55 46 57 78 58 58 59 77 60 59 61 62 62 76 63 95 64
REMARK SMILES IDX 60 65 61 66 75 68 96 69 63 70 47 71 48 72 56 73 49 74 51 75
REMARK SMILES IDX 57 76 50 77 52 78 53 79 54 80 55 81 79 82 80 83 88 84 81 85
REMARK SMILES IDX 83 86 89 87 82 88 84 89 85 90 86 91 87 92 64 93 65 94 73 95
REMARK SMILES IDX 66 96 68 97 74 98 67 99 69 100 70 101 71 102 72 103
REMARK H PARENT 94 56 62 67
REMARK Flexibility Score: inf
ROOT
ATOM      1  C   UNL A   1      35.248  21.323  26.011  1.00  0.00     0.188 C 
ENDROOT
BRANCH   1   2
ATOM      2  O   UNL A   1      33.871  21.079  25.763  1.00  0.00    -0.376 OA
BRANCH   2   3
ATOM      3  C   UNL A   1      33.694  20.702  24.405  1.00  0.00     0.202 C 
BRANCH   3   4
ATOM      4  C   UNL A   1      32.317  21.141  23.933  1.00  0.00     0.261 C 
BRANCH   4   5
ATOM      5  O   UNL A   1      32.158  22.532  24.165  1.00  0.00    -0.460 OA
BRANCH   5   6
ATOM      6  C   UNL A   1      32.450  23.462  23.131  1.00  0.00     0.338 C 
ATOM      7  O   UNL A   1      32.825  23.048  21.990  1.00  0.00    -0.246 OA
BRANCH   6   8
ATOM      8  C   UNL A   1      32.311  24.955  23.391  1.00  0.00     0.087 C 
ATOM      9  C   UNL A   1      31.861  28.928  24.596  1.00  0.00    -0.004 A 
ATOM     10  C   UNL A   1      30.760  29.655  24.180  1.00  0.00     0.032 A 
ATOM     11  C   UNL A   1      31.957  27.607  24.229  1.00  0.00     0.131 A 
ATOM     12  C   UNL A   1      29.779  29.074  23.421  1.00  0.00     0.108 A 
ATOM     13  C   UNL A   1      30.996  26.994  23.447  1.00  0.00     0.019 A 
ATOM     14  O   UNL A   1      32.996  26.871  24.742  1.00  0.00    -0.475 OA
ATOM     15  C   UNL A   1      29.899  27.751  23.050  1.00  0.00     0.036 A 
ATOM     16  C   UNL A   1      31.168  25.583  23.146  1.00  0.00     0.027 C 
ATOM     17  C   UNL A   1      33.483  25.760  23.938  1.00  0.00     0.316 C 
BRANCH   9  18
ATOM     18  C   UNL A   1      32.943  29.578  25.444  1.00  0.00     0.039 C 
BRANCH  18  19
ATOM     19  C   UNL A   1      32.553  29.498  26.911  1.00  0.00     0.005 C 
BRANCH  19  20
ATOM     20  C   UNL A   1      33.678  28.849  27.700  1.00  0.00    -0.003 C 
ATOM     21  C   UNL A   1      34.951  29.661  27.529  1.00  0.00     0.004 C 
ENDBRANCH  19  20
ENDBRANCH  18  19
ENDBRANCH   9  18
BRANCH  12  22
ATOM     22  S   UNL A   1      28.335  30.037  22.906  1.00  0.00     0.310 S 
ATOM     23  F   UNL A   1      28.300  29.338  21.481  1.00  0.00    -0.094 F 
ATOM     24  F   UNL A   1      29.303  31.110  22.278  1.00  0.00    -0.094 F 
ATOM     25  F   UNL A   1      27.091  30.859  22.464  1.00  0.00    -0.094 F 
ATOM     26  F   UNL A   1      27.382  28.884  23.413  1.00  0.00    -0.094 F 
ATOM     27  F   UNL A   1      29.586  29.137  23.258  1.00  0.00    -0.094 F 
ENDBRANCH  12  22
BRANCH  17  28
ATOM     28  C   UNL A   1      34.343  24.857  24.808  1.00  0.00     0.430 C 
ATOM     29  F   UNL A   1      34.974  23.973  24.040  1.00  0.00    -0.167 F 
ATOM     30  F   UNL A   1      35.235  25.593  25.462  1.00  0.00    -0.167 F 
ATOM     31  F   UNL A   1      33.571  24.215  25.680  1.00  0.00    -0.167 F 
ENDBRANCH  17  28
ENDBRANCH   6   8
ENDBRANCH   5   6
ENDBRANCH   4   5
ENDBRANCH   3   4
ENDBRANCH   2   3
ENDBRANCH   1   2
BRANCH   1  32
ATOM     32  C   UNL A   1      36.067  20.861  24.816  1.00  0.00     0.188 C 
BRANCH  32  33
ATOM     33  O   UNL A   1      37.004  19.881  25.236  1.00  0.00    -0.376 OA
BRANCH  33  34
ATOM     34  C   UNL A   1      38.316  20.301  24.892  1.00  0.00     0.202 C 
BRANCH  34  35
ATOM     35  C   UNL A   1      39.263  20.002  26.044  1.00  0.00     0.261 C 
BRANCH  35  36
ATOM     36  O   UNL A   1      40.223  19.042  25.629  1.00  0.00    -0.460 OA
BRANCH  36  37
ATOM     37  C   UNL A   1      41.591  19.213  25.968  1.00  0.00     0.338 C 
ATOM     38  O   UNL A   1      42.366  18.206  26.013  1.00  0.00    -0.246 OA
BRANCH  37  39
ATOM     39  C   UNL A   1      42.131  20.600  26.277  1.00  0.00     0.060 A 
ATOM     40  C   UNL A   1      42.367  20.958  27.593  1.00  0.00     0.016 A 
ATOM     41  C   UNL A   1      42.367  21.444  25.279  1.00  0.00     0.016 A 
ATOM     42  C   UNL A   1      42.584  22.345  27.779  1.00  0.00     0.010 A 
ATOM     43  C   UNL A   1      42.707  22.750  25.534  1.00  0.00     0.010 A 
ATOM     44  C   UNL A   1      42.900  23.190  26.815  1.00  0.00    -0.014 A 
BRANCH  44  45
ATOM     45  C   UNL A   1      43.448  24.576  27.112  1.00  0.00     0.031 A 
ATOM     46  C   UNL A   1      42.559  25.549  27.570  1.00  0.00     0.074 A 
ATOM     47  C   UNL A   1      44.799  24.797  26.909  1.00  0.00     0.049 A 
ATOM     48  N   UNL A   1      42.836  26.807  27.917  1.00  0.00    -0.248 NA
ATOM     49  C   UNL A   1      41.117  25.327  27.754  1.00  0.00     0.031 C 
ATOM     50  C   UNL A   1      45.705  23.818  26.455  1.00  0.00     0.029 A 
ATOM     51  N   UNL A   1      45.503  25.965  27.100  1.00  0.00    -0.354 N 
ATOM     52  C   UNL A   1      41.728  27.429  28.324  1.00  0.00     0.074 A 
ATOM     53  C   UNL A   1      40.605  26.487  28.219  1.00  0.00     0.031 C 
ATOM     54  C   UNL A   1      46.934  24.390  26.362  1.00  0.00     0.029 A 
ATOM     55  C   UNL A   1      46.817  25.737  26.758  1.00  0.00     0.049 A 
ATOM     56  H   UNL A   1      45.130  26.816  27.426  1.00  0.00     0.167 HD
ATOM     57  C   UNL A   1      41.610  28.742  28.781  1.00  0.00     0.034 A 
ATOM     58  C   UNL A   1      47.869  26.638  26.781  1.00  0.00     0.034 A 
ATOM     59  C   UNL A   1      42.671  29.631  28.845  1.00  0.00     0.049 A 
ATOM     60  C   UNL A   1      47.740  27.970  27.182  1.00  0.00     0.074 A 
ATOM     61  C   UNL A   1      42.570  30.956  29.310  1.00  0.00     0.029 A 
ATOM     62  N   UNL A   1      43.980  29.410  28.479  1.00  0.00    -0.354 N 
ATOM     63  N   UNL A   1      46.640  28.580  27.627  1.00  0.00    -0.248 NA
ATOM     64  C   UNL A   1      48.840  28.944  27.180  1.00  0.00     0.031 C 
ATOM     65  C   UNL A   1      43.800  31.530  29.218  1.00  0.00     0.029 A 
ATOM     66  C   UNL A   1      44.688  30.572  28.692  1.00  0.00     0.049 A 
ATOM     67  H   UNL A   1      44.346  28.567  28.127  1.00  0.00     0.167 HD
ATOM     68  C   UNL A   1      46.910  29.850  27.935  1.00  0.00     0.074 A 
ATOM     69  C   UNL A   1      48.328  30.104  27.644  1.00  0.00     0.031 C 
ATOM     70  C   UNL A   1      46.033  30.806  28.448  1.00  0.00     0.034 A 
BRANCH  57  71
ATOM     71  C   UNL A   1      40.241  29.224  29.233  1.00  0.00     0.023 A 
ATOM     72  C   UNL A   1      39.442  29.857  28.295  1.00  0.00     0.012 A 
ATOM     73  C   UNL A   1      39.792  28.962  30.455  1.00  0.00     0.148 A 
ATOM     74  C   UNL A   1      38.271  30.437  28.836  1.00  0.00     0.002 A 
ATOM     75  C   UNL A   1      38.576  29.446  30.872  1.00  0.00     0.091 A 
ATOM     76  F   UNL A   1      40.525  28.223  31.282  1.00  0.00    -0.205 F 
ATOM     77  C   UNL A   1      37.759  30.131  30.015  1.00  0.00     0.022 A 
BRANCH  75  78
ATOM     78  S   UNL A   1      38.046  29.174  32.582  1.00  0.00     0.127 S 
ATOM     79  O   UNL A   1      37.763  27.685  32.797  1.00  0.00    -0.237 OA
ATOM     80  O   UNL A   1      39.153  29.626  33.537  1.00  0.00    -0.237 OA
ATOM     81  O   UNL A   1      36.625  30.074  32.888  1.00  0.00    -0.744 OA
ENDBRANCH  75  78
ENDBRANCH  57  71
BRANCH  58  82
ATOM     82  C   UNL A   1      49.241  26.152  26.344  1.00  0.00     0.023 A 
ATOM     83  C   UNL A   1      49.996  25.370  27.204  1.00  0.00     0.012 A 
ATOM     84  C   UNL A   1      49.732  26.572  25.184  1.00  0.00     0.148 A 
ATOM     85  C   UNL A   1      51.372  25.324  26.878  1.00  0.00     0.002 A 
ATOM     86  C   UNL A   1      51.056  26.373  24.872  1.00  0.00     0.091 A 
ATOM     87  F   UNL A   1      48.937  27.191  24.317  1.00  0.00    -0.205 F 
ATOM     88  C   UNL A   1      51.875  25.660  25.703  1.00  0.00     0.022 A 
BRANCH  86  89
ATOM     89  S   UNL A   1      51.725  27.064  23.339  1.00  0.00     0.127 S 
ATOM     90  O   UNL A   1      52.147  28.516  23.575  1.00  0.00    -0.237 OA
ATOM     91  O   UNL A   1      52.939  26.245  22.897  1.00  0.00    -0.237 OA
ATOM     92  O   UNL A   1      50.526  27.011  22.120  1.00  0.00    -0.744 OA
ENDBRANCH  86  89
ENDBRANCH  58  82
BRANCH  70  93
ATOM     93  C   UNL A   1      46.585  32.188  28.759  1.00  0.00     0.023 A 
ATOM     94  C   UNL A   1      47.023  32.471  30.041  1.00  0.00     0.012 A 
ATOM     95  C   UNL A   1      46.639  33.101  27.795  1.00  0.00     0.148 A 
ATOM     96  C   UNL A   1      47.237  33.849  30.283  1.00  0.00     0.002 A 
ATOM     97  C   UNL A   1      46.987  34.399  28.079  1.00  0.00     0.091 A 
ATOM     98  F   UNL A   1      46.351  32.754  26.543  1.00  0.00    -0.205 F 
ATOM     99  C   UNL A   1      47.375  34.763  29.339  1.00  0.00     0.022 A 
BRANCH  97 100
ATOM    100  S   UNL A   1      46.932  35.644  26.768  1.00  0.00     0.127 S 
ATOM    101  O   UNL A   1      45.555  36.311  26.755  1.00  0.00    -0.237 OA
ATOM    102  O   UNL A   1      48.008  36.702  27.024  1.00  0.00    -0.237 OA
ATOM    103  O   UNL A   1      47.216  34.895  25.257  1.00  0.00    -0.744 OA
ENDBRANCH  97 100
ENDBRANCH  70  93
ENDBRANCH  44  45
ENDBRANCH  37  39
ENDBRANCH  36  37
ENDBRANCH  35  36
ENDBRANCH  34  35
ENDBRANCH  33  34
ENDBRANCH  32  33
ENDBRANCH   1  32
TORSDOF 25
ENDMDL
MODEL 2
REMARK VINA RESULT:     -10.5      2.525      7.770
REMARK SMILES CCCCc1cc(S(F)(F)(F)(F)F)cc2c1O[C@@H](C(F)(F)F)C(C(=O)OCCOCCOCCOC(=O)c1ccc(-c3c4nc(c(-c5cccc(S(=O)(=O)[O-])c5F)c5ccc([nH]5)c(-c5cccc(S(=O)(=O)[O-])c5F)c5nc(c(-c6cccc(S(=O)(=O)[O-])c6F)c6ccc3[nH]6)C=C5)C=C4)cc1)=C2
REMARK SMILES IDX 30 1 29 2 28 3 27 4 26 5 24 6 25 7 23 8 5 9 6 10 16 11 7 12
REMARK SMILES IDX 15 13 17 14 14 15 101 16 18 17 4 18 3 19 2 20 1 21 8 22 9 23
REMARK SMILES IDX 10 24 11 25 12 26 13 27 19 28 20 29 21 30 22 31 31 32 32 33
REMARK SMILES IDX 33 34 34 35 35 36 36 37 37 38 38 39 39 40 100 41 40 42 99 43
REMARK SMILES IDX 41 44 42 45 43 46 93 47 44 48 98 49 92 50 94 51 45 52 97 53
REMARK SMILES IDX 91 54 90 55 46 57 78 58 58 59 77 60 59 61 62 62 76 63 95 64
REMARK SMILES IDX 60 65 61 66 75 68 96 69 63 70 47 71 48 72 56 73 49 74 51 75
REMARK SMILES IDX 57 76 50 77 52 78 53 79 54 80 55 81 79 82 80 83 88 84 81 85
REMARK SMILES IDX 83 86 89 87 82 88 84 89 85 90 86 91 87 92 64 93 65 94 73 95
REMARK SMILES IDX 66 96 68 97 74 98 67 99 69 100 70 101 71 102 72 103
REMARK H PARENT 94 56 62 67
REMARK Flexibility Score: inf
ROOT
ATOM      1  C   UNL A   1      40.169  21.798  26.337  1.00  0.00     0.188 C 
ENDROOT
BRANCH   1   2
ATOM      2  O   UNL A   1      39.011  21.126  25.862  1.00  0.00    -0.376 OA
BRANCH   2   3
ATOM      3  C   UNL A   1      37.983  22.075  25.612  1.00  0.00     0.202 C 
BRANCH   3   4
ATOM      4  C   UNL A   1      36.977  21.486  24.635  1.00  0.00     0.261 C 
BRANCH   4   5
ATOM      5  O   UNL A   1      35.956  22.438  24.378  1.00  0.00    -0.460 OA
BRANCH   5   6
ATOM      6  C   UNL A   1      34.813  22.499  25.219  1.00  0.00     0.338 C 
ATOM      7  O   UNL A   1      34.482  21.488  25.915  1.00  0.00    -0.246 OA
BRANCH   6   8
ATOM      8  C   UNL A   1      33.986  23.773  25.286  1.00  0.00     0.087 C 
ATOM      9  C   UNL A   1      31.800  27.318  24.968  1.00  0.00    -0.004 A 
ATOM     10  C   UNL A   1      32.261  28.471  25.578  1.00  0.00     0.032 A 
ATOM     11  C   UNL A   1      32.566  26.179  25.044  1.00  0.00     0.131 A 
ATOM     12  C   UNL A   1      33.459  28.484  26.243  1.00  0.00     0.108 A 
ATOM     13  C   UNL A   1      33.770  26.152  25.722  1.00  0.00     0.019 A 
ATOM     14  O   UNL A   1      32.150  25.076  24.340  1.00  0.00    -0.475 OA
ATOM     15  C   UNL A   1      34.208  27.328  26.320  1.00  0.00     0.036 A 
ATOM     16  C   UNL A   1      34.525  24.909  25.711  1.00  0.00     0.027 C 
ATOM     17  C   UNL A   1      32.521  23.772  24.868  1.00  0.00     0.316 C 
BRANCH   9  18
ATOM     18  C   UNL A   1      30.472  27.311  24.228  1.00  0.00     0.039 C 
BRANCH  18  19
ATOM     19  C   UNL A   1      30.289  28.636  23.505  1.00  0.00     0.005 C 
BRANCH  19  20
ATOM     20  C   UNL A   1      29.196  28.496  22.459  1.00  0.00    -0.003 C 
ATOM     21  C   UNL A   1      27.860  28.886  23.067  1.00  0.00     0.004 C 
ENDBRANCH  19  20
ENDBRANCH  18  19
ENDBRANCH   9  18
BRANCH  12  22
ATOM     22  S   UNL A   1      34.056  30.009  27.015  1.00  0.00     0.310 S 
ATOM     23  F   UNL A   1      34.426  29.255  28.361  1.00  0.00    -0.094 F 
ATOM     24  F   UNL A   1      32.619  30.238  27.619  1.00  0.00    -0.094 F 
ATOM     25  F   UNL A   1      34.574  31.317  27.677  1.00  0.00    -0.094 F 
ATOM     26  F   UNL A   1      35.522  29.689  26.519  1.00  0.00    -0.094 F 
ATOM     27  F   UNL A   1      33.573  28.621  26.433  1.00  0.00    -0.094 F 
ENDBRANCH  12  22
BRANCH  17  28
ATOM     28  C   UNL A   1      32.314  22.722  23.789  1.00  0.00     0.430 C 
ATOM     29  F   UNL A   1      32.042  21.550  24.358  1.00  0.00    -0.167 F 
ATOM     30  F   UNL A   1      31.299  23.083  23.010  1.00  0.00    -0.167 F 
ATOM     31  F   UNL A   1      33.419  22.613  23.057  1.00  0.00    -0.167 F 
ENDBRANCH  17  28
ENDBRANCH   6   8
ENDBRANCH   5   6
ENDBRANCH   4   5
ENDBRANCH   3   4
ENDBRANCH   2   3
ENDBRANCH   1   2
BRANCH   1  32
ATOM     32  C   UNL A   1      40.816  20.974  27.440  1.00  0.00     0.188 C 
BRANCH  32  33
ATOM     33  O   UNL A   1      42.147  20.650  27.068  1.00  0.00    -0.376 OA
BRANCH  33  34
ATOM     34  C   UNL A   1      42.298  19.238  27.029  1.00  0.00     0.202 C 
BRANCH  34  35
ATOM     35  C   UNL A   1      42.575  18.797  25.601  1.00  0.00     0.261 C 
BRANCH  35  36
ATOM     36  O   UNL A   1      43.968  18.880  25.342  1.00  0.00    -0.460 OA
BRANCH  36  37
ATOM     37  C   UNL A   1      44.468  19.869  24.453  1.00  0.00     0.338 C 
ATOM     38  O   UNL A   1      44.745  19.562  23.251  1.00  0.00    -0.246 OA
BRANCH  37  39
ATOM     39  C   UNL A   1      44.671  21.295  24.939  1.00  0.00     0.060 A 
ATOM     40  C   UNL A   1      45.393  21.521  26.099  1.00  0.00     0.016 A 
ATOM     41  C   UNL A   1      44.153  22.300  24.242  1.00  0.00     0.016 A 
ATOM     42  C   UNL A   1      45.269  22.837  26.603  1.00  0.00     0.010 A 
ATOM     43  C   UNL A   1      44.187  23.582  24.734  1.00  0.00     0.010 A 
ATOM     44  C   UNL A   1      44.833  23.870  25.905  1.00  0.00    -0.014 A 
BRANCH  44  45
ATOM     45  C   UNL A   1      45.037  25.300  26.377  1.00  0.00     0.031 A 
ATOM     46  C   UNL A   1      46.323  25.837  26.306  1.00  0.00     0.074 A 
ATOM     47  C   UNL A   1      43.935  25.990  26.853  1.00  0.00     0.049 A 
ATOM     48  N   UNL A   1      46.710  27.071  26.636  1.00  0.00    -0.248 NA
ATOM     49  C   UNL A   1      47.501  25.095  25.833  1.00  0.00     0.031 C 
ATOM     50  C   UNL A   1      42.633  25.458  26.920  1.00  0.00     0.029 A 
ATOM     51  N   UNL A   1      43.890  27.278  27.338  1.00  0.00    -0.354 N 
ATOM     52  C   UNL A   1      48.017  27.220  26.413  1.00  0.00     0.074 A 
ATOM     53  C   UNL A   1      48.546  25.949  25.899  1.00  0.00     0.031 C 
ATOM     54  C   UNL A   1      41.816  26.407  27.448  1.00  0.00     0.029 A 
ATOM     55  C   UNL A   1      42.594  27.549  27.719  1.00  0.00     0.049 A 
ATOM     56  H   UNL A   1      44.652  27.899  27.400  1.00  0.00     0.167 HD
ATOM     57  C   UNL A   1      48.787  28.365  26.615  1.00  0.00     0.034 A 
ATOM     58  C   UNL A   1      42.100  28.718  28.275  1.00  0.00     0.034 A 
ATOM     59  C   UNL A   1      48.284  29.549  27.131  1.00  0.00     0.049 A 
ATOM     60  C   UNL A   1      42.883  29.845  28.533  1.00  0.00     0.074 A 
ATOM     61  C   UNL A   1      49.045  30.715  27.335  1.00  0.00     0.029 A 
ATOM     62  N   UNL A   1      46.994  29.811  27.535  1.00  0.00    -0.354 N 
ATOM     63  N   UNL A   1      44.182  30.007  28.273  1.00  0.00    -0.248 NA
ATOM     64  C   UNL A   1      42.377  31.078  29.152  1.00  0.00     0.031 C 
ATOM     65  C   UNL A   1      48.229  31.666  27.863  1.00  0.00     0.029 A 
ATOM     66  C   UNL A   1      46.943  31.108  27.999  1.00  0.00     0.049 A 
ATOM     67  H   UNL A   1      46.238  29.181  27.499  1.00  0.00     0.167 HD
ATOM     68  C   UNL A   1      44.576  31.227  28.641  1.00  0.00     0.074 A 
ATOM     69  C   UNL A   1      43.422  31.931  29.220  1.00  0.00     0.031 C 
ATOM     70  C   UNL A   1      45.849  31.784  28.516  1.00  0.00     0.034 A 
BRANCH  57  71
ATOM     71  C   UNL A   1      50.262  28.313  26.250  1.00  0.00     0.023 A 
ATOM     72  C   UNL A   1      50.606  28.578  24.934  1.00  0.00     0.012 A 
ATOM     73  C   UNL A   1      51.191  28.116  27.178  1.00  0.00     0.148 A 
ATOM     74  C   UNL A   1      51.966  28.330  24.635  1.00  0.00     0.002 A 
ATOM     75  C   UNL A   1      52.517  28.020  26.831  1.00  0.00     0.091 A 
ATOM     76  F   UNL A   1      50.835  28.014  28.455  1.00  0.00    -0.205 F 
ATOM     77  C   UNL A   1      52.922  28.212  25.538  1.00  0.00     0.022 A 
BRANCH  75  78
ATOM     78  S   UNL A   1      53.746  27.632  28.102  1.00  0.00     0.127 S 
ATOM     79  O   UNL A   1      53.809  28.776  29.117  1.00  0.00    -0.237 OA
ATOM     80  O   UNL A   1      53.349  26.337  28.816  1.00  0.00    -0.237 OA
ATOM     81  O   UNL A   1      55.278  27.433  27.371  1.00  0.00    -0.744 OA
ENDBRANCH  75  78
ENDBRANCH  57  71
BRANCH  58  82
ATOM     82  C   UNL A   1      40.622  28.776  28.626  1.00  0.00     0.023 A 
ATOM     83  C   UNL A   1      39.694  29.058  27.636  1.00  0.00     0.012 A 
ATOM     84  C   UNL A   1      40.258  28.657  29.897  1.00  0.00     0.148 A 
ATOM     85  C   UNL A   1      38.440  29.485  28.131  1.00  0.00     0.002 A 
ATOM     86  C   UNL A   1      38.977  28.963  30.290  1.00  0.00     0.091 A 
ATOM     87  F   UNL A   1      41.141  28.240  30.799  1.00  0.00    -0.205 F 
ATOM     88  C   UNL A   1      38.023  29.305  29.372  1.00  0.00     0.022 A 
BRANCH  86  89
ATOM     89  S   UNL A   1      38.545  28.908  32.046  1.00  0.00     0.127 S 
ATOM     90  O   UNL A   1      38.543  27.455  32.526  1.00  0.00    -0.237 OA
ATOM     91  O   UNL A   1      39.571  29.709  32.850  1.00  0.00    -0.237 OA
ATOM     92  O   UNL A   1      36.989  29.584  32.272  1.00  0.00    -0.744 OA
ENDBRANCH  86  89
ENDBRANCH  58  82
BRANCH  70  93
ATOM     93  C   UNL A   1      46.050  33.219  28.976  1.00  0.00     0.023 A 
ATOM     94  C   UNL A   1      46.434  33.466  30.283  1.00  0.00     0.012 A 
ATOM     95  C   UNL A   1      45.855  34.213  28.115  1.00  0.00     0.148 A 
ATOM     96  C   UNL A   1      46.306  34.821  30.672  1.00  0.00     0.002 A 
ATOM     97  C   UNL A   1      45.878  35.519  28.539  1.00  0.00     0.091 A 
ATOM     98  F   UNL A   1      45.634  33.939  26.832  1.00  0.00    -0.205 F 
ATOM     99  C   UNL A   1      46.193  35.834  29.832  1.00  0.00     0.022 A 
BRANCH  97 100
ATOM    100  S   UNL A   1      45.489  36.843  27.369  1.00  0.00     0.127 S 
ATOM    101  O   UNL A   1      44.090  36.617  26.791  1.00  0.00    -0.237 OA
ATOM    102  O   UNL A   1      45.530  38.192  28.091  1.00  0.00    -0.237 OA
ATOM    103  O   UNL A   1      46.636  36.840  26.101  1.00  0.00    -0.744 OA
ENDBRANCH  97 100
ENDBRANCH  70  93
ENDBRANCH  44  45
ENDBRANCH  37  39
ENDBRANCH  36  37
ENDBRANCH  35  36
ENDBRANCH  34  35
ENDBRANCH  33  34
ENDBRANCH  32  33
ENDBRANCH   1  32
TORSDOF 25
ENDMDL
MODEL 3
REMARK VINA RESULT:     -10.4      4.542      5.816
REMARK SMILES CCCCc1cc(S(F)(F)(F)(F)F)cc2c1O[C@@H](C(F)(F)F)C(C(=O)OCCOCCOCCOC(=O)c1ccc(-c3c4nc(c(-c5cccc(S(=O)(=O)[O-])c5F)c5ccc([nH]5)c(-c5cccc(S(=O)(=O)[O-])c5F)c5nc(c(-c6cccc(S(=O)(=O)[O-])c6F)c6ccc3[nH]6)C=C5)C=C4)cc1)=C2
REMARK SMILES IDX 30 1 29 2 28 3 27 4 26 5 24 6 25 7 23 8 5 9 6 10 16 11 7 12
REMARK SMILES IDX 15 13 17 14 14 15 101 16 18 17 4 18 3 19 2 20 1 21 8 22 9 23
REMARK SMILES IDX 10 24 11 25 12 26 13 27 19 28 20 29 21 30 22 31 31 32 32 33
REMARK SMILES IDX 33 34 34 35 35 36 36 37 37 38 38 39 39 40 100 41 40 42 99 43
REMARK SMILES IDX 41 44 42 45 43 46 93 47 44 48 98 49 92 50 94 51 45 52 97 53
REMARK SMILES IDX 91 54 90 55 46 57 78 58 58 59 77 60 59 61 62 62 76 63 95 64
REMARK SMILES IDX 60 65 61 66 75 68 96 69 63 70 47 71 48 72 56 73 49 74 51 75
REMARK SMILES IDX 57 76 50 77 52 78 53 79 54 80 55 81 79 82 80 83 88 84 81 85
REMARK SMILES IDX 83 86 89 87 82 88 84 89 85 90 86 91 87 92 64 93 65 94 73 95
REMARK SMILES IDX 66 96 68 97 74 98 67 99 69 100 70 101 71 102 72 103
REMARK H PARENT 94 56 62 67
REMARK Flexibility Score: inf
ROOT
ATOM      1  C   UNL A   1      35.194  20.819  24.963  1.00  0.00     0.188 C 
ENDROOT
BRANCH   1   2
ATOM      2  O   UNL A   1      34.026  20.246  24.392  1.00  0.00    -0.376 OA
BRANCH   2   3
ATOM      3  C   UNL A   1      32.966  21.191  24.438  1.00  0.00     0.202 C 
BRANCH   3   4
ATOM      4  C   UNL A   1      32.500  21.498  23.023  1.00  0.00     0.261 C 
BRANCH   4   5
ATOM      5  O   UNL A   1      31.940  22.802  22.983  1.00  0.00    -0.460 OA
BRANCH   5   6
ATOM      6  C   UNL A   1      32.738  23.906  22.579  1.00  0.00     0.338 C 
ATOM      7  O   UNL A   1      33.698  23.731  21.764  1.00  0.00    -0.246 OA
BRANCH   6   8
ATOM      8  C   UNL A   1      32.443  25.296  23.121  1.00  0.00     0.087 C 
ATOM      9  C   UNL A   1      31.391  28.877  24.995  1.00  0.00    -0.004 A 
ATOM     10  C   UNL A   1      30.488  29.733  24.390  1.00  0.00     0.032 A 
ATOM     11  C   UNL A   1      31.679  27.681  24.381  1.00  0.00     0.131 A 
ATOM     12  C   UNL A   1      29.885  29.399  23.206  1.00  0.00     0.108 A 
ATOM     13  C   UNL A   1      31.104  27.319  23.177  1.00  0.00     0.019 A 
ATOM     14  O   UNL A   1      32.489  26.795  25.048  1.00  0.00    -0.475 OA
ATOM     15  C   UNL A   1      30.197  28.200  22.599  1.00  0.00     0.036 A 
ATOM     16  C   UNL A   1      31.443  26.017  22.630  1.00  0.00     0.027 C 
ATOM     17  C   UNL A   1      33.291  25.890  24.238  1.00  0.00     0.316 C 
BRANCH   9  18
ATOM     18  C   UNL A   1      32.052  29.252  26.311  1.00  0.00     0.039 C 
BRANCH  18  19
ATOM     19  C   UNL A   1      32.851  30.533  26.129  1.00  0.00     0.005 C 
BRANCH  19  20
ATOM     20  C   UNL A   1      33.887  30.646  27.235  1.00  0.00    -0.003 C 
ATOM     21  C   UNL A   1      34.686  29.356  27.315  1.00  0.00     0.004 C 
ENDBRANCH  19  20
ENDBRANCH  18  19
ENDBRANCH   9  18
BRANCH  12  22
ATOM     22  S   UNL A   1      28.689  30.523  22.443  1.00  0.00     0.310 S 
ATOM     23  F   UNL A   1      27.941  29.329  21.712  1.00  0.00    -0.094 F 
ATOM     24  F   UNL A   1      29.623  30.621  21.178  1.00  0.00    -0.094 F 
ATOM     25  F   UNL A   1      27.657  31.486  21.791  1.00  0.00    -0.094 F 
ATOM     26  F   UNL A   1      27.702  30.300  23.656  1.00  0.00    -0.094 F 
ATOM     27  F   UNL A   1      29.673  29.454  23.067  1.00  0.00    -0.094 F 
ENDBRANCH  12  22
BRANCH  17  28
ATOM     28  C   UNL A   1      33.811  24.765  25.118  1.00  0.00     0.430 C 
ATOM     29  F   UNL A   1      34.511  25.279  26.126  1.00  0.00    -0.167 F 
ATOM     30  F   UNL A   1      32.785  24.070  25.600  1.00  0.00    -0.167 F 
ATOM     31  F   UNL A   1      34.592  23.964  24.400  1.00  0.00    -0.167 F 
ENDBRANCH  17  28
ENDBRANCH   6   8
ENDBRANCH   5   6
ENDBRANCH   4   5
ENDBRANCH   3   4
ENDBRANCH   2   3
ENDBRANCH   1   2
BRANCH   1  32
ATOM     32  C   UNL A   1      36.320  19.796  24.947  1.00  0.00     0.188 C 
BRANCH  32  33
ATOM     33  O   UNL A   1      37.543  20.445  24.634  1.00  0.00    -0.376 OA
BRANCH  33  34
ATOM     34  C   UNL A   1      37.861  21.376  25.658  1.00  0.00     0.202 C 
BRANCH  34  35
ATOM     35  C   UNL A   1      39.327  21.236  26.035  1.00  0.00     0.261 C 
BRANCH  35  36
ATOM     36  O   UNL A   1      39.908  22.525  26.165  1.00  0.00    -0.460 OA
BRANCH  36  37
ATOM     37  C   UNL A   1      39.079  23.678  26.187  1.00  0.00     0.338 C 
ATOM     38  O   UNL A   1      38.012  23.707  25.496  1.00  0.00    -0.246 OA
BRANCH  37  39
ATOM     39  C   UNL A   1      39.467  24.877  27.037  1.00  0.00     0.060 A 
ATOM     40  C   UNL A   1      39.115  24.903  28.376  1.00  0.00     0.016 A 
ATOM     41  C   UNL A   1      40.139  25.880  26.481  1.00  0.00     0.016 A 
ATOM     42  C   UNL A   1      39.267  26.172  28.984  1.00  0.00     0.010 A 
ATOM     43  C   UNL A   1      40.369  27.039  27.180  1.00  0.00     0.010 A 
ATOM     44  C   UNL A   1      39.995  27.157  28.490  1.00  0.00    -0.014 A 
BRANCH  44  45
ATOM     45  C   UNL A   1      40.396  28.356  29.334  1.00  0.00     0.031 A 
ATOM     46  C   UNL A   1      39.492  29.413  29.443  1.00  0.00     0.074 A 
ATOM     47  C   UNL A   1      41.639  28.334  29.944  1.00  0.00     0.049 A 
ATOM     48  N   UNL A   1      39.632  30.534  30.152  1.00  0.00    -0.248 NA
ATOM     49  C   UNL A   1      38.187  29.454  28.768  1.00  0.00     0.031 C 
ATOM     50  C   UNL A   1      42.554  27.267  29.845  1.00  0.00     0.029 A 
ATOM     51  N   UNL A   1      42.209  29.306  30.736  1.00  0.00    -0.354 N 
ATOM     52  C   UNL A   1      38.547  31.300  30.025  1.00  0.00     0.074 A 
ATOM     53  C   UNL A   1      37.604  30.619  29.128  1.00  0.00     0.031 C 
ATOM     54  C   UNL A   1      43.664  27.596  30.557  1.00  0.00     0.029 A 
ATOM     55  C   UNL A   1      43.461  28.873  31.114  1.00  0.00     0.049 A 
ATOM     56  H   UNL A   1      41.793  30.161  30.989  1.00  0.00     0.167 HD
ATOM     57  C   UNL A   1      38.305  32.537  30.623  1.00  0.00     0.034 A 
ATOM     58  C   UNL A   1      44.388  29.540  31.898  1.00  0.00     0.034 A 
ATOM     59  C   UNL A   1      39.216  33.185  31.443  1.00  0.00     0.049 A 
ATOM     60  C   UNL A   1      44.170  30.805  32.449  1.00  0.00     0.074 A 
ATOM     61  C   UNL A   1      38.986  34.429  32.060  1.00  0.00     0.029 A 
ATOM     62  N   UNL A   1      40.477  32.764  31.800  1.00  0.00    -0.354 N 
ATOM     63  N   UNL A   1      43.069  31.553  32.354  1.00  0.00    -0.248 NA
ATOM     64  C   UNL A   1      45.158  31.536  33.254  1.00  0.00     0.031 C 
ATOM     65  C   UNL A   1      40.096  34.759  32.773  1.00  0.00     0.029 A 
ATOM     66  C   UNL A   1      41.039  33.726  32.612  1.00  0.00     0.049 A 
ATOM     67  H   UNL A   1      40.905  31.921  31.525  1.00  0.00     0.167 HD
ATOM     68  C   UNL A   1      43.227  32.692  33.030  1.00  0.00     0.074 A 
ATOM     69  C   UNL A   1      44.576  32.701  33.613  1.00  0.00     0.031 C 
ATOM     70  C   UNL A   1      42.299  33.723  33.187  1.00  0.00     0.034 A 
BRANCH  57  71
ATOM     71  C   UNL A   1      36.969  33.212  30.363  1.00  0.00     0.023 A 
ATOM     72  C   UNL A   1      36.672  33.563  29.055  1.00  0.00     0.012 A 
ATOM     73  C   UNL A   1      36.080  33.371  31.336  1.00  0.00     0.148 A 
ATOM     74  C   UNL A   1      35.502  34.346  28.923  1.00  0.00     0.002 A 
ATOM     75  C   UNL A   1      34.896  34.027  31.103  1.00  0.00     0.091 A 
ATOM     76  F   UNL A   1      36.337  32.888  32.548  1.00  0.00    -0.205 F 
ATOM     77  C   UNL A   1      34.564  34.454  29.846  1.00  0.00     0.022 A 
BRANCH  75  78
ATOM     78  S   UNL A   1      33.759  34.334  32.477  1.00  0.00     0.127 S 
ATOM     79  O   UNL A   1      32.515  35.058  31.959  1.00  0.00    -0.237 OA
ATOM     80  O   UNL A   1      33.348  33.000  33.106  1.00  0.00    -0.237 OA
ATOM     81  O   UNL A   1      34.535  35.303  33.652  1.00  0.00    -0.744 OA
ENDBRANCH  75  78
ENDBRANCH  57  71
BRANCH  58  82
ATOM     82  C   UNL A   1      45.718  28.858  32.172  1.00  0.00     0.023 A 
ATOM     83  C   UNL A   1      46.789  29.077  31.321  1.00  0.00     0.012 A 
ATOM     84  C   UNL A   1      45.798  27.983  33.168  1.00  0.00     0.148 A 
ATOM     85  C   UNL A   1      47.813  28.106  31.426  1.00  0.00     0.002 A 
ATOM     86  C   UNL A   1      46.890  27.158  33.289  1.00  0.00     0.091 A 
ATOM     87  F   UNL A   1      44.811  27.904  34.056  1.00  0.00    -0.205 F 
ATOM     88  C   UNL A   1      47.959  27.279  32.446  1.00  0.00     0.022 A 
BRANCH  86  89
ATOM     89  S   UNL A   1      46.914  25.893  34.583  1.00  0.00     0.127 S 
ATOM     90  O   UNL A   1      45.902  24.796  34.243  1.00  0.00    -0.237 OA
ATOM     91  O   UNL A   1      48.314  25.284  34.676  1.00  0.00    -0.237 OA
ATOM     92  O   UNL A   1      46.501  26.605  36.083  1.00  0.00    -0.744 OA
ENDBRANCH  86  89
ENDBRANCH  58  82
BRANCH  70  93
ATOM     93  C   UNL A   1      42.696  34.916  34.043  1.00  0.00     0.023 A 
ATOM     94  C   UNL A   1      42.583  34.831  35.420  1.00  0.00     0.012 A 
ATOM     95  C   UNL A   1      43.147  36.019  33.455  1.00  0.00     0.148 A 
ATOM     96  C   UNL A   1      42.697  36.077  36.082  1.00  0.00     0.002 A 
ATOM     97  C   UNL A   1      43.366  37.161  34.186  1.00  0.00     0.091 A 
ATOM     98  F   UNL A   1      43.386  36.017  32.146  1.00  0.00    -0.205 F 
ATOM     99  C   UNL A   1      43.217  37.166  35.545  1.00  0.00     0.022 A 
BRANCH  97 100
ATOM    100  S   UNL A   1      43.862  38.680  33.338  1.00  0.00     0.127 S 
ATOM    101  O   UNL A   1      42.827  39.775  33.605  1.00  0.00    -0.237 OA
ATOM    102  O   UNL A   1      45.228  39.133  33.859  1.00  0.00    -0.237 OA
ATOM    103  O   UNL A   1      43.961  38.389  31.655  1.00  0.00    -0.744 OA
ENDBRANCH  97 100
ENDBRANCH  70  93
ENDBRANCH  44  45
ENDBRANCH  37  39
ENDBRANCH  36  37
ENDBRANCH  35  36
ENDBRANCH  34  35
ENDBRANCH  33  34
ENDBRANCH  32  33
ENDBRANCH   1  32
TORSDOF 25
ENDMDL
