MODEL 1
REMARK VINA RESULT:      -8.5      0.000      0.000
REMARK SMILES CC(C)CCc1cc2c(cc1Cl)C=C(C(=O)OCCOCCOCCOC(=O)c1ccc(-c3c4nc(c(-c5cccc(S(=O)(=O)[O-])c5F)c5ccc([nH]5)c(-c5cccc(S(=O)(=O)[O-])c5F)c5nc(c(-c6cccc(S(=O)(=O)[O-])c6F)c6ccc3[nH]6)C=C5)C=C4)cc1)[C@H](C(F)(F)F)O2
REMARK SMILES IDX 21 1 20 2 19 3 18 4 17 5 15 6 16 7 14 8 6 9 7 10 11 11 8 12
REMARK SMILES IDX 10 13 12 14 9 15 97 16 13 17 92 18 5 19 4 20 2 21 1 22 3 23
REMARK SMILES IDX 93 24 94 25 95 26 96 27 22 28 23 29 24 30 25 31 26 32 27 33
REMARK SMILES IDX 28 34 29 35 30 36 91 37 31 38 90 39 32 40 33 41 34 42 84 43
REMARK SMILES IDX 35 44 89 45 83 46 85 47 36 48 88 49 82 50 81 51 37 53 69 54
REMARK SMILES IDX 49 55 68 56 50 57 53 58 67 59 86 60 51 61 52 62 66 64 87 65
REMARK SMILES IDX 54 66 38 67 39 68 47 69 40 70 42 71 48 72 41 73 43 74 44 75
REMARK SMILES IDX 45 76 46 77 70 78 71 79 79 80 72 81 74 82 80 83 73 84 75 85
REMARK SMILES IDX 76 86 77 87 78 88 55 89 56 90 64 91 57 92 59 93 65 94 58 95
REMARK SMILES IDX 60 96 61 97 62 98 63 99
REMARK H PARENT 85 52 53 63
REMARK Flexibility Score: inf
ROOT
ATOM      1  C   UNL A   1      43.738  22.472  26.747  1.00  0.00     0.188 C 
ENDROOT
BRANCH   1   2
ATOM      2  O   UNL A   1      43.924  23.863  26.507  1.00  0.00    -0.376 OA
BRANCH   2   3
ATOM      3  C   UNL A   1      44.619  24.296  25.345  1.00  0.00     0.202 C 
BRANCH   3   4
ATOM      4  C   UNL A   1      46.135  24.070  25.285  1.00  0.00     0.261 C 
BRANCH   4   5
ATOM      5  O   UNL A   1      46.809  24.856  24.284  1.00  0.00    -0.460 OA
BRANCH   5   6
ATOM      6  C   UNL A   1      47.062  26.140  24.619  1.00  0.00     0.338 C 
ATOM      7  O   UNL A   1      46.275  26.921  25.128  1.00  0.00    -0.246 OA
BRANCH   6   8
ATOM      8  C   UNL A   1      48.482  26.473  24.396  1.00  0.00     0.087 C 
ATOM      9  C   UNL A   1      53.313  27.489  25.371  1.00  0.00    -0.026 A 
ATOM     10  C   UNL A   1      52.320  28.063  24.555  1.00  0.00     0.052 A 
ATOM     11  C   UNL A   1      53.003  26.301  26.054  1.00  0.00     0.045 A 
ATOM     12  C   UNL A   1      51.039  27.517  24.487  1.00  0.00     0.128 A 
ATOM     13  C   UNL A   1      51.719  25.747  25.976  1.00  0.00     0.032 A 
ATOM     14  Cl  UNL A   1      54.151  25.475  27.044  1.00  0.00    -0.084 Cl
ATOM     15  C   UNL A   1      50.728  26.367  25.211  1.00  0.00     0.019 A 
ATOM     16  O   UNL A   1      50.110  28.225  23.771  1.00  0.00    -0.475 OA
ATOM     17  C   UNL A   1      49.350  25.907  25.249  1.00  0.00     0.027 C 
ATOM     18  C   UNL A   1      48.889  27.524  23.396  1.00  0.00     0.316 C 
BRANCH   9  19
ATOM     19  C   UNL A   1      54.639  28.208  25.510  1.00  0.00     0.037 C 
BRANCH  19  20
ATOM     20  C   UNL A   1      55.796  27.519  24.761  1.00  0.00     0.008 C 
BRANCH  20  21
ATOM     21  C   UNL A   1      56.616  28.438  23.830  1.00  0.00    -0.017 C 
ATOM     22  C   UNL A   1      57.858  27.738  23.281  1.00  0.00     0.007 C 
ATOM     23  C   UNL A   1      55.740  28.918  22.670  1.00  0.00     0.007 C 
ENDBRANCH  20  21
ENDBRANCH  19  20
ENDBRANCH   9  19
BRANCH  18  24
ATOM     24  C   UNL A   1      49.035  27.048  21.940  1.00  0.00     0.430 C 
ATOM     25  F   UNL A   1      48.691  25.739  21.822  1.00  0.00    -0.167 F 
ATOM     26  F   UNL A   1      48.251  27.741  21.084  1.00  0.00    -0.167 F 
ATOM     27  F   UNL A   1      50.311  27.138  21.502  1.00  0.00    -0.167 F 
ENDBRANCH  18  24
ENDBRANCH   6   8
ENDBRANCH   5   6
ENDBRANCH   4   5
ENDBRANCH   3   4
ENDBRANCH   2   3
ENDBRANCH   1   2
BRANCH   1  28
ATOM     28  C   UNL A   1      43.003  21.602  25.712  1.00  0.00     0.188 C 
BRANCH  28  29
ATOM     29  O   UNL A   1      42.588  20.340  26.201  1.00  0.00    -0.376 OA
BRANCH  29  30
ATOM     30  C   UNL A   1      41.803  20.355  27.382  1.00  0.00     0.202 C 
BRANCH  30  31
ATOM     31  C   UNL A   1      40.769  21.486  27.450  1.00  0.00     0.261 C 
BRANCH  31  32
ATOM     32  O   UNL A   1      40.137  21.817  26.202  1.00  0.00    -0.460 OA
BRANCH  32  33
ATOM     33  C   UNL A   1      38.988  22.531  26.255  1.00  0.00     0.338 C 
ATOM     34  O   UNL A   1      37.855  22.097  26.136  1.00  0.00    -0.246 OA
BRANCH  33  35
ATOM     35  C   UNL A   1      39.346  23.894  26.717  1.00  0.00     0.060 A 
ATOM     36  C   UNL A   1      38.951  24.334  27.982  1.00  0.00     0.016 A 
ATOM     37  C   UNL A   1      40.032  24.758  25.852  1.00  0.00     0.016 A 
ATOM     38  C   UNL A   1      39.268  25.631  28.393  1.00  0.00     0.010 A 
ATOM     39  C   UNL A   1      40.341  26.060  26.261  1.00  0.00     0.010 A 
ATOM     40  C   UNL A   1      39.982  26.498  27.545  1.00  0.00    -0.014 A 
BRANCH  40  41
ATOM     41  C   UNL A   1      40.534  27.761  28.099  1.00  0.00     0.031 A 
ATOM     42  C   UNL A   1      41.997  28.087  28.088  1.00  0.00     0.074 A 
ATOM     43  C   UNL A   1      39.658  28.633  28.634  1.00  0.00     0.049 A 
ATOM     44  N   UNL A   1      42.581  29.210  28.420  1.00  0.00    -0.248 NA
ATOM     45  C   UNL A   1      42.926  27.031  27.660  1.00  0.00     0.031 C 
ATOM     46  C   UNL A   1      38.218  28.394  28.765  1.00  0.00     0.029 A 
ATOM     47  N   UNL A   1      39.838  29.886  29.159  1.00  0.00    -0.354 N 
ATOM     48  C   UNL A   1      43.943  29.004  28.246  1.00  0.00     0.074 A 
ATOM     49  C   UNL A   1      44.102  27.636  27.795  1.00  0.00     0.031 C 
ATOM     50  C   UNL A   1      37.643  29.474  29.312  1.00  0.00     0.029 A 
ATOM     51  C   UNL A   1      38.670  30.477  29.578  1.00  0.00     0.049 A 
ATOM     52  H   UNL A   1      40.718  30.322  29.229  1.00  0.00     0.167 HD
ATOM     53  C   UNL A   1      44.957  29.886  28.422  1.00  0.00     0.034 A 
ATOM     54  C   UNL A   1      38.438  31.697  30.102  1.00  0.00     0.034 A 
ATOM     55  C   UNL A   1      44.788  31.249  28.856  1.00  0.00     0.049 A 
ATOM     56  C   UNL A   1      39.575  32.662  30.261  1.00  0.00     0.074 A 
ATOM     57  C   UNL A   1      45.756  32.232  28.986  1.00  0.00     0.029 A 
ATOM     58  N   UNL A   1      43.587  31.820  29.244  1.00  0.00    -0.354 N 
ATOM     59  N   UNL A   1      40.835  32.498  29.943  1.00  0.00    -0.248 NA
ATOM     60  C   UNL A   1      39.259  33.984  30.817  1.00  0.00     0.031 C 
ATOM     61  C   UNL A   1      45.143  33.391  29.470  1.00  0.00     0.029 A 
ATOM     62  C   UNL A   1      43.790  33.136  29.622  1.00  0.00     0.049 A 
ATOM     63  H   UNL A   1      42.718  31.358  29.249  1.00  0.00     0.167 HD
ATOM     64  C   UNL A   1      41.460  33.703  30.235  1.00  0.00     0.074 A 
ATOM     65  C   UNL A   1      40.439  34.592  30.750  1.00  0.00     0.031 C 
ATOM     66  C   UNL A   1      42.765  34.032  30.093  1.00  0.00     0.034 A 
BRANCH  53  67
ATOM     67  C   UNL A   1      46.356  29.450  28.075  1.00  0.00     0.023 A 
ATOM     68  C   UNL A   1      46.893  29.823  26.827  1.00  0.00     0.012 A 
ATOM     69  C   UNL A   1      47.184  28.818  29.024  1.00  0.00     0.148 A 
ATOM     70  C   UNL A   1      48.230  29.570  26.524  1.00  0.00     0.002 A 
ATOM     71  C   UNL A   1      48.523  28.593  28.726  1.00  0.00     0.091 A 
ATOM     72  F   UNL A   1      46.650  28.472  30.205  1.00  0.00    -0.205 F 
ATOM     73  C   UNL A   1      49.047  28.966  27.477  1.00  0.00     0.022 A 
BRANCH  71  74
ATOM     74  S   UNL A   1      49.678  27.875  29.902  1.00  0.00     0.127 S 
ATOM     75  O   UNL A   1      50.593  27.158  29.014  1.00  0.00    -0.237 OA
ATOM     76  O   UNL A   1      50.250  29.062  30.536  1.00  0.00    -0.237 OA
ATOM     77  O   UNL A   1      48.886  27.030  30.785  1.00  0.00    -0.744 OA
ENDBRANCH  71  74
ENDBRANCH  53  67
BRANCH  54  78
ATOM     78  C   UNL A   1      37.038  32.084  30.418  1.00  0.00     0.023 A 
ATOM     79  C   UNL A   1      36.548  31.879  31.721  1.00  0.00     0.012 A 
ATOM     80  C   UNL A   1      36.237  32.747  29.470  1.00  0.00     0.148 A 
ATOM     81  C   UNL A   1      35.276  32.328  32.075  1.00  0.00     0.002 A 
ATOM     82  C   UNL A   1      34.986  33.225  29.839  1.00  0.00     0.091 A 
ATOM     83  F   UNL A   1      36.736  32.933  28.240  1.00  0.00    -0.205 F 
ATOM     84  C   UNL A   1      34.501  33.009  31.139  1.00  0.00     0.022 A 
BRANCH  82  85
ATOM     85  S   UNL A   1      33.958  34.204  28.740  1.00  0.00     0.127 S 
ATOM     86  O   UNL A   1      33.619  33.229  27.705  1.00  0.00    -0.237 OA
ATOM     87  O   UNL A   1      32.851  34.577  29.621  1.00  0.00    -0.237 OA
ATOM     88  O   UNL A   1      34.789  35.316  28.302  1.00  0.00    -0.744 OA
ENDBRANCH  82  85
ENDBRANCH  54  78
BRANCH  66  89
ATOM     89  C   UNL A   1      43.201  35.419  30.479  1.00  0.00     0.023 A 
ATOM     90  C   UNL A   1      43.629  35.666  31.797  1.00  0.00     0.012 A 
ATOM     91  C   UNL A   1      43.331  36.426  29.502  1.00  0.00     0.148 A 
ATOM     92  C   UNL A   1      44.188  36.898  32.137  1.00  0.00     0.002 A 
ATOM     93  C   UNL A   1      43.920  37.639  29.841  1.00  0.00     0.091 A 
ATOM     94  F   UNL A   1      42.910  36.163  28.256  1.00  0.00    -0.205 F 
ATOM     95  C   UNL A   1      44.345  37.877  31.158  1.00  0.00     0.022 A 
BRANCH  93  96
ATOM     96  S   UNL A   1      44.235  38.935  28.638  1.00  0.00     0.127 S 
ATOM     97  O   UNL A   1      44.817  38.178  27.530  1.00  0.00    -0.237 OA
ATOM     98  O   UNL A   1      42.890  39.452  28.384  1.00  0.00    -0.237 OA
ATOM     99  O   UNL A   1      45.142  39.876  29.282  1.00  0.00    -0.744 OA
ENDBRANCH  93  96
ENDBRANCH  66  89
ENDBRANCH  40  41
ENDBRANCH  33  35
ENDBRANCH  32  33
ENDBRANCH  31  32
ENDBRANCH  30  31
ENDBRANCH  29  30
ENDBRANCH  28  29
ENDBRANCH   1  28
TORSDOF 24
ENDMDL
MODEL 2
REMARK VINA RESULT:      -8.3      4.487     13.210
REMARK SMILES CC(C)CCc1cc2c(cc1Cl)C=C(C(=O)OCCOCCOCCOC(=O)c1ccc(-c3c4nc(c(-c5cccc(S(=O)(=O)[O-])c5F)c5ccc([nH]5)c(-c5cccc(S(=O)(=O)[O-])c5F)c5nc(c(-c6cccc(S(=O)(=O)[O-])c6F)c6ccc3[nH]6)C=C5)C=C4)cc1)[C@H](C(F)(F)F)O2
REMARK SMILES IDX 21 1 20 2 19 3 18 4 17 5 15 6 16 7 14 8 6 9 7 10 11 11 8 12
REMARK SMILES IDX 10 13 12 14 9 15 97 16 13 17 92 18 5 19 4 20 2 21 1 22 3 23
REMARK SMILES IDX 93 24 94 25 95 26 96 27 22 28 23 29 24 30 25 31 26 32 27 33
REMARK SMILES IDX 28 34 29 35 30 36 91 37 31 38 90 39 32 40 33 41 34 42 84 43
REMARK SMILES IDX 35 44 89 45 83 46 85 47 36 48 88 49 82 50 81 51 37 53 69 54
REMARK SMILES IDX 49 55 68 56 50 57 53 58 67 59 86 60 51 61 52 62 66 64 87 65
REMARK SMILES IDX 54 66 38 67 39 68 47 69 40 70 42 71 48 72 41 73 43 74 44 75
REMARK SMILES IDX 45 76 46 77 70 78 71 79 79 80 72 81 74 82 80 83 73 84 75 85
REMARK SMILES IDX 76 86 77 87 78 88 55 89 56 90 64 91 57 92 59 93 65 94 58 95
REMARK SMILES IDX 60 96 61 97 62 98 63 99
REMARK H PARENT 85 52 53 63
REMARK Flexibility Score: inf
ROOT
ATOM      1  C   UNL A   1      44.754  37.449  34.915  1.00  0.00     0.188 C 
ENDROOT
BRANCH   1   2
ATOM      2  O   UNL A   1      44.176  38.576  35.565  1.00  0.00    -0.376 OA
BRANCH   2   3
ATOM      3  C   UNL A   1      44.904  39.263  36.574  1.00  0.00     0.202 C 
BRANCH   3   4
ATOM      4  C   UNL A   1      44.547  40.730  36.847  1.00  0.00     0.261 C 
BRANCH   4   5
ATOM      5  O   UNL A   1      44.747  41.605  35.720  1.00  0.00    -0.460 OA
BRANCH   5   6
ATOM      6  C   UNL A   1      43.636  42.204  35.238  1.00  0.00     0.338 C 
ATOM      7  O   UNL A   1      42.704  42.632  35.898  1.00  0.00    -0.246 OA
BRANCH   6   8
ATOM      8  C   UNL A   1      43.729  42.391  33.778  1.00  0.00     0.087 C 
ATOM      9  C   UNL A   1      44.036  41.293  28.877  1.00  0.00    -0.026 A 
ATOM     10  C   UNL A   1      44.707  42.178  29.743  1.00  0.00     0.052 A 
ATOM     11  C   UNL A   1      42.955  40.557  29.389  1.00  0.00     0.045 A 
ATOM     12  C   UNL A   1      44.365  42.263  31.092  1.00  0.00     0.128 A 
ATOM     13  C   UNL A   1      42.604  40.652  30.742  1.00  0.00     0.032 A 
ATOM     14  Cl  UNL A   1      42.023  39.480  28.415  1.00  0.00    -0.084 Cl
ATOM     15  C   UNL A   1      43.323  41.488  31.601  1.00  0.00     0.019 A 
ATOM     16  O   UNL A   1      45.164  43.052  31.876  1.00  0.00    -0.475 OA
ATOM     17  C   UNL A   1      43.087  41.476  33.035  1.00  0.00     0.027 C 
ATOM     18  C   UNL A   1      44.640  43.432  33.182  1.00  0.00     0.316 C 
BRANCH   9  19
ATOM     19  C   UNL A   1      44.547  41.145  27.458  1.00  0.00     0.037 C 
BRANCH  19  20
ATOM     20  C   UNL A   1      44.502  42.454  26.646  1.00  0.00     0.008 C 
BRANCH  20  21
ATOM     21  C   UNL A   1      43.539  42.445  25.439  1.00  0.00    -0.017 C 
ATOM     22  C   UNL A   1      44.277  42.636  24.115  1.00  0.00     0.007 C 
ATOM     23  C   UNL A   1      42.756  41.130  25.407  1.00  0.00     0.007 C 
ENDBRANCH  20  21
ENDBRANCH  19  20
ENDBRANCH   9  19
BRANCH  18  24
ATOM     24  C   UNL A   1      44.059  44.853  33.071  1.00  0.00     0.430 C 
ATOM     25  F   UNL A   1      44.953  45.777  33.509  1.00  0.00    -0.167 F 
ATOM     26  F   UNL A   1      43.739  45.187  31.800  1.00  0.00    -0.167 F 
ATOM     27  F   UNL A   1      42.955  45.012  33.834  1.00  0.00    -0.167 F 
ENDBRANCH  18  24
ENDBRANCH   6   8
ENDBRANCH   5   6
ENDBRANCH   4   5
ENDBRANCH   3   4
ENDBRANCH   2   3
ENDBRANCH   1   2
BRANCH   1  28
ATOM     28  C   UNL A   1      43.878  36.521  34.054  1.00  0.00     0.188 C 
BRANCH  28  29
ATOM     29  O   UNL A   1      44.320  36.378  32.717  1.00  0.00    -0.376 OA
BRANCH  29  30
ATOM     30  C   UNL A   1      44.299  37.553  31.922  1.00  0.00     0.202 C 
BRANCH  30  31
ATOM     31  C   UNL A   1      45.622  37.871  31.214  1.00  0.00     0.261 C 
BRANCH  31  32
ATOM     32  O   UNL A   1      46.674  36.913  31.417  1.00  0.00    -0.460 OA
BRANCH  32  33
ATOM     33  C   UNL A   1      47.247  36.375  30.314  1.00  0.00     0.338 C 
ATOM     34  O   UNL A   1      48.303  36.709  29.806  1.00  0.00    -0.246 OA
BRANCH  33  35
ATOM     35  C   UNL A   1      46.474  35.157  29.974  1.00  0.00     0.060 A 
ATOM     36  C   UNL A   1      45.627  35.149  28.863  1.00  0.00     0.016 A 
ATOM     37  C   UNL A   1      46.553  34.033  30.808  1.00  0.00     0.016 A 
ATOM     38  C   UNL A   1      44.880  34.005  28.571  1.00  0.00     0.010 A 
ATOM     39  C   UNL A   1      45.797  32.890  30.519  1.00  0.00     0.010 A 
ATOM     40  C   UNL A   1      44.974  32.860  29.384  1.00  0.00    -0.014 A 
BRANCH  40  41
ATOM     41  C   UNL A   1      44.385  31.583  28.907  1.00  0.00     0.031 A 
ATOM     42  C   UNL A   1      45.118  30.627  28.016  1.00  0.00     0.074 A 
ATOM     43  C   UNL A   1      43.129  31.297  29.306  1.00  0.00     0.049 A 
ATOM     44  N   UNL A   1      44.759  29.425  27.644  1.00  0.00    -0.248 NA
ATOM     45  C   UNL A   1      46.408  31.065  27.465  1.00  0.00     0.031 C 
ATOM     46  C   UNL A   1      42.289  32.184  30.116  1.00  0.00     0.029 A 
ATOM     47  N   UNL A   1      42.344  30.194  29.094  1.00  0.00    -0.354 N 
ATOM     48  C   UNL A   1      45.771  28.958  26.816  1.00  0.00     0.074 A 
ATOM     49  C   UNL A   1      46.755  30.018  26.723  1.00  0.00     0.031 C 
ATOM     50  C   UNL A   1      41.116  31.581  30.352  1.00  0.00     0.029 A 
ATOM     51  C   UNL A   1      41.115  30.272  29.706  1.00  0.00     0.049 A 
ATOM     52  H   UNL A   1      42.631  29.421  28.557  1.00  0.00     0.167 HD
ATOM     53  C   UNL A   1      45.876  27.747  26.215  1.00  0.00     0.034 A 
ATOM     54  C   UNL A   1      40.101  29.386  29.762  1.00  0.00     0.034 A 
ATOM     55  C   UNL A   1      44.899  26.694  26.324  1.00  0.00     0.049 A 
ATOM     56  C   UNL A   1      40.255  28.044  29.110  1.00  0.00     0.074 A 
ATOM     57  C   UNL A   1      44.965  25.409  25.810  1.00  0.00     0.029 A 
ATOM     58  N   UNL A   1      43.681  26.799  26.976  1.00  0.00    -0.354 N 
ATOM     59  N   UNL A   1      41.288  27.565  28.461  1.00  0.00    -0.248 NA
ATOM     60  C   UNL A   1      39.126  27.111  29.221  1.00  0.00     0.031 C 
ATOM     61  C   UNL A   1      43.779  24.745  26.134  1.00  0.00     0.029 A 
ATOM     62  C   UNL A   1      42.984  25.608  26.868  1.00  0.00     0.049 A 
ATOM     63  H   UNL A   1      43.359  27.602  27.446  1.00  0.00     0.167 HD
ATOM     64  C   UNL A   1      40.945  26.266  28.109  1.00  0.00     0.074 A 
ATOM     65  C   UNL A   1      39.611  26.029  28.622  1.00  0.00     0.031 C 
ATOM     66  C   UNL A   1      41.675  25.360  27.417  1.00  0.00     0.034 A 
BRANCH  53  67
ATOM     67  C   UNL A   1      47.125  27.440  25.433  1.00  0.00     0.023 A 
ATOM     68  C   UNL A   1      48.114  26.631  26.026  1.00  0.00     0.012 A 
ATOM     69  C   UNL A   1      47.253  27.811  24.080  1.00  0.00     0.148 A 
ATOM     70  C   UNL A   1      49.216  26.199  25.289  1.00  0.00     0.002 A 
ATOM     71  C   UNL A   1      48.340  27.355  23.343  1.00  0.00     0.091 A 
ATOM     72  F   UNL A   1      46.299  28.581  23.537  1.00  0.00    -0.205 F 
ATOM     73  C   UNL A   1      49.323  26.551  23.946  1.00  0.00     0.022 A 
BRANCH  71  74
ATOM     74  S   UNL A   1      48.547  27.699  21.591  1.00  0.00     0.127 S 
ATOM     75  O   UNL A   1      49.199  26.475  21.125  1.00  0.00    -0.237 OA
ATOM     76  O   UNL A   1      47.164  27.861  21.143  1.00  0.00    -0.237 OA
ATOM     77  O   UNL A   1      49.362  28.903  21.508  1.00  0.00    -0.744 OA
ENDBRANCH  71  74
ENDBRANCH  53  67
BRANCH  54  78
ATOM     78  C   UNL A   1      38.893  29.732  30.555  1.00  0.00     0.023 A 
ATOM     79  C   UNL A   1      38.786  29.266  31.879  1.00  0.00     0.012 A 
ATOM     80  C   UNL A   1      37.913  30.602  30.043  1.00  0.00     0.148 A 
ATOM     81  C   UNL A   1      37.717  29.661  32.682  1.00  0.00     0.002 A 
ATOM     82  C   UNL A   1      36.871  31.021  30.859  1.00  0.00     0.091 A 
ATOM     83  F   UNL A   1      38.048  31.033  28.781  1.00  0.00    -0.205 F 
ATOM     84  C   UNL A   1      36.766  30.546  32.176  1.00  0.00     0.022 A 
BRANCH  82  85
ATOM     85  S   UNL A   1      35.658  32.238  30.336  1.00  0.00     0.127 S 
ATOM     86  O   UNL A   1      35.143  31.635  29.108  1.00  0.00    -0.237 OA
ATOM     87  O   UNL A   1      34.726  32.233  31.463  1.00  0.00    -0.237 OA
ATOM     88  O   UNL A   1      36.393  33.483  30.160  1.00  0.00    -0.744 OA
ENDBRANCH  82  85
ENDBRANCH  54  78
BRANCH  66  89
ATOM     89  C   UNL A   1      41.079  24.003  27.164  1.00  0.00     0.023 A 
ATOM     90  C   UNL A   1      41.621  22.878  27.816  1.00  0.00     0.012 A 
ATOM     91  C   UNL A   1      39.896  23.869  26.411  1.00  0.00     0.148 A 
ATOM     92  C   UNL A   1      40.990  21.639  27.725  1.00  0.00     0.002 A 
ATOM     93  C   UNL A   1      39.255  22.637  26.353  1.00  0.00     0.091 A 
ATOM     94  F   UNL A   1      39.406  24.956  25.797  1.00  0.00    -0.205 F 
ATOM     95  C   UNL A   1      39.802  21.521  27.006  1.00  0.00     0.022 A 
BRANCH  93  96
ATOM     96  S   UNL A   1      37.683  22.399  25.516  1.00  0.00     0.127 S 
ATOM     97  O   UNL A   1      37.644  20.945  25.361  1.00  0.00    -0.237 OA
ATOM     98  O   UNL A   1      36.733  22.934  26.490  1.00  0.00    -0.237 OA
ATOM     99  O   UNL A   1      37.769  23.147  24.268  1.00  0.00    -0.744 OA
ENDBRANCH  93  96
ENDBRANCH  66  89
ENDBRANCH  40  41
ENDBRANCH  33  35
ENDBRANCH  32  33
ENDBRANCH  31  32
ENDBRANCH  30  31
ENDBRANCH  29  30
ENDBRANCH  28  29
ENDBRANCH   1  28
TORSDOF 24
ENDMDL
MODEL 3
REMARK VINA RESULT:      -8.2      4.815     13.310
REMARK SMILES CC(C)CCc1cc2c(cc1Cl)C=C(C(=O)OCCOCCOCCOC(=O)c1ccc(-c3c4nc(c(-c5cccc(S(=O)(=O)[O-])c5F)c5ccc([nH]5)c(-c5cccc(S(=O)(=O)[O-])c5F)c5nc(c(-c6cccc(S(=O)(=O)[O-])c6F)c6ccc3[nH]6)C=C5)C=C4)cc1)[C@H](C(F)(F)F)O2
REMARK SMILES IDX 21 1 20 2 19 3 18 4 17 5 15 6 16 7 14 8 6 9 7 10 11 11 8 12
REMARK SMILES IDX 10 13 12 14 9 15 97 16 13 17 92 18 5 19 4 20 2 21 1 22 3 23
REMARK SMILES IDX 93 24 94 25 95 26 96 27 22 28 23 29 24 30 25 31 26 32 27 33
REMARK SMILES IDX 28 34 29 35 30 36 91 37 31 38 90 39 32 40 33 41 34 42 84 43
REMARK SMILES IDX 35 44 89 45 83 46 85 47 36 48 88 49 82 50 81 51 37 53 69 54
REMARK SMILES IDX 49 55 68 56 50 57 53 58 67 59 86 60 51 61 52 62 66 64 87 65
REMARK SMILES IDX 54 66 38 67 39 68 47 69 40 70 42 71 48 72 41 73 43 74 44 75
REMARK SMILES IDX 45 76 46 77 70 78 71 79 79 80 72 81 74 82 80 83 73 84 75 85
REMARK SMILES IDX 76 86 77 87 78 88 55 89 56 90 64 91 57 92 59 93 65 94 58 95
REMARK SMILES IDX 60 96 61 97 62 98 63 99
REMARK H PARENT 85 52 53 63
REMARK Flexibility Score: inf
ROOT
ATOM      1  C   UNL A   1      36.575  32.252  29.743  1.00  0.00     0.188 C 
ENDROOT
BRANCH   1   2
ATOM      2  O   UNL A   1      35.761  31.377  28.969  1.00  0.00    -0.376 OA
BRANCH   2   3
ATOM      3  C   UNL A   1      34.953  31.899  27.924  1.00  0.00     0.202 C 
BRANCH   3   4
ATOM      4  C   UNL A   1      33.657  31.156  27.574  1.00  0.00     0.261 C 
BRANCH   4   5
ATOM      5  O   UNL A   1      33.603  30.670  26.219  1.00  0.00    -0.460 OA
BRANCH   5   6
ATOM      6  C   UNL A   1      32.471  30.017  25.875  1.00  0.00     0.338 C 
ATOM      7  O   UNL A   1      31.355  30.503  25.794  1.00  0.00    -0.246 OA
BRANCH   6   8
ATOM      8  C   UNL A   1      32.763  28.626  25.483  1.00  0.00     0.087 C 
ATOM      9  C   UNL A   1      33.577  23.674  25.865  1.00  0.00    -0.026 A 
ATOM     10  C   UNL A   1      34.214  24.740  25.201  1.00  0.00     0.052 A 
ATOM     11  C   UNL A   1      32.375  23.940  26.542  1.00  0.00     0.045 A 
ATOM     12  C   UNL A   1      33.715  26.039  25.280  1.00  0.00     0.128 A 
ATOM     13  C   UNL A   1      31.868  25.245  26.611  1.00  0.00     0.032 A 
ATOM     14  Cl  UNL A   1      31.474  22.709  27.349  1.00  0.00    -0.084 Cl
ATOM     15  C   UNL A   1      32.550  26.300  25.999  1.00  0.00     0.019 A 
ATOM     16  O   UNL A   1      34.481  27.023  24.712  1.00  0.00    -0.475 OA
ATOM     17  C   UNL A   1      32.136  27.679  26.198  1.00  0.00     0.027 C 
ATOM     18  C   UNL A   1      33.836  28.309  24.475  1.00  0.00     0.316 C 
BRANCH   9  19
ATOM     19  C   UNL A   1      34.244  22.315  25.856  1.00  0.00     0.037 C 
BRANCH  19  20
ATOM     20  C   UNL A   1      34.047  21.538  24.540  1.00  0.00     0.008 C 
BRANCH  20  21
ATOM     21  C   UNL A   1      32.600  21.077  24.260  1.00  0.00    -0.017 C 
ATOM     22  C   UNL A   1      31.923  21.928  23.187  1.00  0.00     0.007 C 
ATOM     23  C   UNL A   1      32.597  19.608  23.829  1.00  0.00     0.007 C 
ENDBRANCH  20  21
ENDBRANCH  19  20
ENDBRANCH   9  19
BRANCH  18  24
ATOM     24  C   UNL A   1      33.411  28.366  22.997  1.00  0.00     0.430 C 
ATOM     25  F   UNL A   1      32.875  27.182  22.602  1.00  0.00    -0.167 F 
ATOM     26  F   UNL A   1      32.480  29.318  22.759  1.00  0.00    -0.167 F 
ATOM     27  F   UNL A   1      34.459  28.594  22.175  1.00  0.00    -0.167 F 
ENDBRANCH  18  24
ENDBRANCH   6   8
ENDBRANCH   5   6
ENDBRANCH   4   5
ENDBRANCH   3   4
ENDBRANCH   2   3
ENDBRANCH   1   2
BRANCH   1  28
ATOM     28  C   UNL A   1      35.933  33.408  30.531  1.00  0.00     0.188 C 
BRANCH  28  29
ATOM     29  O   UNL A   1      34.722  33.068  31.181  1.00  0.00    -0.376 OA
BRANCH  29  30
ATOM     30  C   UNL A   1      34.841  32.560  32.500  1.00  0.00     0.202 C 
BRANCH  30  31
ATOM     31  C   UNL A   1      35.719  33.402  33.434  1.00  0.00     0.261 C 
BRANCH  31  32
ATOM     32  O   UNL A   1      37.136  33.236  33.262  1.00  0.00    -0.460 OA
BRANCH  32  33
ATOM     33  C   UNL A   1      37.731  32.224  33.937  1.00  0.00     0.338 C 
ATOM     34  O   UNL A   1      37.305  31.663  34.930  1.00  0.00    -0.246 OA
BRANCH  33  35
ATOM     35  C   UNL A   1      38.878  31.771  33.114  1.00  0.00     0.060 A 
ATOM     36  C   UNL A   1      39.960  31.120  33.713  1.00  0.00     0.016 A 
ATOM     37  C   UNL A   1      38.897  32.050  31.740  1.00  0.00     0.016 A 
ATOM     38  C   UNL A   1      41.048  30.725  32.932  1.00  0.00     0.010 A 
ATOM     39  C   UNL A   1      39.992  31.662  30.960  1.00  0.00     0.010 A 
ATOM     40  C   UNL A   1      41.065  30.974  31.546  1.00  0.00    -0.014 A 
BRANCH  40  41
ATOM     41  C   UNL A   1      42.095  30.315  30.704  1.00  0.00     0.031 A 
ATOM     42  C   UNL A   1      41.840  29.052  29.939  1.00  0.00     0.074 A 
ATOM     43  C   UNL A   1      43.310  30.897  30.648  1.00  0.00     0.049 A 
ATOM     44  N   UNL A   1      42.616  28.458  29.069  1.00  0.00    -0.248 NA
ATOM     45  C   UNL A   1      40.564  28.361  30.175  1.00  0.00     0.031 C 
ATOM     46  C   UNL A   1      43.698  32.090  31.406  1.00  0.00     0.029 A 
ATOM     47  N   UNL A   1      44.431  30.579  29.928  1.00  0.00    -0.354 N 
ATOM     48  C   UNL A   1      41.933  27.324  28.651  1.00  0.00     0.074 A 
ATOM     49  C   UNL A   1      40.680  27.301  29.380  1.00  0.00     0.031 C 
ATOM     50  C   UNL A   1      44.960  32.415  31.093  1.00  0.00     0.029 A 
ATOM     51  C   UNL A   1      45.473  31.453  30.122  1.00  0.00     0.049 A 
ATOM     52  H   UNL A   1      44.486  29.799  29.329  1.00  0.00     0.167 HD
ATOM     53  C   UNL A   1      42.309  26.407  27.726  1.00  0.00     0.034 A 
ATOM     54  C   UNL A   1      46.702  31.496  29.571  1.00  0.00     0.034 A 
ATOM     55  C   UNL A   1      43.550  26.446  26.995  1.00  0.00     0.049 A 
ATOM     56  C   UNL A   1      47.082  30.485  28.531  1.00  0.00     0.074 A 
ATOM     57  C   UNL A   1      43.974  25.599  25.985  1.00  0.00     0.029 A 
ATOM     58  N   UNL A   1      44.568  27.364  27.198  1.00  0.00    -0.354 N 
ATOM     59  N   UNL A   1      46.359  29.511  28.037  1.00  0.00    -0.248 NA
ATOM     60  C   UNL A   1      48.426  30.594  27.949  1.00  0.00     0.031 C 
ATOM     61  C   UNL A   1      45.256  25.993  25.591  1.00  0.00     0.029 A 
ATOM     62  C   UNL A   1      45.621  27.097  26.341  1.00  0.00     0.049 A 
ATOM     63  H   UNL A   1      44.544  28.096  27.856  1.00  0.00     0.167 HD
ATOM     64  C   UNL A   1      47.148  28.905  27.068  1.00  0.00     0.074 A 
ATOM     65  C   UNL A   1      48.405  29.626  27.039  1.00  0.00     0.031 C 
ATOM     66  C   UNL A   1      46.853  27.843  26.284  1.00  0.00     0.034 A 
BRANCH  53  67
ATOM     67  C   UNL A   1      41.344  25.306  27.374  1.00  0.00     0.023 A 
ATOM     68  C   UNL A   1      40.099  25.649  26.812  1.00  0.00     0.012 A 
ATOM     69  C   UNL A   1      41.721  23.950  27.448  1.00  0.00     0.148 A 
ATOM     70  C   UNL A   1      39.238  24.662  26.335  1.00  0.00     0.002 A 
ATOM     71  C   UNL A   1      40.870  22.972  26.946  1.00  0.00     0.091 A 
ATOM     72  F   UNL A   1      42.912  23.648  27.986  1.00  0.00    -0.205 F 
ATOM     73  C   UNL A   1      39.628  23.326  26.391  1.00  0.00     0.022 A 
BRANCH  71  74
ATOM     74  S   UNL A   1      41.297  21.227  26.915  1.00  0.00     0.127 S 
ATOM     75  O   UNL A   1      41.348  20.911  28.342  1.00  0.00    -0.237 OA
ATOM     76  O   UNL A   1      40.161  20.644  26.202  1.00  0.00    -0.237 OA
ATOM     77  O   UNL A   1      42.572  21.134  26.216  1.00  0.00    -0.744 OA
ENDBRANCH  71  74
ENDBRANCH  53  67
BRANCH  54  78
ATOM     78  C   UNL A   1      47.613  32.610  29.943  1.00  0.00     0.023 A 
ATOM     79  C   UNL A   1      47.498  33.843  29.274  1.00  0.00     0.012 A 
ATOM     80  C   UNL A   1      48.510  32.485  31.021  1.00  0.00     0.148 A 
ATOM     81  C   UNL A   1      48.265  34.937  29.672  1.00  0.00     0.002 A 
ATOM     82  C   UNL A   1      49.244  33.588  31.436  1.00  0.00     0.091 A 
ATOM     83  F   UNL A   1      48.590  31.300  31.642  1.00  0.00    -0.205 F 
ATOM     84  C   UNL A   1      49.129  34.812  30.758  1.00  0.00     0.022 A 
BRANCH  82  85
ATOM     85  S   UNL A   1      50.302  33.559  32.887  1.00  0.00     0.127 S 
ATOM     86  O   UNL A   1      51.200  32.449  32.577  1.00  0.00    -0.237 OA
ATOM     87  O   UNL A   1      50.919  34.884  32.832  1.00  0.00    -0.237 OA
ATOM     88  O   UNL A   1      49.416  33.347  34.023  1.00  0.00    -0.744 OA
ENDBRANCH  82  85
ENDBRANCH  54  78
BRANCH  66  89
ATOM     89  C   UNL A   1      47.885  27.373  25.296  1.00  0.00     0.023 A 
ATOM     90  C   UNL A   1      48.738  26.307  25.643  1.00  0.00     0.012 A 
ATOM     91  C   UNL A   1      47.901  27.880  23.982  1.00  0.00     0.148 A 
ATOM     92  C   UNL A   1      49.590  25.749  24.691  1.00  0.00     0.002 A 
ATOM     93  C   UNL A   1      48.730  27.296  23.031  1.00  0.00     0.091 A 
ATOM     94  F   UNL A   1      47.082  28.898  23.682  1.00  0.00    -0.205 F 
ATOM     95  C   UNL A   1      49.577  26.233  23.385  1.00  0.00     0.022 A 
BRANCH  93  96
ATOM     96  S   UNL A   1      48.733  27.797  21.306  1.00  0.00     0.127 S 
ATOM     97  O   UNL A   1      47.311  27.717  20.970  1.00  0.00    -0.237 OA
ATOM     98  O   UNL A   1      49.265  29.157  21.382  1.00  0.00    -0.237 OA
ATOM     99  O   UNL A   1      49.583  26.844  20.606  1.00  0.00    -0.744 OA
ENDBRANCH  93  96
ENDBRANCH  66  89
ENDBRANCH  40  41
ENDBRANCH  33  35
ENDBRANCH  32  33
ENDBRANCH  31  32
ENDBRANCH  30  31
ENDBRANCH  29  30
ENDBRANCH  28  29
ENDBRANCH   1  28
TORSDOF 24
ENDMDL
