MODEL 1
REMARK VINA RESULT:      -9.2      0.000      0.000
REMARK SMILES O=C(OCCOCCOCCOC(=O)c1cc(NC(=S)NC(=O)c2ccccc2F)ccc1Cl)c1ccc(-c2c3nc(c(-c4cccc(S(=O)(=O)[O-])c4F)c4ccc([nH]4)c(-c4cccc(S(=O)(=O)[O-])c4F)c4nc(c(-c5cccc(S(=O)(=O)[O-])c5F)c5ccc2[nH]5)C=C4)C=C3)cc1
REMARK SMILES IDX 8 1 7 2 6 3 5 4 4 5 3 6 2 7 1 8 35 9 36 10 97 11 37 12 96 13
REMARK SMILES IDX 38 14 39 15 40 16 90 17 41 18 95 19 89 20 91 21 42 22 94 23
REMARK SMILES IDX 88 24 87 25 43 27 75 28 55 29 74 30 56 31 59 32 73 33 92 34
REMARK SMILES IDX 57 35 58 36 72 38 93 39 60 40 44 41 45 42 53 43 46 44 48 45
REMARK SMILES IDX 54 46 47 47 49 48 50 49 51 50 52 51 76 52 77 53 85 54 78 55
REMARK SMILES IDX 80 56 86 57 79 58 81 59 82 60 83 61 84 62 61 63 62 64 70 65
REMARK SMILES IDX 63 66 65 67 71 68 64 69 66 70 67 71 68 72 69 73 9 74 10 75
REMARK SMILES IDX 11 76 12 77 13 78 14 79 15 80 16 81 33 82 17 83 32 84 34 85
REMARK SMILES IDX 31 86 18 87 19 89 20 90 21 91 22 92 23 94 24 95 25 96 29 97
REMARK SMILES IDX 26 98 28 99 30 100 27 101
REMARK H PARENT 91 26 59 37 18 88 21 93
REMARK Flexibility Score: inf
ROOT
ATOM      1  C   UNL A   1      35.060  35.250  32.999  1.00  0.00     0.188 C 
ENDROOT
BRANCH   1   2
ATOM      2  C   UNL A   1      34.362  35.157  31.643  1.00  0.00     0.188 C 
BRANCH   2   3
ATOM      3  O   UNL A   1      33.750  33.892  31.399  1.00  0.00    -0.376 OA
BRANCH   3   4
ATOM      4  C   UNL A   1      34.581  32.934  30.737  1.00  0.00     0.202 C 
BRANCH   4   5
ATOM      5  C   UNL A   1      34.942  33.217  29.263  1.00  0.00     0.261 C 
BRANCH   5   6
ATOM      6  O   UNL A   1      34.308  32.362  28.292  1.00  0.00    -0.460 OA
BRANCH   6   7
ATOM      7  C   UNL A   1      34.723  31.171  27.788  1.00  0.00     0.338 C 
ATOM      8  O   UNL A   1      34.048  30.630  26.914  1.00  0.00    -0.246 OA
BRANCH   7   9
ATOM      9  C   UNL A   1      35.953  30.473  28.262  1.00  0.00     0.060 A 
ATOM     10  C   UNL A   1      36.004  29.692  29.411  1.00  0.00     0.016 A 
ATOM     11  C   UNL A   1      37.106  30.527  27.464  1.00  0.00     0.016 A 
ATOM     12  C   UNL A   1      37.165  29.089  29.850  1.00  0.00     0.010 A 
ATOM     13  C   UNL A   1      38.270  29.846  27.849  1.00  0.00     0.010 A 
ATOM     14  C   UNL A   1      38.310  29.162  29.075  1.00  0.00    -0.014 A 
BRANCH  14  15
ATOM     15  C   UNL A   1      39.564  28.684  29.684  1.00  0.00     0.031 A 
ATOM     16  C   UNL A   1      40.244  27.536  29.014  1.00  0.00     0.074 A 
ATOM     17  C   UNL A   1      40.165  29.361  30.682  1.00  0.00     0.049 A 
ATOM     18  N   UNL A   1      41.356  26.945  29.343  1.00  0.00    -0.248 NA
ATOM     19  C   UNL A   1      39.619  27.008  27.785  1.00  0.00     0.031 C 
ATOM     20  C   UNL A   1      39.685  30.618  31.254  1.00  0.00     0.029 A 
ATOM     21  N   UNL A   1      41.316  29.108  31.383  1.00  0.00    -0.354 N 
ATOM     22  C   UNL A   1      41.541  25.959  28.389  1.00  0.00     0.074 A 
ATOM     23  C   UNL A   1      40.430  26.013  27.473  1.00  0.00     0.031 C 
ATOM     24  C   UNL A   1      40.503  30.995  32.248  1.00  0.00     0.029 A 
ATOM     25  C   UNL A   1      41.533  29.989  32.416  1.00  0.00     0.049 A 
ATOM     26  H   UNL A   1      41.928  28.368  31.167  1.00  0.00     0.167 HD
ATOM     27  C   UNL A   1      42.571  25.098  28.285  1.00  0.00     0.034 A 
ATOM     28  C   UNL A   1      42.440  29.979  33.410  1.00  0.00     0.034 A 
ATOM     29  C   UNL A   1      43.675  25.085  29.196  1.00  0.00     0.049 A 
ATOM     30  C   UNL A   1      43.499  28.924  33.352  1.00  0.00     0.074 A 
ATOM     31  C   UNL A   1      44.767  24.242  29.200  1.00  0.00     0.029 A 
ATOM     32  N   UNL A   1      43.816  25.945  30.275  1.00  0.00    -0.354 N 
ATOM     33  N   UNL A   1      43.667  27.999  32.439  1.00  0.00    -0.248 NA
ATOM     34  C   UNL A   1      44.516  28.934  34.408  1.00  0.00     0.031 C 
ATOM     35  C   UNL A   1      45.539  24.553  30.320  1.00  0.00     0.029 A 
ATOM     36  C   UNL A   1      44.962  25.631  30.975  1.00  0.00     0.049 A 
ATOM     37  H   UNL A   1      43.191  26.669  30.508  1.00  0.00     0.167 HD
ATOM     38  C   UNL A   1      44.835  27.342  32.781  1.00  0.00     0.074 A 
ATOM     39  C   UNL A   1      45.334  27.979  33.986  1.00  0.00     0.031 C 
ATOM     40  C   UNL A   1      45.440  26.307  32.154  1.00  0.00     0.034 A 
BRANCH  27  41
ATOM     41  C   UNL A   1      42.518  24.082  27.188  1.00  0.00     0.023 A 
ATOM     42  C   UNL A   1      43.298  24.234  26.026  1.00  0.00     0.012 A 
ATOM     43  C   UNL A   1      41.712  22.940  27.345  1.00  0.00     0.148 A 
ATOM     44  C   UNL A   1      43.268  23.261  25.027  1.00  0.00     0.002 A 
ATOM     45  C   UNL A   1      41.730  21.951  26.375  1.00  0.00     0.091 A 
ATOM     46  F   UNL A   1      40.945  22.848  28.441  1.00  0.00    -0.205 F 
ATOM     47  C   UNL A   1      42.499  22.114  25.210  1.00  0.00     0.022 A 
BRANCH  45  48
ATOM     48  S   UNL A   1      40.842  20.405  26.563  1.00  0.00     0.127 S 
ATOM     49  O   UNL A   1      41.008  20.139  27.992  1.00  0.00    -0.237 OA
ATOM     50  O   UNL A   1      39.488  20.787  26.165  1.00  0.00    -0.237 OA
ATOM     51  O   UNL A   1      41.497  19.450  25.679  1.00  0.00    -0.744 OA
ENDBRANCH  45  48
ENDBRANCH  27  41
BRANCH  28  52
ATOM     52  C   UNL A   1      42.377  30.976  34.517  1.00  0.00     0.023 A 
ATOM     53  C   UNL A   1      41.737  30.660  35.730  1.00  0.00     0.012 A 
ATOM     54  C   UNL A   1      42.980  32.244  34.374  1.00  0.00     0.148 A 
ATOM     55  C   UNL A   1      41.680  31.595  36.768  1.00  0.00     0.002 A 
ATOM     56  C   UNL A   1      42.957  33.153  35.428  1.00  0.00     0.091 A 
ATOM     57  F   UNL A   1      43.603  32.520  33.220  1.00  0.00    -0.205 F 
ATOM     58  C   UNL A   1      42.295  32.835  36.621  1.00  0.00     0.022 A 
BRANCH  56  59
ATOM     59  S   UNL A   1      43.838  34.722  35.375  1.00  0.00     0.127 S 
ATOM     60  O   UNL A   1      45.071  34.357  34.681  1.00  0.00    -0.237 OA
ATOM     61  O   UNL A   1      42.911  35.551  34.605  1.00  0.00    -0.237 OA
ATOM     62  O   UNL A   1      43.999  35.131  36.763  1.00  0.00    -0.744 OA
ENDBRANCH  56  59
ENDBRANCH  28  52
BRANCH  40  63
ATOM     63  C   UNL A   1      46.727  25.807  32.734  1.00  0.00     0.023 A 
ATOM     64  C   UNL A   1      46.705  24.878  33.790  1.00  0.00     0.012 A 
ATOM     65  C   UNL A   1      47.947  26.152  32.123  1.00  0.00     0.148 A 
ATOM     66  C   UNL A   1      47.889  24.302  34.239  1.00  0.00     0.002 A 
ATOM     67  C   UNL A   1      49.113  25.526  32.532  1.00  0.00     0.091 A 
ATOM     68  F   UNL A   1      47.933  27.055  31.133  1.00  0.00    -0.205 F 
ATOM     69  C   UNL A   1      49.088  24.611  33.597  1.00  0.00     0.022 A 
BRANCH  67  70
ATOM     70  S   UNL A   1      50.675  25.763  31.683  1.00  0.00     0.127 S 
ATOM     71  O   UNL A   1      50.915  27.190  31.897  1.00  0.00    -0.237 OA
ATOM     72  O   UNL A   1      51.566  24.875  32.429  1.00  0.00    -0.237 OA
ATOM     73  O   UNL A   1      50.449  25.376  30.297  1.00  0.00    -0.744 OA
ENDBRANCH  67  70
ENDBRANCH  40  63
ENDBRANCH  14  15
ENDBRANCH   7   9
ENDBRANCH   6   7
ENDBRANCH   5   6
ENDBRANCH   4   5
ENDBRANCH   3   4
ENDBRANCH   2   3
ENDBRANCH   1   2
BRANCH   1  74
ATOM     74  O   UNL A   1      36.479  35.272  32.998  1.00  0.00    -0.376 OA
BRANCH  74  75
ATOM     75  C   UNL A   1      37.113  33.999  33.047  1.00  0.00     0.202 C 
BRANCH  75  76
ATOM     76  C   UNL A   1      36.481  32.832  33.851  1.00  0.00     0.261 C 
BRANCH  76  77
ATOM     77  O   UNL A   1      36.638  32.795  35.293  1.00  0.00    -0.460 OA
BRANCH  77  78
ATOM     78  C   UNL A   1      37.855  32.338  35.719  1.00  0.00     0.339 C 
ATOM     79  O   UNL A   1      38.570  31.575  35.083  1.00  0.00    -0.246 OA
BRANCH  78  80
ATOM     80  C   UNL A   1      38.201  32.762  37.167  1.00  0.00     0.080 A 
ATOM     81  C   UNL A   1      37.705  32.213  39.053  1.00  0.00     0.043 A 
ATOM     82  C   UNL A   1      38.950  34.408  37.027  1.00  0.00     0.055 A 
ATOM     83  C   UNL A   1      38.113  33.135  40.430  1.00  0.00     0.041 A 
ATOM     84  C   UNL A   1      39.202  35.347  38.525  1.00  0.00     0.023 A 
ATOM     85  Cl  UNL A   1      39.379  35.099  35.511  1.00  0.00    -0.083 Cl
ATOM     86  C   UNL A   1      38.805  34.722  40.166  1.00  0.00     0.028 A 
BRANCH  83  87
ATOM     87  N   UNL A   1      38.387  32.268  41.510  1.00  0.00    -0.332 N 
ATOM     88  H   UNL A   1      39.246  31.792  41.443  1.00  0.00     0.169 HD
BRANCH  87  89
ATOM     89  C   UNL A   1      37.657  31.974  42.645  1.00  0.00     0.177 C 
ATOM     90  S   UNL A   1      38.523  31.931  44.091  1.00  0.00    -0.040 S 
BRANCH  89  91
ATOM     91  N   UNL A   1      36.256  31.691  42.778  1.00  0.00    -0.299 N 
ATOM     92  C   UNL A   1      34.814  32.061  42.907  1.00  0.00     0.260 C 
ATOM     93  H   UNL A   1      36.231  30.706  42.790  1.00  0.00     0.172 HD
ATOM     94  O   UNL A   1      33.984  31.224  43.252  1.00  0.00    -0.269 OA
BRANCH  92  95
ATOM     95  C   UNL A   1      34.344  33.486  42.722  1.00  0.00     0.075 A 
ATOM     96  C   UNL A   1      33.552  33.714  41.114  1.00  0.00     0.017 A 
ATOM     97  C   UNL A   1      33.587  33.851  44.229  1.00  0.00     0.135 A 
ATOM     98  C   UNL A   1      31.806  34.077  40.945  1.00  0.00     0.001 A 
ATOM     99  C   UNL A   1      31.872  34.210  44.223  1.00  0.00     0.040 A 
ATOM    100  F   UNL A   1      34.083  33.338  45.359  1.00  0.00    -0.206 F 
ATOM    101  C   UNL A   1      30.852  34.288  42.472  1.00  0.00     0.003 A 
ENDBRANCH  92  95
ENDBRANCH  89  91
ENDBRANCH  87  89
ENDBRANCH  83  87
ENDBRANCH  78  80
ENDBRANCH  77  78
ENDBRANCH  76  77
ENDBRANCH  75  76
ENDBRANCH  74  75
ENDBRANCH   1  74
TORSDOF 24
ENDMDL
MODEL 2
REMARK VINA RESULT:      -8.9      4.757     11.381
REMARK SMILES O=C(OCCOCCOCCOC(=O)c1cc(NC(=S)NC(=O)c2ccccc2F)ccc1Cl)c1ccc(-c2c3nc(c(-c4cccc(S(=O)(=O)[O-])c4F)c4ccc([nH]4)c(-c4cccc(S(=O)(=O)[O-])c4F)c4nc(c(-c5cccc(S(=O)(=O)[O-])c5F)c5ccc2[nH]5)C=C4)C=C3)cc1
REMARK SMILES IDX 8 1 7 2 6 3 5 4 4 5 3 6 2 7 1 8 35 9 36 10 97 11 37 12 96 13
REMARK SMILES IDX 38 14 39 15 40 16 90 17 41 18 95 19 89 20 91 21 42 22 94 23
REMARK SMILES IDX 88 24 87 25 43 27 75 28 55 29 74 30 56 31 59 32 73 33 92 34
REMARK SMILES IDX 57 35 58 36 72 38 93 39 60 40 44 41 45 42 53 43 46 44 48 45
REMARK SMILES IDX 54 46 47 47 49 48 50 49 51 50 52 51 76 52 77 53 85 54 78 55
REMARK SMILES IDX 80 56 86 57 79 58 81 59 82 60 83 61 84 62 61 63 62 64 70 65
REMARK SMILES IDX 63 66 65 67 71 68 64 69 66 70 67 71 68 72 69 73 9 74 10 75
REMARK SMILES IDX 11 76 12 77 13 78 14 79 15 80 16 81 33 82 17 83 32 84 34 85
REMARK SMILES IDX 31 86 18 87 19 89 20 90 21 91 22 92 23 94 24 95 25 96 29 97
REMARK SMILES IDX 26 98 28 99 30 100 27 101
REMARK H PARENT 91 26 59 37 18 88 21 93
REMARK Flexibility Score: inf
ROOT
ATOM      1  C   UNL A   1      32.797  27.795  24.716  1.00  0.00     0.188 C 
ENDROOT
BRANCH   1   2
ATOM      2  C   UNL A   1      33.251  28.756  25.813  1.00  0.00     0.188 C 
BRANCH   2   3
ATOM      3  O   UNL A   1      32.199  29.561  26.341  1.00  0.00    -0.376 OA
BRANCH   3   4
ATOM      4  C   UNL A   1      32.618  30.797  26.927  1.00  0.00     0.202 C 
BRANCH   4   5
ATOM      5  C   UNL A   1      34.043  30.848  27.517  1.00  0.00     0.261 C 
BRANCH   5   6
ATOM      6  O   UNL A   1      34.619  32.164  27.639  1.00  0.00    -0.460 OA
BRANCH   6   7
ATOM      7  C   UNL A   1      34.652  32.997  28.711  1.00  0.00     0.338 C 
ATOM      8  O   UNL A   1      33.723  33.784  28.878  1.00  0.00    -0.246 OA
BRANCH   7   9
ATOM      9  C   UNL A   1      35.778  33.017  29.689  1.00  0.00     0.060 A 
ATOM     10  C   UNL A   1      36.819  33.937  29.650  1.00  0.00     0.016 A 
ATOM     11  C   UNL A   1      35.749  32.118  30.766  1.00  0.00     0.016 A 
ATOM     12  C   UNL A   1      37.871  33.911  30.543  1.00  0.00     0.010 A 
ATOM     13  C   UNL A   1      36.763  32.136  31.734  1.00  0.00     0.010 A 
ATOM     14  C   UNL A   1      37.855  33.008  31.592  1.00  0.00    -0.014 A 
BRANCH  14  15
ATOM     15  C   UNL A   1      39.089  32.881  32.387  1.00  0.00     0.031 A 
ATOM     16  C   UNL A   1      40.260  32.241  31.717  1.00  0.00     0.074 A 
ATOM     17  C   UNL A   1      39.217  33.474  33.590  1.00  0.00     0.049 A 
ATOM     18  N   UNL A   1      41.452  32.025  32.192  1.00  0.00    -0.248 NA
ATOM     19  C   UNL A   1      40.086  31.827  30.310  1.00  0.00     0.031 C 
ATOM     20  C   UNL A   1      38.198  34.307  34.229  1.00  0.00     0.029 A 
ATOM     21  N   UNL A   1      40.255  33.492  34.485  1.00  0.00    -0.354 N 
ATOM     22  C   UNL A   1      42.153  31.423  31.162  1.00  0.00     0.074 A 
ATOM     23  C   UNL A   1      41.262  31.289  30.036  1.00  0.00     0.031 C 
ATOM     24  C   UNL A   1      38.642  34.708  35.430  1.00  0.00     0.029 A 
ATOM     25  C   UNL A   1      39.948  34.125  35.667  1.00  0.00     0.049 A 
ATOM     26  H   UNL A   1      41.135  33.091  34.299  1.00  0.00     0.167 HD
ATOM     27  C   UNL A   1      43.443  31.035  31.160  1.00  0.00     0.034 A 
ATOM     28  C   UNL A   1      40.625  34.207  36.826  1.00  0.00     0.034 A 
ATOM     29  C   UNL A   1      44.312  31.205  32.285  1.00  0.00     0.049 A 
ATOM     30  C   UNL A   1      42.011  33.644  36.845  1.00  0.00     0.074 A 
ATOM     31  C   UNL A   1      45.635  30.831  32.403  1.00  0.00     0.029 A 
ATOM     32  N   UNL A   1      43.938  31.781  33.489  1.00  0.00    -0.354 N 
ATOM     33  N   UNL A   1      42.666  33.081  35.860  1.00  0.00    -0.248 NA
ATOM     34  C   UNL A   1      42.771  33.770  38.093  1.00  0.00     0.031 C 
ATOM     35  C   UNL A   1      46.043  31.126  33.704  1.00  0.00     0.029 A 
ATOM     36  C   UNL A   1      44.996  31.742  34.373  1.00  0.00     0.049 A 
ATOM     37  H   UNL A   1      43.050  32.159  33.685  1.00  0.00     0.167 HD
ATOM     38  C   UNL A   1      43.934  32.823  36.350  1.00  0.00     0.074 A 
ATOM     39  C   UNL A   1      43.954  33.296  37.722  1.00  0.00     0.031 C 
ATOM     40  C   UNL A   1      44.985  32.249  35.721  1.00  0.00     0.034 A 
BRANCH  27  41
ATOM     41  C   UNL A   1      43.961  30.353  29.933  1.00  0.00     0.023 A 
ATOM     42  C   UNL A   1      43.824  28.961  29.770  1.00  0.00     0.012 A 
ATOM     43  C   UNL A   1      44.548  31.123  28.913  1.00  0.00     0.148 A 
ATOM     44  C   UNL A   1      44.277  28.342  28.606  1.00  0.00     0.002 A 
ATOM     45  C   UNL A   1      44.944  30.510  27.736  1.00  0.00     0.091 A 
ATOM     46  F   UNL A   1      44.707  32.438  29.119  1.00  0.00    -0.205 F 
ATOM     47  C   UNL A   1      44.820  29.118  27.583  1.00  0.00     0.022 A 
BRANCH  45  48
ATOM     48  S   UNL A   1      45.573  31.436  26.335  1.00  0.00     0.127 S 
ATOM     49  O   UNL A   1      46.555  32.310  26.975  1.00  0.00    -0.237 OA
ATOM     50  O   UNL A   1      46.146  30.374  25.508  1.00  0.00    -0.237 OA
ATOM     51  O   UNL A   1      44.427  32.119  25.752  1.00  0.00    -0.744 OA
ENDBRANCH  45  48
ENDBRANCH  27  41
BRANCH  28  52
ATOM     52  C   UNL A   1      40.008  34.829  38.033  1.00  0.00     0.023 A 
ATOM     53  C   UNL A   1      40.106  36.215  38.253  1.00  0.00     0.012 A 
ATOM     54  C   UNL A   1      39.296  34.039  38.961  1.00  0.00     0.148 A 
ATOM     55  C   UNL A   1      39.526  36.798  39.384  1.00  0.00     0.002 A 
ATOM     56  C   UNL A   1      38.684  34.632  40.061  1.00  0.00     0.091 A 
ATOM     57  F   UNL A   1      39.196  32.724  38.725  1.00  0.00    -0.205 F 
ATOM     58  C   UNL A   1      38.809  36.011  40.282  1.00  0.00     0.022 A 
BRANCH  56  59
ATOM     59  S   UNL A   1      37.630  33.716  41.196  1.00  0.00     0.127 S 
ATOM     60  O   UNL A   1      38.593  32.862  41.886  1.00  0.00    -0.237 OA
ATOM     61  O   UNL A   1      37.062  34.795  42.004  1.00  0.00    -0.237 OA
ATOM     62  O   UNL A   1      36.662  33.018  40.360  1.00  0.00    -0.744 OA
ENDBRANCH  56  59
ENDBRANCH  28  52
BRANCH  40  63
ATOM     63  C   UNL A   1      46.263  32.121  36.493  1.00  0.00     0.023 A 
ATOM     64  C   UNL A   1      46.610  30.886  37.071  1.00  0.00     0.012 A 
ATOM     65  C   UNL A   1      47.178  33.189  36.507  1.00  0.00     0.148 A 
ATOM     66  C   UNL A   1      47.856  30.720  37.666  1.00  0.00     0.002 A 
ATOM     67  C   UNL A   1      48.441  32.996  37.043  1.00  0.00     0.091 A 
ATOM     68  F   UNL A   1      46.807  34.357  35.964  1.00  0.00    -0.205 F 
ATOM     69  C   UNL A   1      48.777  31.766  37.634  1.00  0.00     0.022 A 
BRANCH  67  70
ATOM     70  S   UNL A   1      49.729  34.238  36.931  1.00  0.00     0.127 S 
ATOM     71  O   UNL A   1      50.735  33.705  37.850  1.00  0.00    -0.237 OA
ATOM     72  O   UNL A   1      50.095  34.171  35.517  1.00  0.00    -0.237 OA
ATOM     73  O   UNL A   1      49.120  35.495  37.345  1.00  0.00    -0.744 OA
ENDBRANCH  67  70
ENDBRANCH  40  63
ENDBRANCH  14  15
ENDBRANCH   7   9
ENDBRANCH   6   7
ENDBRANCH   5   6
ENDBRANCH   4   5
ENDBRANCH   3   4
ENDBRANCH   2   3
ENDBRANCH   1   2
BRANCH   1  74
ATOM     74  O   UNL A   1      33.142  26.426  24.869  1.00  0.00    -0.376 OA
BRANCH  74  75
ATOM     75  C   UNL A   1      32.387  25.511  24.084  1.00  0.00     0.202 C 
BRANCH  75  76
ATOM     76  C   UNL A   1      31.502  24.432  24.762  1.00  0.00     0.261 C 
BRANCH  76  77
ATOM     77  O   UNL A   1      32.025  23.090  24.936  1.00  0.00    -0.460 OA
BRANCH  77  78
ATOM     78  C   UNL A   1      32.682  22.887  26.119  1.00  0.00     0.339 C 
ATOM     79  O   UNL A   1      32.153  22.932  27.222  1.00  0.00    -0.246 OA
BRANCH  78  80
ATOM     80  C   UNL A   1      34.214  22.733  25.956  1.00  0.00     0.080 A 
ATOM     81  C   UNL A   1      35.820  23.927  25.644  1.00  0.00     0.043 A 
ATOM     82  C   UNL A   1      34.490  20.977  25.592  1.00  0.00     0.055 A 
ATOM     83  C   UNL A   1      37.366  23.324  25.244  1.00  0.00     0.041 A 
ATOM     84  C   UNL A   1      36.114  20.478  25.042  1.00  0.00     0.023 A 
ATOM     85  Cl  UNL A   1      33.240  19.802  25.719  1.00  0.00    -0.083 Cl
ATOM     86  C   UNL A   1      37.501  21.616  24.886  1.00  0.00     0.028 A 
BRANCH  83  87
ATOM     87  N   UNL A   1      38.354  24.140  25.836  1.00  0.00    -0.332 N 
ATOM     88  H   UNL A   1      38.445  25.032  25.430  1.00  0.00     0.169 HD
BRANCH  87  89
ATOM     89  C   UNL A   1      39.216  23.900  26.889  1.00  0.00     0.177 C 
ATOM     90  S   UNL A   1      39.637  25.241  27.821  1.00  0.00    -0.040 S 
BRANCH  89  91
ATOM     91  N   UNL A   1      39.819  22.667  27.310  1.00  0.00    -0.299 N 
ATOM     92  C   UNL A   1      40.959  21.718  27.489  1.00  0.00     0.260 C 
ATOM     93  H   UNL A   1      39.059  22.171  27.694  1.00  0.00     0.172 HD
ATOM     94  O   UNL A   1      40.751  20.540  27.771  1.00  0.00    -0.269 OA
BRANCH  92  95
ATOM     95  C   UNL A   1      42.388  22.141  27.232  1.00  0.00     0.075 A 
ATOM     96  C   UNL A   1      42.612  22.701  25.529  1.00  0.00     0.017 A 
ATOM     97  C   UNL A   1      42.772  23.094  28.618  1.00  0.00     0.135 A 
ATOM     98  C   UNL A   1      42.994  24.403  25.119  1.00  0.00     0.001 A 
ATOM     99  C   UNL A   1      43.150  24.787  28.373  1.00  0.00     0.040 A 
ATOM    100  F   UNL A   1      42.262  22.765  29.808  1.00  0.00    -0.206 F 
ATOM    101  C   UNL A   1      43.227  25.555  26.499  1.00  0.00     0.003 A 
ENDBRANCH  92  95
ENDBRANCH  89  91
ENDBRANCH  87  89
ENDBRANCH  83  87
ENDBRANCH  78  80
ENDBRANCH  77  78
ENDBRANCH  76  77
ENDBRANCH  75  76
ENDBRANCH  74  75
ENDBRANCH   1  74
TORSDOF 24
ENDMDL
MODEL 3
REMARK VINA RESULT:      -8.9      4.675     11.253
REMARK SMILES O=C(OCCOCCOCCOC(=O)c1cc(NC(=S)NC(=O)c2ccccc2F)ccc1Cl)c1ccc(-c2c3nc(c(-c4cccc(S(=O)(=O)[O-])c4F)c4ccc([nH]4)c(-c4cccc(S(=O)(=O)[O-])c4F)c4nc(c(-c5cccc(S(=O)(=O)[O-])c5F)c5ccc2[nH]5)C=C4)C=C3)cc1
REMARK SMILES IDX 8 1 7 2 6 3 5 4 4 5 3 6 2 7 1 8 35 9 36 10 97 11 37 12 96 13
REMARK SMILES IDX 38 14 39 15 40 16 90 17 41 18 95 19 89 20 91 21 42 22 94 23
REMARK SMILES IDX 88 24 87 25 43 27 75 28 55 29 74 30 56 31 59 32 73 33 92 34
REMARK SMILES IDX 57 35 58 36 72 38 93 39 60 40 44 41 45 42 53 43 46 44 48 45
REMARK SMILES IDX 54 46 47 47 49 48 50 49 51 50 52 51 76 52 77 53 85 54 78 55
REMARK SMILES IDX 80 56 86 57 79 58 81 59 82 60 83 61 84 62 61 63 62 64 70 65
REMARK SMILES IDX 63 66 65 67 71 68 64 69 66 70 67 71 68 72 69 73 9 74 10 75
REMARK SMILES IDX 11 76 12 77 13 78 14 79 15 80 16 81 33 82 17 83 32 84 34 85
REMARK SMILES IDX 31 86 18 87 19 89 20 90 21 91 22 92 23 94 24 95 25 96 29 97
REMARK SMILES IDX 26 98 28 99 30 100 27 101
REMARK H PARENT 91 26 59 37 18 88 21 93
REMARK Flexibility Score: inf
ROOT
ATOM      1  C   UNL A   1      31.811  27.488  24.969  1.00  0.00     0.188 C 
ENDROOT
BRANCH   1   2
ATOM      2  C   UNL A   1      33.085  28.224  25.380  1.00  0.00     0.188 C 
BRANCH   2   3
ATOM      3  O   UNL A   1      32.916  29.634  25.510  1.00  0.00    -0.376 OA
BRANCH   3   4
ATOM      4  C   UNL A   1      33.447  30.200  26.711  1.00  0.00     0.202 C 
BRANCH   4   5
ATOM      5  C   UNL A   1      32.684  31.396  27.321  1.00  0.00     0.261 C 
BRANCH   5   6
ATOM      6  O   UNL A   1      33.420  32.633  27.389  1.00  0.00    -0.460 OA
BRANCH   6   7
ATOM      7  C   UNL A   1      33.661  33.437  28.457  1.00  0.00     0.338 C 
ATOM      8  O   UNL A   1      32.947  34.423  28.629  1.00  0.00    -0.246 OA
BRANCH   7   9
ATOM      9  C   UNL A   1      34.771  33.192  29.423  1.00  0.00     0.060 A 
ATOM     10  C   UNL A   1      35.910  33.985  29.508  1.00  0.00     0.016 A 
ATOM     11  C   UNL A   1      34.628  32.161  30.364  1.00  0.00     0.016 A 
ATOM     12  C   UNL A   1      36.942  33.715  30.384  1.00  0.00     0.010 A 
ATOM     13  C   UNL A   1      35.626  31.929  31.320  1.00  0.00     0.010 A 
ATOM     14  C   UNL A   1      36.811  32.682  31.296  1.00  0.00    -0.014 A 
BRANCH  14  15
ATOM     15  C   UNL A   1      38.014  32.306  32.060  1.00  0.00     0.031 A 
ATOM     16  C   UNL A   1      39.085  31.579  31.316  1.00  0.00     0.074 A 
ATOM     17  C   UNL A   1      38.221  32.752  33.314  1.00  0.00     0.049 A 
ATOM     18  N   UNL A   1      40.235  31.154  31.754  1.00  0.00    -0.248 NA
ATOM     19  C   UNL A   1      38.859  31.336  29.877  1.00  0.00     0.031 C 
ATOM     20  C   UNL A   1      37.327  33.651  34.045  1.00  0.00     0.029 A 
ATOM     21  N   UNL A   1      39.250  32.537  34.194  1.00  0.00    -0.354 N 
ATOM     22  C   UNL A   1      40.847  30.565  30.660  1.00  0.00     0.074 A 
ATOM     23  C   UNL A   1      39.948  30.669  29.538  1.00  0.00     0.031 C 
ATOM     24  C   UNL A   1      37.821  33.864  35.274  1.00  0.00     0.029 A 
ATOM     25  C   UNL A   1      39.032  33.085  35.437  1.00  0.00     0.049 A 
ATOM     26  H   UNL A   1      40.065  32.037  33.960  1.00  0.00     0.167 HD
ATOM     27  C   UNL A   1      42.070  30.004  30.605  1.00  0.00     0.034 A 
ATOM     28  C   UNL A   1      39.711  32.956  36.591  1.00  0.00     0.034 A 
ATOM     29  C   UNL A   1      42.952  29.938  31.731  1.00  0.00     0.049 A 
ATOM     30  C   UNL A   1      41.005  32.207  36.537  1.00  0.00     0.074 A 
ATOM     31  C   UNL A   1      44.209  29.373  31.796  1.00  0.00     0.029 A 
ATOM     32  N   UNL A   1      42.659  30.437  32.991  1.00  0.00    -0.354 N 
ATOM     33  N   UNL A   1      41.577  31.659  35.493  1.00  0.00    -0.248 NA
ATOM     34  C   UNL A   1      41.772  32.100  37.782  1.00  0.00     0.031 C 
ATOM     35  C   UNL A   1      44.652  29.477  33.115  1.00  0.00     0.029 A 
ATOM     36  C   UNL A   1      43.700  30.164  33.854  1.00  0.00     0.049 A 
ATOM     37  H   UNL A   1      41.833  30.914  33.233  1.00  0.00     0.167 HD
ATOM     38  C   UNL A   1      42.795  31.179  35.941  1.00  0.00     0.074 A 
ATOM     39  C   UNL A   1      42.878  31.506  37.352  1.00  0.00     0.031 C 
ATOM     40  C   UNL A   1      43.757  30.530  35.245  1.00  0.00     0.034 A 
BRANCH  27  41
ATOM     41  C   UNL A   1      42.490  29.382  29.310  1.00  0.00     0.023 A 
ATOM     42  C   UNL A   1      42.979  30.175  28.254  1.00  0.00     0.012 A 
ATOM     43  C   UNL A   1      42.438  27.984  29.169  1.00  0.00     0.148 A 
ATOM     44  C   UNL A   1      43.402  29.581  27.066  1.00  0.00     0.002 A 
ATOM     45  C   UNL A   1      42.913  27.396  28.008  1.00  0.00     0.091 A 
ATOM     46  F   UNL A   1      41.923  27.261  30.174  1.00  0.00    -0.205 F 
ATOM     47  C   UNL A   1      43.385  28.192  26.950  1.00  0.00     0.022 A 
BRANCH  45  48
ATOM     48  S   UNL A   1      43.011  25.617  27.803  1.00  0.00     0.127 S 
ATOM     49  O   UNL A   1      42.738  25.469  26.373  1.00  0.00    -0.237 OA
ATOM     50  O   UNL A   1      44.394  25.347  28.193  1.00  0.00    -0.237 OA
ATOM     51  O   UNL A   1      42.000  25.050  28.684  1.00  0.00    -0.744 OA
ENDBRANCH  45  48
ENDBRANCH  27  41
BRANCH  28  52
ATOM     52  C   UNL A   1      39.184  33.534  37.860  1.00  0.00     0.023 A 
ATOM     53  C   UNL A   1      38.315  32.789  38.679  1.00  0.00     0.012 A 
ATOM     54  C   UNL A   1      39.569  34.827  38.272  1.00  0.00     0.148 A 
ATOM     55  C   UNL A   1      37.823  33.331  39.870  1.00  0.00     0.002 A 
ATOM     56  C   UNL A   1      39.110  35.342  39.481  1.00  0.00     0.091 A 
ATOM     57  F   UNL A   1      40.414  35.514  37.491  1.00  0.00    -0.205 F 
ATOM     58  C   UNL A   1      38.225  34.601  40.276  1.00  0.00     0.022 A 
BRANCH  56  59
ATOM     59  S   UNL A   1      39.682  36.915  40.145  1.00  0.00     0.127 S 
ATOM     60  O   UNL A   1      41.123  36.700  40.243  1.00  0.00    -0.237 OA
ATOM     61  O   UNL A   1      39.259  37.845  39.099  1.00  0.00    -0.237 OA
ATOM     62  O   UNL A   1      38.987  37.083  41.415  1.00  0.00    -0.744 OA
ENDBRANCH  56  59
ENDBRANCH  28  52
BRANCH  40  63
ATOM     63  C   UNL A   1      45.003  30.149  35.985  1.00  0.00     0.023 A 
ATOM     64  C   UNL A   1      46.091  31.039  36.029  1.00  0.00     0.012 A 
ATOM     65  C   UNL A   1      45.022  28.971  36.755  1.00  0.00     0.148 A 
ATOM     66  C   UNL A   1      47.193  30.755  36.828  1.00  0.00     0.002 A 
ATOM     67  C   UNL A   1      46.094  28.728  37.598  1.00  0.00     0.091 A 
ATOM     68  F   UNL A   1      43.976  28.137  36.674  1.00  0.00    -0.205 F 
ATOM     69  C   UNL A   1      47.186  29.612  37.627  1.00  0.00     0.022 A 
BRANCH  67  70
ATOM     70  S   UNL A   1      46.112  27.355  38.752  1.00  0.00     0.127 S 
ATOM     71  O   UNL A   1      46.848  27.926  39.880  1.00  0.00    -0.237 OA
ATOM     72  O   UNL A   1      44.686  27.144  38.996  1.00  0.00    -0.237 OA
ATOM     73  O   UNL A   1      46.783  26.257  38.069  1.00  0.00    -0.744 OA
ENDBRANCH  67  70
ENDBRANCH  40  63
ENDBRANCH  14  15
ENDBRANCH   7   9
ENDBRANCH   6   7
ENDBRANCH   5   6
ENDBRANCH   4   5
ENDBRANCH   3   4
ENDBRANCH   2   3
ENDBRANCH   1   2
BRANCH   1  74
ATOM     74  O   UNL A   1      31.873  26.071  24.902  1.00  0.00    -0.376 OA
BRANCH  74  75
ATOM     75  C   UNL A   1      31.181  25.477  23.810  1.00  0.00     0.202 C 
BRANCH  75  76
ATOM     76  C   UNL A   1      31.020  23.936  23.721  1.00  0.00     0.261 C 
BRANCH  76  77
ATOM     77  O   UNL A   1      32.200  23.094  23.787  1.00  0.00    -0.460 OA
BRANCH  77  78
ATOM     78  C   UNL A   1      32.592  22.765  25.055  1.00  0.00     0.339 C 
ATOM     79  O   UNL A   1      31.836  22.684  26.015  1.00  0.00    -0.246 OA
BRANCH  78  80
ATOM     80  C   UNL A   1      34.127  22.638  25.214  1.00  0.00     0.080 A 
ATOM     81  C   UNL A   1      35.758  23.824  25.033  1.00  0.00     0.043 A 
ATOM     82  C   UNL A   1      34.473  20.858  25.187  1.00  0.00     0.055 A 
ATOM     83  C   UNL A   1      37.355  23.219  25.035  1.00  0.00     0.041 A 
ATOM     84  C   UNL A   1      36.175  20.335  25.042  1.00  0.00     0.023 A 
ATOM     85  Cl  UNL A   1      33.226  19.675  25.254  1.00  0.00    -0.083 Cl
ATOM     86  C   UNL A   1      37.562  21.482  24.979  1.00  0.00     0.028 A 
BRANCH  83  87
ATOM     87  N   UNL A   1      38.207  24.147  25.672  1.00  0.00    -0.332 N 
ATOM     88  H   UNL A   1      38.327  24.993  25.183  1.00  0.00     0.169 HD
BRANCH  87  89
ATOM     89  C   UNL A   1      38.902  24.072  26.863  1.00  0.00     0.177 C 
ATOM     90  S   UNL A   1      38.766  25.406  27.885  1.00  0.00    -0.040 S 
BRANCH  89  91
ATOM     91  N   UNL A   1      39.737  23.017  27.365  1.00  0.00    -0.299 N 
ATOM     92  C   UNL A   1      40.673  21.860  27.228  1.00  0.00     0.260 C 
ATOM     93  H   UNL A   1      39.640  23.105  28.341  1.00  0.00     0.172 HD
ATOM     94  O   UNL A   1      40.904  21.129  28.187  1.00  0.00    -0.269 OA
BRANCH  92  95
ATOM     95  C   UNL A   1      41.281  21.489  25.894  1.00  0.00     0.075 A 
ATOM     96  C   UNL A   1      42.901  22.257  25.674  1.00  0.00     0.017 A 
ATOM     97  C   UNL A   1      40.999  19.789  25.792  1.00  0.00     0.135 A 
ATOM     98  C   UNL A   1      44.417  21.303  25.603  1.00  0.00     0.001 A 
ATOM     99  C   UNL A   1      42.390  18.726  25.734  1.00  0.00     0.040 A 
ATOM    100  F   UNL A   1      39.878  19.274  26.304  1.00  0.00    -0.206 F 
ATOM    101  C   UNL A   1      44.264  19.499  25.687  1.00  0.00     0.003 A 
ENDBRANCH  92  95
ENDBRANCH  89  91
ENDBRANCH  87  89
ENDBRANCH  83  87
ENDBRANCH  78  80
ENDBRANCH  77  78
ENDBRANCH  76  77
ENDBRANCH  75  76
ENDBRANCH  74  75
ENDBRANCH   1  74
TORSDOF 24
ENDMDL
