MODEL 1
REMARK VINA RESULT:     -10.5      0.000      0.000
REMARK SMILES O=C(OCCOCCOCCOC(=O)[C@H]1CCCC[C@@H]1C(=O)Nc1ccc(Br)c(Cl)c1)c1ccc(-c2c3nc(c(-c4cccc(S(=O)(=O)[O-])c4F)c4ccc([nH]4)c(-c4cccc(S(=O)(=O)[O-])c4F)c4nc(c(-c5cccc(S(=O)(=O)[O-])c5F)c5ccc2[nH]5)C=C4)C=C3)cc1
REMARK SMILES IDX 7 1 6 2 5 3 4 4 3 5 2 6 1 7 32 8 33 9 94 10 34 11 93 12
REMARK SMILES IDX 35 13 36 14 37 15 87 16 38 17 92 18 86 19 88 20 39 21 91 22
REMARK SMILES IDX 85 23 84 24 40 26 72 27 52 28 71 29 53 30 56 31 70 32 89 33
REMARK SMILES IDX 54 34 55 35 69 37 90 38 57 39 41 40 42 41 50 42 43 43 45 44
REMARK SMILES IDX 51 45 44 46 46 47 47 48 48 49 49 50 73 51 74 52 82 53 75 54
REMARK SMILES IDX 77 55 83 56 76 57 78 58 79 59 80 60 81 61 58 62 59 63 67 64
REMARK SMILES IDX 60 65 62 66 68 67 61 68 63 69 64 70 65 71 66 72 8 73 9 74
REMARK SMILES IDX 10 75 11 76 12 77 13 78 14 79 15 80 16 81 20 82 17 83 19 84
REMARK SMILES IDX 18 85 21 86 22 87 23 88 24 90 25 91 31 92 26 93 29 94 27 95
REMARK SMILES IDX 30 96 28 97
REMARK H PARENT 88 25 56 36 23 89
REMARK Flexibility Score: inf
ROOT
ATOM      1  C   UNL A   1      35.638  30.624  28.060  1.00  0.00     0.188 C 
ENDROOT
BRANCH   1   2
ATOM      2  O   UNL A   1      35.121  31.877  27.602  1.00  0.00    -0.376 OA
BRANCH   2   3
ATOM      3  C   UNL A   1      33.982  32.326  28.324  1.00  0.00     0.202 C 
BRANCH   3   4
ATOM      4  C   UNL A   1      33.198  33.465  27.656  1.00  0.00     0.261 C 
BRANCH   4   5
ATOM      5  O   UNL A   1      32.895  34.619  28.466  1.00  0.00    -0.460 OA
BRANCH   5   6
ATOM      6  C   UNL A   1      33.229  34.953  29.735  1.00  0.00     0.338 C 
ATOM      7  O   UNL A   1      32.579  35.853  30.270  1.00  0.00    -0.246 OA
BRANCH   6   8
ATOM      8  C   UNL A   1      34.352  34.347  30.525  1.00  0.00     0.060 A 
ATOM      9  C   UNL A   1      33.997  33.468  31.574  1.00  0.00     0.016 A 
ATOM     10  C   UNL A   1      35.708  34.550  30.291  1.00  0.00     0.016 A 
ATOM     11  C   UNL A   1      34.960  32.842  32.385  1.00  0.00     0.010 A 
ATOM     12  C   UNL A   1      36.670  33.940  31.108  1.00  0.00     0.010 A 
ATOM     13  C   UNL A   1      36.314  33.094  32.179  1.00  0.00    -0.014 A 
BRANCH  13  14
ATOM     14  C   UNL A   1      37.396  32.369  32.904  1.00  0.00     0.031 A 
ATOM     15  C   UNL A   1      37.882  32.705  34.290  1.00  0.00     0.074 A 
ATOM     16  C   UNL A   1      38.013  31.396  32.218  1.00  0.00     0.049 A 
ATOM     17  N   UNL A   1      39.050  32.483  34.846  1.00  0.00    -0.248 NA
ATOM     18  C   UNL A   1      36.934  33.380  35.173  1.00  0.00     0.031 C 
ATOM     19  C   UNL A   1      37.599  30.914  30.899  1.00  0.00     0.029 A 
ATOM     20  N   UNL A   1      39.122  30.662  32.523  1.00  0.00    -0.354 N 
ATOM     21  C   UNL A   1      39.021  33.107  36.098  1.00  0.00     0.074 A 
ATOM     22  C   UNL A   1      37.694  33.659  36.228  1.00  0.00     0.031 C 
ATOM     23  C   UNL A   1      38.464  29.979  30.492  1.00  0.00     0.029 A 
ATOM     24  C   UNL A   1      39.490  29.809  31.517  1.00  0.00     0.049 A 
ATOM     25  H   UNL A   1      39.607  30.736  33.377  1.00  0.00     0.167 HD
ATOM     26  C   UNL A   1      40.002  33.186  37.041  1.00  0.00     0.034 A 
ATOM     27  C   UNL A   1      40.538  28.973  31.429  1.00  0.00     0.034 A 
ATOM     28  C   UNL A   1      41.191  32.361  36.985  1.00  0.00     0.049 A 
ATOM     29  C   UNL A   1      41.496  28.886  32.571  1.00  0.00     0.074 A 
ATOM     30  C   UNL A   1      42.206  32.239  37.922  1.00  0.00     0.029 A 
ATOM     31  N   UNL A   1      41.457  31.426  35.995  1.00  0.00    -0.354 N 
ATOM     32  N   UNL A   1      41.542  29.618  33.657  1.00  0.00    -0.248 NA
ATOM     33  C   UNL A   1      42.516  27.835  32.500  1.00  0.00     0.031 C 
ATOM     34  C   UNL A   1      43.051  31.200  37.524  1.00  0.00     0.029 A 
ATOM     35  C   UNL A   1      42.563  30.671  36.341  1.00  0.00     0.049 A 
ATOM     36  H   UNL A   1      40.935  31.316  35.167  1.00  0.00     0.167 HD
ATOM     37  C   UNL A   1      42.589  29.110  34.411  1.00  0.00     0.074 A 
ATOM     38  C   UNL A   1      43.136  27.992  33.665  1.00  0.00     0.031 C 
ATOM     39  C   UNL A   1      43.067  29.542  35.602  1.00  0.00     0.034 A 
BRANCH  26  40
ATOM     40  C   UNL A   1      39.840  34.068  38.279  1.00  0.00     0.023 A 
ATOM     41  C   UNL A   1      40.309  35.395  38.279  1.00  0.00     0.012 A 
ATOM     42  C   UNL A   1      39.080  33.636  39.397  1.00  0.00     0.148 A 
ATOM     43  C   UNL A   1      40.088  36.245  39.367  1.00  0.00     0.002 A 
ATOM     44  C   UNL A   1      38.798  34.514  40.449  1.00  0.00     0.091 A 
ATOM     45  F   UNL A   1      38.633  32.372  39.417  1.00  0.00    -0.205 F 
ATOM     46  C   UNL A   1      39.326  35.812  40.445  1.00  0.00     0.022 A 
BRANCH  44  47
ATOM     47  S   UNL A   1      37.769  34.085  41.868  1.00  0.00     0.127 S 
ATOM     48  O   UNL A   1      36.570  33.560  41.213  1.00  0.00    -0.237 OA
ATOM     49  O   UNL A   1      38.579  33.076  42.543  1.00  0.00    -0.237 OA
ATOM     50  O   UNL A   1      37.570  35.328  42.597  1.00  0.00    -0.744 OA
ENDBRANCH  44  47
ENDBRANCH  26  40
BRANCH  27  51
ATOM     51  C   UNL A   1      40.584  28.076  30.252  1.00  0.00     0.023 A 
ATOM     52  C   UNL A   1      39.550  27.135  30.099  1.00  0.00     0.012 A 
ATOM     53  C   UNL A   1      41.477  28.318  29.192  1.00  0.00     0.148 A 
ATOM     54  C   UNL A   1      39.388  26.457  28.894  1.00  0.00     0.002 A 
ATOM     55  C   UNL A   1      41.289  27.664  27.982  1.00  0.00     0.091 A 
ATOM     56  F   UNL A   1      42.430  29.246  29.365  1.00  0.00    -0.205 F 
ATOM     57  C   UNL A   1      40.247  26.732  27.833  1.00  0.00     0.022 A 
BRANCH  55  58
ATOM     58  S   UNL A   1      42.251  28.045  26.515  1.00  0.00     0.127 S 
ATOM     59  O   UNL A   1      43.546  27.454  26.848  1.00  0.00    -0.237 OA
ATOM     60  O   UNL A   1      41.501  27.340  25.475  1.00  0.00    -0.237 OA
ATOM     61  O   UNL A   1      42.239  29.496  26.394  1.00  0.00    -0.744 OA
ENDBRANCH  55  58
ENDBRANCH  27  51
BRANCH  39  62
ATOM     62  C   UNL A   1      44.243  28.815  36.187  1.00  0.00     0.023 A 
ATOM     63  C   UNL A   1      45.541  29.296  35.930  1.00  0.00     0.012 A 
ATOM     64  C   UNL A   1      44.060  27.731  37.068  1.00  0.00     0.148 A 
ATOM     65  C   UNL A   1      46.646  28.700  36.534  1.00  0.00     0.002 A 
ATOM     66  C   UNL A   1      45.164  27.162  37.690  1.00  0.00     0.091 A 
ATOM     67  F   UNL A   1      42.815  27.286  37.285  1.00  0.00    -0.205 F 
ATOM     68  C   UNL A   1      46.457  27.642  37.421  1.00  0.00     0.022 A 
BRANCH  66  69
ATOM     69  S   UNL A   1      45.019  25.838  38.894  1.00  0.00     0.127 S 
ATOM     70  O   UNL A   1      44.160  26.450  39.907  1.00  0.00    -0.237 OA
ATOM     71  O   UNL A   1      44.380  24.777  38.114  1.00  0.00    -0.237 OA
ATOM     72  O   UNL A   1      46.377  25.537  39.327  1.00  0.00    -0.744 OA
ENDBRANCH  66  69
ENDBRANCH  39  62
ENDBRANCH  13  14
ENDBRANCH   6   8
ENDBRANCH   5   6
ENDBRANCH   4   5
ENDBRANCH   3   4
ENDBRANCH   2   3
ENDBRANCH   1   2
BRANCH   1  73
ATOM     73  C   UNL A   1      34.790  29.433  27.628  1.00  0.00     0.188 C 
BRANCH  73  74
ATOM     74  O   UNL A   1      34.586  29.447  26.215  1.00  0.00    -0.376 OA
BRANCH  74  75
ATOM     75  C   UNL A   1      33.244  29.753  25.823  1.00  0.00     0.202 C 
BRANCH  75  76
ATOM     76  C   UNL A   1      32.736  28.894  24.658  1.00  0.00     0.261 C 
BRANCH  76  77
ATOM     77  O   UNL A   1      31.768  27.909  25.033  1.00  0.00    -0.463 OA
BRANCH  77  78
ATOM     78  C   UNL A   1      32.220  26.715  25.482  1.00  0.00     0.309 C 
ATOM     79  O   UNL A   1      33.395  26.384  25.515  1.00  0.00    -0.252 OA
BRANCH  78  80
ATOM     80  C   UNL A   1      31.083  25.790  25.863  1.00  0.00     0.111 C 
ATOM     81  C   UNL A   1      29.785  25.983  25.090  1.00  0.00     0.016 C 
ATOM     82  C   UNL A   1      31.645  24.377  25.745  1.00  0.00     0.093 C 
ATOM     83  C   UNL A   1      29.813  25.448  23.666  1.00  0.00     0.001 C 
ATOM     84  C   UNL A   1      31.690  23.873  24.291  1.00  0.00     0.014 C 
ATOM     85  C   UNL A   1      30.421  24.076  23.497  1.00  0.00     0.001 C 
BRANCH  82  86
ATOM     86  C   UNL A   1      30.984  23.397  26.725  1.00  0.00     0.228 C 
ATOM     87  O   UNL A   1      29.884  23.609  27.233  1.00  0.00    -0.274 OA
ATOM     88  N   UNL A   1      31.681  22.242  26.998  1.00  0.00    -0.326 N 
ATOM     89  H   UNL A   1      31.180  21.475  27.358  1.00  0.00     0.169 HD
BRANCH  88  90
ATOM     90  C   UNL A   1      33.059  22.093  26.795  1.00  0.00     0.042 A 
ATOM     91  C   UNL A   1      33.905  23.165  27.083  1.00  0.00     0.027 A 
ATOM     92  C   UNL A   1      33.544  20.966  26.139  1.00  0.00     0.047 A 
ATOM     93  C   UNL A   1      35.222  23.147  26.638  1.00  0.00     0.019 A 
ATOM     94  C   UNL A   1      34.861  20.947  25.679  1.00  0.00     0.057 A 
ATOM     95  C   UNL A   1      35.696  22.047  25.918  1.00  0.00     0.036 A 
ATOM     96  Cl  UNL A   1      35.362  19.604  24.715  1.00  0.00    -0.083 Cl
ATOM     97  Br  UNL A   1      37.466  22.161  25.238  1.00  0.00    -0.049 Br
ENDBRANCH  88  90
ENDBRANCH  82  86
ENDBRANCH  78  80
ENDBRANCH  77  78
ENDBRANCH  76  77
ENDBRANCH  75  76
ENDBRANCH  74  75
ENDBRANCH  73  74
ENDBRANCH   1  73
TORSDOF 22
ENDMDL
MODEL 2
REMARK VINA RESULT:     -10.4      6.696     11.741
REMARK SMILES O=C(OCCOCCOCCOC(=O)[C@H]1CCCC[C@@H]1C(=O)Nc1ccc(Br)c(Cl)c1)c1ccc(-c2c3nc(c(-c4cccc(S(=O)(=O)[O-])c4F)c4ccc([nH]4)c(-c4cccc(S(=O)(=O)[O-])c4F)c4nc(c(-c5cccc(S(=O)(=O)[O-])c5F)c5ccc2[nH]5)C=C4)C=C3)cc1
REMARK SMILES IDX 7 1 6 2 5 3 4 4 3 5 2 6 1 7 32 8 33 9 94 10 34 11 93 12
REMARK SMILES IDX 35 13 36 14 37 15 87 16 38 17 92 18 86 19 88 20 39 21 91 22
REMARK SMILES IDX 85 23 84 24 40 26 72 27 52 28 71 29 53 30 56 31 70 32 89 33
REMARK SMILES IDX 54 34 55 35 69 37 90 38 57 39 41 40 42 41 50 42 43 43 45 44
REMARK SMILES IDX 51 45 44 46 46 47 47 48 48 49 49 50 73 51 74 52 82 53 75 54
REMARK SMILES IDX 77 55 83 56 76 57 78 58 79 59 80 60 81 61 58 62 59 63 67 64
REMARK SMILES IDX 60 65 62 66 68 67 61 68 63 69 64 70 65 71 66 72 8 73 9 74
REMARK SMILES IDX 10 75 11 76 12 77 13 78 14 79 15 80 16 81 20 82 17 83 19 84
REMARK SMILES IDX 18 85 21 86 22 87 23 88 24 90 25 91 31 92 26 93 29 94 27 95
REMARK SMILES IDX 30 96 28 97
REMARK H PARENT 88 25 56 36 23 89
REMARK Flexibility Score: inf
ROOT
ATOM      1  C   UNL A   1      36.490  21.391  24.689  1.00  0.00     0.188 C 
ENDROOT
BRANCH   1   2
ATOM      2  O   UNL A   1      37.846  21.816  24.853  1.00  0.00    -0.376 OA
BRANCH   2   3
ATOM      3  C   UNL A   1      38.593  21.018  25.762  1.00  0.00     0.202 C 
BRANCH   3   4
ATOM      4  C   UNL A   1      38.966  19.622  25.244  1.00  0.00     0.261 C 
BRANCH   4   5
ATOM      5  O   UNL A   1      40.052  18.943  25.906  1.00  0.00    -0.460 OA
BRANCH   5   6
ATOM      6  C   UNL A   1      41.338  19.297  26.141  1.00  0.00     0.338 C 
ATOM      7  O   UNL A   1      42.172  18.391  26.188  1.00  0.00    -0.246 OA
BRANCH   6   8
ATOM      8  C   UNL A   1      41.822  20.696  26.390  1.00  0.00     0.060 A 
ATOM      9  C   UNL A   1      42.190  21.459  25.258  1.00  0.00     0.016 A 
ATOM     10  C   UNL A   1      41.904  21.315  27.633  1.00  0.00     0.016 A 
ATOM     11  C   UNL A   1      42.660  22.780  25.365  1.00  0.00     0.010 A 
ATOM     12  C   UNL A   1      42.387  22.626  27.745  1.00  0.00     0.010 A 
ATOM     13  C   UNL A   1      42.792  23.373  26.618  1.00  0.00    -0.014 A 
BRANCH  13  14
ATOM     14  C   UNL A   1      43.152  24.806  26.806  1.00  0.00     0.031 A 
ATOM     15  C   UNL A   1      44.474  25.422  26.427  1.00  0.00     0.074 A 
ATOM     16  C   UNL A   1      42.237  25.566  27.427  1.00  0.00     0.049 A 
ATOM     17  N   UNL A   1      45.076  26.481  26.916  1.00  0.00    -0.248 NA
ATOM     18  C   UNL A   1      45.224  24.764  25.360  1.00  0.00     0.031 C 
ATOM     19  C   UNL A   1      40.888  25.123  27.781  1.00  0.00     0.029 A 
ATOM     20  N   UNL A   1      42.313  26.848  27.886  1.00  0.00    -0.354 N 
ATOM     21  C   UNL A   1      46.334  26.540  26.306  1.00  0.00     0.074 A 
ATOM     22  C   UNL A   1      46.368  25.440  25.373  1.00  0.00     0.031 C 
ATOM     23  C   UNL A   1      40.267  26.113  28.431  1.00  0.00     0.029 A 
ATOM     24  C   UNL A   1      41.179  27.247  28.543  1.00  0.00     0.049 A 
ATOM     25  H   UNL A   1      43.098  27.428  27.757  1.00  0.00     0.167 HD
ATOM     26  C   UNL A   1      47.341  27.440  26.499  1.00  0.00     0.034 A 
ATOM     27  C   UNL A   1      40.900  28.405  29.165  1.00  0.00     0.034 A 
ATOM     28  C   UNL A   1      47.134  28.684  27.210  1.00  0.00     0.049 A 
ATOM     29  C   UNL A   1      41.926  29.489  29.178  1.00  0.00     0.074 A 
ATOM     30  C   UNL A   1      48.015  29.741  27.380  1.00  0.00     0.029 A 
ATOM     31  N   UNL A   1      45.926  29.088  27.760  1.00  0.00    -0.354 N 
ATOM     32  N   UNL A   1      43.164  29.448  28.752  1.00  0.00    -0.248 NA
ATOM     33  C   UNL A   1      41.507  30.790  29.711  1.00  0.00     0.031 C 
ATOM     34  C   UNL A   1      47.326  30.797  27.982  1.00  0.00     0.029 A 
ATOM     35  C   UNL A   1      46.015  30.401  28.186  1.00  0.00     0.049 A 
ATOM     36  H   UNL A   1      45.123  28.524  27.835  1.00  0.00     0.167 HD
ATOM     37  C   UNL A   1      43.676  30.721  28.953  1.00  0.00     0.074 A 
ATOM     38  C   UNL A   1      42.602  31.516  29.519  1.00  0.00     0.031 C 
ATOM     39  C   UNL A   1      44.926  31.183  28.712  1.00  0.00     0.034 A 
BRANCH  26  40
ATOM     40  C   UNL A   1      48.717  27.235  25.865  1.00  0.00     0.023 A 
ATOM     41  C   UNL A   1      49.746  26.596  26.580  1.00  0.00     0.012 A 
ATOM     42  C   UNL A   1      48.950  27.535  24.497  1.00  0.00     0.148 A 
ATOM     43  C   UNL A   1      50.982  26.317  25.986  1.00  0.00     0.002 A 
ATOM     44  C   UNL A   1      50.160  27.186  23.888  1.00  0.00     0.091 A 
ATOM     45  F   UNL A   1      47.982  28.152  23.804  1.00  0.00    -0.205 F 
ATOM     46  C   UNL A   1      51.186  26.600  24.641  1.00  0.00     0.022 A 
BRANCH  44  47
ATOM     47  S   UNL A   1      50.516  27.446  22.138  1.00  0.00     0.127 S 
ATOM     48  O   UNL A   1      50.093  28.835  21.955  1.00  0.00    -0.237 OA
ATOM     49  O   UNL A   1      51.960  27.241  22.083  1.00  0.00    -0.237 OA
ATOM     50  O   UNL A   1      49.711  26.465  21.426  1.00  0.00    -0.744 OA
ENDBRANCH  44  47
ENDBRANCH  26  40
BRANCH  27  51
ATOM     51  C   UNL A   1      39.519  28.578  29.671  1.00  0.00     0.023 A 
ATOM     52  C   UNL A   1      39.249  28.192  30.997  1.00  0.00     0.012 A 
ATOM     53  C   UNL A   1      38.574  29.332  28.952  1.00  0.00     0.148 A 
ATOM     54  C   UNL A   1      38.060  28.573  31.611  1.00  0.00     0.002 A 
ATOM     55  C   UNL A   1      37.405  29.738  29.582  1.00  0.00     0.091 A 
ATOM     56  F   UNL A   1      38.882  29.708  27.702  1.00  0.00    -0.205 F 
ATOM     57  C   UNL A   1      37.147  29.357  30.911  1.00  0.00     0.022 A 
BRANCH  55  58
ATOM     58  S   UNL A   1      36.231  30.860  28.817  1.00  0.00     0.127 S 
ATOM     59  O   UNL A   1      35.678  30.028  27.751  1.00  0.00    -0.237 OA
ATOM     60  O   UNL A   1      35.315  31.133  29.925  1.00  0.00    -0.237 OA
ATOM     61  O   UNL A   1      37.007  32.009  28.373  1.00  0.00    -0.744 OA
ENDBRANCH  55  58
ENDBRANCH  27  51
BRANCH  39  62
ATOM     62  C   UNL A   1      45.218  32.615  29.055  1.00  0.00     0.023 A 
ATOM     63  C   UNL A   1      45.806  32.914  30.299  1.00  0.00     0.012 A 
ATOM     64  C   UNL A   1      45.012  33.642  28.113  1.00  0.00     0.148 A 
ATOM     65  C   UNL A   1      46.175  34.222  30.607  1.00  0.00     0.002 A 
ATOM     66  C   UNL A   1      45.411  34.938  28.416  1.00  0.00     0.091 A 
ATOM     67  F   UNL A   1      44.440  33.331  26.942  1.00  0.00    -0.205 F 
ATOM     68  C   UNL A   1      45.989  35.229  29.664  1.00  0.00     0.022 A 
BRANCH  66  69
ATOM     69  S   UNL A   1      45.270  36.292  27.245  1.00  0.00     0.127 S 
ATOM     70  O   UNL A   1      45.876  37.393  27.990  1.00  0.00    -0.237 OA
ATOM     71  O   UNL A   1      46.065  35.809  26.115  1.00  0.00    -0.237 OA
ATOM     72  O   UNL A   1      43.848  36.436  26.966  1.00  0.00    -0.744 OA
ENDBRANCH  66  69
ENDBRANCH  39  62
ENDBRANCH  13  14
ENDBRANCH   6   8
ENDBRANCH   5   6
ENDBRANCH   4   5
ENDBRANCH   3   4
ENDBRANCH   2   3
ENDBRANCH   1   2
BRANCH   1  73
ATOM     73  C   UNL A   1      35.728  21.300  26.007  1.00  0.00     0.188 C 
BRANCH  73  74
ATOM     74  O   UNL A   1      35.395  22.604  26.486  1.00  0.00    -0.376 OA
BRANCH  74  75
ATOM     75  C   UNL A   1      34.888  23.483  25.478  1.00  0.00     0.202 C 
BRANCH  75  76
ATOM     76  C   UNL A   1      35.102  24.968  25.796  1.00  0.00     0.261 C 
BRANCH  76  77
ATOM     77  O   UNL A   1      34.324  25.860  24.991  1.00  0.00    -0.463 OA
BRANCH  77  78
ATOM     78  C   UNL A   1      33.300  26.517  25.584  1.00  0.00     0.309 C 
ATOM     79  O   UNL A   1      33.189  26.690  26.788  1.00  0.00    -0.252 OA
BRANCH  78  80
ATOM     80  C   UNL A   1      32.249  26.944  24.580  1.00  0.00     0.111 C 
ATOM     81  C   UNL A   1      31.831  28.407  24.641  1.00  0.00     0.016 C 
ATOM     82  C   UNL A   1      32.794  26.534  23.216  1.00  0.00     0.093 C 
ATOM     83  C   UNL A   1      32.850  29.380  24.067  1.00  0.00     0.001 C 
ATOM     84  C   UNL A   1      33.845  27.518  22.674  1.00  0.00     0.014 C 
ATOM     85  C   UNL A   1      33.462  28.978  22.746  1.00  0.00     0.001 C 
BRANCH  82  86
ATOM     86  C   UNL A   1      31.680  26.196  22.215  1.00  0.00     0.228 C 
ATOM     87  O   UNL A   1      31.025  27.061  21.636  1.00  0.00    -0.274 OA
ATOM     88  N   UNL A   1      31.458  24.859  21.975  1.00  0.00    -0.326 N 
ATOM     89  H   UNL A   1      30.991  24.610  21.145  1.00  0.00     0.169 HD
BRANCH  88  90
ATOM     90  C   UNL A   1      31.857  23.832  22.840  1.00  0.00     0.042 A 
ATOM     91  C   UNL A   1      32.795  22.898  22.395  1.00  0.00     0.027 A 
ATOM     92  C   UNL A   1      31.187  23.642  24.044  1.00  0.00     0.047 A 
ATOM     93  C   UNL A   1      33.000  21.727  23.113  1.00  0.00     0.019 A 
ATOM     94  C   UNL A   1      31.381  22.462  24.764  1.00  0.00     0.057 A 
ATOM     95  C   UNL A   1      32.279  21.498  24.288  1.00  0.00     0.036 A 
ATOM     96  Cl  UNL A   1      30.395  22.194  26.157  1.00  0.00    -0.083 Cl
ATOM     97  Br  UNL A   1      32.528  19.817  25.138  1.00  0.00    -0.049 Br
ENDBRANCH  88  90
ENDBRANCH  82  86
ENDBRANCH  78  80
ENDBRANCH  77  78
ENDBRANCH  76  77
ENDBRANCH  75  76
ENDBRANCH  74  75
ENDBRANCH  73  74
ENDBRANCH   1  73
TORSDOF 22
ENDMDL
MODEL 3
REMARK VINA RESULT:     -10.4      6.770     11.804
REMARK SMILES O=C(OCCOCCOCCOC(=O)[C@H]1CCCC[C@@H]1C(=O)Nc1ccc(Br)c(Cl)c1)c1ccc(-c2c3nc(c(-c4cccc(S(=O)(=O)[O-])c4F)c4ccc([nH]4)c(-c4cccc(S(=O)(=O)[O-])c4F)c4nc(c(-c5cccc(S(=O)(=O)[O-])c5F)c5ccc2[nH]5)C=C4)C=C3)cc1
REMARK SMILES IDX 7 1 6 2 5 3 4 4 3 5 2 6 1 7 32 8 33 9 94 10 34 11 93 12
REMARK SMILES IDX 35 13 36 14 37 15 87 16 38 17 92 18 86 19 88 20 39 21 91 22
REMARK SMILES IDX 85 23 84 24 40 26 72 27 52 28 71 29 53 30 56 31 70 32 89 33
REMARK SMILES IDX 54 34 55 35 69 37 90 38 57 39 41 40 42 41 50 42 43 43 45 44
REMARK SMILES IDX 51 45 44 46 46 47 47 48 48 49 49 50 73 51 74 52 82 53 75 54
REMARK SMILES IDX 77 55 83 56 76 57 78 58 79 59 80 60 81 61 58 62 59 63 67 64
REMARK SMILES IDX 60 65 62 66 68 67 61 68 63 69 64 70 65 71 66 72 8 73 9 74
REMARK SMILES IDX 10 75 11 76 12 77 13 78 14 79 15 80 16 81 20 82 17 83 19 84
REMARK SMILES IDX 18 85 21 86 22 87 23 88 24 90 25 91 31 92 26 93 29 94 27 95
REMARK SMILES IDX 30 96 28 97
REMARK H PARENT 88 25 56 36 23 89
REMARK Flexibility Score: inf
ROOT
ATOM      1  C   UNL A   1      36.922  21.344  24.996  1.00  0.00     0.188 C 
ENDROOT
BRANCH   1   2
ATOM      2  O   UNL A   1      38.270  21.771  25.217  1.00  0.00    -0.376 OA
BRANCH   2   3
ATOM      3  C   UNL A   1      39.019  20.898  26.053  1.00  0.00     0.202 C 
BRANCH   3   4
ATOM      4  C   UNL A   1      39.407  19.559  25.411  1.00  0.00     0.261 C 
BRANCH   4   5
ATOM      5  O   UNL A   1      40.525  18.852  25.986  1.00  0.00    -0.460 OA
BRANCH   5   6
ATOM      6  C   UNL A   1      41.798  19.227  26.253  1.00  0.00     0.338 C 
ATOM      7  O   UNL A   1      42.644  18.334  26.331  1.00  0.00    -0.246 OA
BRANCH   6   8
ATOM      8  C   UNL A   1      42.254  20.635  26.503  1.00  0.00     0.060 A 
ATOM      9  C   UNL A   1      42.628  21.400  25.373  1.00  0.00     0.016 A 
ATOM     10  C   UNL A   1      42.306  21.261  27.744  1.00  0.00     0.016 A 
ATOM     11  C   UNL A   1      43.074  22.728  25.481  1.00  0.00     0.010 A 
ATOM     12  C   UNL A   1      42.765  22.581  27.857  1.00  0.00     0.010 A 
ATOM     13  C   UNL A   1      43.176  23.329  26.733  1.00  0.00    -0.014 A 
BRANCH  13  14
ATOM     14  C   UNL A   1      43.509  24.770  26.920  1.00  0.00     0.031 A 
ATOM     15  C   UNL A   1      44.835  25.400  26.583  1.00  0.00     0.074 A 
ATOM     16  C   UNL A   1      42.561  25.521  27.500  1.00  0.00     0.049 A 
ATOM     17  N   UNL A   1      45.404  26.472  27.083  1.00  0.00    -0.248 NA
ATOM     18  C   UNL A   1      45.632  24.743  25.551  1.00  0.00     0.031 C 
ATOM     19  C   UNL A   1      41.206  25.062  27.809  1.00  0.00     0.029 A 
ATOM     20  N   UNL A   1      42.602  26.809  27.948  1.00  0.00    -0.354 N 
ATOM     21  C   UNL A   1      46.683  26.544  26.518  1.00  0.00     0.074 A 
ATOM     22  C   UNL A   1      46.766  25.435  25.598  1.00  0.00     0.031 C 
ATOM     23  C   UNL A   1      40.548  26.050  28.426  1.00  0.00     0.029 A 
ATOM     24  C   UNL A   1      41.440  27.197  28.560  1.00  0.00     0.049 A 
ATOM     25  H   UNL A   1      43.384  27.399  27.843  1.00  0.00     0.167 HD
ATOM     26  C   UNL A   1      47.669  27.460  26.739  1.00  0.00     0.034 A 
ATOM     27  C   UNL A   1      41.122  28.357  29.160  1.00  0.00     0.034 A 
ATOM     28  C   UNL A   1      47.419  28.707  27.430  1.00  0.00     0.049 A 
ATOM     29  C   UNL A   1      42.131  29.456  29.199  1.00  0.00     0.074 A 
ATOM     30  C   UNL A   1      48.278  29.779  27.621  1.00  0.00     0.029 A 
ATOM     31  N   UNL A   1      46.186  29.099  27.931  1.00  0.00    -0.354 N 
ATOM     32  N   UNL A   1      43.385  29.429  28.819  1.00  0.00    -0.248 NA
ATOM     33  C   UNL A   1      41.676  30.756  29.704  1.00  0.00     0.031 C 
ATOM     34  C   UNL A   1      47.553  30.830  28.186  1.00  0.00     0.029 A 
ATOM     35  C   UNL A   1      46.241  30.417  28.347  1.00  0.00     0.049 A 
ATOM     36  H   UNL A   1      45.389  28.524  27.982  1.00  0.00     0.167 HD
ATOM     37  C   UNL A   1      43.871  30.711  29.026  1.00  0.00     0.074 A 
ATOM     38  C   UNL A   1      42.767  31.496  29.545  1.00  0.00     0.031 C 
ATOM     39  C   UNL A   1      45.123  31.188  28.826  1.00  0.00     0.034 A 
BRANCH  26  40
ATOM     40  C   UNL A   1      49.069  27.269  26.157  1.00  0.00     0.023 A 
ATOM     41  C   UNL A   1      50.082  26.653  26.916  1.00  0.00     0.012 A 
ATOM     42  C   UNL A   1      49.348  27.556  24.795  1.00  0.00     0.148 A 
ATOM     43  C   UNL A   1      51.342  26.387  26.371  1.00  0.00     0.002 A 
ATOM     44  C   UNL A   1      50.584  27.218  24.234  1.00  0.00     0.091 A 
ATOM     45  F   UNL A   1      48.396  28.150  24.060  1.00  0.00    -0.205 F 
ATOM     46  C   UNL A   1      51.591  26.658  25.030  1.00  0.00     0.022 A 
BRANCH  44  47
ATOM     47  S   UNL A   1      50.998  27.463  22.494  1.00  0.00     0.127 S 
ATOM     48  O   UNL A   1      50.991  28.923  22.393  1.00  0.00    -0.237 OA
ATOM     49  O   UNL A   1      52.323  26.857  22.405  1.00  0.00    -0.237 OA
ATOM     50  O   UNL A   1      49.946  26.795  21.744  1.00  0.00    -0.744 OA
ENDBRANCH  44  47
ENDBRANCH  26  40
BRANCH  27  51
ATOM     51  C   UNL A   1      39.721  28.515  29.614  1.00  0.00     0.023 A 
ATOM     52  C   UNL A   1      39.415  28.166  30.942  1.00  0.00     0.012 A 
ATOM     53  C   UNL A   1      38.786  29.225  28.840  1.00  0.00     0.148 A 
ATOM     54  C   UNL A   1      38.198  28.540  31.504  1.00  0.00     0.002 A 
ATOM     55  C   UNL A   1      37.588  29.624  29.417  1.00  0.00     0.091 A 
ATOM     56  F   UNL A   1      39.127  29.567  27.589  1.00  0.00    -0.205 F 
ATOM     57  C   UNL A   1      37.292  29.280  30.748  1.00  0.00     0.022 A 
BRANCH  55  58
ATOM     58  S   UNL A   1      36.416  30.694  28.577  1.00  0.00     0.127 S 
ATOM     59  O   UNL A   1      37.241  31.864  28.285  1.00  0.00    -0.237 OA
ATOM     60  O   UNL A   1      36.057  29.886  27.411  1.00  0.00    -0.237 OA
ATOM     61  O   UNL A   1      35.329  30.916  29.520  1.00  0.00    -0.744 OA
ENDBRANCH  55  58
ENDBRANCH  27  51
BRANCH  39  62
ATOM     62  C   UNL A   1      45.382  32.628  29.165  1.00  0.00     0.023 A 
ATOM     63  C   UNL A   1      45.868  32.951  30.446  1.00  0.00     0.012 A 
ATOM     64  C   UNL A   1      45.249  33.637  28.191  1.00  0.00     0.148 A 
ATOM     65  C   UNL A   1      46.207  34.266  30.759  1.00  0.00     0.002 A 
ATOM     66  C   UNL A   1      45.619  34.939  28.501  1.00  0.00     0.091 A 
ATOM     67  F   UNL A   1      44.774  33.302  26.983  1.00  0.00    -0.205 F 
ATOM     68  C   UNL A   1      46.094  35.256  29.786  1.00  0.00     0.022 A 
BRANCH  66  69
ATOM     69  S   UNL A   1      45.568  36.271  27.298  1.00  0.00     0.127 S 
ATOM     70  O   UNL A   1      46.067  37.399  28.082  1.00  0.00    -0.237 OA
ATOM     71  O   UNL A   1      46.487  35.792  26.265  1.00  0.00    -0.237 OA
ATOM     72  O   UNL A   1      44.179  36.375  26.871  1.00  0.00    -0.744 OA
ENDBRANCH  66  69
ENDBRANCH  39  62
ENDBRANCH  13  14
ENDBRANCH   6   8
ENDBRANCH   5   6
ENDBRANCH   4   5
ENDBRANCH   3   4
ENDBRANCH   2   3
ENDBRANCH   1   2
BRANCH   1  73
ATOM     73  C   UNL A   1      35.956  21.836  26.068  1.00  0.00     0.188 C 
BRANCH  73  74
ATOM     74  O   UNL A   1      36.103  23.243  26.270  1.00  0.00    -0.376 OA
BRANCH  74  75
ATOM     75  C   UNL A   1      36.109  24.008  25.061  1.00  0.00     0.202 C 
BRANCH  75  76
ATOM     76  C   UNL A   1      34.946  25.002  24.959  1.00  0.00     0.261 C 
BRANCH  76  77
ATOM     77  O   UNL A   1      33.651  24.405  25.069  1.00  0.00    -0.463 OA
BRANCH  77  78
ATOM     78  C   UNL A   1      32.977  24.139  23.926  1.00  0.00     0.309 C 
ATOM     79  O   UNL A   1      33.325  24.501  22.813  1.00  0.00    -0.252 OA
BRANCH  78  80
ATOM     80  C   UNL A   1      31.678  23.406  24.196  1.00  0.00     0.111 C 
ATOM     81  C   UNL A   1      31.456  22.134  23.389  1.00  0.00     0.016 C 
ATOM     82  C   UNL A   1      31.644  23.173  25.703  1.00  0.00     0.093 C 
ATOM     83  C   UNL A   1      32.285  20.943  23.847  1.00  0.00     0.001 C 
ATOM     84  C   UNL A   1      32.514  21.983  26.141  1.00  0.00     0.014 C 
ATOM     85  C   UNL A   1      32.329  20.715  25.339  1.00  0.00     0.001 C 
BRANCH  82  86
ATOM     86  C   UNL A   1      30.213  23.140  26.260  1.00  0.00     0.228 C 
ATOM     87  O   UNL A   1      29.603  22.090  26.457  1.00  0.00    -0.274 OA
ATOM     88  N   UNL A   1      29.644  24.357  26.555  1.00  0.00    -0.326 N 
ATOM     89  H   UNL A   1      28.883  24.372  27.180  1.00  0.00     0.169 HD
BRANCH  88  90
ATOM     90  C   UNL A   1      30.080  25.575  26.019  1.00  0.00     0.042 A 
ATOM     91  C   UNL A   1      29.514  26.032  24.827  1.00  0.00     0.027 A 
ATOM     92  C   UNL A   1      31.188  26.215  26.566  1.00  0.00     0.047 A 
ATOM     93  C   UNL A   1      30.110  27.079  24.134  1.00  0.00     0.019 A 
ATOM     94  C   UNL A   1      31.798  27.259  25.868  1.00  0.00     0.057 A 
ATOM     95  C   UNL A   1      31.264  27.680  24.643  1.00  0.00     0.036 A 
ATOM     96  Cl  UNL A   1      33.273  27.900  26.499  1.00  0.00    -0.083 Cl
ATOM     97  Br  UNL A   1      32.084  29.016  23.570  1.00  0.00    -0.049 Br
ENDBRANCH  88  90
ENDBRANCH  82  86
ENDBRANCH  78  80
ENDBRANCH  77  78
ENDBRANCH  76  77
ENDBRANCH  75  76
ENDBRANCH  74  75
ENDBRANCH  73  74
ENDBRANCH   1  73
TORSDOF 22
ENDMDL
