MODEL 1
REMARK VINA RESULT:      -9.5      0.000      0.000
REMARK SMILES C[C@@H](CN1C(=O)CC[C@@H](C(=O)OCCOCCOCCOC(=O)c2ccc(-c3c4nc(c(-c5cccc(S(=O)(=O)[O-])c5F)c5ccc([nH]5)c(-c5cccc(S(=O)(=O)[O-])c5F)c5nc(c(-c6cccc(S(=O)(=O)[O-])c6F)c6ccc3[nH]6)C=C5)C=C4)cc2)[C@H]1c1cscn1)Cn1cccn1
REMARK SMILES IDX 16 1 15 2 14 3 13 4 12 5 10 6 11 7 9 8 4 9 5 10 87 11 6 12
REMARK SMILES IDX 7 13 8 14 3 15 2 16 1 17 93 18 94 19 95 20 98 21 96 22 97 23
REMARK SMILES IDX 88 24 89 25 92 26 90 27 91 28 17 29 18 30 19 31 20 32 21 33
REMARK SMILES IDX 22 34 23 35 24 36 25 37 86 38 26 39 85 40 27 41 28 42 29 43
REMARK SMILES IDX 79 44 30 45 84 46 78 47 80 48 31 49 83 50 77 51 76 52 32 54
REMARK SMILES IDX 64 55 44 56 63 57 45 58 48 59 62 60 81 61 46 62 47 63 61 65
REMARK SMILES IDX 82 66 49 67 33 68 34 69 42 70 35 71 37 72 43 73 36 74 38 75
REMARK SMILES IDX 39 76 40 77 41 78 65 79 66 80 74 81 67 82 69 83 75 84 68 85
REMARK SMILES IDX 70 86 71 87 72 88 73 89 50 90 51 91 59 92 52 93 54 94 60 95
REMARK SMILES IDX 53 96 55 97 56 98 57 99 58 100
REMARK H PARENT 80 53 48 64
REMARK Flexibility Score: inf
ROOT
ATOM      1  C   UNL A   1      31.117  29.727  24.697  1.00  0.00     0.188 C 
ENDROOT
BRANCH   1   2
ATOM      2  O   UNL A   1      30.069  30.276  23.919  1.00  0.00    -0.376 OA
BRANCH   2   3
ATOM      3  C   UNL A   1      29.222  29.372  23.239  1.00  0.00     0.202 C 
BRANCH   3   4
ATOM      4  C   UNL A   1      29.858  28.059  22.761  1.00  0.00     0.261 C 
BRANCH   4   5
ATOM      5  O   UNL A   1      29.769  26.914  23.624  1.00  0.00    -0.463 OA
BRANCH   5   6
ATOM      6  C   UNL A   1      30.550  25.849  23.320  1.00  0.00     0.311 C 
ATOM      7  O   UNL A   1      30.122  24.803  22.856  1.00  0.00    -0.252 OA
BRANCH   6   8
ATOM      8  C   UNL A   1      32.005  26.123  23.671  1.00  0.00     0.128 C 
ATOM      9  N   UNL A   1      32.892  23.948  22.785  1.00  0.00    -0.333 N 
ATOM     10  C   UNL A   1      33.062  24.499  21.514  1.00  0.00     0.223 C 
ATOM     11  C   UNL A   1      32.670  24.785  23.987  1.00  0.00     0.149 C 
ATOM     12  O   UNL A   1      33.358  23.818  20.532  1.00  0.00    -0.275 OA
ATOM     13  C   UNL A   1      32.883  25.990  21.322  1.00  0.00     0.101 C 
ATOM     14  C   UNL A   1      32.846  26.800  22.597  1.00  0.00     0.028 C 
BRANCH   9  15
ATOM     15  C   UNL A   1      33.174  22.512  22.913  1.00  0.00     0.125 C 
BRANCH  15  16
ATOM     16  C   UNL A   1      34.515  22.165  23.582  1.00  0.00     0.027 C 
ATOM     17  C   UNL A   1      34.332  21.357  24.873  1.00  0.00     0.011 C 
BRANCH  16  18
ATOM     18  C   UNL A   1      35.392  23.413  23.788  1.00  0.00     0.149 C 
BRANCH  18  19
ATOM     19  N   UNL A   1      36.594  23.129  24.549  1.00  0.00    -0.272 N 
ATOM     20  C   UNL A   1      37.053  23.838  25.625  1.00  0.00     0.108 A 
ATOM     21  N   UNL A   1      37.275  21.988  24.333  1.00  0.00    -0.182 NA
ATOM     22  C   UNL A   1      38.090  23.103  26.147  1.00  0.00     0.042 A 
ATOM     23  C   UNL A   1      38.193  21.983  25.301  1.00  0.00     0.135 A 
ENDBRANCH  18  19
ENDBRANCH  16  18
ENDBRANCH  15  16
ENDBRANCH   9  15
BRANCH  11  24
ATOM     24  C   UNL A   1      31.964  24.108  25.148  1.00  0.00     0.075 A 
ATOM     25  C   UNL A   1      30.989  23.122  25.110  1.00  0.00     0.092 A 
ATOM     26  N   UNL A   1      32.236  24.583  26.429  1.00  0.00    -0.248 NA
ATOM     27  S   UNL A   1      30.428  22.767  26.687  1.00  0.00    -0.130 S 
ATOM     28  C   UNL A   1      31.509  23.936  27.311  1.00  0.00     0.175 A 
ENDBRANCH  11  24
ENDBRANCH   6   8
ENDBRANCH   5   6
ENDBRANCH   4   5
ENDBRANCH   3   4
ENDBRANCH   2   3
ENDBRANCH   1   2
BRANCH   1  29
ATOM     29  C   UNL A   1      31.461  30.604  25.919  1.00  0.00     0.188 C 
BRANCH  29  30
ATOM     30  O   UNL A   1      32.187  30.067  27.017  1.00  0.00    -0.376 OA
BRANCH  30  31
ATOM     31  C   UNL A   1      33.350  30.739  27.462  1.00  0.00     0.202 C 
BRANCH  31  32
ATOM     32  C   UNL A   1      33.398  32.265  27.303  1.00  0.00     0.261 C 
BRANCH  32  33
ATOM     33  O   UNL A   1      32.722  33.031  28.319  1.00  0.00    -0.460 OA
BRANCH  33  34
ATOM     34  C   UNL A   1      33.330  34.180  28.710  1.00  0.00     0.338 C 
ATOM     35  O   UNL A   1      32.929  35.319  28.504  1.00  0.00    -0.246 OA
BRANCH  34  36
ATOM     36  C   UNL A   1      34.479  33.891  29.608  1.00  0.00     0.060 A 
ATOM     37  C   UNL A   1      35.761  34.308  29.211  1.00  0.00     0.016 A 
ATOM     38  C   UNL A   1      34.324  33.171  30.794  1.00  0.00     0.016 A 
ATOM     39  C   UNL A   1      36.887  33.981  29.975  1.00  0.00     0.010 A 
ATOM     40  C   UNL A   1      35.458  32.820  31.544  1.00  0.00     0.010 A 
ATOM     41  C   UNL A   1      36.750  33.194  31.125  1.00  0.00    -0.014 A 
BRANCH  41  42
ATOM     42  C   UNL A   1      37.950  32.599  31.775  1.00  0.00     0.031 A 
ATOM     43  C   UNL A   1      38.635  31.439  31.098  1.00  0.00     0.074 A 
ATOM     44  C   UNL A   1      38.426  33.051  32.950  1.00  0.00     0.049 A 
ATOM     45  N   UNL A   1      39.639  30.709  31.510  1.00  0.00    -0.248 NA
ATOM     46  C   UNL A   1      38.116  31.054  29.775  1.00  0.00     0.031 C 
ATOM     47  C   UNL A   1      37.895  34.185  33.702  1.00  0.00     0.029 A 
ATOM     48  N   UNL A   1      39.457  32.581  33.733  1.00  0.00    -0.354 N 
ATOM     49  C   UNL A   1      39.850  29.757  30.520  1.00  0.00     0.074 A 
ATOM     50  C   UNL A   1      38.872  30.004  29.482  1.00  0.00     0.031 C 
ATOM     51  C   UNL A   1      38.571  34.293  34.861  1.00  0.00     0.029 A 
ATOM     52  C   UNL A   1      39.562  33.221  34.947  1.00  0.00     0.049 A 
ATOM     53  H   UNL A   1      40.061  31.857  33.451  1.00  0.00     0.167 HD
ATOM     54  C   UNL A   1      40.775  28.769  30.469  1.00  0.00     0.034 A 
ATOM     55  C   UNL A   1      40.340  32.952  36.017  1.00  0.00     0.034 A 
ATOM     56  C   UNL A   1      41.757  28.520  31.489  1.00  0.00     0.049 A 
ATOM     57  C   UNL A   1      41.329  31.811  35.957  1.00  0.00     0.074 A 
ATOM     58  C   UNL A   1      42.760  27.564  31.498  1.00  0.00     0.029 A 
ATOM     59  N   UNL A   1      41.852  29.208  32.686  1.00  0.00    -0.354 N 
ATOM     60  N   UNL A   1      41.591  30.991  34.967  1.00  0.00    -0.248 NA
ATOM     61  C   UNL A   1      42.156  31.579  37.153  1.00  0.00     0.031 C 
ATOM     62  C   UNL A   1      43.433  27.648  32.720  1.00  0.00     0.029 A 
ATOM     63  C   UNL A   1      42.881  28.688  33.451  1.00  0.00     0.049 A 
ATOM     64  H   UNL A   1      41.272  29.958  32.954  1.00  0.00     0.167 HD
ATOM     65  C   UNL A   1      42.636  30.181  35.405  1.00  0.00     0.074 A 
ATOM     66  C   UNL A   1      42.971  30.616  36.743  1.00  0.00     0.031 C 
ATOM     67  C   UNL A   1      43.254  29.161  34.759  1.00  0.00     0.034 A 
BRANCH  54  68
ATOM     68  C   UNL A   1      40.774  27.869  29.261  1.00  0.00     0.023 A 
ATOM     69  C   UNL A   1      39.867  26.793  29.188  1.00  0.00     0.012 A 
ATOM     70  C   UNL A   1      41.625  28.134  28.170  1.00  0.00     0.148 A 
ATOM     71  C   UNL A   1      39.825  25.977  28.058  1.00  0.00     0.002 A 
ATOM     72  C   UNL A   1      41.546  27.345  27.029  1.00  0.00     0.091 A 
ATOM     73  F   UNL A   1      42.493  29.151  28.270  1.00  0.00    -0.205 F 
ATOM     74  C   UNL A   1      40.655  26.260  26.976  1.00  0.00     0.022 A 
BRANCH  72  75
ATOM     75  S   UNL A   1      42.514  27.676  25.553  1.00  0.00     0.127 S 
ATOM     76  O   UNL A   1      43.874  27.689  26.091  1.00  0.00    -0.237 OA
ATOM     77  O   UNL A   1      42.202  26.517  24.716  1.00  0.00    -0.237 OA
ATOM     78  O   UNL A   1      42.038  28.949  25.034  1.00  0.00    -0.744 OA
ENDBRANCH  72  75
ENDBRANCH  54  68
BRANCH  55  79
ATOM     79  C   UNL A   1      40.226  33.774  37.257  1.00  0.00     0.023 A 
ATOM     80  C   UNL A   1      39.107  33.618  38.101  1.00  0.00     0.012 A 
ATOM     81  C   UNL A   1      41.202  34.735  37.587  1.00  0.00     0.148 A 
ATOM     82  C   UNL A   1      38.943  34.430  39.225  1.00  0.00     0.002 A 
ATOM     83  C   UNL A   1      41.061  35.502  38.739  1.00  0.00     0.091 A 
ATOM     84  F   UNL A   1      42.247  34.887  36.762  1.00  0.00    -0.205 F 
ATOM     85  C   UNL A   1      39.923  35.365  39.548  1.00  0.00     0.022 A 
BRANCH  83  86
ATOM     86  S   UNL A   1      42.320  36.657  39.291  1.00  0.00     0.127 S 
ATOM     87  O   UNL A   1      43.474  35.780  39.472  1.00  0.00    -0.237 OA
ATOM     88  O   UNL A   1      42.415  37.570  38.150  1.00  0.00    -0.237 OA
ATOM     89  O   UNL A   1      41.797  37.266  40.506  1.00  0.00    -0.744 OA
ENDBRANCH  83  86
ENDBRANCH  55  79
BRANCH  67  90
ATOM     90  C   UNL A   1      44.402  28.466  35.451  1.00  0.00     0.023 A 
ATOM     91  C   UNL A   1      45.728  28.877  35.209  1.00  0.00     0.012 A 
ATOM     92  C   UNL A   1      44.158  27.464  36.412  1.00  0.00     0.148 A 
ATOM     93  C   UNL A   1      46.793  28.279  35.886  1.00  0.00     0.002 A 
ATOM     94  C   UNL A   1      45.217  26.909  37.120  1.00  0.00     0.091 A 
ATOM     95  F   UNL A   1      42.891  27.075  36.621  1.00  0.00    -0.205 F 
ATOM     96  C   UNL A   1      46.536  27.306  36.850  1.00  0.00     0.022 A 
BRANCH  94  97
ATOM     97  S   UNL A   1      44.977  25.723  38.451  1.00  0.00     0.127 S 
ATOM     98  O   UNL A   1      46.353  25.462  38.870  1.00  0.00    -0.237 OA
ATOM     99  O   UNL A   1      44.183  26.493  39.410  1.00  0.00    -0.237 OA
ATOM    100  O   UNL A   1      44.279  24.589  37.859  1.00  0.00    -0.744 OA
ENDBRANCH  94  97
ENDBRANCH  67  90
ENDBRANCH  41  42
ENDBRANCH  34  36
ENDBRANCH  33  34
ENDBRANCH  32  33
ENDBRANCH  31  32
ENDBRANCH  30  31
ENDBRANCH  29  30
ENDBRANCH   1  29
TORSDOF 25
ENDMDL
MODEL 2
REMARK VINA RESULT:      -8.4      8.231     16.247
REMARK SMILES C[C@@H](CN1C(=O)CC[C@@H](C(=O)OCCOCCOCCOC(=O)c2ccc(-c3c4nc(c(-c5cccc(S(=O)(=O)[O-])c5F)c5ccc([nH]5)c(-c5cccc(S(=O)(=O)[O-])c5F)c5nc(c(-c6cccc(S(=O)(=O)[O-])c6F)c6ccc3[nH]6)C=C5)C=C4)cc2)[C@H]1c1cscn1)Cn1cccn1
REMARK SMILES IDX 16 1 15 2 14 3 13 4 12 5 10 6 11 7 9 8 4 9 5 10 87 11 6 12
REMARK SMILES IDX 7 13 8 14 3 15 2 16 1 17 93 18 94 19 95 20 98 21 96 22 97 23
REMARK SMILES IDX 88 24 89 25 92 26 90 27 91 28 17 29 18 30 19 31 20 32 21 33
REMARK SMILES IDX 22 34 23 35 24 36 25 37 86 38 26 39 85 40 27 41 28 42 29 43
REMARK SMILES IDX 79 44 30 45 84 46 78 47 80 48 31 49 83 50 77 51 76 52 32 54
REMARK SMILES IDX 64 55 44 56 63 57 45 58 48 59 62 60 81 61 46 62 47 63 61 65
REMARK SMILES IDX 82 66 49 67 33 68 34 69 42 70 35 71 37 72 43 73 36 74 38 75
REMARK SMILES IDX 39 76 40 77 41 78 65 79 66 80 74 81 67 82 69 83 75 84 68 85
REMARK SMILES IDX 70 86 71 87 72 88 73 89 50 90 51 91 59 92 52 93 54 94 60 95
REMARK SMILES IDX 53 96 55 97 56 98 57 99 58 100
REMARK H PARENT 80 53 48 64
REMARK Flexibility Score: inf
ROOT
ATOM      1  C   UNL A   1      49.162  20.278  39.515  1.00  0.00     0.188 C 
ENDROOT
BRANCH   1   2
ATOM      2  O   UNL A   1      48.995  20.503  40.903  1.00  0.00    -0.376 OA
BRANCH   2   3
ATOM      3  C   UNL A   1      49.319  19.441  41.776  1.00  0.00     0.202 C 
BRANCH   3   4
ATOM      4  C   UNL A   1      48.145  18.615  42.322  1.00  0.00     0.261 C 
BRANCH   4   5
ATOM      5  O   UNL A   1      46.848  19.232  42.361  1.00  0.00    -0.463 OA
BRANCH   5   6
ATOM      6  C   UNL A   1      45.827  18.564  41.771  1.00  0.00     0.311 C 
ATOM      7  O   UNL A   1      44.735  19.060  41.540  1.00  0.00    -0.252 OA
BRANCH   6   8
ATOM      8  C   UNL A   1      46.216  17.122  41.481  1.00  0.00     0.128 C 
ATOM      9  N   UNL A   1      43.912  16.174  41.782  1.00  0.00    -0.333 N 
ATOM     10  C   UNL A   1      43.610  16.395  40.437  1.00  0.00     0.223 C 
ATOM     11  C   UNL A   1      45.299  16.216  42.300  1.00  0.00     0.149 C 
ATOM     12  O   UNL A   1      42.477  16.251  39.980  1.00  0.00    -0.275 OA
ATOM     13  C   UNL A   1      44.713  16.827  39.492  1.00  0.00     0.101 C 
ATOM     14  C   UNL A   1      46.116  16.670  40.030  1.00  0.00     0.028 C 
BRANCH   9  15
ATOM     15  C   UNL A   1      42.814  15.667  42.617  1.00  0.00     0.125 C 
BRANCH  15  16
ATOM     16  C   UNL A   1      42.792  14.142  42.815  1.00  0.00     0.027 C 
ATOM     17  C   UNL A   1      41.674  13.464  42.014  1.00  0.00     0.011 C 
BRANCH  16  18
ATOM     18  C   UNL A   1      42.763  13.758  44.305  1.00  0.00     0.149 C 
BRANCH  18  19
ATOM     19  N   UNL A   1      43.631  12.636  44.608  1.00  0.00    -0.272 N 
ATOM     20  C   UNL A   1      43.227  11.367  44.921  1.00  0.00     0.108 A 
ATOM     21  N   UNL A   1      44.960  12.742  44.423  1.00  0.00    -0.182 NA
ATOM     22  C   UNL A   1      44.366  10.599  44.927  1.00  0.00     0.042 A 
ATOM     23  C   UNL A   1      45.405  11.502  44.631  1.00  0.00     0.135 A 
ENDBRANCH  18  19
ENDBRANCH  16  18
ENDBRANCH  15  16
ENDBRANCH   9  15
BRANCH  11  24
ATOM     24  C   UNL A   1      45.447  16.516  43.780  1.00  0.00     0.075 A 
ATOM     25  C   UNL A   1      44.662  17.336  44.578  1.00  0.00     0.092 A 
ATOM     26  N   UNL A   1      46.563  15.996  44.431  1.00  0.00    -0.248 NA
ATOM     27  S   UNL A   1      45.307  17.435  46.160  1.00  0.00    -0.130 S 
ATOM     28  C   UNL A   1      46.575  16.391  45.685  1.00  0.00     0.175 A 
ENDBRANCH  11  24
ENDBRANCH   6   8
ENDBRANCH   5   6
ENDBRANCH   4   5
ENDBRANCH   3   4
ENDBRANCH   2   3
ENDBRANCH   1   2
BRANCH   1  29
ATOM     29  C   UNL A   1      47.819  20.043  38.794  1.00  0.00     0.188 C 
BRANCH  29  30
ATOM     30  O   UNL A   1      47.781  19.774  37.398  1.00  0.00    -0.376 OA
BRANCH  30  31
ATOM     31  C   UNL A   1      48.773  20.342  36.565  1.00  0.00     0.202 C 
BRANCH  31  32
ATOM     32  C   UNL A   1      48.492  20.398  35.057  1.00  0.00     0.261 C 
BRANCH  32  33
ATOM     33  O   UNL A   1      47.913  21.621  34.563  1.00  0.00    -0.460 OA
BRANCH  33  34
ATOM     34  C   UNL A   1      46.573  21.762  34.727  1.00  0.00     0.338 C 
ATOM     35  O   UNL A   1      45.711  20.968  34.371  1.00  0.00    -0.246 OA
BRANCH  34  36
ATOM     36  C   UNL A   1      46.267  22.939  35.582  1.00  0.00     0.060 A 
ATOM     37  C   UNL A   1      45.053  22.956  36.290  1.00  0.00     0.016 A 
ATOM     38  C   UNL A   1      47.121  24.041  35.651  1.00  0.00     0.016 A 
ATOM     39  C   UNL A   1      44.676  24.079  37.035  1.00  0.00     0.010 A 
ATOM     40  C   UNL A   1      46.728  25.177  36.377  1.00  0.00     0.010 A 
ATOM     41  C   UNL A   1      45.490  25.217  37.048  1.00  0.00    -0.014 A 
BRANCH  41  42
ATOM     42  C   UNL A   1      44.972  26.506  37.587  1.00  0.00     0.031 A 
ATOM     43  C   UNL A   1      44.086  27.350  36.706  1.00  0.00     0.074 A 
ATOM     44  C   UNL A   1      45.284  26.943  38.821  1.00  0.00     0.049 A 
ATOM     45  N   UNL A   1      43.587  28.539  36.923  1.00  0.00    -0.248 NA
ATOM     46  C   UNL A   1      43.714  26.771  35.404  1.00  0.00     0.031 C 
ATOM     47  C   UNL A   1      46.095  26.222  39.798  1.00  0.00     0.029 A 
ATOM     48  N   UNL A   1      44.973  28.127  39.450  1.00  0.00    -0.354 N 
ATOM     49  C   UNL A   1      42.873  28.868  35.776  1.00  0.00     0.074 A 
ATOM     50  C   UNL A   1      43.000  27.750  34.865  1.00  0.00     0.031 C 
ATOM     51  C   UNL A   1      46.259  26.998  40.885  1.00  0.00     0.029 A 
ATOM     52  C   UNL A   1      45.591  28.282  40.670  1.00  0.00     0.049 A 
ATOM     53  H   UNL A   1      44.366  28.800  39.064  1.00  0.00     0.167 HD
ATOM     54  C   UNL A   1      42.169  29.992  35.502  1.00  0.00     0.034 A 
ATOM     55  C   UNL A   1      45.643  29.345  41.500  1.00  0.00     0.034 A 
ATOM     56  C   UNL A   1      42.027  31.104  36.402  1.00  0.00     0.049 A 
ATOM     57  C   UNL A   1      44.891  30.608  41.149  1.00  0.00     0.074 A 
ATOM     58  C   UNL A   1      41.297  32.266  36.221  1.00  0.00     0.029 A 
ATOM     59  N   UNL A   1      42.640  31.208  37.639  1.00  0.00    -0.354 N 
ATOM     60  N   UNL A   1      44.131  30.858  40.111  1.00  0.00    -0.248 NA
ATOM     61  C   UNL A   1      44.979  31.726  42.104  1.00  0.00     0.031 C 
ATOM     62  C   UNL A   1      41.503  33.091  37.330  1.00  0.00     0.029 A 
ATOM     63  C   UNL A   1      42.323  32.421  38.224  1.00  0.00     0.049 A 
ATOM     64  H   UNL A   1      43.218  30.520  38.043  1.00  0.00     0.167 HD
ATOM     65  C   UNL A   1      43.618  32.139  40.309  1.00  0.00     0.074 A 
ATOM     66  C   UNL A   1      44.142  32.608  41.574  1.00  0.00     0.031 C 
ATOM     67  C   UNL A   1      42.796  32.864  39.511  1.00  0.00     0.034 A 
BRANCH  54  68
ATOM     68  C   UNL A   1      41.488  30.083  34.162  1.00  0.00     0.023 A 
ATOM     69  C   UNL A   1      42.255  30.268  32.995  1.00  0.00     0.012 A 
ATOM     70  C   UNL A   1      40.093  29.915  34.055  1.00  0.00     0.148 A 
ATOM     71  C   UNL A   1      41.643  30.313  31.743  1.00  0.00     0.002 A 
ATOM     72  C   UNL A   1      39.495  29.915  32.801  1.00  0.00     0.091 A 
ATOM     73  F   UNL A   1      39.380  29.760  35.180  1.00  0.00    -0.205 F 
ATOM     74  C   UNL A   1      40.266  30.124  31.646  1.00  0.00     0.022 A 
BRANCH  72  75
ATOM     75  S   UNL A   1      37.743  29.600  32.563  1.00  0.00     0.127 S 
ATOM     76  O   UNL A   1      37.657  29.504  31.106  1.00  0.00    -0.237 OA
ATOM     77  O   UNL A   1      37.561  28.331  33.269  1.00  0.00    -0.237 OA
ATOM     78  O   UNL A   1      37.045  30.732  33.154  1.00  0.00    -0.744 OA
ENDBRANCH  72  75
ENDBRANCH  54  68
BRANCH  55  79
ATOM     79  C   UNL A   1      46.440  29.278  42.761  1.00  0.00     0.023 A 
ATOM     80  C   UNL A   1      47.786  29.697  42.762  1.00  0.00     0.012 A 
ATOM     81  C   UNL A   1      45.881  28.769  43.950  1.00  0.00     0.148 A 
ATOM     82  C   UNL A   1      48.570  29.572  43.910  1.00  0.00     0.002 A 
ATOM     83  C   UNL A   1      46.652  28.700  45.106  1.00  0.00     0.091 A 
ATOM     84  F   UNL A   1      44.608  28.353  43.925  1.00  0.00    -0.205 F 
ATOM     85  C   UNL A   1      48.002  29.082  45.082  1.00  0.00     0.022 A 
BRANCH  83  86
ATOM     86  S   UNL A   1      45.978  28.180  46.687  1.00  0.00     0.127 S 
ATOM     87  O   UNL A   1      45.999  26.725  46.558  1.00  0.00    -0.237 OA
ATOM     88  O   UNL A   1      46.957  28.727  47.629  1.00  0.00    -0.237 OA
ATOM     89  O   UNL A   1      44.657  28.784  46.774  1.00  0.00    -0.744 OA
ENDBRANCH  83  86
ENDBRANCH  55  79
BRANCH  67  90
ATOM     90  C   UNL A   1      42.350  34.225  39.988  1.00  0.00     0.023 A 
ATOM     91  C   UNL A   1      43.008  35.385  39.534  1.00  0.00     0.012 A 
ATOM     92  C   UNL A   1      41.219  34.356  40.819  1.00  0.00     0.148 A 
ATOM     93  C   UNL A   1      42.568  36.651  39.925  1.00  0.00     0.002 A 
ATOM     94  C   UNL A   1      40.754  35.620  41.161  1.00  0.00     0.091 A 
ATOM     95  F   UNL A   1      40.612  33.241  41.252  1.00  0.00    -0.205 F 
ATOM     96  C   UNL A   1      41.434  36.769  40.727  1.00  0.00     0.022 A 
BRANCH  94  97
ATOM     97  S   UNL A   1      39.244  35.873  42.106  1.00  0.00     0.127 S 
ATOM     98  O   UNL A   1      39.511  35.086  43.310  1.00  0.00    -0.237 OA
ATOM     99  O   UNL A   1      39.248  37.322  42.312  1.00  0.00    -0.237 OA
ATOM    100  O   UNL A   1      38.158  35.382  41.269  1.00  0.00    -0.744 OA
ENDBRANCH  94  97
ENDBRANCH  67  90
ENDBRANCH  41  42
ENDBRANCH  34  36
ENDBRANCH  33  34
ENDBRANCH  32  33
ENDBRANCH  31  32
ENDBRANCH  30  31
ENDBRANCH  29  30
ENDBRANCH   1  29
TORSDOF 25
ENDMDL
MODEL 3
REMARK VINA RESULT:      -8.0      2.155      2.615
REMARK SMILES C[C@@H](CN1C(=O)CC[C@@H](C(=O)OCCOCCOCCOC(=O)c2ccc(-c3c4nc(c(-c5cccc(S(=O)(=O)[O-])c5F)c5ccc([nH]5)c(-c5cccc(S(=O)(=O)[O-])c5F)c5nc(c(-c6cccc(S(=O)(=O)[O-])c6F)c6ccc3[nH]6)C=C5)C=C4)cc2)[C@H]1c1cscn1)Cn1cccn1
REMARK SMILES IDX 16 1 15 2 14 3 13 4 12 5 10 6 11 7 9 8 4 9 5 10 87 11 6 12
REMARK SMILES IDX 7 13 8 14 3 15 2 16 1 17 93 18 94 19 95 20 98 21 96 22 97 23
REMARK SMILES IDX 88 24 89 25 92 26 90 27 91 28 17 29 18 30 19 31 20 32 21 33
REMARK SMILES IDX 22 34 23 35 24 36 25 37 86 38 26 39 85 40 27 41 28 42 29 43
REMARK SMILES IDX 79 44 30 45 84 46 78 47 80 48 31 49 83 50 77 51 76 52 32 54
REMARK SMILES IDX 64 55 44 56 63 57 45 58 48 59 62 60 81 61 46 62 47 63 61 65
REMARK SMILES IDX 82 66 49 67 33 68 34 69 42 70 35 71 37 72 43 73 36 74 38 75
REMARK SMILES IDX 39 76 40 77 41 78 65 79 66 80 74 81 67 82 69 83 75 84 68 85
REMARK SMILES IDX 70 86 71 87 72 88 73 89 50 90 51 91 59 92 52 93 54 94 60 95
REMARK SMILES IDX 53 96 55 97 56 98 57 99 58 100
REMARK H PARENT 80 53 48 64
REMARK Flexibility Score: inf
ROOT
ATOM      1  C   UNL A   1      31.150  29.849  24.525  1.00  0.00     0.188 C 
ENDROOT
BRANCH   1   2
ATOM      2  O   UNL A   1      29.929  30.320  23.985  1.00  0.00    -0.376 OA
BRANCH   2   3
ATOM      3  C   UNL A   1      29.173  29.418  23.204  1.00  0.00     0.202 C 
BRANCH   3   4
ATOM      4  C   UNL A   1      29.876  28.125  22.770  1.00  0.00     0.261 C 
BRANCH   4   5
ATOM      5  O   UNL A   1      29.787  26.984  23.640  1.00  0.00    -0.463 OA
BRANCH   5   6
ATOM      6  C   UNL A   1      30.554  25.910  23.332  1.00  0.00     0.311 C 
ATOM      7  O   UNL A   1      30.118  24.888  22.825  1.00  0.00    -0.252 OA
BRANCH   6   8
ATOM      8  C   UNL A   1      32.002  26.141  23.738  1.00  0.00     0.128 C 
ATOM      9  N   UNL A   1      32.855  23.937  22.893  1.00  0.00    -0.333 N 
ATOM     10  C   UNL A   1      33.091  24.477  21.627  1.00  0.00     0.223 C 
ATOM     11  C   UNL A   1      32.613  24.785  24.083  1.00  0.00     0.149 C 
ATOM     12  O   UNL A   1      33.404  23.785  20.659  1.00  0.00    -0.275 OA
ATOM     13  C   UNL A   1      32.965  25.973  21.425  1.00  0.00     0.101 C 
ATOM     14  C   UNL A   1      32.904  26.788  22.696  1.00  0.00     0.028 C 
BRANCH   9  15
ATOM     15  C   UNL A   1      33.087  22.493  23.034  1.00  0.00     0.125 C 
BRANCH  15  16
ATOM     16  C   UNL A   1      34.430  22.106  23.679  1.00  0.00     0.027 C 
ATOM     17  C   UNL A   1      34.250  21.452  25.054  1.00  0.00     0.011 C 
BRANCH  16  18
ATOM     18  C   UNL A   1      35.410  23.292  23.715  1.00  0.00     0.149 C 
BRANCH  18  19
ATOM     19  N   UNL A   1      36.594  23.012  24.507  1.00  0.00    -0.272 N 
ATOM     20  C   UNL A   1      37.076  23.777  25.533  1.00  0.00     0.108 A 
ATOM     21  N   UNL A   1      37.225  21.830  24.381  1.00  0.00    -0.182 NA
ATOM     22  C   UNL A   1      38.075  23.037  26.117  1.00  0.00     0.042 A 
ATOM     23  C   UNL A   1      38.134  21.855  25.356  1.00  0.00     0.135 A 
ENDBRANCH  18  19
ENDBRANCH  16  18
ENDBRANCH  15  16
ENDBRANCH   9  15
BRANCH  11  24
ATOM     24  C   UNL A   1      31.843  24.134  25.218  1.00  0.00     0.075 A 
ATOM     25  C   UNL A   1      31.041  23.003  25.179  1.00  0.00     0.092 A 
ATOM     26  N   UNL A   1      31.840  24.787  26.447  1.00  0.00    -0.248 NA
ATOM     27  S   UNL A   1      30.299  22.737  26.699  1.00  0.00    -0.130 S 
ATOM     28  C   UNL A   1      31.087  24.130  27.302  1.00  0.00     0.175 A 
ENDBRANCH  11  24
ENDBRANCH   6   8
ENDBRANCH   5   6
ENDBRANCH   4   5
ENDBRANCH   3   4
ENDBRANCH   2   3
ENDBRANCH   1   2
BRANCH   1  29
ATOM     29  C   UNL A   1      31.473  30.489  25.891  1.00  0.00     0.188 C 
BRANCH  29  30
ATOM     30  O   UNL A   1      32.382  29.866  26.789  1.00  0.00    -0.376 OA
BRANCH  30  31
ATOM     31  C   UNL A   1      33.689  30.393  26.914  1.00  0.00     0.202 C 
BRANCH  31  32
ATOM     32  C   UNL A   1      33.846  31.752  27.610  1.00  0.00     0.261 C 
BRANCH  32  33
ATOM     33  O   UNL A   1      34.377  31.724  28.949  1.00  0.00    -0.460 OA
BRANCH  33  34
ATOM     34  C   UNL A   1      34.583  32.928  29.541  1.00  0.00     0.338 C 
ATOM     35  O   UNL A   1      33.750  33.812  29.695  1.00  0.00    -0.246 OA
BRANCH  34  36
ATOM     36  C   UNL A   1      35.929  32.984  30.170  1.00  0.00     0.060 A 
ATOM     37  C   UNL A   1      36.985  33.557  29.441  1.00  0.00     0.016 A 
ATOM     38  C   UNL A   1      36.177  32.434  31.428  1.00  0.00     0.016 A 
ATOM     39  C   UNL A   1      38.289  33.552  29.950  1.00  0.00     0.010 A 
ATOM     40  C   UNL A   1      37.491  32.405  31.924  1.00  0.00     0.010 A 
ATOM     41  C   UNL A   1      38.561  32.935  31.176  1.00  0.00    -0.014 A 
BRANCH  41  42
ATOM     42  C   UNL A   1      39.967  32.665  31.587  1.00  0.00     0.031 A 
ATOM     43  C   UNL A   1      40.688  31.497  30.962  1.00  0.00     0.074 A 
ATOM     44  C   UNL A   1      40.601  33.417  32.505  1.00  0.00     0.049 A 
ATOM     45  N   UNL A   1      41.878  31.019  31.219  1.00  0.00    -0.248 NA
ATOM     46  C   UNL A   1      39.966  30.773  29.902  1.00  0.00     0.031 C 
ATOM     47  C   UNL A   1      40.050  34.597  33.166  1.00  0.00     0.029 A 
ATOM     48  N   UNL A   1      41.852  33.272  33.063  1.00  0.00    -0.354 N 
ATOM     49  C   UNL A   1      42.036  29.920  30.383  1.00  0.00     0.074 A 
ATOM     50  C   UNL A   1      40.820  29.803  29.606  1.00  0.00     0.031 C 
ATOM     51  C   UNL A   1      40.937  35.041  34.075  1.00  0.00     0.029 A 
ATOM     52  C   UNL A   1      42.106  34.162  34.083  1.00  0.00     0.049 A 
ATOM     53  H   UNL A   1      42.503  32.598  32.762  1.00  0.00     0.167 HD
ATOM     54  C   UNL A   1      43.095  29.084  30.263  1.00  0.00     0.034 A 
ATOM     55  C   UNL A   1      43.141  34.236  34.946  1.00  0.00     0.034 A 
ATOM     56  C   UNL A   1      44.311  29.197  31.022  1.00  0.00     0.049 A 
ATOM     57  C   UNL A   1      44.289  33.260  34.826  1.00  0.00     0.074 A 
ATOM     58  C   UNL A   1      45.451  28.416  30.934  1.00  0.00     0.029 A 
ATOM     59  N   UNL A   1      44.541  30.128  32.020  1.00  0.00    -0.354 N 
ATOM     60  N   UNL A   1      44.470  32.295  33.956  1.00  0.00    -0.248 NA
ATOM     61  C   UNL A   1      45.392  33.404  35.790  1.00  0.00     0.031 C 
ATOM     62  C   UNL A   1      46.354  28.849  31.909  1.00  0.00     0.029 A 
ATOM     63  C   UNL A   1      45.796  29.931  32.571  1.00  0.00     0.049 A 
ATOM     64  H   UNL A   1      43.906  30.827  32.298  1.00  0.00     0.167 HD
ATOM     65  C   UNL A   1      45.720  31.751  34.240  1.00  0.00     0.074 A 
ATOM     66  C   UNL A   1      46.261  32.501  35.353  1.00  0.00     0.031 C 
ATOM     67  C   UNL A   1      46.358  30.716  33.639  1.00  0.00     0.034 A 
BRANCH  54  68
ATOM     68  C   UNL A   1      42.991  27.959  29.267  1.00  0.00     0.023 A 
ATOM     69  C   UNL A   1      42.619  26.671  29.698  1.00  0.00     0.012 A 
ATOM     70  C   UNL A   1      43.194  28.199  27.893  1.00  0.00     0.148 A 
ATOM     71  C   UNL A   1      42.478  25.630  28.782  1.00  0.00     0.002 A 
ATOM     72  C   UNL A   1      43.007  27.168  26.981  1.00  0.00     0.091 A 
ATOM     73  F   UNL A   1      43.567  29.428  27.507  1.00  0.00    -0.205 F 
ATOM     74  C   UNL A   1      42.661  25.881  27.424  1.00  0.00     0.022 A 
BRANCH  72  75
ATOM     75  S   UNL A   1      43.139  27.409  25.206  1.00  0.00     0.127 S 
ATOM     76  O   UNL A   1      44.535  27.822  25.069  1.00  0.00    -0.237 OA
ATOM     77  O   UNL A   1      42.846  26.070  24.693  1.00  0.00    -0.237 OA
ATOM     78  O   UNL A   1      42.154  28.423  24.861  1.00  0.00    -0.744 OA
ENDBRANCH  72  75
ENDBRANCH  54  68
BRANCH  55  79
ATOM     79  C   UNL A   1      43.157  35.276  36.016  1.00  0.00     0.023 A 
ATOM     80  C   UNL A   1      43.828  36.496  35.797  1.00  0.00     0.012 A 
ATOM     81  C   UNL A   1      42.538  35.049  37.262  1.00  0.00     0.148 A 
ATOM     82  C   UNL A   1      43.919  37.451  36.812  1.00  0.00     0.002 A 
ATOM     83  C   UNL A   1      42.585  36.028  38.249  1.00  0.00     0.091 A 
ATOM     84  F   UNL A   1      41.925  33.875  37.461  1.00  0.00    -0.205 F 
ATOM     85  C   UNL A   1      43.291  37.221  38.032  1.00  0.00     0.022 A 
BRANCH  83  86
ATOM     86  S   UNL A   1      41.719  35.864  39.814  1.00  0.00     0.127 S 
ATOM     87  O   UNL A   1      42.743  35.257  40.660  1.00  0.00    -0.237 OA
ATOM     88  O   UNL A   1      41.404  37.258  40.134  1.00  0.00    -0.237 OA
ATOM     89  O   UNL A   1      40.556  35.033  39.539  1.00  0.00    -0.744 OA
ENDBRANCH  83  86
ENDBRANCH  55  79
BRANCH  67  90
ATOM     90  C   UNL A   1      47.742  30.352  34.119  1.00  0.00     0.023 A 
ATOM     91  C   UNL A   1      48.873  30.978  33.559  1.00  0.00     0.012 A 
ATOM     92  C   UNL A   1      47.915  29.451  35.189  1.00  0.00     0.148 A 
ATOM     93  C   UNL A   1      50.154  30.690  34.035  1.00  0.00     0.002 A 
ATOM     94  C   UNL A   1      49.187  29.208  35.693  1.00  0.00     0.091 A 
ATOM     95  F   UNL A   1      46.829  28.853  35.702  1.00  0.00    -0.205 F 
ATOM     96  C   UNL A   1      50.310  29.816  35.109  1.00  0.00     0.022 A 
BRANCH  94  97
ATOM     97  S   UNL A   1      49.476  28.176  37.138  1.00  0.00     0.127 S 
ATOM     98  O   UNL A   1      48.668  28.852  38.152  1.00  0.00    -0.237 OA
ATOM     99  O   UNL A   1      48.949  26.882  36.703  1.00  0.00    -0.237 OA
ATOM    100  O   UNL A   1      50.914  28.199  37.369  1.00  0.00    -0.744 OA
ENDBRANCH  94  97
ENDBRANCH  67  90
ENDBRANCH  41  42
ENDBRANCH  34  36
ENDBRANCH  33  34
ENDBRANCH  32  33
ENDBRANCH  31  32
ENDBRANCH  30  31
ENDBRANCH  29  30
ENDBRANCH   1  29
TORSDOF 25
ENDMDL
