MODEL 1
REMARK VINA RESULT:      -9.5      0.000      0.000
REMARK SMILES CCN(CC)C(=O)CN(CC(=O)OCCOCCOCCOC(=O)c1ccc(-c2c3nc(c(-c4cccc(S(=O)(=O)[O-])c4F)c4ccc([nH]4)c(-c4cccc(S(=O)(=O)[O-])c4F)c4nc(c(-c5cccc(S(=O)(=O)[O-])c5F)c5ccc2[nH]5)C=C4)C=C3)cc1)c1ccccc1
REMARK SMILES IDX 17 1 16 2 15 3 14 4 13 5 11 6 12 7 10 8 9 9 8 10 6 11 3 12
REMARK SMILES IDX 7 13 2 14 1 15 4 16 5 17 88 18 89 19 93 20 90 21 92 22 91 23
REMARK SMILES IDX 18 24 19 25 20 26 21 27 22 28 23 29 24 30 25 31 26 32 87 33
REMARK SMILES IDX 27 34 86 35 28 36 29 37 30 38 80 39 31 40 85 41 79 42 81 43
REMARK SMILES IDX 32 44 84 45 78 46 77 47 33 49 65 50 45 51 64 52 46 53 49 54
REMARK SMILES IDX 63 55 82 56 47 57 48 58 62 60 83 61 50 62 34 63 35 64 43 65
REMARK SMILES IDX 36 66 38 67 44 68 37 69 39 70 40 71 41 72 42 73 66 74 67 75
REMARK SMILES IDX 75 76 68 77 70 78 76 79 69 80 71 81 72 82 73 83 74 84 51 85
REMARK SMILES IDX 52 86 60 87 53 88 55 89 61 90 54 91 56 92 57 93 58 94 59 95
REMARK H PARENT 81 48 49 59
REMARK Flexibility Score: inf
ROOT
ATOM      1  C   UNL A   1      35.879  23.130  24.926  1.00  0.00     0.188 C 
ENDROOT
BRANCH   1   2
ATOM      2  O   UNL A   1      35.397  23.651  23.693  1.00  0.00    -0.376 OA
BRANCH   2   3
ATOM      3  C   UNL A   1      34.395  22.928  22.996  1.00  0.00     0.202 C 
BRANCH   3   4
ATOM      4  C   UNL A   1      33.341  23.782  22.293  1.00  0.00     0.261 C 
BRANCH   4   5
ATOM      5  O   UNL A   1      33.702  25.177  22.307  1.00  0.00    -0.462 OA
BRANCH   5   6
ATOM      6  C   UNL A   1      32.881  25.992  21.606  1.00  0.00     0.325 C 
ATOM      7  O   UNL A   1      32.481  25.741  20.470  1.00  0.00    -0.250 OA
BRANCH   6   8
ATOM      8  C   UNL A   1      32.340  27.189  22.380  1.00  0.00     0.239 C 
BRANCH   8   9
ATOM      9  N   UNL A   1      31.473  26.975  23.572  1.00  0.00    -0.351 N 
BRANCH   9  10
ATOM     10  C   UNL A   1      30.163  27.680  23.556  1.00  0.00     0.217 C 
BRANCH  10  11
ATOM     11  C   UNL A   1      30.221  29.220  23.792  1.00  0.00     0.242 C 
ATOM     12  N   UNL A   1      29.239  30.076  23.291  1.00  0.00    -0.342 N 
ATOM     13  O   UNL A   1      31.183  29.679  24.428  1.00  0.00    -0.273 OA
BRANCH  12  14
ATOM     14  C   UNL A   1      29.176  31.434  23.830  1.00  0.00     0.116 C 
ATOM     15  C   UNL A   1      28.585  32.410  22.820  1.00  0.00     0.027 C 
ENDBRANCH  12  14
BRANCH  12  16
ATOM     16  C   UNL A   1      28.183  29.711  22.353  1.00  0.00     0.116 C 
ATOM     17  C   UNL A   1      27.075  28.914  23.024  1.00  0.00     0.027 C 
ENDBRANCH  12  16
ENDBRANCH  10  11
ENDBRANCH   9  10
BRANCH   9  18
ATOM     18  C   UNL A   1      31.618  25.898  24.459  1.00  0.00     0.038 A 
ATOM     19  C   UNL A   1      32.667  25.802  25.384  1.00  0.00     0.026 A 
ATOM     20  C   UNL A   1      30.728  24.800  24.456  1.00  0.00     0.026 A 
ATOM     21  C   UNL A   1      32.837  24.682  26.217  1.00  0.00     0.002 A 
ATOM     22  C   UNL A   1      30.898  23.673  25.277  1.00  0.00     0.002 A 
ATOM     23  C   UNL A   1      31.954  23.617  26.169  1.00  0.00     0.000 A 
ENDBRANCH   9  18
ENDBRANCH   8   9
ENDBRANCH   6   8
ENDBRANCH   5   6
ENDBRANCH   4   5
ENDBRANCH   3   4
ENDBRANCH   2   3
ENDBRANCH   1   2
BRANCH   1  24
ATOM     24  C   UNL A   1      35.633  21.645  25.282  1.00  0.00     0.188 C 
BRANCH  24  25
ATOM     25  O   UNL A   1      36.746  20.862  25.695  1.00  0.00    -0.376 OA
BRANCH  25  26
ATOM     26  C   UNL A   1      37.979  21.107  25.030  1.00  0.00     0.202 C 
BRANCH  26  27
ATOM     27  C   UNL A   1      39.114  21.546  25.951  1.00  0.00     0.261 C 
BRANCH  27  28
ATOM     28  O   UNL A   1      39.734  20.411  26.587  1.00  0.00    -0.460 OA
BRANCH  28  29
ATOM     29  C   UNL A   1      40.980  20.139  26.133  1.00  0.00     0.338 C 
ATOM     30  O   UNL A   1      41.304  19.189  25.440  1.00  0.00    -0.246 OA
BRANCH  29  31
ATOM     31  C   UNL A   1      41.961  21.151  26.579  1.00  0.00     0.060 A 
ATOM     32  C   UNL A   1      42.284  21.306  27.925  1.00  0.00     0.016 A 
ATOM     33  C   UNL A   1      42.383  22.106  25.656  1.00  0.00     0.016 A 
ATOM     34  C   UNL A   1      42.910  22.478  28.367  1.00  0.00     0.010 A 
ATOM     35  C   UNL A   1      43.081  23.237  26.091  1.00  0.00     0.010 A 
ATOM     36  C   UNL A   1      43.297  23.474  27.460  1.00  0.00    -0.014 A 
BRANCH  36  37
ATOM     37  C   UNL A   1      43.852  24.788  27.910  1.00  0.00     0.031 A 
ATOM     38  C   UNL A   1      42.916  25.879  28.378  1.00  0.00     0.074 A 
ATOM     39  C   UNL A   1      45.176  25.040  27.871  1.00  0.00     0.049 A 
ATOM     40  N   UNL A   1      43.136  27.162  28.515  1.00  0.00    -0.248 NA
ATOM     41  C   UNL A   1      41.543  25.473  28.725  1.00  0.00     0.031 C 
ATOM     42  C   UNL A   1      46.216  24.081  27.503  1.00  0.00     0.029 A 
ATOM     43  N   UNL A   1      45.871  26.205  28.110  1.00  0.00    -0.354 N 
ATOM     44  C   UNL A   1      41.912  27.728  28.859  1.00  0.00     0.074 A 
ATOM     45  C   UNL A   1      40.959  26.642  28.952  1.00  0.00     0.031 C 
ATOM     46  C   UNL A   1      47.410  24.691  27.527  1.00  0.00     0.029 A 
ATOM     47  C   UNL A   1      47.210  26.108  27.804  1.00  0.00     0.049 A 
ATOM     48  H   UNL A   1      45.453  27.023  28.463  1.00  0.00     0.167 HD
ATOM     49  C   UNL A   1      41.609  29.032  29.071  1.00  0.00     0.034 A 
ATOM     50  C   UNL A   1      48.161  27.055  27.674  1.00  0.00     0.034 A 
ATOM     51  C   UNL A   1      42.578  30.098  29.061  1.00  0.00     0.049 A 
ATOM     52  C   UNL A   1      47.801  28.497  27.895  1.00  0.00     0.074 A 
ATOM     53  C   UNL A   1      42.378  31.444  29.315  1.00  0.00     0.029 A 
ATOM     54  N   UNL A   1      43.927  29.940  28.791  1.00  0.00    -0.354 N 
ATOM     55  N   UNL A   1      46.648  29.017  28.234  1.00  0.00    -0.248 NA
ATOM     56  C   UNL A   1      48.877  29.484  27.719  1.00  0.00     0.031 C 
ATOM     57  C   UNL A   1      43.603  32.105  29.173  1.00  0.00     0.029 A 
ATOM     58  C   UNL A   1      44.571  31.163  28.862  1.00  0.00     0.049 A 
ATOM     59  H   UNL A   1      44.365  29.083  28.579  1.00  0.00     0.167 HD
ATOM     60  C   UNL A   1      46.863  30.386  28.339  1.00  0.00     0.074 A 
ATOM     61  C   UNL A   1      48.264  30.612  28.051  1.00  0.00     0.031 C 
ATOM     62  C   UNL A   1      45.976  31.370  28.626  1.00  0.00     0.034 A 
BRANCH  49  63
ATOM     63  C   UNL A   1      40.168  29.401  29.325  1.00  0.00     0.023 A 
ATOM     64  C   UNL A   1      39.296  29.651  28.247  1.00  0.00     0.012 A 
ATOM     65  C   UNL A   1      39.659  29.412  30.641  1.00  0.00     0.148 A 
ATOM     66  C   UNL A   1      37.949  29.935  28.476  1.00  0.00     0.002 A 
ATOM     67  C   UNL A   1      38.307  29.651  30.858  1.00  0.00     0.091 A 
ATOM     68  F   UNL A   1      40.507  29.188  31.654  1.00  0.00    -0.205 F 
ATOM     69  C   UNL A   1      37.452  29.922  29.778  1.00  0.00     0.022 A 
BRANCH  67  70
ATOM     70  S   UNL A   1      37.559  29.573  32.490  1.00  0.00     0.127 S 
ATOM     71  O   UNL A   1      36.189  29.997  32.207  1.00  0.00    -0.237 OA
ATOM     72  O   UNL A   1      37.700  28.155  32.827  1.00  0.00    -0.237 OA
ATOM     73  O   UNL A   1      38.332  30.476  33.330  1.00  0.00    -0.744 OA
ENDBRANCH  67  70
ENDBRANCH  49  63
BRANCH  50  74
ATOM     74  C   UNL A   1      49.543  26.664  27.272  1.00  0.00     0.023 A 
ATOM     75  C   UNL A   1      49.797  26.255  25.951  1.00  0.00     0.012 A 
ATOM     76  C   UNL A   1      50.615  26.737  28.186  1.00  0.00     0.148 A 
ATOM     77  C   UNL A   1      51.088  25.908  25.550  1.00  0.00     0.002 A 
ATOM     78  C   UNL A   1      51.907  26.458  27.763  1.00  0.00     0.091 A 
ATOM     79  F   UNL A   1      50.350  27.102  29.449  1.00  0.00    -0.205 F 
ATOM     80  C   UNL A   1      52.145  26.024  26.450  1.00  0.00     0.022 A 
BRANCH  78  81
ATOM     81  S   UNL A   1      53.337  26.741  28.812  1.00  0.00     0.127 S 
ATOM     82  O   UNL A   1      54.436  26.349  27.933  1.00  0.00    -0.237 OA
ATOM     83  O   UNL A   1      53.240  28.178  29.075  1.00  0.00    -0.237 OA
ATOM     84  O   UNL A   1      53.131  25.905  29.986  1.00  0.00    -0.744 OA
ENDBRANCH  78  81
ENDBRANCH  50  74
BRANCH  62  85
ATOM     85  C   UNL A   1      46.501  32.780  28.695  1.00  0.00     0.023 A 
ATOM     86  C   UNL A   1      46.920  33.316  29.929  1.00  0.00     0.012 A 
ATOM     87  C   UNL A   1      46.631  33.553  27.525  1.00  0.00     0.148 A 
ATOM     88  C   UNL A   1      47.428  34.611  30.003  1.00  0.00     0.002 A 
ATOM     89  C   UNL A   1      47.185  34.827  27.598  1.00  0.00     0.091 A 
ATOM     90  F   UNL A   1      46.209  33.033  26.364  1.00  0.00    -0.205 F 
ATOM     91  C   UNL A   1      47.571  35.362  28.837  1.00  0.00     0.022 A 
BRANCH  89  92
ATOM     92  S   UNL A   1      47.491  35.827  26.138  1.00  0.00     0.127 S 
ATOM     93  O   UNL A   1      48.567  36.703  26.598  1.00  0.00    -0.237 OA
ATOM     94  O   UNL A   1      47.898  34.824  25.155  1.00  0.00    -0.237 OA
ATOM     95  O   UNL A   1      46.230  36.492  25.836  1.00  0.00    -0.744 OA
ENDBRANCH  89  92
ENDBRANCH  62  85
ENDBRANCH  36  37
ENDBRANCH  29  31
ENDBRANCH  28  29
ENDBRANCH  27  28
ENDBRANCH  26  27
ENDBRANCH  25  26
ENDBRANCH  24  25
ENDBRANCH   1  24
TORSDOF 26
ENDMDL
MODEL 2
REMARK VINA RESULT:      -9.5      4.916     10.000
REMARK SMILES CCN(CC)C(=O)CN(CC(=O)OCCOCCOCCOC(=O)c1ccc(-c2c3nc(c(-c4cccc(S(=O)(=O)[O-])c4F)c4ccc([nH]4)c(-c4cccc(S(=O)(=O)[O-])c4F)c4nc(c(-c5cccc(S(=O)(=O)[O-])c5F)c5ccc2[nH]5)C=C4)C=C3)cc1)c1ccccc1
REMARK SMILES IDX 17 1 16 2 15 3 14 4 13 5 11 6 12 7 10 8 9 9 8 10 6 11 3 12
REMARK SMILES IDX 7 13 2 14 1 15 4 16 5 17 88 18 89 19 93 20 90 21 92 22 91 23
REMARK SMILES IDX 18 24 19 25 20 26 21 27 22 28 23 29 24 30 25 31 26 32 87 33
REMARK SMILES IDX 27 34 86 35 28 36 29 37 30 38 80 39 31 40 85 41 79 42 81 43
REMARK SMILES IDX 32 44 84 45 78 46 77 47 33 49 65 50 45 51 64 52 46 53 49 54
REMARK SMILES IDX 63 55 82 56 47 57 48 58 62 60 83 61 50 62 34 63 35 64 43 65
REMARK SMILES IDX 36 66 38 67 44 68 37 69 39 70 40 71 41 72 42 73 66 74 67 75
REMARK SMILES IDX 75 76 68 77 70 78 76 79 69 80 71 81 72 82 73 83 74 84 51 85
REMARK SMILES IDX 52 86 60 87 53 88 55 89 61 90 54 91 56 92 57 93 58 94 59 95
REMARK H PARENT 81 48 49 59
REMARK Flexibility Score: inf
ROOT
ATOM      1  C   UNL A   1      40.515  21.846  27.136  1.00  0.00     0.188 C 
ENDROOT
BRANCH   1   2
ATOM      2  O   UNL A   1      39.733  22.458  26.117  1.00  0.00    -0.376 OA
BRANCH   2   3
ATOM      3  C   UNL A   1      38.522  21.833  25.723  1.00  0.00     0.202 C 
BRANCH   3   4
ATOM      4  C   UNL A   1      37.515  22.740  25.019  1.00  0.00     0.261 C 
BRANCH   4   5
ATOM      5  O   UNL A   1      36.730  22.008  24.059  1.00  0.00    -0.462 OA
BRANCH   5   6
ATOM      6  C   UNL A   1      35.510  22.528  23.796  1.00  0.00     0.325 C 
ATOM      7  O   UNL A   1      35.203  23.031  22.716  1.00  0.00    -0.250 OA
BRANCH   6   8
ATOM      8  C   UNL A   1      34.463  22.307  24.881  1.00  0.00     0.239 C 
BRANCH   8   9
ATOM      9  N   UNL A   1      33.249  21.492  24.592  1.00  0.00    -0.351 N 
BRANCH   9  10
ATOM     10  C   UNL A   1      32.002  22.259  24.327  1.00  0.00     0.217 C 
BRANCH  10  11
ATOM     11  C   UNL A   1      31.603  23.300  25.417  1.00  0.00     0.242 C 
ATOM     12  N   UNL A   1      31.653  24.673  25.172  1.00  0.00    -0.342 N 
ATOM     13  O   UNL A   1      31.255  22.877  26.530  1.00  0.00    -0.273 OA
BRANCH  12  14
ATOM     14  C   UNL A   1      30.954  25.559  26.103  1.00  0.00     0.116 C 
ATOM     15  C   UNL A   1      30.775  26.955  25.518  1.00  0.00     0.027 C 
ENDBRANCH  12  14
BRANCH  12  16
ATOM     16  C   UNL A   1      32.242  25.314  24.001  1.00  0.00     0.116 C 
ATOM     17  C   UNL A   1      33.683  25.736  24.246  1.00  0.00     0.027 C 
ENDBRANCH  12  16
ENDBRANCH  10  11
ENDBRANCH   9  10
BRANCH   9  18
ATOM     18  C   UNL A   1      33.289  20.155  24.170  1.00  0.00     0.038 A 
ATOM     19  C   UNL A   1      32.398  19.621  23.230  1.00  0.00     0.026 A 
ATOM     20  C   UNL A   1      34.217  19.230  24.700  1.00  0.00     0.026 A 
ATOM     21  C   UNL A   1      32.407  18.261  22.870  1.00  0.00     0.002 A 
ATOM     22  C   UNL A   1      34.224  17.869  24.354  1.00  0.00     0.002 A 
ATOM     23  C   UNL A   1      33.319  17.383  23.428  1.00  0.00     0.000 A 
ENDBRANCH   9  18
ENDBRANCH   8   9
ENDBRANCH   6   8
ENDBRANCH   5   6
ENDBRANCH   4   5
ENDBRANCH   3   4
ENDBRANCH   2   3
ENDBRANCH   1   2
BRANCH   1  24
ATOM     24  C   UNL A   1      41.704  20.936  26.750  1.00  0.00     0.188 C 
BRANCH  24  25
ATOM     25  O   UNL A   1      43.014  21.483  26.810  1.00  0.00    -0.376 OA
BRANCH  25  26
ATOM     26  C   UNL A   1      43.667  21.712  25.567  1.00  0.00     0.202 C 
BRANCH  26  27
ATOM     27  C   UNL A   1      43.158  22.933  24.805  1.00  0.00     0.261 C 
BRANCH  27  28
ATOM     28  O   UNL A   1      44.254  23.730  24.313  1.00  0.00    -0.460 OA
BRANCH  28  29
ATOM     29  C   UNL A   1      44.913  24.413  25.277  1.00  0.00     0.338 C 
ATOM     30  O   UNL A   1      46.085  24.275  25.586  1.00  0.00    -0.246 OA
BRANCH  29  31
ATOM     31  C   UNL A   1      44.037  25.390  25.957  1.00  0.00     0.060 A 
ATOM     32  C   UNL A   1      44.027  26.734  25.591  1.00  0.00     0.016 A 
ATOM     33  C   UNL A   1      43.393  24.991  27.127  1.00  0.00     0.016 A 
ATOM     34  C   UNL A   1      43.491  27.695  26.457  1.00  0.00     0.010 A 
ATOM     35  C   UNL A   1      42.787  25.946  27.951  1.00  0.00     0.010 A 
ATOM     36  C   UNL A   1      42.884  27.319  27.664  1.00  0.00    -0.014 A 
BRANCH  36  37
ATOM     37  C   UNL A   1      42.417  28.324  28.667  1.00  0.00     0.031 A 
ATOM     38  C   UNL A   1      43.281  28.649  29.865  1.00  0.00     0.074 A 
ATOM     39  C   UNL A   1      41.215  28.925  28.550  1.00  0.00     0.049 A 
ATOM     40  N   UNL A   1      42.957  29.235  30.989  1.00  0.00    -0.248 NA
ATOM     41  C   UNL A   1      44.696  28.246  29.792  1.00  0.00     0.031 C 
ATOM     42  C   UNL A   1      40.289  28.768  27.430  1.00  0.00     0.029 A 
ATOM     43  N   UNL A   1      40.549  29.765  29.415  1.00  0.00    -0.354 N 
ATOM     44  C   UNL A   1      44.092  29.178  31.793  1.00  0.00     0.074 A 
ATOM     45  C   UNL A   1      45.127  28.536  31.012  1.00  0.00     0.031 C 
ATOM     46  C   UNL A   1      39.175  29.474  27.674  1.00  0.00     0.029 A 
ATOM     47  C   UNL A   1      39.261  30.041  29.014  1.00  0.00     0.049 A 
ATOM     48  H   UNL A   1      40.952  30.131  30.234  1.00  0.00     0.167 HD
ATOM     49  C   UNL A   1      44.253  29.614  33.067  1.00  0.00     0.034 A 
ATOM     50  C   UNL A   1      38.230  30.610  29.672  1.00  0.00     0.034 A 
ATOM     51  C   UNL A   1      43.246  30.328  33.809  1.00  0.00     0.049 A 
ATOM     52  C   UNL A   1      38.423  31.070  31.089  1.00  0.00     0.074 A 
ATOM     53  C   UNL A   1      43.331  30.855  35.087  1.00  0.00     0.029 A 
ATOM     54  N   UNL A   1      41.975  30.620  33.342  1.00  0.00    -0.354 N 
ATOM     55  N   UNL A   1      39.501  31.025  31.831  1.00  0.00    -0.248 NA
ATOM     56  C   UNL A   1      37.257  31.664  31.759  1.00  0.00     0.031 C 
ATOM     57  C   UNL A   1      42.103  31.446  35.401  1.00  0.00     0.029 A 
ATOM     58  C   UNL A   1      41.263  31.313  34.307  1.00  0.00     0.049 A 
ATOM     59  H   UNL A   1      41.629  30.374  32.454  1.00  0.00     0.167 HD
ATOM     60  C   UNL A   1      39.153  31.607  33.045  1.00  0.00     0.074 A 
ATOM     61  C   UNL A   1      37.770  32.019  32.928  1.00  0.00     0.031 C 
ATOM     62  C   UNL A   1      39.904  31.766  34.162  1.00  0.00     0.034 A 
BRANCH  49  63
ATOM     63  C   UNL A   1      45.562  29.329  33.761  1.00  0.00     0.023 A 
ATOM     64  C   UNL A   1      46.608  30.271  33.722  1.00  0.00     0.012 A 
ATOM     65  C   UNL A   1      45.718  28.156  34.529  1.00  0.00     0.148 A 
ATOM     66  C   UNL A   1      47.799  30.037  34.413  1.00  0.00     0.002 A 
ATOM     67  C   UNL A   1      46.888  27.950  35.249  1.00  0.00     0.091 A 
ATOM     68  F   UNL A   1      44.717  27.263  34.540  1.00  0.00    -0.205 F 
ATOM     69  C   UNL A   1      47.934  28.885  35.185  1.00  0.00     0.022 A 
BRANCH  67  70
ATOM     70  S   UNL A   1      47.122  26.539  36.337  1.00  0.00     0.127 S 
ATOM     71  O   UNL A   1      46.518  27.021  37.579  1.00  0.00    -0.237 OA
ATOM     72  O   UNL A   1      46.358  25.493  35.654  1.00  0.00    -0.237 OA
ATOM     73  O   UNL A   1      48.558  26.306  36.390  1.00  0.00    -0.744 OA
ENDBRANCH  67  70
ENDBRANCH  49  63
BRANCH  50  74
ATOM     74  C   UNL A   1      36.904  30.736  29.000  1.00  0.00     0.023 A 
ATOM     75  C   UNL A   1      36.207  29.579  28.609  1.00  0.00     0.012 A 
ATOM     76  C   UNL A   1      36.315  31.999  28.785  1.00  0.00     0.148 A 
ATOM     77  C   UNL A   1      34.954  29.677  28.001  1.00  0.00     0.002 A 
ATOM     78  C   UNL A   1      35.039  32.085  28.243  1.00  0.00     0.091 A 
ATOM     79  F   UNL A   1      37.005  33.092  29.138  1.00  0.00    -0.205 F 
ATOM     80  C   UNL A   1      34.364  30.926  27.833  1.00  0.00     0.022 A 
BRANCH  78  81
ATOM     81  S   UNL A   1      34.147  33.641  28.146  1.00  0.00     0.127 S 
ATOM     82  O   UNL A   1      32.863  33.216  27.594  1.00  0.00    -0.237 OA
ATOM     83  O   UNL A   1      34.108  34.057  29.549  1.00  0.00    -0.237 OA
ATOM     84  O   UNL A   1      34.955  34.500  27.293  1.00  0.00    -0.744 OA
ENDBRANCH  78  81
ENDBRANCH  50  74
BRANCH  62  85
ATOM     85  C   UNL A   1      39.266  32.460  35.336  1.00  0.00     0.023 A 
ATOM     86  C   UNL A   1      39.210  33.867  35.377  1.00  0.00     0.012 A 
ATOM     87  C   UNL A   1      38.668  31.714  36.371  1.00  0.00     0.148 A 
ATOM     88  C   UNL A   1      38.603  34.522  36.446  1.00  0.00     0.002 A 
ATOM     89  C   UNL A   1      38.020  32.372  37.409  1.00  0.00     0.091 A 
ATOM     90  F   UNL A   1      38.749  30.376  36.323  1.00  0.00    -0.205 F 
ATOM     91  C   UNL A   1      37.998  33.775  37.456  1.00  0.00     0.022 A 
BRANCH  89  92
ATOM     92  S   UNL A   1      37.137  31.492  38.702  1.00  0.00     0.127 S 
ATOM     93  O   UNL A   1      35.894  32.257  38.787  1.00  0.00    -0.237 OA
ATOM     94  O   UNL A   1      36.993  30.156  38.124  1.00  0.00    -0.237 OA
ATOM     95  O   UNL A   1      37.989  31.551  39.882  1.00  0.00    -0.744 OA
ENDBRANCH  89  92
ENDBRANCH  62  85
ENDBRANCH  36  37
ENDBRANCH  29  31
ENDBRANCH  28  29
ENDBRANCH  27  28
ENDBRANCH  26  27
ENDBRANCH  25  26
ENDBRANCH  24  25
ENDBRANCH   1  24
TORSDOF 26
ENDMDL
MODEL 3
REMARK VINA RESULT:      -9.0      2.836      4.840
REMARK SMILES CCN(CC)C(=O)CN(CC(=O)OCCOCCOCCOC(=O)c1ccc(-c2c3nc(c(-c4cccc(S(=O)(=O)[O-])c4F)c4ccc([nH]4)c(-c4cccc(S(=O)(=O)[O-])c4F)c4nc(c(-c5cccc(S(=O)(=O)[O-])c5F)c5ccc2[nH]5)C=C4)C=C3)cc1)c1ccccc1
REMARK SMILES IDX 17 1 16 2 15 3 14 4 13 5 11 6 12 7 10 8 9 9 8 10 6 11 3 12
REMARK SMILES IDX 7 13 2 14 1 15 4 16 5 17 88 18 89 19 93 20 90 21 92 22 91 23
REMARK SMILES IDX 18 24 19 25 20 26 21 27 22 28 23 29 24 30 25 31 26 32 87 33
REMARK SMILES IDX 27 34 86 35 28 36 29 37 30 38 80 39 31 40 85 41 79 42 81 43
REMARK SMILES IDX 32 44 84 45 78 46 77 47 33 49 65 50 45 51 64 52 46 53 49 54
REMARK SMILES IDX 63 55 82 56 47 57 48 58 62 60 83 61 50 62 34 63 35 64 43 65
REMARK SMILES IDX 36 66 38 67 44 68 37 69 39 70 40 71 41 72 42 73 66 74 67 75
REMARK SMILES IDX 75 76 68 77 70 78 76 79 69 80 71 81 72 82 73 83 74 84 51 85
REMARK SMILES IDX 52 86 60 87 53 88 55 89 61 90 54 91 56 92 57 93 58 94 59 95
REMARK H PARENT 81 48 49 59
REMARK Flexibility Score: inf
ROOT
ATOM      1  C   UNL A   1      41.198  20.395  27.521  1.00  0.00     0.188 C 
ENDROOT
BRANCH   1   2
ATOM      2  O   UNL A   1      41.481  21.782  27.378  1.00  0.00    -0.376 OA
BRANCH   2   3
ATOM      3  C   UNL A   1      40.487  22.720  27.756  1.00  0.00     0.202 C 
BRANCH   3   4
ATOM      4  C   UNL A   1      39.711  23.352  26.602  1.00  0.00     0.261 C 
BRANCH   4   5
ATOM      5  O   UNL A   1      38.878  22.383  25.937  1.00  0.00    -0.462 OA
BRANCH   5   6
ATOM      6  C   UNL A   1      37.572  22.721  25.832  1.00  0.00     0.325 C 
ATOM      7  O   UNL A   1      37.065  23.673  26.423  1.00  0.00    -0.250 OA
BRANCH   6   8
ATOM      8  C   UNL A   1      36.782  21.935  24.792  1.00  0.00     0.239 C 
BRANCH   8   9
ATOM      9  N   UNL A   1      35.295  22.025  24.762  1.00  0.00    -0.351 N 
BRANCH   9  10
ATOM     10  C   UNL A   1      34.570  21.057  25.630  1.00  0.00     0.217 C 
BRANCH  10  11
ATOM     11  C   UNL A   1      33.480  20.197  24.920  1.00  0.00     0.242 C 
ATOM     12  N   UNL A   1      33.732  18.886  24.513  1.00  0.00    -0.342 N 
ATOM     13  O   UNL A   1      32.374  20.716  24.703  1.00  0.00    -0.273 OA
BRANCH  12  14
ATOM     14  C   UNL A   1      32.585  18.044  24.172  1.00  0.00     0.116 C 
ATOM     15  C   UNL A   1      32.310  18.054  22.673  1.00  0.00     0.027 C 
ENDBRANCH  12  14
BRANCH  12  16
ATOM     16  C   UNL A   1      35.033  18.227  24.504  1.00  0.00     0.116 C 
ATOM     17  C   UNL A   1      34.923  16.742  24.815  1.00  0.00     0.027 C 
ENDBRANCH  12  16
ENDBRANCH  10  11
ENDBRANCH   9  10
BRANCH   9  18
ATOM     18  C   UNL A   1      34.590  23.155  24.323  1.00  0.00     0.038 A 
ATOM     19  C   UNL A   1      34.196  23.342  22.991  1.00  0.00     0.026 A 
ATOM     20  C   UNL A   1      34.259  24.217  25.193  1.00  0.00     0.026 A 
ATOM     21  C   UNL A   1      33.552  24.513  22.553  1.00  0.00     0.002 A 
ATOM     22  C   UNL A   1      33.626  25.394  24.761  1.00  0.00     0.002 A 
ATOM     23  C   UNL A   1      33.263  25.540  23.434  1.00  0.00     0.000 A 
ENDBRANCH   9  18
ENDBRANCH   8   9
ENDBRANCH   6   8
ENDBRANCH   5   6
ENDBRANCH   4   5
ENDBRANCH   3   4
ENDBRANCH   2   3
ENDBRANCH   1   2
BRANCH   1  24
ATOM     24  C   UNL A   1      40.737  19.574  26.293  1.00  0.00     0.188 C 
BRANCH  24  25
ATOM     25  O   UNL A   1      41.725  18.886  25.538  1.00  0.00    -0.376 OA
BRANCH  25  26
ATOM     26  C   UNL A   1      43.034  18.840  26.093  1.00  0.00     0.202 C 
BRANCH  26  27
ATOM     27  C   UNL A   1      44.152  18.743  25.058  1.00  0.00     0.261 C 
BRANCH  27  28
ATOM     28  O   UNL A   1      45.052  19.865  25.163  1.00  0.00    -0.460 OA
BRANCH  28  29
ATOM     29  C   UNL A   1      44.708  20.920  24.389  1.00  0.00     0.338 C 
ATOM     30  O   UNL A   1      44.595  20.917  23.174  1.00  0.00    -0.246 OA
BRANCH  29  31
ATOM     31  C   UNL A   1      44.471  22.138  25.191  1.00  0.00     0.060 A 
ATOM     32  C   UNL A   1      44.072  23.333  24.597  1.00  0.00     0.016 A 
ATOM     33  C   UNL A   1      44.879  22.136  26.523  1.00  0.00     0.016 A 
ATOM     34  C   UNL A   1      44.207  24.542  25.290  1.00  0.00     0.010 A 
ATOM     35  C   UNL A   1      44.935  23.336  27.239  1.00  0.00     0.010 A 
ATOM     36  C   UNL A   1      44.665  24.567  26.614  1.00  0.00    -0.014 A 
BRANCH  36  37
ATOM     37  C   UNL A   1      44.940  25.846  27.338  1.00  0.00     0.031 A 
ATOM     38  C   UNL A   1      43.796  26.628  27.945  1.00  0.00     0.074 A 
ATOM     39  C   UNL A   1      46.190  26.345  27.431  1.00  0.00     0.049 A 
ATOM     40  N   UNL A   1      43.758  27.876  28.335  1.00  0.00    -0.248 NA
ATOM     41  C   UNL A   1      42.522  25.911  28.122  1.00  0.00     0.031 C 
ATOM     42  C   UNL A   1      47.406  25.689  26.953  1.00  0.00     0.029 A 
ATOM     43  N   UNL A   1      46.636  27.548  27.928  1.00  0.00    -0.354 N 
ATOM     44  C   UNL A   1      42.438  28.123  28.703  1.00  0.00     0.074 A 
ATOM     45  C   UNL A   1      41.715  26.882  28.529  1.00  0.00     0.031 C 
ATOM     46  C   UNL A   1      48.457  26.495  27.167  1.00  0.00     0.029 A 
ATOM     47  C   UNL A   1      47.975  27.766  27.694  1.00  0.00     0.049 A 
ATOM     48  H   UNL A   1      46.058  28.188  28.403  1.00  0.00     0.167 HD
ATOM     49  C   UNL A   1      41.880  29.280  29.138  1.00  0.00     0.034 A 
ATOM     50  C   UNL A   1      48.725  28.881  27.805  1.00  0.00     0.034 A 
ATOM     51  C   UNL A   1      42.621  30.488  29.391  1.00  0.00     0.049 A 
ATOM     52  C   UNL A   1      48.084  30.158  28.272  1.00  0.00     0.074 A 
ATOM     53  C   UNL A   1      42.155  31.696  29.882  1.00  0.00     0.029 A 
ATOM     54  N   UNL A   1      43.982  30.643  29.180  1.00  0.00    -0.354 N 
ATOM     55  N   UNL A   1      46.844  30.375  28.630  1.00  0.00    -0.248 NA
ATOM     56  C   UNL A   1      48.950  31.344  28.354  1.00  0.00     0.031 C 
ATOM     57  C   UNL A   1      43.230  32.590  29.944  1.00  0.00     0.029 A 
ATOM     58  C   UNL A   1      44.372  31.927  29.522  1.00  0.00     0.049 A 
ATOM     59  H   UNL A   1      44.584  29.943  28.838  1.00  0.00     0.167 HD
ATOM     60  C   UNL A   1      46.783  31.712  29.006  1.00  0.00     0.074 A 
ATOM     61  C   UNL A   1      48.120  32.248  28.854  1.00  0.00     0.031 C 
ATOM     62  C   UNL A   1      45.714  32.436  29.418  1.00  0.00     0.034 A 
BRANCH  49  63
ATOM     63  C   UNL A   1      40.389  29.314  29.366  1.00  0.00     0.023 A 
ATOM     64  C   UNL A   1      39.500  29.281  28.274  1.00  0.00     0.012 A 
ATOM     65  C   UNL A   1      39.871  29.292  30.678  1.00  0.00     0.148 A 
ATOM     66  C   UNL A   1      38.121  29.253  28.483  1.00  0.00     0.002 A 
ATOM     67  C   UNL A   1      38.497  29.219  30.879  1.00  0.00     0.091 A 
ATOM     68  F   UNL A   1      40.732  29.341  31.705  1.00  0.00    -0.205 F 
ATOM     69  C   UNL A   1      37.620  29.210  29.783  1.00  0.00     0.022 A 
BRANCH  67  70
ATOM     70  S   UNL A   1      37.763  29.075  32.513  1.00  0.00     0.127 S 
ATOM     71  O   UNL A   1      36.407  29.567  32.271  1.00  0.00    -0.237 OA
ATOM     72  O   UNL A   1      37.853  27.636  32.765  1.00  0.00    -0.237 OA
ATOM     73  O   UNL A   1      38.579  29.898  33.394  1.00  0.00    -0.744 OA
ENDBRANCH  67  70
ENDBRANCH  49  63
BRANCH  50  74
ATOM     74  C   UNL A   1      50.167  28.843  27.424  1.00  0.00     0.023 A 
ATOM     75  C   UNL A   1      50.554  29.199  26.120  1.00  0.00     0.012 A 
ATOM     76  C   UNL A   1      51.159  28.496  28.364  1.00  0.00     0.148 A 
ATOM     77  C   UNL A   1      51.900  29.192  25.751  1.00  0.00     0.002 A 
ATOM     78  C   UNL A   1      52.501  28.559  28.011  1.00  0.00     0.091 A 
ATOM     79  F   UNL A   1      50.771  28.133  29.594  1.00  0.00    -0.205 F 
ATOM     80  C   UNL A   1      52.874  28.889  26.700  1.00  0.00     0.022 A 
BRANCH  78  81
ATOM     81  S   UNL A   1      53.815  28.343  29.216  1.00  0.00     0.127 S 
ATOM     82  O   UNL A   1      53.608  26.962  29.641  1.00  0.00    -0.237 OA
ATOM     83  O   UNL A   1      55.012  28.564  28.402  1.00  0.00    -0.237 OA
ATOM     84  O   UNL A   1      53.587  29.364  30.228  1.00  0.00    -0.744 OA
ENDBRANCH  78  81
ENDBRANCH  50  74
BRANCH  62  85
ATOM     85  C   UNL A   1      45.950  33.877  29.784  1.00  0.00     0.023 A 
ATOM     86  C   UNL A   1      46.305  34.218  31.104  1.00  0.00     0.012 A 
ATOM     87  C   UNL A   1      45.876  34.887  28.805  1.00  0.00     0.148 A 
ATOM     88  C   UNL A   1      46.548  35.546  31.452  1.00  0.00     0.002 A 
ATOM     89  C   UNL A   1      46.168  36.202  29.147  1.00  0.00     0.091 A 
ATOM     90  F   UNL A   1      45.518  34.544  27.559  1.00  0.00    -0.205 F 
ATOM     91  C   UNL A   1      46.491  36.536  30.472  1.00  0.00     0.022 A 
BRANCH  89  92
ATOM     92  S   UNL A   1      46.209  37.524  27.933  1.00  0.00     0.127 S 
ATOM     93  O   UNL A   1      46.697  38.648  28.732  1.00  0.00    -0.237 OA
ATOM     94  O   UNL A   1      47.164  37.014  26.950  1.00  0.00    -0.237 OA
ATOM     95  O   UNL A   1      44.845  37.656  27.437  1.00  0.00    -0.744 OA
ENDBRANCH  89  92
ENDBRANCH  62  85
ENDBRANCH  36  37
ENDBRANCH  29  31
ENDBRANCH  28  29
ENDBRANCH  27  28
ENDBRANCH  26  27
ENDBRANCH  25  26
ENDBRANCH  24  25
ENDBRANCH   1  24
TORSDOF 26
ENDMDL
