MODEL 1
REMARK VINA RESULT:     -10.8      0.000      0.000
REMARK SMILES COc1c(N)cc(-c2ccccc2)cc1C(=O)OCCOCCOCCOC(=O)c1ccc(-c2c3nc(c(-c4cccc(S(=O)(=O)[O-])c4F)c4ccc([nH]4)c(-c4cccc(S(=O)(=O)[O-])c4F)c4nc(c(-c5cccc(S(=O)(=O)[O-])c5F)c5ccc2[nH]5)C=C4)C=C3)cc1
REMARK SMILES IDX 23 1 22 2 21 3 20 4 19 5 18 6 16 7 17 8 15 9 3 10 4 11 6 12
REMARK SMILES IDX 14 13 7 14 2 15 1 16 5 17 8 20 9 21 13 22 10 23 12 24 11 25
REMARK SMILES IDX 24 26 25 27 26 28 27 29 28 30 29 31 30 32 31 33 92 34 32 35
REMARK SMILES IDX 91 36 33 37 34 38 35 39 85 40 36 41 90 42 84 43 86 44 37 45
REMARK SMILES IDX 89 46 83 47 82 48 38 50 70 51 50 52 69 53 51 54 54 55 68 56
REMARK SMILES IDX 87 57 52 58 53 59 67 61 88 62 55 63 39 64 40 65 48 66 41 67
REMARK SMILES IDX 43 68 49 69 42 70 44 71 45 72 46 73 47 74 71 75 72 76 80 77
REMARK SMILES IDX 73 78 75 79 81 80 74 81 76 82 77 83 78 84 79 85 56 86 57 87
REMARK SMILES IDX 65 88 58 89 60 90 66 91 59 92 61 93 62 94 63 95 64 96
REMARK H PARENT 5 18 5 19 86 49 54 60
REMARK Flexibility Score: inf
ROOT
ATOM      1  C   UNL A   1      36.636  22.163  24.051  1.00  0.00     0.188 C 
ENDROOT
BRANCH   1   2
ATOM      2  C   UNL A   1      35.178  22.635  23.871  1.00  0.00     0.188 C 
BRANCH   2   3
ATOM      3  O   UNL A   1      34.914  23.453  22.756  1.00  0.00    -0.376 OA
BRANCH   3   4
ATOM      4  C   UNL A   1      33.590  23.857  22.449  1.00  0.00     0.202 C 
BRANCH   4   5
ATOM      5  C   UNL A   1      33.165  25.266  21.994  1.00  0.00     0.261 C 
BRANCH   5   6
ATOM      6  O   UNL A   1      31.782  25.463  21.687  1.00  0.00    -0.460 OA
BRANCH   6   7
ATOM      7  C   UNL A   1      30.943  25.447  22.754  1.00  0.00     0.342 C 
ATOM      8  O   UNL A   1      30.340  24.477  23.187  1.00  0.00    -0.246 OA
BRANCH   7   9
ATOM      9  C   UNL A   1      30.972  26.732  23.480  1.00  0.00     0.104 A 
ATOM     10  C   UNL A   1      31.684  26.924  24.669  1.00  0.00     0.156 A 
ATOM     11  C   UNL A   1      31.816  28.220  25.202  1.00  0.00     0.076 A 
ATOM     12  C   UNL A   1      31.059  29.258  24.648  1.00  0.00     0.038 A 
ATOM     13  C   UNL A   1      30.267  27.802  22.901  1.00  0.00     0.028 A 
ATOM     14  C   UNL A   1      30.278  29.068  23.498  1.00  0.00    -0.015 A 
BRANCH  10  15
ATOM     15  O   UNL A   1      32.313  25.861  25.275  1.00  0.00    -0.494 OA
ATOM     16  C   UNL A   1      31.636  25.494  26.486  1.00  0.00     0.278 C 
ENDBRANCH  10  15
BRANCH  11  17
ATOM     17  N   UNL A   1      32.593  28.473  26.334  1.00  0.00    -0.396 N 
ATOM     18  H   UNL A   1      32.652  27.802  27.051  1.00  0.00     0.156 HD
ATOM     19  H   UNL A   1      33.082  29.324  26.415  1.00  0.00     0.156 HD
ENDBRANCH  11  17
BRANCH  14  20
ATOM     20  C   UNL A   1      29.534  30.193  22.927  1.00  0.00    -0.018 A 
ATOM     21  C   UNL A   1      29.171  31.283  23.732  1.00  0.00     0.009 A 
ATOM     22  C   UNL A   1      29.135  30.191  21.583  1.00  0.00     0.009 A 
ATOM     23  C   UNL A   1      28.421  32.339  23.210  1.00  0.00     0.001 A 
ATOM     24  C   UNL A   1      28.387  31.249  21.057  1.00  0.00     0.001 A 
ATOM     25  C   UNL A   1      28.029  32.321  21.873  1.00  0.00     0.000 A 
ENDBRANCH  14  20
ENDBRANCH   7   9
ENDBRANCH   6   7
ENDBRANCH   5   6
ENDBRANCH   4   5
ENDBRANCH   3   4
ENDBRANCH   2   3
ENDBRANCH   1   2
BRANCH   1  26
ATOM     26  O   UNL A   1      36.988  21.227  25.060  1.00  0.00    -0.376 OA
BRANCH  26  27
ATOM     27  C   UNL A   1      37.313  19.897  24.686  1.00  0.00     0.202 C 
BRANCH  27  28
ATOM     28  C   UNL A   1      38.595  19.213  25.189  1.00  0.00     0.261 C 
BRANCH  28  29
ATOM     29  O   UNL A   1      39.140  19.727  26.411  1.00  0.00    -0.460 OA
BRANCH  29  30
ATOM     30  C   UNL A   1      40.468  19.988  26.389  1.00  0.00     0.338 C 
ATOM     31  O   UNL A   1      41.354  19.277  25.924  1.00  0.00    -0.246 OA
BRANCH  30  32
ATOM     32  C   UNL A   1      40.709  21.365  26.846  1.00  0.00     0.060 A 
ATOM     33  C   UNL A   1      40.085  22.416  26.159  1.00  0.00     0.016 A 
ATOM     34  C   UNL A   1      41.584  21.626  27.901  1.00  0.00     0.016 A 
ATOM     35  C   UNL A   1      40.345  23.736  26.519  1.00  0.00     0.010 A 
ATOM     36  C   UNL A   1      41.862  22.953  28.244  1.00  0.00     0.010 A 
ATOM     37  C   UNL A   1      41.263  24.012  27.538  1.00  0.00    -0.014 A 
BRANCH  37  38
ATOM     38  C   UNL A   1      41.719  25.406  27.744  1.00  0.00     0.031 A 
ATOM     39  C   UNL A   1      43.101  25.783  27.291  1.00  0.00     0.074 A 
ATOM     40  C   UNL A   1      40.918  26.323  28.316  1.00  0.00     0.049 A 
ATOM     41  N   UNL A   1      43.728  26.924  27.408  1.00  0.00    -0.248 NA
ATOM     42  C   UNL A   1      43.879  24.735  26.610  1.00  0.00     0.031 C 
ATOM     43  C   UNL A   1      39.547  26.086  28.766  1.00  0.00     0.029 A 
ATOM     44  N   UNL A   1      41.157  27.635  28.637  1.00  0.00    -0.354 N 
ATOM     45  C   UNL A   1      44.986  26.721  26.855  1.00  0.00     0.074 A 
ATOM     46  C   UNL A   1      45.033  25.350  26.396  1.00  0.00     0.031 C 
ATOM     47  C   UNL A   1      39.078  27.209  29.339  1.00  0.00     0.029 A 
ATOM     48  C   UNL A   1      40.124  28.229  29.322  1.00  0.00     0.049 A 
ATOM     49  H   UNL A   1      41.990  28.105  28.401  1.00  0.00     0.167 HD
ATOM     50  C   UNL A   1      46.009  27.599  26.734  1.00  0.00     0.034 A 
ATOM     51  C   UNL A   1      40.047  29.447  29.896  1.00  0.00     0.034 A 
ATOM     52  C   UNL A   1      45.955  28.965  27.175  1.00  0.00     0.049 A 
ATOM     53  C   UNL A   1      41.218  30.390  29.785  1.00  0.00     0.074 A 
ATOM     54  C   UNL A   1      46.922  29.947  27.050  1.00  0.00     0.029 A 
ATOM     55  N   UNL A   1      44.885  29.540  27.843  1.00  0.00    -0.354 N 
ATOM     56  N   UNL A   1      42.358  30.224  29.158  1.00  0.00    -0.248 NA
ATOM     57  C   UNL A   1      41.081  31.700  30.439  1.00  0.00     0.031 C 
ATOM     58  C   UNL A   1      46.451  31.105  27.675  1.00  0.00     0.029 A 
ATOM     59  C   UNL A   1      45.175  30.857  28.155  1.00  0.00     0.049 A 
ATOM     60  H   UNL A   1      44.043  29.080  28.063  1.00  0.00     0.167 HD
ATOM     61  C   UNL A   1      43.056  31.419  29.308  1.00  0.00     0.074 A 
ATOM     62  C   UNL A   1      42.201  32.307  30.069  1.00  0.00     0.031 C 
ATOM     63  C   UNL A   1      44.294  31.749  28.864  1.00  0.00     0.034 A 
BRANCH  50  64
ATOM     64  C   UNL A   1      47.281  27.108  26.096  1.00  0.00     0.023 A 
ATOM     65  C   UNL A   1      47.517  27.343  24.727  1.00  0.00     0.012 A 
ATOM     66  C   UNL A   1      48.266  26.464  26.869  1.00  0.00     0.148 A 
ATOM     67  C   UNL A   1      48.703  26.919  24.130  1.00  0.00     0.002 A 
ATOM     68  C   UNL A   1      49.464  26.085  26.278  1.00  0.00     0.091 A 
ATOM     69  F   UNL A   1      48.009  26.228  28.164  1.00  0.00    -0.205 F 
ATOM     70  C   UNL A   1      49.680  26.301  24.907  1.00  0.00     0.022 A 
BRANCH  68  71
ATOM     71  S   UNL A   1      50.814  25.354  27.210  1.00  0.00     0.127 S 
ATOM     72  O   UNL A   1      51.193  26.456  28.092  1.00  0.00    -0.237 OA
ATOM     73  O   UNL A   1      50.151  24.236  27.882  1.00  0.00    -0.237 OA
ATOM     74  O   UNL A   1      51.817  24.967  26.229  1.00  0.00    -0.744 OA
ENDBRANCH  68  71
ENDBRANCH  50  64
BRANCH  51  75
ATOM     75  C   UNL A   1      38.808  29.863  30.614  1.00  0.00     0.023 A 
ATOM     76  C   UNL A   1      38.614  29.464  31.951  1.00  0.00     0.012 A 
ATOM     77  C   UNL A   1      37.819  30.640  29.979  1.00  0.00     0.148 A 
ATOM     78  C   UNL A   1      37.443  29.801  32.631  1.00  0.00     0.002 A 
ATOM     79  C   UNL A   1      36.680  31.018  30.678  1.00  0.00     0.091 A 
ATOM     80  F   UNL A   1      38.013  30.993  28.700  1.00  0.00    -0.205 F 
ATOM     81  C   UNL A   1      36.482  30.586  31.999  1.00  0.00     0.022 A 
BRANCH  79  82
ATOM     82  S   UNL A   1      35.442  32.118  29.985  1.00  0.00     0.127 S 
ATOM     83  O   UNL A   1      34.551  32.323  31.126  1.00  0.00    -0.237 OA
ATOM     84  O   UNL A   1      36.246  33.283  29.616  1.00  0.00    -0.237 OA
ATOM     85  O   UNL A   1      34.866  31.401  28.856  1.00  0.00    -0.744 OA
ENDBRANCH  79  82
ENDBRANCH  51  75
BRANCH  63  86
ATOM     86  C   UNL A   1      44.794  33.144  29.143  1.00  0.00     0.023 A 
ATOM     87  C   UNL A   1      45.419  33.436  30.372  1.00  0.00     0.012 A 
ATOM     88  C   UNL A   1      44.718  34.144  28.152  1.00  0.00     0.148 A 
ATOM     89  C   UNL A   1      45.929  34.710  30.622  1.00  0.00     0.002 A 
ATOM     90  C   UNL A   1      45.273  35.395  28.389  1.00  0.00     0.091 A 
ATOM     91  F   UNL A   1      44.106  33.851  26.996  1.00  0.00    -0.205 F 
ATOM     92  C   UNL A   1      45.867  35.685  29.628  1.00  0.00     0.022 A 
BRANCH  90  93
ATOM     93  S   UNL A   1      45.330  36.678  27.133  1.00  0.00     0.127 S 
ATOM     94  O   UNL A   1      43.911  36.966  26.936  1.00  0.00    -0.237 OA
ATOM     95  O   UNL A   1      46.080  37.739  27.806  1.00  0.00    -0.237 OA
ATOM     96  O   UNL A   1      46.013  36.090  25.988  1.00  0.00    -0.744 OA
ENDBRANCH  90  93
ENDBRANCH  63  86
ENDBRANCH  37  38
ENDBRANCH  30  32
ENDBRANCH  29  30
ENDBRANCH  28  29
ENDBRANCH  27  28
ENDBRANCH  26  27
ENDBRANCH   1  26
TORSDOF 23
ENDMDL
MODEL 2
REMARK VINA RESULT:     -10.6      5.038     10.627
REMARK SMILES COc1c(N)cc(-c2ccccc2)cc1C(=O)OCCOCCOCCOC(=O)c1ccc(-c2c3nc(c(-c4cccc(S(=O)(=O)[O-])c4F)c4ccc([nH]4)c(-c4cccc(S(=O)(=O)[O-])c4F)c4nc(c(-c5cccc(S(=O)(=O)[O-])c5F)c5ccc2[nH]5)C=C4)C=C3)cc1
REMARK SMILES IDX 23 1 22 2 21 3 20 4 19 5 18 6 16 7 17 8 15 9 3 10 4 11 6 12
REMARK SMILES IDX 14 13 7 14 2 15 1 16 5 17 8 20 9 21 13 22 10 23 12 24 11 25
REMARK SMILES IDX 24 26 25 27 26 28 27 29 28 30 29 31 30 32 31 33 92 34 32 35
REMARK SMILES IDX 91 36 33 37 34 38 35 39 85 40 36 41 90 42 84 43 86 44 37 45
REMARK SMILES IDX 89 46 83 47 82 48 38 50 70 51 50 52 69 53 51 54 54 55 68 56
REMARK SMILES IDX 87 57 52 58 53 59 67 61 88 62 55 63 39 64 40 65 48 66 41 67
REMARK SMILES IDX 43 68 49 69 42 70 44 71 45 72 46 73 47 74 71 75 72 76 80 77
REMARK SMILES IDX 73 78 75 79 81 80 74 81 76 82 77 83 78 84 79 85 56 86 57 87
REMARK SMILES IDX 65 88 58 89 60 90 66 91 59 92 61 93 62 94 63 95 64 96
REMARK H PARENT 5 18 5 19 86 49 54 60
REMARK Flexibility Score: inf
ROOT
ATOM      1  C   UNL A   1      30.161  29.569  23.421  1.00  0.00     0.188 C 
ENDROOT
BRANCH   1   2
ATOM      2  C   UNL A   1      30.794  28.263  22.894  1.00  0.00     0.188 C 
BRANCH   2   3
ATOM      3  O   UNL A   1      29.921  27.176  22.695  1.00  0.00    -0.376 OA
BRANCH   3   4
ATOM      4  C   UNL A   1      29.786  26.165  23.679  1.00  0.00     0.202 C 
BRANCH   4   5
ATOM      5  C   UNL A   1      30.231  24.698  23.526  1.00  0.00     0.261 C 
BRANCH   5   6
ATOM      6  O   UNL A   1      31.502  24.340  24.076  1.00  0.00    -0.460 OA
BRANCH   6   7
ATOM      7  C   UNL A   1      31.458  23.475  25.121  1.00  0.00     0.342 C 
ATOM      8  O   UNL A   1      30.483  23.220  25.811  1.00  0.00    -0.246 OA
BRANCH   7   9
ATOM      9  C   UNL A   1      32.712  22.704  25.234  1.00  0.00     0.104 A 
ATOM     10  C   UNL A   1      33.882  23.225  25.799  1.00  0.00     0.156 A 
ATOM     11  C   UNL A   1      34.978  22.375  26.041  1.00  0.00     0.076 A 
ATOM     12  C   UNL A   1      34.953  21.077  25.522  1.00  0.00     0.038 A 
ATOM     13  C   UNL A   1      32.683  21.376  24.774  1.00  0.00     0.028 A 
ATOM     14  C   UNL A   1      33.815  20.560  24.884  1.00  0.00    -0.015 A 
BRANCH  10  15
ATOM     15  O   UNL A   1      33.934  24.546  26.183  1.00  0.00    -0.494 OA
ATOM     16  C   UNL A   1      34.534  25.349  25.156  1.00  0.00     0.278 C 
ENDBRANCH  10  15
BRANCH  11  17
ATOM     17  N   UNL A   1      36.130  22.829  26.686  1.00  0.00    -0.396 N 
ATOM     18  H   UNL A   1      36.474  22.352  27.475  1.00  0.00     0.156 HD
ATOM     19  H   UNL A   1      36.598  23.628  26.350  1.00  0.00     0.156 HD
ENDBRANCH  11  17
BRANCH  14  20
ATOM     20  C   UNL A   1      33.817  19.180  24.392  1.00  0.00    -0.018 A 
ATOM     21  C   UNL A   1      32.705  18.673  23.703  1.00  0.00     0.009 A 
ATOM     22  C   UNL A   1      34.903  18.327  24.632  1.00  0.00     0.009 A 
ATOM     23  C   UNL A   1      32.676  17.345  23.272  1.00  0.00     0.001 A 
ATOM     24  C   UNL A   1      34.878  16.998  24.197  1.00  0.00     0.001 A 
ATOM     25  C   UNL A   1      33.762  16.508  23.520  1.00  0.00     0.000 A 
ENDBRANCH  14  20
ENDBRANCH   7   9
ENDBRANCH   6   7
ENDBRANCH   5   6
ENDBRANCH   4   5
ENDBRANCH   3   4
ENDBRANCH   2   3
ENDBRANCH   1   2
BRANCH   1  26
ATOM     26  O   UNL A   1      30.705  30.250  24.542  1.00  0.00    -0.376 OA
BRANCH  26  27
ATOM     27  C   UNL A   1      31.587  29.556  25.411  1.00  0.00     0.202 C 
BRANCH  27  28
ATOM     28  C   UNL A   1      32.858  30.223  25.964  1.00  0.00     0.261 C 
BRANCH  28  29
ATOM     29  O   UNL A   1      32.758  30.752  27.292  1.00  0.00    -0.460 OA
BRANCH  29  30
ATOM     30  C   UNL A   1      33.606  31.767  27.577  1.00  0.00     0.338 C 
ATOM     31  O   UNL A   1      33.329  32.960  27.665  1.00  0.00    -0.246 OA
BRANCH  30  32
ATOM     32  C   UNL A   1      34.916  31.224  27.965  1.00  0.00     0.060 A 
ATOM     33  C   UNL A   1      35.002  29.868  28.311  1.00  0.00     0.016 A 
ATOM     34  C   UNL A   1      36.039  32.049  28.042  1.00  0.00     0.016 A 
ATOM     35  C   UNL A   1      36.212  29.335  28.748  1.00  0.00     0.010 A 
ATOM     36  C   UNL A   1      37.246  31.517  28.506  1.00  0.00     0.010 A 
ATOM     37  C   UNL A   1      37.330  30.165  28.885  1.00  0.00    -0.014 A 
BRANCH  37  38
ATOM     38  C   UNL A   1      38.532  29.653  29.582  1.00  0.00     0.031 A 
ATOM     39  C   UNL A   1      38.870  30.212  30.935  1.00  0.00     0.074 A 
ATOM     40  C   UNL A   1      39.305  28.702  29.028  1.00  0.00     0.049 A 
ATOM     41  N   UNL A   1      39.891  29.951  31.707  1.00  0.00    -0.248 NA
ATOM     42  C   UNL A   1      37.927  31.196  31.495  1.00  0.00     0.031 C 
ATOM     43  C   UNL A   1      39.062  28.058  27.738  1.00  0.00     0.029 A 
ATOM     44  N   UNL A   1      40.470  28.131  29.476  1.00  0.00    -0.354 N 
ATOM     45  C   UNL A   1      39.737  30.765  32.823  1.00  0.00     0.074 A 
ATOM     46  C   UNL A   1      38.522  31.525  32.631  1.00  0.00     0.031 C 
ATOM     47  C   UNL A   1      40.069  27.204  27.482  1.00  0.00     0.029 A 
ATOM     48  C   UNL A   1      41.039  27.265  28.573  1.00  0.00     0.049 A 
ATOM     49  H   UNL A   1      40.860  28.325  30.359  1.00  0.00     0.167 HD
ATOM     50  C   UNL A   1      40.534  30.866  33.913  1.00  0.00     0.034 A 
ATOM     51  C   UNL A   1      42.223  26.620  28.613  1.00  0.00     0.034 A 
ATOM     52  C   UNL A   1      41.732  30.098  34.109  1.00  0.00     0.049 A 
ATOM     53  C   UNL A   1      43.112  26.786  29.819  1.00  0.00     0.074 A 
ATOM     54  C   UNL A   1      42.578  30.092  35.204  1.00  0.00     0.029 A 
ATOM     55  N   UNL A   1      42.266  29.213  33.186  1.00  0.00    -0.354 N 
ATOM     56  N   UNL A   1      42.899  27.470  30.918  1.00  0.00    -0.248 NA
ATOM     57  C   UNL A   1      44.396  26.068  29.802  1.00  0.00     0.031 C 
ATOM     58  C   UNL A   1      43.645  29.232  34.926  1.00  0.00     0.029 A 
ATOM     59  C   UNL A   1      43.441  28.671  33.675  1.00  0.00     0.049 A 
ATOM     60  H   UNL A   1      41.868  29.002  32.310  1.00  0.00     0.167 HD
ATOM     61  C   UNL A   1      43.999  27.232  31.737  1.00  0.00     0.074 A 
ATOM     62  C   UNL A   1      44.868  26.327  31.015  1.00  0.00     0.031 C 
ATOM     63  C   UNL A   1      44.270  27.727  32.970  1.00  0.00     0.034 A 
BRANCH  50  64
ATOM     64  C   UNL A   1      40.134  31.846  34.983  1.00  0.00     0.023 A 
ATOM     65  C   UNL A   1      40.603  33.174  34.930  1.00  0.00     0.012 A 
ATOM     66  C   UNL A   1      39.248  31.464  36.007  1.00  0.00     0.148 A 
ATOM     67  C   UNL A   1      40.217  34.100  35.899  1.00  0.00     0.002 A 
ATOM     68  C   UNL A   1      38.832  32.403  36.942  1.00  0.00     0.091 A 
ATOM     69  F   UNL A   1      38.834  30.189  36.051  1.00  0.00    -0.205 F 
ATOM     70  C   UNL A   1      39.324  33.718  36.896  1.00  0.00     0.022 A 
BRANCH  68  71
ATOM     71  S   UNL A   1      37.623  32.029  38.217  1.00  0.00     0.127 S 
ATOM     72  O   UNL A   1      36.610  33.054  37.972  1.00  0.00    -0.237 OA
ATOM     73  O   UNL A   1      37.214  30.670  37.861  1.00  0.00    -0.237 OA
ATOM     74  O   UNL A   1      38.329  32.140  39.485  1.00  0.00    -0.744 OA
ENDBRANCH  68  71
ENDBRANCH  50  64
BRANCH  51  75
ATOM     75  C   UNL A   1      42.636  25.738  27.484  1.00  0.00     0.023 A 
ATOM     76  C   UNL A   1      43.462  26.255  26.466  1.00  0.00     0.012 A 
ATOM     77  C   UNL A   1      42.211  24.398  27.409  1.00  0.00     0.148 A 
ATOM     78  C   UNL A   1      43.826  25.464  25.376  1.00  0.00     0.002 A 
ATOM     79  C   UNL A   1      42.622  23.599  26.349  1.00  0.00     0.091 A 
ATOM     80  F   UNL A   1      41.410  23.930  28.378  1.00  0.00    -0.205 F 
ATOM     81  C   UNL A   1      43.415  24.135  25.322  1.00  0.00     0.022 A 
BRANCH  79  82
ATOM     82  S   UNL A   1      42.235  21.848  26.252  1.00  0.00     0.127 S 
ATOM     83  O   UNL A   1      40.785  21.872  26.071  1.00  0.00    -0.237 OA
ATOM     84  O   UNL A   1      42.996  21.436  25.073  1.00  0.00    -0.237 OA
ATOM     85  O   UNL A   1      42.704  21.271  27.504  1.00  0.00    -0.744 OA
ENDBRANCH  79  82
ENDBRANCH  51  75
BRANCH  63  86
ATOM     86  C   UNL A   1      45.536  27.269  33.650  1.00  0.00     0.023 A 
ATOM     87  C   UNL A   1      46.720  28.020  33.517  1.00  0.00     0.012 A 
ATOM     88  C   UNL A   1      45.528  26.136  34.490  1.00  0.00     0.148 A 
ATOM     89  C   UNL A   1      47.884  27.633  34.180  1.00  0.00     0.002 A 
ATOM     90  C   UNL A   1      46.677  25.786  35.187  1.00  0.00     0.091 A 
ATOM     91  F   UNL A   1      44.396  25.424  34.591  1.00  0.00    -0.205 F 
ATOM     92  C   UNL A   1      47.860  26.524  35.024  1.00  0.00     0.022 A 
BRANCH  90  93
ATOM     93  S   UNL A   1      46.711  24.435  36.372  1.00  0.00     0.127 S 
ATOM     94  O   UNL A   1      46.464  23.279  35.514  1.00  0.00    -0.237 OA
ATOM     95  O   UNL A   1      48.073  24.521  36.901  1.00  0.00    -0.237 OA
ATOM     96  O   UNL A   1      45.667  24.727  37.345  1.00  0.00    -0.744 OA
ENDBRANCH  90  93
ENDBRANCH  63  86
ENDBRANCH  37  38
ENDBRANCH  30  32
ENDBRANCH  29  30
ENDBRANCH  28  29
ENDBRANCH  27  28
ENDBRANCH  26  27
ENDBRANCH   1  26
TORSDOF 23
ENDMDL
MODEL 3
REMARK VINA RESULT:     -10.5      4.676      8.367
REMARK SMILES COc1c(N)cc(-c2ccccc2)cc1C(=O)OCCOCCOCCOC(=O)c1ccc(-c2c3nc(c(-c4cccc(S(=O)(=O)[O-])c4F)c4ccc([nH]4)c(-c4cccc(S(=O)(=O)[O-])c4F)c4nc(c(-c5cccc(S(=O)(=O)[O-])c5F)c5ccc2[nH]5)C=C4)C=C3)cc1
REMARK SMILES IDX 23 1 22 2 21 3 20 4 19 5 18 6 16 7 17 8 15 9 3 10 4 11 6 12
REMARK SMILES IDX 14 13 7 14 2 15 1 16 5 17 8 20 9 21 13 22 10 23 12 24 11 25
REMARK SMILES IDX 24 26 25 27 26 28 27 29 28 30 29 31 30 32 31 33 92 34 32 35
REMARK SMILES IDX 91 36 33 37 34 38 35 39 85 40 36 41 90 42 84 43 86 44 37 45
REMARK SMILES IDX 89 46 83 47 82 48 38 50 70 51 50 52 69 53 51 54 54 55 68 56
REMARK SMILES IDX 87 57 52 58 53 59 67 61 88 62 55 63 39 64 40 65 48 66 41 67
REMARK SMILES IDX 43 68 49 69 42 70 44 71 45 72 46 73 47 74 71 75 72 76 80 77
REMARK SMILES IDX 73 78 75 79 81 80 74 81 76 82 77 83 78 84 79 85 56 86 57 87
REMARK SMILES IDX 65 88 58 89 60 90 66 91 59 92 61 93 62 94 63 95 64 96
REMARK H PARENT 5 18 5 19 86 49 54 60
REMARK Flexibility Score: inf
ROOT
ATOM      1  C   UNL A   1      30.996  28.239  23.700  1.00  0.00     0.188 C 
ENDROOT
BRANCH   1   2
ATOM      2  C   UNL A   1      32.178  28.418  22.724  1.00  0.00     0.188 C 
BRANCH   2   3
ATOM      3  O   UNL A   1      32.810  27.242  22.277  1.00  0.00    -0.376 OA
BRANCH   3   4
ATOM      4  C   UNL A   1      32.109  26.011  22.239  1.00  0.00     0.202 C 
BRANCH   4   5
ATOM      5  C   UNL A   1      32.750  24.616  22.113  1.00  0.00     0.261 C 
BRANCH   5   6
ATOM      6  O   UNL A   1      34.030  24.428  22.721  1.00  0.00    -0.460 OA
BRANCH   6   7
ATOM      7  C   UNL A   1      34.027  24.387  24.079  1.00  0.00     0.342 C 
ATOM      8  O   UNL A   1      34.471  25.241  24.831  1.00  0.00    -0.246 OA
BRANCH   7   9
ATOM      9  C   UNL A   1      33.241  23.243  24.580  1.00  0.00     0.104 A 
ATOM     10  C   UNL A   1      32.132  23.387  25.423  1.00  0.00     0.156 A 
ATOM     11  C   UNL A   1      31.324  22.270  25.708  1.00  0.00     0.076 A 
ATOM     12  C   UNL A   1      31.762  21.001  25.315  1.00  0.00     0.038 A 
ATOM     13  C   UNL A   1      33.631  21.966  24.141  1.00  0.00     0.028 A 
ATOM     14  C   UNL A   1      32.914  20.829  24.532  1.00  0.00    -0.015 A 
BRANCH  10  15
ATOM     15  O   UNL A   1      31.794  24.627  25.911  1.00  0.00    -0.494 OA
ATOM     16  C   UNL A   1      30.538  25.061  25.366  1.00  0.00     0.278 C 
ENDBRANCH  10  15
BRANCH  11  17
ATOM     17  N   UNL A   1      30.159  22.383  26.468  1.00  0.00    -0.396 N 
ATOM     18  H   UNL A   1      29.571  21.603  26.589  1.00  0.00     0.156 HD
ATOM     19  H   UNL A   1      29.924  23.245  26.883  1.00  0.00     0.156 HD
ENDBRANCH  11  17
BRANCH  14  20
ATOM     20  C   UNL A   1      33.313  19.485  24.106  1.00  0.00    -0.018 A 
ATOM     21  C   UNL A   1      32.537  18.778  23.176  1.00  0.00     0.009 A 
ATOM     22  C   UNL A   1      34.448  18.861  24.644  1.00  0.00     0.009 A 
ATOM     23  C   UNL A   1      32.881  17.478  22.799  1.00  0.00     0.001 A 
ATOM     24  C   UNL A   1      34.796  17.561  24.264  1.00  0.00     0.001 A 
ATOM     25  C   UNL A   1      34.010  16.870  23.344  1.00  0.00     0.000 A 
ENDBRANCH  14  20
ENDBRANCH   7   9
ENDBRANCH   6   7
ENDBRANCH   5   6
ENDBRANCH   4   5
ENDBRANCH   3   4
ENDBRANCH   2   3
ENDBRANCH   1   2
BRANCH   1  26
ATOM     26  O   UNL A   1      30.999  28.853  24.980  1.00  0.00    -0.376 OA
BRANCH  26  27
ATOM     27  C   UNL A   1      31.235  30.250  25.076  1.00  0.00     0.202 C 
BRANCH  27  28
ATOM     28  C   UNL A   1      31.696  30.897  26.392  1.00  0.00     0.261 C 
BRANCH  28  29
ATOM     29  O   UNL A   1      33.079  30.723  26.723  1.00  0.00    -0.460 OA
BRANCH  29  30
ATOM     30  C   UNL A   1      33.648  31.750  27.396  1.00  0.00     0.338 C 
ATOM     31  O   UNL A   1      33.116  32.809  27.719  1.00  0.00    -0.246 OA
BRANCH  30  32
ATOM     32  C   UNL A   1      34.982  31.352  27.871  1.00  0.00     0.060 A 
ATOM     33  C   UNL A   1      35.191  30.013  28.230  1.00  0.00     0.016 A 
ATOM     34  C   UNL A   1      36.000  32.294  28.017  1.00  0.00     0.016 A 
ATOM     35  C   UNL A   1      36.420  29.614  28.749  1.00  0.00     0.010 A 
ATOM     36  C   UNL A   1      37.225  31.896  28.562  1.00  0.00     0.010 A 
ATOM     37  C   UNL A   1      37.430  30.560  28.953  1.00  0.00    -0.014 A 
BRANCH  37  38
ATOM     38  C   UNL A   1      38.633  30.181  29.731  1.00  0.00     0.031 A 
ATOM     39  C   UNL A   1      39.579  29.173  29.144  1.00  0.00     0.074 A 
ATOM     40  C   UNL A   1      38.884  30.730  30.933  1.00  0.00     0.049 A 
ATOM     41  N   UNL A   1      40.663  28.658  29.659  1.00  0.00    -0.248 NA
ATOM     42  C   UNL A   1      39.261  28.681  27.792  1.00  0.00     0.031 C 
ATOM     43  C   UNL A   1      38.060  31.743  31.591  1.00  0.00     0.029 A 
ATOM     44  N   UNL A   1      39.899  30.489  31.824  1.00  0.00    -0.354 N 
ATOM     45  C   UNL A   1      41.136  27.753  28.716  1.00  0.00     0.074 A 
ATOM     46  C   UNL A   1      40.223  27.792  27.594  1.00  0.00     0.031 C 
ATOM     47  C   UNL A   1      38.585  32.011  32.800  1.00  0.00     0.029 A 
ATOM     48  C   UNL A   1      39.759  31.168  33.011  1.00  0.00     0.049 A 
ATOM     49  H   UNL A   1      40.653  29.886  31.632  1.00  0.00     0.167 HD
ATOM     50  C   UNL A   1      42.234  26.964  28.776  1.00  0.00     0.034 A 
ATOM     51  C   UNL A   1      40.483  31.093  34.147  1.00  0.00     0.034 A 
ATOM     52  C   UNL A   1      43.149  26.939  29.884  1.00  0.00     0.049 A 
ATOM     53  C   UNL A   1      41.675  30.172  34.203  1.00  0.00     0.074 A 
ATOM     54  C   UNL A   1      44.318  26.211  30.015  1.00  0.00     0.029 A 
ATOM     55  N   UNL A   1      42.990  27.657  31.059  1.00  0.00    -0.354 N 
ATOM     56  N   UNL A   1      42.176  29.408  33.261  1.00  0.00    -0.248 NA
ATOM     57  C   UNL A   1      42.419  30.123  35.471  1.00  0.00     0.031 C 
ATOM     58  C   UNL A   1      44.847  26.461  31.285  1.00  0.00     0.029 A 
ATOM     59  C   UNL A   1      44.028  27.375  31.929  1.00  0.00     0.049 A 
ATOM     60  H   UNL A   1      42.248  28.276  31.246  1.00  0.00     0.167 HD
ATOM     61  C   UNL A   1      43.314  28.821  33.809  1.00  0.00     0.074 A 
ATOM     62  C   UNL A   1      43.437  29.332  35.158  1.00  0.00     0.031 C 
ATOM     63  C   UNL A   1      44.171  27.933  33.250  1.00  0.00     0.034 A 
BRANCH  50  64
ATOM     64  C   UNL A   1      42.510  26.059  27.605  1.00  0.00     0.023 A 
ATOM     65  C   UNL A   1      43.284  26.526  26.523  1.00  0.00     0.012 A 
ATOM     66  C   UNL A   1      42.050  24.729  27.606  1.00  0.00     0.148 A 
ATOM     67  C   UNL A   1      43.571  25.689  25.446  1.00  0.00     0.002 A 
ATOM     68  C   UNL A   1      42.379  23.888  26.551  1.00  0.00     0.091 A 
ATOM     69  F   UNL A   1      41.295  24.315  28.634  1.00  0.00    -0.205 F 
ATOM     70  C   UNL A   1      43.129  24.368  25.465  1.00  0.00     0.022 A 
BRANCH  68  71
ATOM     71  S   UNL A   1      41.924  22.150  26.521  1.00  0.00     0.127 S 
ATOM     72  O   UNL A   1      42.484  21.678  27.786  1.00  0.00    -0.237 OA
ATOM     73  O   UNL A   1      40.462  22.218  26.490  1.00  0.00    -0.237 OA
ATOM     74  O   UNL A   1      42.534  21.595  25.322  1.00  0.00    -0.744 OA
ENDBRANCH  68  71
ENDBRANCH  50  64
BRANCH  51  75
ATOM     75  C   UNL A   1      40.116  31.927  35.328  1.00  0.00     0.023 A 
ATOM     76  C   UNL A   1      40.765  33.161  35.534  1.00  0.00     0.012 A 
ATOM     77  C   UNL A   1      39.140  31.503  36.249  1.00  0.00     0.148 A 
ATOM     78  C   UNL A   1      40.473  33.939  36.654  1.00  0.00     0.002 A 
ATOM     79  C   UNL A   1      38.815  32.307  37.334  1.00  0.00     0.091 A 
ATOM     80  F   UNL A   1      38.547  30.317  36.046  1.00  0.00    -0.205 F 
ATOM     81  C   UNL A   1      39.493  33.518  37.549  1.00  0.00     0.022 A 
BRANCH  79  82
ATOM     82  S   UNL A   1      37.488  31.901  38.475  1.00  0.00     0.127 S 
ATOM     83  O   UNL A   1      36.442  32.834  38.061  1.00  0.00    -0.237 OA
ATOM     84  O   UNL A   1      37.228  30.500  38.148  1.00  0.00    -0.237 OA
ATOM     85  O   UNL A   1      38.035  32.118  39.807  1.00  0.00    -0.744 OA
ENDBRANCH  79  82
ENDBRANCH  51  75
BRANCH  63  86
ATOM     86  C   UNL A   1      45.354  27.483  34.070  1.00  0.00     0.023 A 
ATOM     87  C   UNL A   1      45.258  26.329  34.872  1.00  0.00     0.012 A 
ATOM     88  C   UNL A   1      46.588  28.160  33.979  1.00  0.00     0.148 A 
ATOM     89  C   UNL A   1      46.360  25.876  35.598  1.00  0.00     0.002 A 
ATOM     90  C   UNL A   1      47.694  27.674  34.664  1.00  0.00     0.091 A 
ATOM     91  F   UNL A   1      46.655  29.265  33.223  1.00  0.00    -0.205 F 
ATOM     92  C   UNL A   1      47.580  26.540  35.484  1.00  0.00     0.022 A 
BRANCH  90  93
ATOM     93  S   UNL A   1      49.327  28.404  34.499  1.00  0.00     0.127 S 
ATOM     94  O   UNL A   1      49.210  29.593  35.340  1.00  0.00    -0.237 OA
ATOM     95  O   UNL A   1      50.192  27.356  35.041  1.00  0.00    -0.237 OA
ATOM     96  O   UNL A   1      49.511  28.661  33.076  1.00  0.00    -0.744 OA
ENDBRANCH  90  93
ENDBRANCH  63  86
ENDBRANCH  37  38
ENDBRANCH  30  32
ENDBRANCH  29  30
ENDBRANCH  28  29
ENDBRANCH  27  28
ENDBRANCH  26  27
ENDBRANCH   1  26
TORSDOF 23
ENDMDL
