MODEL 1
REMARK VINA RESULT:      -9.8      0.000      0.000
REMARK SMILES Cc1c(NC(=O)c2ccc(Br)cc2N)cccc1C(=O)OCCOCCOCCOC(=O)c1ccc(-c2c3nc(c(-c4cccc(S(=O)(=O)[O-])c4F)c4ccc([nH]4)c(-c4cccc(S(=O)(=O)[O-])c4F)c4nc(c(-c5cccc(S(=O)(=O)[O-])c5F)c5ccc2[nH]5)C=C4)C=C3)cc1
REMARK SMILES IDX 25 1 24 2 23 3 22 4 21 5 19 6 20 7 18 8 1 9 2 10 3 11 15 12
REMARK SMILES IDX 17 13 16 14 4 15 5 16 6 18 7 19 8 20 13 21 9 22 12 23 10 24
REMARK SMILES IDX 11 25 14 26 26 29 27 30 28 31 29 32 30 33 31 34 32 35 33 36
REMARK SMILES IDX 34 37 95 38 35 39 94 40 36 41 37 42 38 43 88 44 39 45 93 46
REMARK SMILES IDX 87 47 89 48 40 49 92 50 86 51 85 52 41 54 73 55 53 56 72 57
REMARK SMILES IDX 54 58 57 59 71 60 90 61 55 62 56 63 70 65 91 66 58 67 42 68
REMARK SMILES IDX 43 69 51 70 44 71 46 72 52 73 45 74 47 75 48 76 49 77 50 78
REMARK SMILES IDX 74 79 75 80 83 81 76 82 78 83 84 84 77 85 79 86 80 87 81 88
REMARK SMILES IDX 82 89 59 90 60 91 68 92 61 93 63 94 69 95 62 96 64 97 65 98
REMARK SMILES IDX 66 99 67 100
REMARK H PARENT 4 17 14 27 14 28 89 53 57 64
REMARK Flexibility Score: inf
ROOT
ATOM      1  C   UNL A   1      39.370  32.709  37.112  1.00  0.00     0.188 C 
ENDROOT
BRANCH   1   2
ATOM      2  O   UNL A   1      38.062  32.334  36.756  1.00  0.00    -0.376 OA
BRANCH   2   3
ATOM      3  C   UNL A   1      38.155  31.104  36.017  1.00  0.00     0.202 C 
BRANCH   3   4
ATOM      4  C   UNL A   1      37.793  31.283  34.471  1.00  0.00     0.261 C 
BRANCH   4   5
ATOM      5  O   UNL A   1      38.307  30.424  33.050  1.00  0.00    -0.460 OA
BRANCH   5   6
ATOM      6  C   UNL A   1      39.129  30.381  31.824  1.00  0.00     0.338 C 
ATOM      7  O   UNL A   1      40.175  29.773  31.574  1.00  0.00    -0.246 OA
BRANCH   6   8
ATOM      8  C   UNL A   1      38.821  31.076  30.592  1.00  0.00     0.065 A 
ATOM      9  C   UNL A   1      37.003  29.417  30.072  1.00  0.00     0.047 C 
ATOM     10  C   UNL A   1      37.649  30.764  29.949  1.00  0.00    -0.013 A 
ATOM     11  C   UNL A   1      37.126  31.767  29.127  1.00  0.00     0.045 A 
ATOM     12  C   UNL A   1      37.732  33.034  28.975  1.00  0.00     0.026 A 
ATOM     13  C   UNL A   1      39.478  32.339  30.404  1.00  0.00     0.016 A 
ATOM     14  C   UNL A   1      38.930  33.320  29.602  1.00  0.00     0.003 A 
BRANCH  11  15
ATOM     15  N   UNL A   1      35.987  31.424  28.405  1.00  0.00    -0.322 N 
ATOM     16  C   UNL A   1      34.720  31.907  28.571  1.00  0.00     0.257 C 
ATOM     17  H   UNL A   1      36.109  30.755  27.694  1.00  0.00     0.170 HD
ATOM     18  O   UNL A   1      33.796  31.435  27.909  1.00  0.00    -0.269 OA
BRANCH  16  19
ATOM     19  C   UNL A   1      34.440  33.008  29.528  1.00  0.00     0.063 A 
ATOM     20  C   UNL A   1      34.770  32.695  30.854  1.00  0.00     0.017 A 
ATOM     21  C   UNL A   1      33.921  34.284  29.198  1.00  0.00     0.045 A 
ATOM     22  C   UNL A   1      34.562  33.622  31.869  1.00  0.00     0.016 A 
ATOM     23  C   UNL A   1      33.709  35.198  30.242  1.00  0.00     0.042 A 
ATOM     24  C   UNL A   1      34.024  34.867  31.558  1.00  0.00     0.020 A 
ATOM     25  Br  UNL A   1      33.679  36.104  32.945  1.00  0.00    -0.051 Br
BRANCH  21  26
ATOM     26  N   UNL A   1      33.457  34.656  27.932  1.00  0.00    -0.398 N 
ATOM     27  H   UNL A   1      32.490  34.743  27.768  1.00  0.00     0.156 HD
ATOM     28  H   UNL A   1      34.097  34.830  27.204  1.00  0.00     0.156 HD
ENDBRANCH  21  26
ENDBRANCH  16  19
ENDBRANCH  11  15
ENDBRANCH   6   8
ENDBRANCH   5   6
ENDBRANCH   4   5
ENDBRANCH   3   4
ENDBRANCH   2   3
ENDBRANCH   1   2
BRANCH   1  29
ATOM     29  C   UNL A   1      39.752  34.113  36.714  1.00  0.00     0.188 C 
BRANCH  29  30
ATOM     30  O   UNL A   1      40.899  34.218  35.893  1.00  0.00    -0.376 OA
BRANCH  30  31
ATOM     31  C   UNL A   1      40.680  33.830  34.541  1.00  0.00     0.202 C 
BRANCH  31  32
ATOM     32  C   UNL A   1      41.600  32.692  33.971  1.00  0.00     0.261 C 
BRANCH  32  33
ATOM     33  O   UNL A   1      41.265  31.334  34.439  1.00  0.00    -0.460 OA
BRANCH  33  34
ATOM     34  C   UNL A   1      42.049  30.474  35.179  1.00  0.00     0.338 C 
ATOM     35  O   UNL A   1      41.913  30.318  36.385  1.00  0.00    -0.246 OA
BRANCH  34  36
ATOM     36  C   UNL A   1      42.695  29.438  34.333  1.00  0.00     0.060 A 
ATOM     37  C   UNL A   1      43.873  29.506  33.626  1.00  0.00     0.016 A 
ATOM     38  C   UNL A   1      42.230  28.173  34.373  1.00  0.00     0.016 A 
ATOM     39  C   UNL A   1      44.069  28.706  32.454  1.00  0.00     0.010 A 
ATOM     40  C   UNL A   1      42.434  27.402  33.221  1.00  0.00     0.010 A 
ATOM     41  C   UNL A   1      43.098  27.820  32.015  1.00  0.00    -0.014 A 
BRANCH  41  42
ATOM     42  C   UNL A   1      42.941  27.423  30.319  1.00  0.00     0.031 A 
ATOM     43  C   UNL A   1      43.194  25.948  29.315  1.00  0.00     0.074 A 
ATOM     44  C   UNL A   1      42.574  28.508  29.594  1.00  0.00     0.049 A 
ATOM     45  N   UNL A   1      43.738  25.964  28.120  1.00  0.00    -0.248 NA
ATOM     46  C   UNL A   1      43.196  24.411  29.679  1.00  0.00     0.031 C 
ATOM     47  C   UNL A   1      42.185  28.600  28.196  1.00  0.00     0.029 A 
ATOM     48  N   UNL A   1      42.557  29.831  30.009  1.00  0.00    -0.354 N 
ATOM     49  C   UNL A   1      43.953  24.612  27.752  1.00  0.00     0.074 A 
ATOM     50  C   UNL A   1      44.083  23.838  28.899  1.00  0.00     0.031 C 
ATOM     51  C   UNL A   1      42.242  29.894  27.820  1.00  0.00     0.029 A 
ATOM     52  C   UNL A   1      42.823  30.648  28.921  1.00  0.00     0.049 A 
ATOM     53  H   UNL A   1      42.383  30.140  30.928  1.00  0.00     0.167 HD
ATOM     54  C   UNL A   1      43.648  24.106  26.533  1.00  0.00     0.034 A 
ATOM     55  C   UNL A   1      44.037  31.284  28.902  1.00  0.00     0.034 A 
ATOM     56  C   UNL A   1      43.700  25.227  25.631  1.00  0.00     0.049 A 
ATOM     57  C   UNL A   1      44.968  30.680  27.838  1.00  0.00     0.074 A 
ATOM     58  C   UNL A   1      42.749  26.139  25.223  1.00  0.00     0.029 A 
ATOM     59  N   UNL A   1      44.924  25.885  25.587  1.00  0.00    -0.354 N 
ATOM     60  N   UNL A   1      44.724  29.594  27.136  1.00  0.00    -0.248 NA
ATOM     61  C   UNL A   1      46.220  31.309  27.433  1.00  0.00     0.031 C 
ATOM     62  C   UNL A   1      43.409  27.412  25.143  1.00  0.00     0.029 A 
ATOM     63  C   UNL A   1      44.759  27.257  25.438  1.00  0.00     0.049 A 
ATOM     64  H   UNL A   1      45.796  25.435  25.653  1.00  0.00     0.167 HD
ATOM     65  C   UNL A   1      45.786  29.300  26.314  1.00  0.00     0.074 A 
ATOM     66  C   UNL A   1      46.647  30.463  26.480  1.00  0.00     0.031 C 
ATOM     67  C   UNL A   1      45.935  28.131  25.595  1.00  0.00     0.034 A 
BRANCH  54  68
ATOM     68  C   UNL A   1      43.216  22.646  26.252  1.00  0.00     0.023 A 
ATOM     69  C   UNL A   1      41.895  22.328  26.609  1.00  0.00     0.012 A 
ATOM     70  C   UNL A   1      43.996  21.527  25.775  1.00  0.00     0.148 A 
ATOM     71  C   UNL A   1      41.373  21.026  26.501  1.00  0.00     0.002 A 
ATOM     72  C   UNL A   1      43.449  20.244  25.594  1.00  0.00     0.091 A 
ATOM     73  F   UNL A   1      45.316  21.635  25.585  1.00  0.00    -0.205 F 
ATOM     74  C   UNL A   1      42.137  19.989  25.976  1.00  0.00     0.022 A 
BRANCH  72  75
ATOM     75  S   UNL A   1      44.370  18.847  24.884  1.00  0.00     0.127 S 
ATOM     76  O   UNL A   1      43.515  17.708  25.221  1.00  0.00    -0.237 OA
ATOM     77  O   UNL A   1      44.400  19.178  23.458  1.00  0.00    -0.237 OA
ATOM     78  O   UNL A   1      45.678  18.848  25.529  1.00  0.00    -0.744 OA
ENDBRANCH  72  75
ENDBRANCH  54  68
BRANCH  55  79
ATOM     79  C   UNL A   1      44.379  31.951  30.234  1.00  0.00     0.023 A 
ATOM     80  C   UNL A   1      45.456  31.352  30.959  1.00  0.00     0.012 A 
ATOM     81  C   UNL A   1      43.952  33.221  30.674  1.00  0.00     0.148 A 
ATOM     82  C   UNL A   1      46.191  32.041  31.929  1.00  0.00     0.002 A 
ATOM     83  C   UNL A   1      44.666  33.896  31.692  1.00  0.00     0.091 A 
ATOM     84  F   UNL A   1      42.919  33.804  30.056  1.00  0.00    -0.205 F 
ATOM     85  C   UNL A   1      45.803  33.320  32.286  1.00  0.00     0.022 A 
BRANCH  83  86
ATOM     86  S   UNL A   1      44.296  35.608  32.167  1.00  0.00     0.127 S 
ATOM     87  O   UNL A   1      45.326  35.845  33.189  1.00  0.00    -0.237 OA
ATOM     88  O   UNL A   1      44.515  36.349  30.918  1.00  0.00    -0.237 OA
ATOM     89  O   UNL A   1      42.928  35.596  32.620  1.00  0.00    -0.744 OA
ENDBRANCH  83  86
ENDBRANCH  55  79
BRANCH  67  90
ATOM     90  C   UNL A   1      47.289  27.665  25.020  1.00  0.00     0.023 A 
ATOM     91  C   UNL A   1      47.575  27.718  23.642  1.00  0.00     0.012 A 
ATOM     92  C   UNL A   1      48.393  27.331  25.854  1.00  0.00     0.148 A 
ATOM     93  C   UNL A   1      48.821  27.358  23.114  1.00  0.00     0.002 A 
ATOM     94  C   UNL A   1      49.677  27.166  25.336  1.00  0.00     0.091 A 
ATOM     95  F   UNL A   1      48.225  27.156  27.173  1.00  0.00    -0.205 F 
ATOM     96  C   UNL A   1      49.886  27.113  23.962  1.00  0.00     0.022 A 
BRANCH  94  97
ATOM     97  S   UNL A   1      51.110  27.267  26.425  1.00  0.00     0.127 S 
ATOM     98  O   UNL A   1      52.221  27.294  25.479  1.00  0.00    -0.237 OA
ATOM     99  O   UNL A   1      50.887  28.527  27.137  1.00  0.00    -0.237 OA
ATOM    100  O   UNL A   1      50.999  26.082  27.267  1.00  0.00    -0.744 OA
ENDBRANCH  94  97
ENDBRANCH  67  90
ENDBRANCH  41  42
ENDBRANCH  34  36
ENDBRANCH  33  34
ENDBRANCH  32  33
ENDBRANCH  31  32
ENDBRANCH  30  31
ENDBRANCH  29  30
ENDBRANCH   1  29
TORSDOF 23
ENDMDL
MODEL 2
REMARK VINA RESULT:      -9.5      4.868      7.107
REMARK SMILES Cc1c(NC(=O)c2ccc(Br)cc2N)cccc1C(=O)OCCOCCOCCOC(=O)c1ccc(-c2c3nc(c(-c4cccc(S(=O)(=O)[O-])c4F)c4ccc([nH]4)c(-c4cccc(S(=O)(=O)[O-])c4F)c4nc(c(-c5cccc(S(=O)(=O)[O-])c5F)c5ccc2[nH]5)C=C4)C=C3)cc1
REMARK SMILES IDX 25 1 24 2 23 3 22 4 21 5 19 6 20 7 18 8 1 9 2 10 3 11 15 12
REMARK SMILES IDX 17 13 16 14 4 15 5 16 6 18 7 19 8 20 13 21 9 22 12 23 10 24
REMARK SMILES IDX 11 25 14 26 26 29 27 30 28 31 29 32 30 33 31 34 32 35 33 36
REMARK SMILES IDX 34 37 95 38 35 39 94 40 36 41 37 42 38 43 88 44 39 45 93 46
REMARK SMILES IDX 87 47 89 48 40 49 92 50 86 51 85 52 41 54 73 55 53 56 72 57
REMARK SMILES IDX 54 58 57 59 71 60 90 61 55 62 56 63 70 65 91 66 58 67 42 68
REMARK SMILES IDX 43 69 51 70 44 71 46 72 52 73 45 74 47 75 48 76 49 77 50 78
REMARK SMILES IDX 74 79 75 80 83 81 76 82 78 83 84 84 77 85 79 86 80 87 81 88
REMARK SMILES IDX 82 89 59 90 60 91 68 92 61 93 63 94 69 95 62 96 64 97 65 98
REMARK SMILES IDX 66 99 67 100
REMARK H PARENT 4 17 14 27 14 28 89 53 57 64
REMARK Flexibility Score: inf
ROOT
ATOM      1  C   UNL A   1      34.134  34.099  29.420  1.00  0.00     0.188 C 
ENDROOT
BRANCH   1   2
ATOM      2  O   UNL A   1      33.337  33.630  28.360  1.00  0.00    -0.376 OA
BRANCH   2   3
ATOM      3  C   UNL A   1      33.906  32.388  27.912  1.00  0.00     0.202 C 
BRANCH   3   4
ATOM      4  C   UNL A   1      32.830  31.428  27.224  1.00  0.00     0.261 C 
BRANCH   4   5
ATOM      5  O   UNL A   1      32.638  29.701  27.236  1.00  0.00    -0.460 OA
BRANCH   5   6
ATOM      6  C   UNL A   1      32.877  28.396  26.587  1.00  0.00     0.338 C 
ATOM      7  O   UNL A   1      33.842  27.627  26.651  1.00  0.00    -0.246 OA
BRANCH   6   8
ATOM      8  C   UNL A   1      31.943  27.718  25.715  1.00  0.00     0.065 A 
ATOM      9  C   UNL A   1      33.304  28.362  23.699  1.00  0.00     0.047 C 
ATOM     10  C   UNL A   1      32.322  27.485  24.415  1.00  0.00    -0.013 A 
ATOM     11  C   UNL A   1      31.691  26.407  23.786  1.00  0.00     0.045 A 
ATOM     12  C   UNL A   1      30.743  25.584  24.433  1.00  0.00     0.026 A 
ATOM     13  C   UNL A   1      30.940  26.923  26.367  1.00  0.00     0.016 A 
ATOM     14  C   UNL A   1      30.346  25.852  25.728  1.00  0.00     0.003 A 
BRANCH  11  15
ATOM     15  N   UNL A   1      32.007  26.223  22.444  1.00  0.00    -0.322 N 
ATOM     16  C   UNL A   1      32.853  25.293  21.908  1.00  0.00     0.257 C 
ATOM     17  H   UNL A   1      31.571  26.834  21.807  1.00  0.00     0.170 HD
ATOM     18  O   UNL A   1      33.099  25.316  20.702  1.00  0.00    -0.269 OA
BRANCH  16  19
ATOM     19  C   UNL A   1      33.470  24.242  22.757  1.00  0.00     0.063 A 
ATOM     20  C   UNL A   1      34.555  24.701  23.518  1.00  0.00     0.017 A 
ATOM     21  C   UNL A   1      33.039  22.897  22.859  1.00  0.00     0.045 A 
ATOM     22  C   UNL A   1      35.242  23.834  24.359  1.00  0.00     0.016 A 
ATOM     23  C   UNL A   1      33.755  22.039  23.707  1.00  0.00     0.042 A 
ATOM     24  C   UNL A   1      34.843  22.504  24.444  1.00  0.00     0.020 A 
ATOM     25  Br  UNL A   1      35.817  21.308  25.536  1.00  0.00    -0.051 Br
BRANCH  21  26
ATOM     26  N   UNL A   1      32.046  22.313  22.065  1.00  0.00    -0.398 N 
ATOM     27  H   UNL A   1      31.967  22.559  21.115  1.00  0.00     0.156 HD
ATOM     28  H   UNL A   1      31.425  21.656  22.457  1.00  0.00     0.156 HD
ENDBRANCH  21  26
ENDBRANCH  16  19
ENDBRANCH  11  15
ENDBRANCH   6   8
ENDBRANCH   5   6
ENDBRANCH   4   5
ENDBRANCH   3   4
ENDBRANCH   2   3
ENDBRANCH   1   2
BRANCH   1  29
ATOM     29  C   UNL A   1      34.743  33.017  30.277  1.00  0.00     0.188 C 
BRANCH  29  30
ATOM     30  O   UNL A   1      35.112  33.415  31.583  1.00  0.00    -0.376 OA
BRANCH  30  31
ATOM     31  C   UNL A   1      36.477  33.798  31.708  1.00  0.00     0.202 C 
BRANCH  31  32
ATOM     32  C   UNL A   1      37.527  32.642  31.869  1.00  0.00     0.261 C 
BRANCH  32  33
ATOM     33  O   UNL A   1      37.091  31.334  31.346  1.00  0.00    -0.460 OA
BRANCH  33  34
ATOM     34  C   UNL A   1      37.208  30.098  31.946  1.00  0.00     0.338 C 
ATOM     35  O   UNL A   1      36.578  29.779  32.946  1.00  0.00    -0.246 OA
BRANCH  34  36
ATOM     36  C   UNL A   1      37.757  29.075  31.019  1.00  0.00     0.060 A 
ATOM     37  C   UNL A   1      38.351  27.870  31.313  1.00  0.00     0.016 A 
ATOM     38  C   UNL A   1      37.500  29.177  29.701  1.00  0.00     0.016 A 
ATOM     39  C   UNL A   1      39.309  27.290  30.419  1.00  0.00     0.010 A 
ATOM     40  C   UNL A   1      38.444  28.601  28.840  1.00  0.00     0.010 A 
ATOM     41  C   UNL A   1      39.644  27.905  29.223  1.00  0.00    -0.014 A 
BRANCH  41  42
ATOM     42  C   UNL A   1      41.228  27.694  28.514  1.00  0.00     0.031 A 
ATOM     43  C   UNL A   1      42.168  26.303  27.857  1.00  0.00     0.074 A 
ATOM     44  C   UNL A   1      41.915  28.862  28.493  1.00  0.00     0.049 A 
ATOM     45  N   UNL A   1      43.456  26.136  28.055  1.00  0.00    -0.248 NA
ATOM     46  C   UNL A   1      41.719  24.904  27.280  1.00  0.00     0.031 C 
ATOM     47  C   UNL A   1      43.188  29.178  27.863  1.00  0.00     0.029 A 
ATOM     48  N   UNL A   1      41.591  30.040  29.149  1.00  0.00    -0.354 N 
ATOM     49  C   UNL A   1      43.777  24.843  27.570  1.00  0.00     0.074 A 
ATOM     50  C   UNL A   1      42.645  24.038  27.619  1.00  0.00     0.031 C 
ATOM     51  C   UNL A   1      43.647  30.334  28.385  1.00  0.00     0.029 A 
ATOM     52  C   UNL A   1      42.761  30.709  29.477  1.00  0.00     0.049 A 
ATOM     53  H   UNL A   1      40.679  30.352  29.349  1.00  0.00     0.167 HD
ATOM     54  C   UNL A   1      44.857  24.577  26.797  1.00  0.00     0.034 A 
ATOM     55  C   UNL A   1      43.102  30.754  30.803  1.00  0.00     0.034 A 
ATOM     56  C   UNL A   1      45.816  25.604  27.114  1.00  0.00     0.049 A 
ATOM     57  C   UNL A   1      44.312  29.853  31.100  1.00  0.00     0.074 A 
ATOM     58  C   UNL A   1      46.048  26.855  26.585  1.00  0.00     0.029 A 
ATOM     59  N   UNL A   1      46.185  25.664  28.453  1.00  0.00    -0.354 N 
ATOM     60  N   UNL A   1      44.869  29.015  30.251  1.00  0.00    -0.248 NA
ATOM     61  C   UNL A   1      45.037  29.893  32.366  1.00  0.00     0.031 C 
ATOM     62  C   UNL A   1      46.359  27.717  27.692  1.00  0.00     0.029 A 
ATOM     63  C   UNL A   1      46.378  26.976  28.869  1.00  0.00     0.049 A 
ATOM     64  H   UNL A   1      46.295  24.877  29.033  1.00  0.00     0.167 HD
ATOM     65  C   UNL A   1      45.895  28.327  30.854  1.00  0.00     0.074 A 
ATOM     66  C   UNL A   1      46.008  28.990  32.146  1.00  0.00     0.031 C 
ATOM     67  C   UNL A   1      46.554  27.243  30.307  1.00  0.00     0.034 A 
BRANCH  54  68
ATOM     68  C   UNL A   1      44.937  23.464  25.723  1.00  0.00     0.023 A 
ATOM     69  C   UNL A   1      44.320  23.764  24.497  1.00  0.00     0.012 A 
ATOM     70  C   UNL A   1      45.459  22.121  25.821  1.00  0.00     0.148 A 
ATOM     71  C   UNL A   1      44.226  22.831  23.448  1.00  0.00     0.002 A 
ATOM     72  C   UNL A   1      45.434  21.217  24.743  1.00  0.00     0.091 A 
ATOM     73  F   UNL A   1      45.896  21.631  26.987  1.00  0.00    -0.205 F 
ATOM     74  C   UNL A   1      44.799  21.569  23.558  1.00  0.00     0.022 A 
BRANCH  72  75
ATOM     75  S   UNL A   1      46.188  19.564  24.797  1.00  0.00     0.127 S 
ATOM     76  O   UNL A   1      45.541  18.891  23.670  1.00  0.00    -0.237 OA
ATOM     77  O   UNL A   1      47.608  19.855  24.591  1.00  0.00    -0.237 OA
ATOM     78  O   UNL A   1      45.872  19.011  26.109  1.00  0.00    -0.744 OA
ENDBRANCH  72  75
ENDBRANCH  54  68
BRANCH  55  79
ATOM     79  C   UNL A   1      41.931  31.143  31.705  1.00  0.00     0.023 A 
ATOM     80  C   UNL A   1      41.220  30.050  32.291  1.00  0.00     0.012 A 
ATOM     81  C   UNL A   1      41.663  32.425  32.231  1.00  0.00     0.148 A 
ATOM     82  C   UNL A   1      40.444  30.185  33.448  1.00  0.00     0.002 A 
ATOM     83  C   UNL A   1      40.836  32.565  33.370  1.00  0.00     0.091 A 
ATOM     84  F   UNL A   1      42.270  33.485  31.687  1.00  0.00    -0.205 F 
ATOM     85  C   UNL A   1      40.263  31.443  33.994  1.00  0.00     0.022 A 
BRANCH  83  86
ATOM     86  S   UNL A   1      40.611  34.154  34.218  1.00  0.00     0.127 S 
ATOM     87  O   UNL A   1      39.857  34.908  33.205  1.00  0.00    -0.237 OA
ATOM     88  O   UNL A   1      39.818  33.786  35.398  1.00  0.00    -0.237 OA
ATOM     89  O   UNL A   1      41.940  34.623  34.516  1.00  0.00    -0.744 OA
ENDBRANCH  83  86
ENDBRANCH  55  79
BRANCH  67  90
ATOM     90  C   UNL A   1      47.397  26.262  31.148  1.00  0.00     0.023 A 
ATOM     91  C   UNL A   1      48.788  26.130  30.972  1.00  0.00     0.012 A 
ATOM     92  C   UNL A   1      46.862  25.569  32.270  1.00  0.00     0.148 A 
ATOM     93  C   UNL A   1      49.575  25.289  31.769  1.00  0.00     0.002 A 
ATOM     94  C   UNL A   1      47.682  24.895  33.173  1.00  0.00     0.091 A 
ATOM     95  F   UNL A   1      45.539  25.540  32.488  1.00  0.00    -0.205 F 
ATOM     96  C   UNL A   1      49.030  24.694  32.893  1.00  0.00     0.022 A 
BRANCH  94  97
ATOM     97  S   UNL A   1      47.072  24.489  34.820  1.00  0.00     0.127 S 
ATOM     98  O   UNL A   1      46.644  23.103  34.663  1.00  0.00    -0.237 OA
ATOM     99  O   UNL A   1      48.259  24.669  35.658  1.00  0.00    -0.237 OA
ATOM    100  O   UNL A   1      46.022  25.473  35.060  1.00  0.00    -0.744 OA
ENDBRANCH  94  97
ENDBRANCH  67  90
ENDBRANCH  41  42
ENDBRANCH  34  36
ENDBRANCH  33  34
ENDBRANCH  32  33
ENDBRANCH  31  32
ENDBRANCH  30  31
ENDBRANCH  29  30
ENDBRANCH   1  29
TORSDOF 23
ENDMDL
MODEL 3
REMARK VINA RESULT:      -9.2      5.927     10.600
REMARK SMILES Cc1c(NC(=O)c2ccc(Br)cc2N)cccc1C(=O)OCCOCCOCCOC(=O)c1ccc(-c2c3nc(c(-c4cccc(S(=O)(=O)[O-])c4F)c4ccc([nH]4)c(-c4cccc(S(=O)(=O)[O-])c4F)c4nc(c(-c5cccc(S(=O)(=O)[O-])c5F)c5ccc2[nH]5)C=C4)C=C3)cc1
REMARK SMILES IDX 25 1 24 2 23 3 22 4 21 5 19 6 20 7 18 8 1 9 2 10 3 11 15 12
REMARK SMILES IDX 17 13 16 14 4 15 5 16 6 18 7 19 8 20 13 21 9 22 12 23 10 24
REMARK SMILES IDX 11 25 14 26 26 29 27 30 28 31 29 32 30 33 31 34 32 35 33 36
REMARK SMILES IDX 34 37 95 38 35 39 94 40 36 41 37 42 38 43 88 44 39 45 93 46
REMARK SMILES IDX 87 47 89 48 40 49 92 50 86 51 85 52 41 54 73 55 53 56 72 57
REMARK SMILES IDX 54 58 57 59 71 60 90 61 55 62 56 63 70 65 91 66 58 67 42 68
REMARK SMILES IDX 43 69 51 70 44 71 46 72 52 73 45 74 47 75 48 76 49 77 50 78
REMARK SMILES IDX 74 79 75 80 83 81 76 82 78 83 84 84 77 85 79 86 80 87 81 88
REMARK SMILES IDX 82 89 59 90 60 91 68 92 61 93 63 94 69 95 62 96 64 97 65 98
REMARK SMILES IDX 66 99 67 100
REMARK H PARENT 4 17 14 27 14 28 89 53 57 64
REMARK Flexibility Score: inf
ROOT
ATOM      1  C   UNL A   1      37.646  22.774  26.431  1.00  0.00     0.188 C 
ENDROOT
BRANCH   1   2
ATOM      2  O   UNL A   1      36.525  22.962  25.602  1.00  0.00    -0.376 OA
BRANCH   2   3
ATOM      3  C   UNL A   1      36.984  22.903  24.241  1.00  0.00     0.202 C 
BRANCH   3   4
ATOM      4  C   UNL A   1      35.818  23.179  23.184  1.00  0.00     0.261 C 
BRANCH   4   5
ATOM      5  O   UNL A   1      34.160  22.663  23.122  1.00  0.00    -0.460 OA
BRANCH   5   6
ATOM      6  C   UNL A   1      32.732  22.954  23.365  1.00  0.00     0.338 C 
ATOM      7  O   UNL A   1      31.729  22.247  23.228  1.00  0.00    -0.246 OA
BRANCH   6   8
ATOM      8  C   UNL A   1      32.214  24.207  23.872  1.00  0.00     0.065 A 
ATOM      9  C   UNL A   1      32.449  25.262  21.600  1.00  0.00     0.047 C 
ATOM     10  C   UNL A   1      31.835  25.165  22.964  1.00  0.00    -0.013 A 
ATOM     11  C   UNL A   1      30.878  26.079  23.415  1.00  0.00     0.045 A 
ATOM     12  C   UNL A   1      30.306  26.023  24.705  1.00  0.00     0.026 A 
ATOM     13  C   UNL A   1      31.681  24.172  25.206  1.00  0.00     0.016 A 
ATOM     14  C   UNL A   1      30.722  25.075  25.619  1.00  0.00     0.003 A 
BRANCH  11  15
ATOM     15  N   UNL A   1      30.557  27.104  22.530  1.00  0.00    -0.322 N 
ATOM     16  C   UNL A   1      30.861  28.431  22.650  1.00  0.00     0.257 C 
ATOM     17  H   UNL A   1      30.053  26.843  21.727  1.00  0.00     0.170 HD
ATOM     18  O   UNL A   1      30.426  29.233  21.823  1.00  0.00    -0.269 OA
BRANCH  16  19
ATOM     19  C   UNL A   1      31.724  28.922  23.755  1.00  0.00     0.063 A 
ATOM     20  C   UNL A   1      31.015  29.593  24.763  1.00  0.00     0.017 A 
ATOM     21  C   UNL A   1      33.124  28.740  23.860  1.00  0.00     0.045 A 
ATOM     22  C   UNL A   1      31.684  30.116  25.864  1.00  0.00     0.016 A 
ATOM     23  C   UNL A   1      33.777  29.287  24.976  1.00  0.00     0.042 A 
ATOM     24  C   UNL A   1      33.063  29.968  25.960  1.00  0.00     0.020 A 
ATOM     25  Br  UNL A   1      33.982  30.735  27.423  1.00  0.00    -0.051 Br
BRANCH  21  26
ATOM     26  N   UNL A   1      33.936  28.188  22.864  1.00  0.00    -0.398 N 
ATOM     27  H   UNL A   1      33.590  28.086  21.947  1.00  0.00     0.156 HD
ATOM     28  H   UNL A   1      34.853  27.900  23.079  1.00  0.00     0.156 HD
ENDBRANCH  21  26
ENDBRANCH  16  19
ENDBRANCH  11  15
ENDBRANCH   6   8
ENDBRANCH   5   6
ENDBRANCH   4   5
ENDBRANCH   3   4
ENDBRANCH   2   3
ENDBRANCH   1   2
BRANCH   1  29
ATOM     29  C   UNL A   1      38.854  22.198  25.735  1.00  0.00     0.188 C 
BRANCH  29  30
ATOM     30  O   UNL A   1      39.566  21.220  26.468  1.00  0.00    -0.376 OA
BRANCH  30  31
ATOM     31  C   UNL A   1      40.014  20.120  25.683  1.00  0.00     0.202 C 
BRANCH  31  32
ATOM     32  C   UNL A   1      41.288  19.356  26.194  1.00  0.00     0.261 C 
BRANCH  32  33
ATOM     33  O   UNL A   1      42.256  20.191  26.930  1.00  0.00    -0.460 OA
BRANCH  33  34
ATOM     34  C   UNL A   1      43.047  21.207  26.438  1.00  0.00     0.338 C 
ATOM     35  O   UNL A   1      43.392  21.276  25.265  1.00  0.00    -0.246 OA
BRANCH  34  36
ATOM     36  C   UNL A   1      43.019  22.411  27.307  1.00  0.00     0.060 A 
ATOM     37  C   UNL A   1      43.654  23.619  27.136  1.00  0.00     0.016 A 
ATOM     38  C   UNL A   1      42.121  22.477  28.309  1.00  0.00     0.016 A 
ATOM     39  C   UNL A   1      44.002  24.428  28.265  1.00  0.00     0.010 A 
ATOM     40  C   UNL A   1      42.473  23.276  29.405  1.00  0.00     0.010 A 
ATOM     41  C   UNL A   1      43.685  24.038  29.557  1.00  0.00    -0.014 A 
BRANCH  41  42
ATOM     42  C   UNL A   1      44.671  24.529  30.915  1.00  0.00     0.031 A 
ATOM     43  C   UNL A   1      44.679  24.195  32.686  1.00  0.00     0.074 A 
ATOM     44  C   UNL A   1      45.637  25.398  30.530  1.00  0.00     0.049 A 
ATOM     45  N   UNL A   1      44.932  25.106  33.598  1.00  0.00    -0.248 NA
ATOM     46  C   UNL A   1      44.093  23.001  33.538  1.00  0.00     0.031 C 
ATOM     47  C   UNL A   1      46.759  25.933  31.286  1.00  0.00     0.029 A 
ATOM     48  N   UNL A   1      45.741  26.056  29.313  1.00  0.00    -0.354 N 
ATOM     49  C   UNL A   1      44.638  24.516  34.854  1.00  0.00     0.074 A 
ATOM     50  C   UNL A   1      43.696  23.509  34.682  1.00  0.00     0.031 C 
ATOM     51  C   UNL A   1      47.244  27.006  30.630  1.00  0.00     0.029 A 
ATOM     52  C   UNL A   1      46.349  27.285  29.517  1.00  0.00     0.049 A 
ATOM     53  H   UNL A   1      45.433  25.706  28.446  1.00  0.00     0.167 HD
ATOM     54  C   UNL A   1      45.445  24.615  35.938  1.00  0.00     0.034 A 
ATOM     55  C   UNL A   1      45.562  28.399  29.384  1.00  0.00     0.034 A 
ATOM     56  C   UNL A   1      46.191  25.832  35.749  1.00  0.00     0.049 A 
ATOM     57  C   UNL A   1      45.283  29.052  30.748  1.00  0.00     0.074 A 
ATOM     58  C   UNL A   1      47.394  26.100  35.131  1.00  0.00     0.029 A 
ATOM     59  N   UNL A   1      45.415  26.978  35.620  1.00  0.00    -0.354 N 
ATOM     60  N   UNL A   1      45.606  28.546  31.919  1.00  0.00    -0.248 NA
ATOM     61  C   UNL A   1      44.683  30.375  30.883  1.00  0.00     0.031 C 
ATOM     62  C   UNL A   1      47.233  27.353  34.446  1.00  0.00     0.029 A 
ATOM     63  C   UNL A   1      45.966  27.865  34.703  1.00  0.00     0.049 A 
ATOM     64  H   UNL A   1      44.581  27.141  36.116  1.00  0.00     0.167 HD
ATOM     65  C   UNL A   1      45.164  29.359  32.936  1.00  0.00     0.074 A 
ATOM     66  C   UNL A   1      44.679  30.530  32.218  1.00  0.00     0.031 C 
ATOM     67  C   UNL A   1      45.167  29.027  34.276  1.00  0.00     0.034 A 
BRANCH  54  68
ATOM     68  C   UNL A   1      45.585  23.546  37.050  1.00  0.00     0.023 A 
ATOM     69  C   UNL A   1      45.368  24.007  38.359  1.00  0.00     0.012 A 
ATOM     70  C   UNL A   1      46.008  22.168  36.960  1.00  0.00     0.148 A 
ATOM     71  C   UNL A   1      45.542  23.188  39.490  1.00  0.00     0.002 A 
ATOM     72  C   UNL A   1      46.104  21.329  38.085  1.00  0.00     0.091 A 
ATOM     73  F   UNL A   1      46.438  21.651  35.803  1.00  0.00    -0.205 F 
ATOM     74  C   UNL A   1      45.887  21.847  39.356  1.00  0.00     0.022 A 
BRANCH  72  75
ATOM     75  S   UNL A   1      46.517  19.562  37.991  1.00  0.00     0.127 S 
ATOM     76  O   UNL A   1      45.499  19.053  37.072  1.00  0.00    -0.237 OA
ATOM     77  O   UNL A   1      47.872  19.581  37.440  1.00  0.00    -0.237 OA
ATOM     78  O   UNL A   1      46.429  19.047  39.353  1.00  0.00    -0.744 OA
ENDBRANCH  72  75
ENDBRANCH  54  68
BRANCH  55  79
ATOM     79  C   UNL A   1      44.701  28.372  28.121  1.00  0.00     0.023 A 
ATOM     80  C   UNL A   1      45.424  28.390  26.887  1.00  0.00     0.012 A 
ATOM     81  C   UNL A   1      43.329  28.052  28.043  1.00  0.00     0.148 A 
ATOM     82  C   UNL A   1      44.877  27.934  25.683  1.00  0.00     0.002 A 
ATOM     83  C   UNL A   1      42.765  27.641  26.813  1.00  0.00     0.091 A 
ATOM     84  F   UNL A   1      42.600  28.065  29.165  1.00  0.00    -0.205 F 
ATOM     85  C   UNL A   1      43.549  27.547  25.650  1.00  0.00     0.022 A 
BRANCH  83  86
ATOM     86  S   UNL A   1      41.063  27.025  26.682  1.00  0.00     0.127 S 
ATOM     87  O   UNL A   1      41.085  26.422  25.341  1.00  0.00    -0.237 OA
ATOM     88  O   UNL A   1      40.984  26.046  27.774  1.00  0.00    -0.237 OA
ATOM     89  O   UNL A   1      40.221  28.181  26.857  1.00  0.00    -0.744 OA
ENDBRANCH  83  86
ENDBRANCH  55  79
BRANCH  67  90
ATOM     90  C   UNL A   1      44.313  29.769  35.326  1.00  0.00     0.023 A 
ATOM     91  C   UNL A   1      44.885  30.625  36.286  1.00  0.00     0.012 A 
ATOM     92  C   UNL A   1      42.891  29.782  35.276  1.00  0.00     0.148 A 
ATOM     93  C   UNL A   1      44.118  31.352  37.204  1.00  0.00     0.002 A 
ATOM     94  C   UNL A   1      42.139  30.656  36.060  1.00  0.00     0.091 A 
ATOM     95  F   UNL A   1      42.228  28.940  34.470  1.00  0.00    -0.205 F 
ATOM     96  C   UNL A   1      42.741  31.395  37.073  1.00  0.00     0.022 A 
BRANCH  94  97
ATOM     97  S   UNL A   1      40.432  31.026  35.618  1.00  0.00     0.127 S 
ATOM     98  O   UNL A   1      39.929  29.724  35.190  1.00  0.00    -0.237 OA
ATOM     99  O   UNL A   1      39.868  31.512  36.879  1.00  0.00    -0.237 OA
ATOM    100  O   UNL A   1      40.548  32.051  34.586  1.00  0.00    -0.744 OA
ENDBRANCH  94  97
ENDBRANCH  67  90
ENDBRANCH  41  42
ENDBRANCH  34  36
ENDBRANCH  33  34
ENDBRANCH  32  33
ENDBRANCH  31  32
ENDBRANCH  30  31
ENDBRANCH  29  30
ENDBRANCH   1  29
TORSDOF 23
ENDMDL
