MODEL 1
REMARK VINA RESULT:     -12.1      0.000      0.000
REMARK SMILES O=C(OCCOCCOCCOC(=O)c1ccc(-c2c3nc(c(-c4cccc(S(=O)(=O)[O-])c4F)c4ccc([nH]4)c(-c4cccc(S(=O)(=O)[O-])c4F)c4nc(c(-c5cccc(S(=O)(=O)[O-])c5F)c5ccc2[nH]5)C=C4)C=C3)cc1)C1=Cc2cc(S(F)(F)(F)(F)F)cc(Br)c2O[C@@H]1C(F)(F)F
REMARK SMILES IDX 8 1 7 2 6 3 5 4 4 5 3 6 2 7 1 8 78 9 79 10 94 11 80 12 93 13
REMARK SMILES IDX 81 14 92 15 82 16 90 17 89 18 91 19 95 20 96 21 97 22 98 23
REMARK SMILES IDX 83 24 84 25 85 26 86 27 87 28 88 29 9 30 10 31 11 32 12 33
REMARK SMILES IDX 13 34 14 35 15 36 16 37 77 38 17 39 76 40 18 41 19 42 20 43
REMARK SMILES IDX 70 44 21 45 75 46 69 47 71 48 22 49 74 50 68 51 67 52 23 54
REMARK SMILES IDX 55 55 35 56 54 57 36 58 39 59 53 60 72 61 37 62 38 63 52 65
REMARK SMILES IDX 73 66 40 67 24 68 25 69 33 70 26 71 28 72 34 73 27 74 29 75
REMARK SMILES IDX 30 76 31 77 32 78 56 79 57 80 65 81 58 82 60 83 66 84 59 85
REMARK SMILES IDX 61 86 62 87 63 88 64 89 41 90 42 91 50 92 43 93 45 94 51 95
REMARK SMILES IDX 44 96 46 97 47 98 48 99 49 100
REMARK H PARENT 71 53 39 64
REMARK Flexibility Score: inf
ROOT
ATOM      1  C   UNL A   1      33.075  21.521  26.214  1.00  0.00     0.188 C 
ENDROOT
BRANCH   1   2
ATOM      2  C   UNL A   1      33.129  22.391  27.459  1.00  0.00     0.188 C 
BRANCH   2   3
ATOM      3  O   UNL A   1      31.845  22.945  27.705  1.00  0.00    -0.376 OA
BRANCH   3   4
ATOM      4  C   UNL A   1      31.088  22.938  26.504  1.00  0.00     0.202 C 
BRANCH   4   5
ATOM      5  C   UNL A   1      30.217  24.182  26.448  1.00  0.00     0.261 C 
BRANCH   5   6
ATOM      6  O   UNL A   1      31.040  25.332  26.320  1.00  0.00    -0.460 OA
BRANCH   6   7
ATOM      7  C   UNL A   1      32.137  25.323  25.418  1.00  0.00     0.338 C 
ATOM      8  O   UNL A   1      33.323  25.450  25.858  1.00  0.00    -0.246 OA
BRANCH   7   9
ATOM      9  C   UNL A   1      31.893  25.162  23.927  1.00  0.00     0.087 C 
ATOM     10  C   UNL A   1      31.397  26.201  23.203  1.00  0.00     0.027 C 
ATOM     11  C   UNL A   1      32.204  23.840  23.244  1.00  0.00     0.316 C 
ATOM     12  C   UNL A   1      31.086  27.523  23.885  1.00  0.00     0.020 A 
ATOM     13  O   UNL A   1      33.003  27.295  25.273  1.00  0.00    -0.474 OA
ATOM     14  C   UNL A   1      29.950  28.197  23.471  1.00  0.00     0.036 A 
ATOM     15  C   UNL A   1      31.935  28.071  24.747  1.00  0.00     0.142 A 
ATOM     16  C   UNL A   1      29.944  29.572  23.804  1.00  0.00     0.109 A 
ATOM     17  C   UNL A   1      31.792  29.382  25.134  1.00  0.00     0.062 A 
ATOM     18  C   UNL A   1      30.723  30.125  24.716  1.00  0.00     0.044 A 
ATOM     19  Br  UNL A   1      33.137  30.198  26.302  1.00  0.00    -0.047 Br
BRANCH  11  20
ATOM     20  C   UNL A   1      33.245  24.062  22.160  1.00  0.00     0.430 C 
ATOM     21  F   UNL A   1      34.307  24.669  22.682  1.00  0.00    -0.167 F 
ATOM     22  F   UNL A   1      33.610  22.890  21.650  1.00  0.00    -0.167 F 
ATOM     23  F   UNL A   1      32.729  24.823  21.198  1.00  0.00    -0.167 F 
ENDBRANCH  11  20
BRANCH  16  24
ATOM     24  S   UNL A   1      28.789  30.648  22.918  1.00  0.00     0.310 S 
ATOM     25  F   UNL A   1      27.540  29.784  23.374  1.00  0.00    -0.094 F 
ATOM     26  F   UNL A   1      28.907  29.694  21.671  1.00  0.00    -0.094 F 
ATOM     27  F   UNL A   1      27.794  31.569  22.155  1.00  0.00    -0.094 F 
ATOM     28  F   UNL A   1      28.574  31.513  24.223  1.00  0.00    -0.094 F 
ATOM     29  F   UNL A   1      29.708  29.660  23.741  1.00  0.00    -0.094 F 
ENDBRANCH  16  24
ENDBRANCH   7   9
ENDBRANCH   6   7
ENDBRANCH   5   6
ENDBRANCH   4   5
ENDBRANCH   3   4
ENDBRANCH   2   3
ENDBRANCH   1   2
BRANCH   1  30
ATOM     30  O   UNL A   1      34.364  20.986  25.953  1.00  0.00    -0.376 OA
BRANCH  30  31
ATOM     31  C   UNL A   1      35.013  21.775  24.968  1.00  0.00     0.202 C 
BRANCH  31  32
ATOM     32  C   UNL A   1      36.414  21.235  24.728  1.00  0.00     0.261 C 
BRANCH  32  33
ATOM     33  O   UNL A   1      37.124  21.198  25.957  1.00  0.00    -0.460 OA
BRANCH  33  34
ATOM     34  C   UNL A   1      38.537  21.333  25.966  1.00  0.00     0.338 C 
ATOM     35  O   UNL A   1      39.269  20.383  25.545  1.00  0.00    -0.246 OA
BRANCH  34  36
ATOM     36  C   UNL A   1      39.175  22.614  26.479  1.00  0.00     0.060 A 
ATOM     37  C   UNL A   1      40.331  22.436  27.221  1.00  0.00     0.016 A 
ATOM     38  C   UNL A   1      38.758  23.827  26.134  1.00  0.00     0.016 A 
ATOM     39  C   UNL A   1      40.828  23.626  27.803  1.00  0.00     0.010 A 
ATOM     40  C   UNL A   1      39.376  24.948  26.633  1.00  0.00     0.010 A 
ATOM     41  C   UNL A   1      40.488  24.844  27.422  1.00  0.00    -0.014 A 
BRANCH  41  42
ATOM     42  C   UNL A   1      41.292  26.067  27.837  1.00  0.00     0.031 A 
ATOM     43  C   UNL A   1      40.688  27.109  28.542  1.00  0.00     0.074 A 
ATOM     44  C   UNL A   1      42.574  26.123  27.320  1.00  0.00     0.049 A 
ATOM     45  N   UNL A   1      41.220  28.289  28.865  1.00  0.00    -0.248 NA
ATOM     46  C   UNL A   1      39.313  27.064  29.062  1.00  0.00     0.031 C 
ATOM     47  C   UNL A   1      43.194  25.072  26.615  1.00  0.00     0.029 A 
ATOM     48  N   UNL A   1      43.466  27.171  27.385  1.00  0.00    -0.354 N 
ATOM     49  C   UNL A   1      40.342  29.017  29.558  1.00  0.00     0.074 A 
ATOM     50  C   UNL A   1      39.101  28.242  29.690  1.00  0.00     0.031 C 
ATOM     51  C   UNL A   1      44.437  25.484  26.251  1.00  0.00     0.029 A 
ATOM     52  C   UNL A   1      44.615  26.798  26.722  1.00  0.00     0.049 A 
ATOM     53  H   UNL A   1      43.310  28.035  27.828  1.00  0.00     0.167 HD
ATOM     54  C   UNL A   1      40.529  30.294  30.087  1.00  0.00     0.034 A 
ATOM     55  C   UNL A   1      45.763  27.551  26.526  1.00  0.00     0.034 A 
ATOM     56  C   UNL A   1      41.693  31.030  29.929  1.00  0.00     0.049 A 
ATOM     57  C   UNL A   1      45.928  28.852  27.005  1.00  0.00     0.074 A 
ATOM     58  C   UNL A   1      41.900  32.316  30.462  1.00  0.00     0.029 A 
ATOM     59  N   UNL A   1      42.832  30.667  29.244  1.00  0.00    -0.354 N 
ATOM     60  N   UNL A   1      45.066  29.564  27.732  1.00  0.00    -0.248 NA
ATOM     61  C   UNL A   1      47.127  29.670  26.777  1.00  0.00     0.031 C 
ATOM     62  C   UNL A   1      43.143  32.728  30.097  1.00  0.00     0.029 A 
ATOM     63  C   UNL A   1      43.732  31.706  29.329  1.00  0.00     0.049 A 
ATOM     64  H   UNL A   1      42.978  29.814  28.777  1.00  0.00     0.167 HD
ATOM     65  C   UNL A   1      45.583  30.760  28.019  1.00  0.00     0.074 A 
ATOM     66  C   UNL A   1      46.914  30.848  27.403  1.00  0.00     0.031 C 
ATOM     67  C   UNL A   1      45.001  31.780  28.773  1.00  0.00     0.034 A 
BRANCH  54  68
ATOM     68  C   UNL A   1      39.391  30.915  30.882  1.00  0.00     0.023 A 
ATOM     69  C   UNL A   1      39.375  30.993  32.264  1.00  0.00     0.012 A 
ATOM     70  C   UNL A   1      38.458  31.510  30.146  1.00  0.00     0.148 A 
ATOM     71  C   UNL A   1      38.160  31.485  32.796  1.00  0.00     0.002 A 
ATOM     72  C   UNL A   1      37.364  32.090  30.742  1.00  0.00     0.091 A 
ATOM     73  F   UNL A   1      38.583  31.544  28.823  1.00  0.00    -0.205 F 
ATOM     74  C   UNL A   1      37.253  32.150  32.104  1.00  0.00     0.022 A 
BRANCH  72  75
ATOM     75  S   UNL A   1      36.051  32.785  29.709  1.00  0.00     0.127 S 
ATOM     76  O   UNL A   1      35.208  33.757  30.538  1.00  0.00    -0.237 OA
ATOM     77  O   UNL A   1      36.672  33.531  28.526  1.00  0.00    -0.237 OA
ATOM     78  O   UNL A   1      35.055  31.523  29.127  1.00  0.00    -0.744 OA
ENDBRANCH  72  75
ENDBRANCH  54  68
BRANCH  55  79
ATOM     79  C   UNL A   1      46.907  26.923  25.746  1.00  0.00     0.023 A 
ATOM     80  C   UNL A   1      47.867  26.144  26.372  1.00  0.00     0.012 A 
ATOM     81  C   UNL A   1      47.036  27.286  24.475  1.00  0.00     0.148 A 
ATOM     82  C   UNL A   1      49.078  26.037  25.648  1.00  0.00     0.002 A 
ATOM     83  C   UNL A   1      48.197  27.029  23.789  1.00  0.00     0.091 A 
ATOM     84  F   UNL A   1      46.031  27.905  23.862  1.00  0.00    -0.205 F 
ATOM     85  C   UNL A   1      49.211  26.315  24.364  1.00  0.00     0.022 A 
BRANCH  83  86
ATOM     86  S   UNL A   1      48.388  27.644  22.097  1.00  0.00     0.127 S 
ATOM     87  O   UNL A   1      47.129  28.413  21.689  1.00  0.00    -0.237 OA
ATOM     88  O   UNL A   1      49.599  28.578  22.028  1.00  0.00    -0.237 OA
ATOM     89  O   UNL A   1      48.621  26.327  21.033  1.00  0.00    -0.744 OA
ENDBRANCH  83  86
ENDBRANCH  55  79
BRANCH  67  90
ATOM     90  C   UNL A   1      45.806  33.049  29.001  1.00  0.00     0.023 A 
ATOM     91  C   UNL A   1      46.629  33.036  30.115  1.00  0.00     0.012 A 
ATOM     92  C   UNL A   1      45.819  34.066  28.147  1.00  0.00     0.148 A 
ATOM     93  C   UNL A   1      47.229  34.286  30.400  1.00  0.00     0.002 A 
ATOM     94  C   UNL A   1      46.537  35.204  28.426  1.00  0.00     0.091 A 
ATOM     95  F   UNL A   1      45.132  33.981  27.011  1.00  0.00    -0.205 F 
ATOM     96  C   UNL A   1      47.325  35.283  29.540  1.00  0.00     0.022 A 
BRANCH  94  97
ATOM     97  S   UNL A   1      46.436  36.619  27.301  1.00  0.00     0.127 S 
ATOM     98  O   UNL A   1      46.871  36.187  25.898  1.00  0.00    -0.237 OA
ATOM     99  O   UNL A   1      44.994  37.130  27.252  1.00  0.00    -0.237 OA
ATOM    100  O   UNL A   1      47.465  37.865  27.858  1.00  0.00    -0.744 OA
ENDBRANCH  94  97
ENDBRANCH  67  90
ENDBRANCH  41  42
ENDBRANCH  34  36
ENDBRANCH  33  34
ENDBRANCH  32  33
ENDBRANCH  31  32
ENDBRANCH  30  31
ENDBRANCH   1  30
TORSDOF 22
ENDMDL
MODEL 2
REMARK VINA RESULT:     -12.1      5.412     10.477
REMARK SMILES O=C(OCCOCCOCCOC(=O)c1ccc(-c2c3nc(c(-c4cccc(S(=O)(=O)[O-])c4F)c4ccc([nH]4)c(-c4cccc(S(=O)(=O)[O-])c4F)c4nc(c(-c5cccc(S(=O)(=O)[O-])c5F)c5ccc2[nH]5)C=C4)C=C3)cc1)C1=Cc2cc(S(F)(F)(F)(F)F)cc(Br)c2O[C@@H]1C(F)(F)F
REMARK SMILES IDX 8 1 7 2 6 3 5 4 4 5 3 6 2 7 1 8 78 9 79 10 94 11 80 12 93 13
REMARK SMILES IDX 81 14 92 15 82 16 90 17 89 18 91 19 95 20 96 21 97 22 98 23
REMARK SMILES IDX 83 24 84 25 85 26 86 27 87 28 88 29 9 30 10 31 11 32 12 33
REMARK SMILES IDX 13 34 14 35 15 36 16 37 77 38 17 39 76 40 18 41 19 42 20 43
REMARK SMILES IDX 70 44 21 45 75 46 69 47 71 48 22 49 74 50 68 51 67 52 23 54
REMARK SMILES IDX 55 55 35 56 54 57 36 58 39 59 53 60 72 61 37 62 38 63 52 65
REMARK SMILES IDX 73 66 40 67 24 68 25 69 33 70 26 71 28 72 34 73 27 74 29 75
REMARK SMILES IDX 30 76 31 77 32 78 56 79 57 80 65 81 58 82 60 83 66 84 59 85
REMARK SMILES IDX 61 86 62 87 63 88 64 89 41 90 42 91 50 92 43 93 45 94 51 95
REMARK SMILES IDX 44 96 46 97 47 98 48 99 49 100
REMARK H PARENT 71 53 39 64
REMARK Flexibility Score: inf
ROOT
ATOM      1  C   UNL A   1      33.151  28.035  24.411  1.00  0.00     0.188 C 
ENDROOT
BRANCH   1   2
ATOM      2  C   UNL A   1      33.484  27.847  22.940  1.00  0.00     0.188 C 
BRANCH   2   3
ATOM      3  O   UNL A   1      32.554  26.946  22.357  1.00  0.00    -0.376 OA
BRANCH   3   4
ATOM      4  C   UNL A   1      33.249  26.002  21.554  1.00  0.00     0.202 C 
BRANCH   4   5
ATOM      5  C   UNL A   1      32.610  24.633  21.715  1.00  0.00     0.261 C 
BRANCH   5   6
ATOM      6  O   UNL A   1      33.369  23.861  22.634  1.00  0.00    -0.460 OA
BRANCH   6   7
ATOM      7  C   UNL A   1      33.140  23.992  24.030  1.00  0.00     0.338 C 
ATOM      8  O   UNL A   1      33.969  24.629  24.753  1.00  0.00    -0.246 OA
BRANCH   7   9
ATOM      9  C   UNL A   1      31.904  23.372  24.659  1.00  0.00     0.087 C 
ATOM     10  C   UNL A   1      31.891  22.048  24.972  1.00  0.00     0.027 C 
ATOM     11  C   UNL A   1      30.680  24.230  24.938  1.00  0.00     0.316 C 
ATOM     12  C   UNL A   1      33.114  21.190  24.693  1.00  0.00     0.020 A 
ATOM     13  O   UNL A   1      34.552  22.980  25.310  1.00  0.00    -0.474 OA
ATOM     14  C   UNL A   1      32.892  19.902  24.236  1.00  0.00     0.036 A 
ATOM     15  C   UNL A   1      34.337  21.611  24.998  1.00  0.00     0.142 A 
ATOM     16  C   UNL A   1      33.995  19.033  24.408  1.00  0.00     0.109 A 
ATOM     17  C   UNL A   1      35.395  20.734  25.016  1.00  0.00     0.062 A 
ATOM     18  C   UNL A   1      35.234  19.431  24.631  1.00  0.00     0.044 A 
ATOM     19  Br  UNL A   1      37.158  21.359  25.598  1.00  0.00    -0.047 Br
BRANCH  11  20
ATOM     20  C   UNL A   1      30.375  24.208  26.426  1.00  0.00     0.430 C 
ATOM     21  F   UNL A   1      29.561  25.216  26.727  1.00  0.00    -0.167 F 
ATOM     22  F   UNL A   1      29.791  23.056  26.742  1.00  0.00    -0.167 F 
ATOM     23  F   UNL A   1      31.508  24.334  27.113  1.00  0.00    -0.167 F 
ENDBRANCH  11  20
BRANCH  16  24
ATOM     24  S   UNL A   1      33.686  17.252  24.316  1.00  0.00     0.310 S 
ATOM     25  F   UNL A   1      35.178  16.911  24.733  1.00  0.00    -0.094 F 
ATOM     26  F   UNL A   1      34.181  17.276  22.821  1.00  0.00    -0.094 F 
ATOM     27  F   UNL A   1      33.424  15.721  24.235  1.00  0.00    -0.094 F 
ATOM     28  F   UNL A   1      33.327  17.222  25.855  1.00  0.00    -0.094 F 
ATOM     29  F   UNL A   1      34.054  18.783  24.446  1.00  0.00    -0.094 F 
ENDBRANCH  16  24
ENDBRANCH   7   9
ENDBRANCH   6   7
ENDBRANCH   5   6
ENDBRANCH   4   5
ENDBRANCH   3   4
ENDBRANCH   2   3
ENDBRANCH   1   2
BRANCH   1  30
ATOM     30  O   UNL A   1      32.695  29.362  24.628  1.00  0.00    -0.376 OA
BRANCH  30  31
ATOM     31  C   UNL A   1      31.628  29.347  25.565  1.00  0.00     0.202 C 
BRANCH  31  32
ATOM     32  C   UNL A   1      32.020  30.154  26.793  1.00  0.00     0.261 C 
BRANCH  32  33
ATOM     33  O   UNL A   1      32.928  31.179  26.416  1.00  0.00    -0.460 OA
BRANCH  33  34
ATOM     34  C   UNL A   1      33.657  31.882  27.410  1.00  0.00     0.338 C 
ATOM     35  O   UNL A   1      33.226  32.995  27.847  1.00  0.00    -0.246 OA
BRANCH  34  36
ATOM     36  C   UNL A   1      34.955  31.304  27.952  1.00  0.00     0.060 A 
ATOM     37  C   UNL A   1      35.954  32.232  28.191  1.00  0.00     0.016 A 
ATOM     38  C   UNL A   1      35.093  30.034  28.315  1.00  0.00     0.016 A 
ATOM     39  C   UNL A   1      37.194  31.658  28.561  1.00  0.00     0.010 A 
ATOM     40  C   UNL A   1      36.294  29.571  28.798  1.00  0.00     0.010 A 
ATOM     41  C   UNL A   1      37.344  30.423  29.002  1.00  0.00    -0.014 A 
BRANCH  41  42
ATOM     42  C   UNL A   1      38.617  29.970  29.700  1.00  0.00     0.031 A 
ATOM     43  C   UNL A   1      39.497  29.088  29.072  1.00  0.00     0.074 A 
ATOM     44  C   UNL A   1      38.725  30.361  31.023  1.00  0.00     0.049 A 
ATOM     45  N   UNL A   1      40.579  28.507  29.594  1.00  0.00    -0.248 NA
ATOM     46  C   UNL A   1      39.364  28.645  27.675  1.00  0.00     0.031 C 
ATOM     47  C   UNL A   1      37.847  31.258  31.662  1.00  0.00     0.029 A 
ATOM     48  N   UNL A   1      39.671  29.969  31.945  1.00  0.00    -0.354 N 
ATOM     49  C   UNL A   1      41.179  27.742  28.680  1.00  0.00     0.074 A 
ATOM     50  C   UNL A   1      40.403  27.815  27.434  1.00  0.00     0.031 C 
ATOM     51  C   UNL A   1      38.250  31.396  32.952  1.00  0.00     0.029 A 
ATOM     52  C   UNL A   1      39.387  30.589  33.142  1.00  0.00     0.049 A 
ATOM     53  H   UNL A   1      40.420  29.354  31.777  1.00  0.00     0.167 HD
ATOM     54  C   UNL A   1      42.343  26.989  28.836  1.00  0.00     0.034 A 
ATOM     55  C   UNL A   1      40.068  30.467  34.343  1.00  0.00     0.034 A 
ATOM     56  C   UNL A   1      43.049  26.901  30.025  1.00  0.00     0.049 A 
ATOM     57  C   UNL A   1      41.200  29.667  34.515  1.00  0.00     0.074 A 
ATOM     58  C   UNL A   1      44.229  26.152  30.197  1.00  0.00     0.029 A 
ATOM     59  N   UNL A   1      42.751  27.501  31.229  1.00  0.00    -0.354 N 
ATOM     60  N   UNL A   1      41.823  28.934  33.590  1.00  0.00    -0.248 NA
ATOM     61  C   UNL A   1      41.911  29.505  35.790  1.00  0.00     0.031 C 
ATOM     62  C   UNL A   1      44.631  26.291  31.488  1.00  0.00     0.029 A 
ATOM     63  C   UNL A   1      43.709  27.128  32.144  1.00  0.00     0.049 A 
ATOM     64  H   UNL A   1      41.985  28.094  31.404  1.00  0.00     0.167 HD
ATOM     65  C   UNL A   1      42.880  28.321  34.125  1.00  0.00     0.074 A 
ATOM     66  C   UNL A   1      42.948  28.674  35.549  1.00  0.00     0.031 C 
ATOM     67  C   UNL A   1      43.793  27.484  33.481  1.00  0.00     0.034 A 
BRANCH  54  68
ATOM     68  C   UNL A   1      42.866  26.220  27.633  1.00  0.00     0.023 A 
ATOM     69  C   UNL A   1      43.810  26.723  26.754  1.00  0.00     0.012 A 
ATOM     70  C   UNL A   1      42.452  24.960  27.554  1.00  0.00     0.148 A 
ATOM     71  C   UNL A   1      44.049  25.893  25.633  1.00  0.00     0.002 A 
ATOM     72  C   UNL A   1      42.835  24.164  26.501  1.00  0.00     0.091 A 
ATOM     73  F   UNL A   1      41.660  24.466  28.501  1.00  0.00    -0.205 F 
ATOM     74  C   UNL A   1      43.720  24.617  25.562  1.00  0.00     0.022 A 
BRANCH  72  75
ATOM     75  S   UNL A   1      42.158  22.492  26.356  1.00  0.00     0.127 S 
ATOM     76  O   UNL A   1      40.640  22.570  26.176  1.00  0.00    -0.237 OA
ATOM     77  O   UNL A   1      42.779  21.793  25.145  1.00  0.00    -0.237 OA
ATOM     78  O   UNL A   1      42.518  21.606  27.773  1.00  0.00    -0.744 OA
ENDBRANCH  72  75
ENDBRANCH  54  68
BRANCH  55  79
ATOM     79  C   UNL A   1      39.555  31.249  35.541  1.00  0.00     0.023 A 
ATOM     80  C   UNL A   1      38.461  30.816  36.273  1.00  0.00     0.012 A 
ATOM     81  C   UNL A   1      40.097  32.443  35.754  1.00  0.00     0.148 A 
ATOM     82  C   UNL A   1      37.828  31.839  37.017  1.00  0.00     0.002 A 
ATOM     83  C   UNL A   1      39.495  33.343  36.600  1.00  0.00     0.091 A 
ATOM     84  F   UNL A   1      41.232  32.769  35.142  1.00  0.00    -0.205 F 
ATOM     85  C   UNL A   1      38.379  33.004  37.311  1.00  0.00     0.022 A 
BRANCH  83  86
ATOM     86  S   UNL A   1      40.192  35.005  36.774  1.00  0.00     0.127 S 
ATOM     87  O   UNL A   1      41.671  34.901  37.155  1.00  0.00    -0.237 OA
ATOM     88  O   UNL A   1      40.061  35.755  35.445  1.00  0.00    -0.237 OA
ATOM     89  O   UNL A   1      39.347  35.854  37.993  1.00  0.00    -0.744 OA
ENDBRANCH  83  86
ENDBRANCH  55  79
BRANCH  67  90
ATOM     90  C   UNL A   1      44.951  26.930  34.296  1.00  0.00     0.023 A 
ATOM     91  C   UNL A   1      46.044  27.771  34.420  1.00  0.00     0.012 A 
ATOM     92  C   UNL A   1      44.897  25.770  34.942  1.00  0.00     0.148 A 
ATOM     93  C   UNL A   1      47.168  27.166  35.029  1.00  0.00     0.002 A 
ATOM     94  C   UNL A   1      45.990  25.303  35.631  1.00  0.00     0.091 A 
ATOM     95  F   UNL A   1      43.775  25.057  34.922  1.00  0.00    -0.205 F 
ATOM     96  C   UNL A   1      47.125  26.056  35.745  1.00  0.00     0.022 A 
BRANCH  94  97
ATOM     97  S   UNL A   1      45.925  23.664  36.398  1.00  0.00     0.127 S 
ATOM     98  O   UNL A   1      47.284  22.976  36.247  1.00  0.00    -0.237 OA
ATOM     99  O   UNL A   1      45.590  23.810  37.884  1.00  0.00    -0.237 OA
ATOM    100  O   UNL A   1      44.722  22.723  35.631  1.00  0.00    -0.744 OA
ENDBRANCH  94  97
ENDBRANCH  67  90
ENDBRANCH  41  42
ENDBRANCH  34  36
ENDBRANCH  33  34
ENDBRANCH  32  33
ENDBRANCH  31  32
ENDBRANCH  30  31
ENDBRANCH   1  30
TORSDOF 22
ENDMDL
MODEL 3
REMARK VINA RESULT:     -11.9      5.455     10.393
REMARK SMILES O=C(OCCOCCOCCOC(=O)c1ccc(-c2c3nc(c(-c4cccc(S(=O)(=O)[O-])c4F)c4ccc([nH]4)c(-c4cccc(S(=O)(=O)[O-])c4F)c4nc(c(-c5cccc(S(=O)(=O)[O-])c5F)c5ccc2[nH]5)C=C4)C=C3)cc1)C1=Cc2cc(S(F)(F)(F)(F)F)cc(Br)c2O[C@@H]1C(F)(F)F
REMARK SMILES IDX 8 1 7 2 6 3 5 4 4 5 3 6 2 7 1 8 78 9 79 10 94 11 80 12 93 13
REMARK SMILES IDX 81 14 92 15 82 16 90 17 89 18 91 19 95 20 96 21 97 22 98 23
REMARK SMILES IDX 83 24 84 25 85 26 86 27 87 28 88 29 9 30 10 31 11 32 12 33
REMARK SMILES IDX 13 34 14 35 15 36 16 37 77 38 17 39 76 40 18 41 19 42 20 43
REMARK SMILES IDX 70 44 21 45 75 46 69 47 71 48 22 49 74 50 68 51 67 52 23 54
REMARK SMILES IDX 55 55 35 56 54 57 36 58 39 59 53 60 72 61 37 62 38 63 52 65
REMARK SMILES IDX 73 66 40 67 24 68 25 69 33 70 26 71 28 72 34 73 27 74 29 75
REMARK SMILES IDX 30 76 31 77 32 78 56 79 57 80 65 81 58 82 60 83 66 84 59 85
REMARK SMILES IDX 61 86 62 87 63 88 64 89 41 90 42 91 50 92 43 93 45 94 51 95
REMARK SMILES IDX 44 96 46 97 47 98 48 99 49 100
REMARK H PARENT 71 53 39 64
REMARK Flexibility Score: inf
ROOT
ATOM      1  C   UNL A   1      30.540  27.447  24.176  1.00  0.00     0.188 C 
ENDROOT
BRANCH   1   2
ATOM      2  C   UNL A   1      31.072  26.104  24.652  1.00  0.00     0.188 C 
BRANCH   2   3
ATOM      3  O   UNL A   1      30.152  25.530  25.569  1.00  0.00    -0.376 OA
BRANCH   3   4
ATOM      4  C   UNL A   1      30.513  24.179  25.819  1.00  0.00     0.202 C 
BRANCH   4   5
ATOM      5  C   UNL A   1      31.826  24.139  26.582  1.00  0.00     0.261 C 
BRANCH   5   6
ATOM      6  O   UNL A   1      32.595  23.028  26.144  1.00  0.00    -0.460 OA
BRANCH   6   7
ATOM      7  C   UNL A   1      33.755  23.235  25.352  1.00  0.00     0.338 C 
ATOM      8  O   UNL A   1      33.711  24.021  24.355  1.00  0.00    -0.246 OA
BRANCH   7   9
ATOM      9  C   UNL A   1      35.049  22.516  25.698  1.00  0.00     0.087 C 
ATOM     10  C   UNL A   1      35.171  21.183  25.458  1.00  0.00     0.027 C 
ATOM     11  C   UNL A   1      36.207  23.288  26.310  1.00  0.00     0.316 C 
ATOM     12  C   UNL A   1      34.014  20.411  24.846  1.00  0.00     0.020 A 
ATOM     13  O   UNL A   1      33.479  22.258  23.447  1.00  0.00    -0.474 OA
ATOM     14  C   UNL A   1      33.784  19.132  25.323  1.00  0.00     0.036 A 
ATOM     15  C   UNL A   1      33.335  20.892  23.810  1.00  0.00     0.142 A 
ATOM     16  C   UNL A   1      33.014  18.325  24.453  1.00  0.00     0.109 A 
ATOM     17  C   UNL A   1      32.496  20.080  23.085  1.00  0.00     0.062 A 
ATOM     18  C   UNL A   1      32.267  18.787  23.466  1.00  0.00     0.044 A 
ATOM     19  Br  UNL A   1      31.613  20.786  21.485  1.00  0.00    -0.047 Br
BRANCH  11  20
ATOM     20  C   UNL A   1      37.420  23.188  25.400  1.00  0.00     0.430 C 
ATOM     21  F   UNL A   1      38.238  24.210  25.637  1.00  0.00    -0.167 F 
ATOM     22  F   UNL A   1      38.057  22.045  25.636  1.00  0.00    -0.167 F 
ATOM     23  F   UNL A   1      37.025  23.221  24.130  1.00  0.00    -0.167 F 
ENDBRANCH  11  20
BRANCH  16  24
ATOM     24  S   UNL A   1      33.055  16.533  24.709  1.00  0.00     0.310 S 
ATOM     25  F   UNL A   1      34.314  16.639  25.668  1.00  0.00    -0.094 F 
ATOM     26  F   UNL A   1      34.066  16.417  23.507  1.00  0.00    -0.094 F 
ATOM     27  F   UNL A   1      33.095  14.994  24.928  1.00  0.00    -0.094 F 
ATOM     28  F   UNL A   1      32.153  16.684  25.997  1.00  0.00    -0.094 F 
ATOM     29  F   UNL A   1      33.094  18.107  24.570  1.00  0.00    -0.094 F 
ENDBRANCH  16  24
ENDBRANCH   7   9
ENDBRANCH   6   7
ENDBRANCH   5   6
ENDBRANCH   4   5
ENDBRANCH   3   4
ENDBRANCH   2   3
ENDBRANCH   1   2
BRANCH   1  30
ATOM     30  O   UNL A   1      31.564  28.424  24.276  1.00  0.00    -0.376 OA
BRANCH  30  31
ATOM     31  C   UNL A   1      31.365  29.200  25.449  1.00  0.00     0.202 C 
BRANCH  31  32
ATOM     32  C   UNL A   1      32.592  30.063  25.701  1.00  0.00     0.261 C 
BRANCH  32  33
ATOM     33  O   UNL A   1      32.499  30.653  26.989  1.00  0.00    -0.460 OA
BRANCH  33  34
ATOM     34  C   UNL A   1      33.485  31.580  27.418  1.00  0.00     0.338 C 
ATOM     35  O   UNL A   1      33.245  32.828  27.378  1.00  0.00    -0.246 OA
BRANCH  34  36
ATOM     36  C   UNL A   1      34.829  31.080  27.924  1.00  0.00     0.060 A 
ATOM     37  C   UNL A   1      35.761  32.071  28.184  1.00  0.00     0.016 A 
ATOM     38  C   UNL A   1      35.065  29.812  28.239  1.00  0.00     0.016 A 
ATOM     39  C   UNL A   1      37.044  31.577  28.520  1.00  0.00     0.010 A 
ATOM     40  C   UNL A   1      36.302  29.422  28.691  1.00  0.00     0.010 A 
ATOM     41  C   UNL A   1      37.290  30.341  28.914  1.00  0.00    -0.014 A 
BRANCH  41  42
ATOM     42  C   UNL A   1      38.602  29.958  29.580  1.00  0.00     0.031 A 
ATOM     43  C   UNL A   1      39.518  29.133  28.926  1.00  0.00     0.074 A 
ATOM     44  C   UNL A   1      38.717  30.346  30.904  1.00  0.00     0.049 A 
ATOM     45  N   UNL A   1      40.643  28.613  29.421  1.00  0.00    -0.248 NA
ATOM     46  C   UNL A   1      39.380  28.691  27.530  1.00  0.00     0.031 C 
ATOM     47  C   UNL A   1      37.802  31.187  31.568  1.00  0.00     0.029 A 
ATOM     48  N   UNL A   1      39.704  30.004  31.802  1.00  0.00    -0.354 N 
ATOM     49  C   UNL A   1      41.266  27.890  28.489  1.00  0.00     0.074 A 
ATOM     50  C   UNL A   1      40.460  27.925  27.260  1.00  0.00     0.031 C 
ATOM     51  C   UNL A   1      38.225  31.340  32.850  1.00  0.00     0.029 A 
ATOM     52  C   UNL A   1      39.411  30.599  33.009  1.00  0.00     0.049 A 
ATOM     53  H   UNL A   1      40.484  29.435  31.613  1.00  0.00     0.167 HD
ATOM     54  C   UNL A   1      42.475  27.205  28.613  1.00  0.00     0.034 A 
ATOM     55  C   UNL A   1      40.125  30.509  34.194  1.00  0.00     0.034 A 
ATOM     56  C   UNL A   1      43.211  27.151  29.786  1.00  0.00     0.049 A 
ATOM     57  C   UNL A   1      41.304  29.775  34.335  1.00  0.00     0.074 A 
ATOM     58  C   UNL A   1      44.436  26.470  29.926  1.00  0.00     0.029 A 
ATOM     59  N   UNL A   1      42.905  27.725  31.000  1.00  0.00    -0.354 N 
ATOM     60  N   UNL A   1      41.948  29.086  33.392  1.00  0.00    -0.248 NA
ATOM     61  C   UNL A   1      42.052  29.647  35.594  1.00  0.00     0.031 C 
ATOM     62  C   UNL A   1      44.858  26.624  31.209  1.00  0.00     0.029 A 
ATOM     63  C   UNL A   1      43.904  27.402  31.892  1.00  0.00     0.049 A 
ATOM     64  H   UNL A   1      42.111  28.271  31.197  1.00  0.00     0.167 HD
ATOM     65  C   UNL A   1      43.051  28.532  33.899  1.00  0.00     0.074 A 
ATOM     66  C   UNL A   1      43.130  28.880  35.324  1.00  0.00     0.031 C 
ATOM     67  C   UNL A   1      43.996  27.754  33.229  1.00  0.00     0.034 A 
BRANCH  54  68
ATOM     68  C   UNL A   1      43.015  26.476  27.393  1.00  0.00     0.023 A 
ATOM     69  C   UNL A   1      43.870  27.054  26.471  1.00  0.00     0.012 A 
ATOM     70  C   UNL A   1      42.717  25.182  27.340  1.00  0.00     0.148 A 
ATOM     71  C   UNL A   1      44.137  26.238  25.345  1.00  0.00     0.002 A 
ATOM     72  C   UNL A   1      43.126  24.414  26.277  1.00  0.00     0.091 A 
ATOM     73  F   UNL A   1      42.016  24.626  28.323  1.00  0.00    -0.205 F 
ATOM     74  C   UNL A   1      43.924  24.937  25.297  1.00  0.00     0.022 A 
BRANCH  72  75
ATOM     75  S   UNL A   1      42.601  22.685  26.171  1.00  0.00     0.127 S 
ATOM     76  O   UNL A   1      43.143  22.064  24.882  1.00  0.00    -0.237 OA
ATOM     77  O   UNL A   1      43.144  21.912  27.375  1.00  0.00    -0.237 OA
ATOM     78  O   UNL A   1      40.893  22.607  26.167  1.00  0.00    -0.744 OA
ENDBRANCH  72  75
ENDBRANCH  54  68
BRANCH  55  79
ATOM     79  C   UNL A   1      39.593  31.253  35.409  1.00  0.00     0.023 A 
ATOM     80  C   UNL A   1      38.605  30.710  36.215  1.00  0.00     0.012 A 
ATOM     81  C   UNL A   1      40.000  32.507  35.569  1.00  0.00     0.148 A 
ATOM     82  C   UNL A   1      37.899  31.668  36.980  1.00  0.00     0.002 A 
ATOM     83  C   UNL A   1      39.346  33.349  36.436  1.00  0.00     0.091 A 
ATOM     84  F   UNL A   1      41.049  32.952  34.883  1.00  0.00    -0.205 F 
ATOM     85  C   UNL A   1      38.323  32.896  37.220  1.00  0.00     0.022 A 
BRANCH  83  86
ATOM     86  S   UNL A   1      39.848  35.086  36.540  1.00  0.00     0.127 S 
ATOM     87  O   UNL A   1      39.300  35.848  35.331  1.00  0.00    -0.237 OA
ATOM     88  O   UNL A   1      39.290  35.701  37.825  1.00  0.00    -0.237 OA
ATOM     89  O   UNL A   1      41.554  35.187  36.553  1.00  0.00    -0.744 OA
ENDBRANCH  83  86
ENDBRANCH  55  79
BRANCH  67  90
ATOM     90  C   UNL A   1      45.202  27.262  34.015  1.00  0.00     0.023 A 
ATOM     91  C   UNL A   1      46.294  28.115  34.019  1.00  0.00     0.012 A 
ATOM     92  C   UNL A   1      45.193  26.151  34.741  1.00  0.00     0.148 A 
ATOM     93  C   UNL A   1      47.455  27.558  34.604  1.00  0.00     0.002 A 
ATOM     94  C   UNL A   1      46.327  25.737  35.399  1.00  0.00     0.091 A 
ATOM     95  F   UNL A   1      44.078  25.433  34.835  1.00  0.00    -0.205 F 
ATOM     96  C   UNL A   1      47.461  26.501  35.396  1.00  0.00     0.022 A 
BRANCH  94  97
ATOM     97  S   UNL A   1      46.318  24.156  36.280  1.00  0.00     0.127 S 
ATOM     98  O   UNL A   1      45.456  24.278  37.539  1.00  0.00    -0.237 OA
ATOM     99  O   UNL A   1      45.742  23.068  35.371  1.00  0.00    -0.237 OA
ATOM    100  O   UNL A   1      47.917  23.741  36.723  1.00  0.00    -0.744 OA
ENDBRANCH  94  97
ENDBRANCH  67  90
ENDBRANCH  41  42
ENDBRANCH  34  36
ENDBRANCH  33  34
ENDBRANCH  32  33
ENDBRANCH  31  32
ENDBRANCH  30  31
ENDBRANCH   1  30
TORSDOF 22
ENDMDL
