MODEL 1
REMARK VINA RESULT:     -10.7      0.000      0.000
REMARK SMILES Cc1ccc(C)c(/C=C2\SC(=S)N(CC(=O)OCCOCCOCCOC(=O)c3ccc(-c4c5nc(c(-c6cccc(S(=O)(=O)[O-])c6F)c6ccc([nH]6)c(-c6cccc(S(=O)(=O)[O-])c6F)c6nc(c(-c7cccc(S(=O)(=O)[O-])c7F)c7ccc4[nH]7)C=C6)C=C5)cc3)C2=O)c1
REMARK SMILES IDX 22 1 21 2 20 3 19 4 18 5 17 6 15 7 16 8 14 9 13 10 8 11 9 12
REMARK SMILES IDX 10 13 92 14 11 15 93 16 12 17 7 18 1 19 2 20 3 21 94 22 4 23
REMARK SMILES IDX 5 24 6 25 23 26 24 27 25 28 26 29 27 30 28 31 29 32 30 33
REMARK SMILES IDX 91 34 31 35 90 36 32 37 33 38 34 39 84 40 35 41 89 42 83 43
REMARK SMILES IDX 85 44 36 45 88 46 82 47 81 48 37 50 69 51 49 52 68 53 50 54
REMARK SMILES IDX 53 55 67 56 86 57 51 58 52 59 66 61 87 62 54 63 38 64 39 65
REMARK SMILES IDX 47 66 40 67 42 68 48 69 41 70 43 71 44 72 45 73 46 74 70 75
REMARK SMILES IDX 71 76 79 77 72 78 74 79 80 80 73 81 75 82 76 83 77 84 78 85
REMARK SMILES IDX 55 86 56 87 64 88 57 89 59 90 65 91 58 92 60 93 61 94 62 95
REMARK SMILES IDX 63 96
REMARK H PARENT 85 49 53 60
REMARK Flexibility Score: inf
ROOT
ATOM      1  C   UNL A   1      34.334  34.844  29.194  1.00  0.00     0.188 C 
ENDROOT
BRANCH   1   2
ATOM      2  C   UNL A   1      33.164  35.173  28.230  1.00  0.00     0.188 C 
BRANCH   2   3
ATOM      3  O   UNL A   1      32.141  34.185  28.110  1.00  0.00    -0.376 OA
BRANCH   3   4
ATOM      4  C   UNL A   1      32.436  33.094  27.225  1.00  0.00     0.202 C 
BRANCH   4   5
ATOM      5  C   UNL A   1      31.240  32.169  26.837  1.00  0.00     0.261 C 
BRANCH   5   6
ATOM      6  O   UNL A   1      31.460  31.294  25.681  1.00  0.00    -0.462 OA
BRANCH   6   7
ATOM      7  C   UNL A   1      31.958  30.051  25.975  1.00  0.00     0.326 C 
ATOM      8  O   UNL A   1      31.680  29.473  27.022  1.00  0.00    -0.250 OA
BRANCH   7   9
ATOM      9  C   UNL A   1      33.033  29.499  24.970  1.00  0.00     0.250 C 
BRANCH   9  10
ATOM     10  N   UNL A   1      33.157  28.075  24.509  1.00  0.00    -0.282 N 
ATOM     11  C   UNL A   1      34.615  24.837  25.289  1.00  0.00     0.029 C 
ATOM     12  C   UNL A   1      33.845  25.776  24.697  1.00  0.00     0.081 C 
ATOM     13  S   UNL A   1      32.858  25.772  23.307  1.00  0.00    -0.054 SA
ATOM     14  C   UNL A   1      33.668  27.114  25.357  1.00  0.00     0.266 C 
ATOM     15  C   UNL A   1      32.387  27.483  23.530  1.00  0.00     0.148 C 
ATOM     16  O   UNL A   1      33.731  27.213  26.571  1.00  0.00    -0.268 OA
ATOM     17  S   UNL A   1      31.102  28.133  22.683  1.00  0.00    -0.052 S 
BRANCH  11  18
ATOM     18  C   UNL A   1      34.967  23.389  25.096  1.00  0.00    -0.021 A 
ATOM     19  C   UNL A   1      33.247  19.987  24.571  1.00  0.00     0.044 C 
ATOM     20  C   UNL A   1      34.301  21.032  24.796  1.00  0.00    -0.051 A 
ATOM     21  C   UNL A   1      35.602  20.603  25.043  1.00  0.00     0.004 A 
ATOM     22  C   UNL A   1      33.989  22.412  24.832  1.00  0.00     0.011 A 
ATOM     23  C   UNL A   1      36.593  21.537  25.274  1.00  0.00     0.004 A 
ATOM     24  C   UNL A   1      36.302  22.916  25.287  1.00  0.00    -0.044 A 
ATOM     25  C   UNL A   1      37.508  23.769  25.567  1.00  0.00     0.045 C 
ENDBRANCH  11  18
ENDBRANCH   9  10
ENDBRANCH   7   9
ENDBRANCH   6   7
ENDBRANCH   5   6
ENDBRANCH   4   5
ENDBRANCH   3   4
ENDBRANCH   2   3
ENDBRANCH   1   2
BRANCH   1  26
ATOM     26  O   UNL A   1      33.885  34.087  30.302  1.00  0.00    -0.376 OA
BRANCH  26  27
ATOM     27  C   UNL A   1      34.710  33.048  30.807  1.00  0.00     0.202 C 
BRANCH  27  28
ATOM     28  C   UNL A   1      36.067  32.756  30.145  1.00  0.00     0.261 C 
BRANCH  28  29
ATOM     29  O   UNL A   1      36.156  32.277  28.783  1.00  0.00    -0.460 OA
BRANCH  29  30
ATOM     30  C   UNL A   1      36.298  31.015  28.340  1.00  0.00     0.338 C 
ATOM     31  O   UNL A   1      35.498  30.513  27.554  1.00  0.00    -0.246 OA
BRANCH  30  32
ATOM     32  C   UNL A   1      37.345  30.194  28.952  1.00  0.00     0.060 A 
ATOM     33  C   UNL A   1      38.622  30.556  28.577  1.00  0.00     0.016 A 
ATOM     34  C   UNL A   1      37.116  29.063  29.752  1.00  0.00     0.016 A 
ATOM     35  C   UNL A   1      39.635  29.663  28.828  1.00  0.00     0.010 A 
ATOM     36  C   UNL A   1      38.180  28.197  30.044  1.00  0.00     0.010 A 
ATOM     37  C   UNL A   1      39.436  28.483  29.522  1.00  0.00    -0.014 A 
BRANCH  37  38
ATOM     38  C   UNL A   1      40.663  27.692  29.627  1.00  0.00     0.031 A 
ATOM     39  C   UNL A   1      41.603  28.068  30.716  1.00  0.00     0.074 A 
ATOM     40  C   UNL A   1      40.998  26.815  28.657  1.00  0.00     0.049 A 
ATOM     41  N   UNL A   1      42.873  28.335  30.610  1.00  0.00    -0.248 NA
ATOM     42  C   UNL A   1      41.054  28.269  32.064  1.00  0.00     0.031 C 
ATOM     43  C   UNL A   1      40.125  26.413  27.555  1.00  0.00     0.029 A 
ATOM     44  N   UNL A   1      42.110  26.021  28.497  1.00  0.00    -0.354 N 
ATOM     45  C   UNL A   1      43.317  28.445  31.923  1.00  0.00     0.074 A 
ATOM     46  C   UNL A   1      42.152  28.558  32.760  1.00  0.00     0.031 C 
ATOM     47  C   UNL A   1      40.604  25.283  27.008  1.00  0.00     0.029 A 
ATOM     48  C   UNL A   1      41.844  24.930  27.675  1.00  0.00     0.049 A 
ATOM     49  H   UNL A   1      42.983  26.201  28.912  1.00  0.00     0.167 HD
ATOM     50  C   UNL A   1      44.569  28.056  32.278  1.00  0.00     0.034 A 
ATOM     51  C   UNL A   1      42.494  23.747  27.610  1.00  0.00     0.034 A 
ATOM     52  C   UNL A   1      45.531  28.108  31.222  1.00  0.00     0.049 A 
ATOM     53  C   UNL A   1      43.886  23.909  28.068  1.00  0.00     0.074 A 
ATOM     54  C   UNL A   1      46.359  29.043  30.647  1.00  0.00     0.029 A 
ATOM     55  N   UNL A   1      45.581  26.983  30.450  1.00  0.00    -0.354 N 
ATOM     56  N   UNL A   1      44.803  24.532  27.383  1.00  0.00    -0.248 NA
ATOM     57  C   UNL A   1      44.247  23.572  29.442  1.00  0.00     0.031 C 
ATOM     58  C   UNL A   1      46.870  28.456  29.454  1.00  0.00     0.029 A 
ATOM     59  C   UNL A   1      46.333  27.179  29.324  1.00  0.00     0.049 A 
ATOM     60  H   UNL A   1      45.132  26.137  30.676  1.00  0.00     0.167 HD
ATOM     61  C   UNL A   1      45.658  25.027  28.348  1.00  0.00     0.074 A 
ATOM     62  C   UNL A   1      45.384  24.261  29.553  1.00  0.00     0.031 C 
ATOM     63  C   UNL A   1      46.224  26.259  28.215  1.00  0.00     0.034 A 
BRANCH  50  64
ATOM     64  C   UNL A   1      44.780  27.129  33.453  1.00  0.00     0.023 A 
ATOM     65  C   UNL A   1      44.420  25.775  33.326  1.00  0.00     0.012 A 
ATOM     66  C   UNL A   1      45.044  27.610  34.758  1.00  0.00     0.148 A 
ATOM     67  C   UNL A   1      44.355  24.935  34.446  1.00  0.00     0.002 A 
ATOM     68  C   UNL A   1      45.072  26.755  35.849  1.00  0.00     0.091 A 
ATOM     69  F   UNL A   1      45.121  28.929  34.977  1.00  0.00    -0.205 F 
ATOM     70  C   UNL A   1      44.707  25.417  35.705  1.00  0.00     0.022 A 
BRANCH  68  71
ATOM     71  S   UNL A   1      45.586  27.347  37.463  1.00  0.00     0.127 S 
ATOM     72  O   UNL A   1      46.814  28.064  37.138  1.00  0.00    -0.237 OA
ATOM     73  O   UNL A   1      44.455  28.190  37.852  1.00  0.00    -0.237 OA
ATOM     74  O   UNL A   1      45.732  26.144  38.274  1.00  0.00    -0.744 OA
ENDBRANCH  68  71
ENDBRANCH  50  64
BRANCH  51  75
ATOM     75  C   UNL A   1      41.915  22.429  27.261  1.00  0.00     0.023 A 
ATOM     76  C   UNL A   1      40.523  22.233  27.299  1.00  0.00     0.012 A 
ATOM     77  C   UNL A   1      42.714  21.403  26.703  1.00  0.00     0.148 A 
ATOM     78  C   UNL A   1      39.950  21.056  26.805  1.00  0.00     0.002 A 
ATOM     79  C   UNL A   1      42.147  20.217  26.256  1.00  0.00     0.091 A 
ATOM     80  F   UNL A   1      44.024  21.619  26.527  1.00  0.00    -0.205 F 
ATOM     81  C   UNL A   1      40.761  20.044  26.293  1.00  0.00     0.022 A 
BRANCH  79  82
ATOM     82  S   UNL A   1      43.160  18.868  25.637  1.00  0.00     0.127 S 
ATOM     83  O   UNL A   1      43.573  19.370  24.326  1.00  0.00    -0.237 OA
ATOM     84  O   UNL A   1      44.226  18.803  26.632  1.00  0.00    -0.237 OA
ATOM     85  O   UNL A   1      42.275  17.710  25.570  1.00  0.00    -0.744 OA
ENDBRANCH  79  82
ENDBRANCH  51  75
BRANCH  63  86
ATOM     86  C   UNL A   1      46.488  26.777  26.837  1.00  0.00     0.023 A 
ATOM     87  C   UNL A   1      45.491  27.401  26.066  1.00  0.00     0.012 A 
ATOM     88  C   UNL A   1      47.806  26.728  26.349  1.00  0.00     0.148 A 
ATOM     89  C   UNL A   1      45.800  27.953  24.821  1.00  0.00     0.002 A 
ATOM     90  C   UNL A   1      48.119  27.312  25.130  1.00  0.00     0.091 A 
ATOM     91  F   UNL A   1      48.738  26.122  27.102  1.00  0.00    -0.205 F 
ATOM     92  C   UNL A   1      47.116  27.920  24.359  1.00  0.00     0.022 A 
BRANCH  90  93
ATOM     93  S   UNL A   1      49.806  27.397  24.524  1.00  0.00     0.127 S 
ATOM     94  O   UNL A   1      49.609  27.481  23.079  1.00  0.00    -0.237 OA
ATOM     95  O   UNL A   1      50.299  28.626  25.148  1.00  0.00    -0.237 OA
ATOM     96  O   UNL A   1      50.465  26.184  24.993  1.00  0.00    -0.744 OA
ENDBRANCH  90  93
ENDBRANCH  63  86
ENDBRANCH  37  38
ENDBRANCH  30  32
ENDBRANCH  29  30
ENDBRANCH  28  29
ENDBRANCH  27  28
ENDBRANCH  26  27
ENDBRANCH   1  26
TORSDOF 22
ENDMDL
MODEL 2
REMARK VINA RESULT:     -10.5      4.168     12.185
REMARK SMILES Cc1ccc(C)c(/C=C2\SC(=S)N(CC(=O)OCCOCCOCCOC(=O)c3ccc(-c4c5nc(c(-c6cccc(S(=O)(=O)[O-])c6F)c6ccc([nH]6)c(-c6cccc(S(=O)(=O)[O-])c6F)c6nc(c(-c7cccc(S(=O)(=O)[O-])c7F)c7ccc4[nH]7)C=C6)C=C5)cc3)C2=O)c1
REMARK SMILES IDX 22 1 21 2 20 3 19 4 18 5 17 6 15 7 16 8 14 9 13 10 8 11 9 12
REMARK SMILES IDX 10 13 92 14 11 15 93 16 12 17 7 18 1 19 2 20 3 21 94 22 4 23
REMARK SMILES IDX 5 24 6 25 23 26 24 27 25 28 26 29 27 30 28 31 29 32 30 33
REMARK SMILES IDX 91 34 31 35 90 36 32 37 33 38 34 39 84 40 35 41 89 42 83 43
REMARK SMILES IDX 85 44 36 45 88 46 82 47 81 48 37 50 69 51 49 52 68 53 50 54
REMARK SMILES IDX 53 55 67 56 86 57 51 58 52 59 66 61 87 62 54 63 38 64 39 65
REMARK SMILES IDX 47 66 40 67 42 68 48 69 41 70 43 71 44 72 45 73 46 74 70 75
REMARK SMILES IDX 71 76 79 77 72 78 74 79 80 80 73 81 75 82 76 83 77 84 78 85
REMARK SMILES IDX 55 86 56 87 64 88 57 89 59 90 65 91 58 92 60 93 61 94 62 95
REMARK SMILES IDX 63 96
REMARK H PARENT 85 49 53 60
REMARK Flexibility Score: inf
ROOT
ATOM      1  C   UNL A   1      42.603  19.620  25.615  1.00  0.00     0.188 C 
ENDROOT
BRANCH   1   2
ATOM      2  C   UNL A   1      44.099  19.739  25.222  1.00  0.00     0.188 C 
BRANCH   2   3
ATOM      3  O   UNL A   1      44.440  20.805  24.337  1.00  0.00    -0.376 OA
BRANCH   3   4
ATOM      4  C   UNL A   1      45.388  21.755  24.848  1.00  0.00     0.202 C 
BRANCH   4   5
ATOM      5  C   UNL A   1      45.627  23.034  23.986  1.00  0.00     0.261 C 
BRANCH   5   6
ATOM      6  O   UNL A   1      45.266  24.307  24.620  1.00  0.00    -0.462 OA
BRANCH   6   7
ATOM      7  C   UNL A   1      46.320  25.131  24.918  1.00  0.00     0.326 C 
ATOM      8  O   UNL A   1      46.583  26.119  24.238  1.00  0.00    -0.250 OA
BRANCH   7   9
ATOM      9  C   UNL A   1      47.260  24.632  26.074  1.00  0.00     0.250 C 
BRANCH   9  10
ATOM     10  N   UNL A   1      47.136  24.995  27.526  1.00  0.00    -0.282 N 
ATOM     11  C   UNL A   1      44.968  24.818  30.439  1.00  0.00     0.029 C 
ATOM     12  C   UNL A   1      46.071  25.015  29.684  1.00  0.00     0.081 C 
ATOM     13  S   UNL A   1      47.586  25.732  29.995  1.00  0.00    -0.054 SA
ATOM     14  C   UNL A   1      46.131  24.447  28.295  1.00  0.00     0.266 C 
ATOM     15  C   UNL A   1      48.170  25.423  28.332  1.00  0.00     0.148 C 
ATOM     16  O   UNL A   1      45.512  23.432  28.019  1.00  0.00    -0.268 OA
ATOM     17  S   UNL A   1      49.791  25.567  27.955  1.00  0.00    -0.052 S 
BRANCH  11  18
ATOM     18  C   UNL A   1      44.516  25.059  31.851  1.00  0.00    -0.021 A 
ATOM     19  C   UNL A   1      43.572  23.087  35.017  1.00  0.00     0.044 C 
ATOM     20  C   UNL A   1      43.794  24.218  34.056  1.00  0.00    -0.051 A 
ATOM     21  C   UNL A   1      43.360  25.487  34.430  1.00  0.00     0.004 A 
ATOM     22  C   UNL A   1      44.357  24.009  32.775  1.00  0.00     0.011 A 
ATOM     23  C   UNL A   1      43.530  26.546  33.561  1.00  0.00     0.004 A 
ATOM     24  C   UNL A   1      44.114  26.358  32.292  1.00  0.00    -0.044 A 
ATOM     25  C   UNL A   1      44.200  27.627  31.490  1.00  0.00     0.045 C 
ENDBRANCH  11  18
ENDBRANCH   9  10
ENDBRANCH   7   9
ENDBRANCH   6   7
ENDBRANCH   5   6
ENDBRANCH   4   5
ENDBRANCH   3   4
ENDBRANCH   2   3
ENDBRANCH   1   2
BRANCH   1  26
ATOM     26  O   UNL A   1      42.372  20.144  26.909  1.00  0.00    -0.376 OA
BRANCH  26  27
ATOM     27  C   UNL A   1      41.035  20.317  27.355  1.00  0.00     0.202 C 
BRANCH  27  28
ATOM     28  C   UNL A   1      40.361  21.694  27.240  1.00  0.00     0.261 C 
BRANCH  28  29
ATOM     29  O   UNL A   1      41.114  22.920  27.395  1.00  0.00    -0.460 OA
BRANCH  29  30
ATOM     30  C   UNL A   1      41.704  23.672  26.449  1.00  0.00     0.338 C 
ATOM     31  O   UNL A   1      42.285  23.167  25.492  1.00  0.00    -0.246 OA
BRANCH  30  32
ATOM     32  C   UNL A   1      41.777  25.117  26.677  1.00  0.00     0.060 A 
ATOM     33  C   UNL A   1      42.607  25.471  27.721  1.00  0.00     0.016 A 
ATOM     34  C   UNL A   1      41.003  26.078  26.007  1.00  0.00     0.016 A 
ATOM     35  C   UNL A   1      42.492  26.746  28.219  1.00  0.00     0.010 A 
ATOM     36  C   UNL A   1      40.949  27.389  26.501  1.00  0.00     0.010 A 
ATOM     37  C   UNL A   1      41.662  27.698  27.654  1.00  0.00    -0.014 A 
BRANCH  37  38
ATOM     38  C   UNL A   1      41.694  28.962  28.390  1.00  0.00     0.031 A 
ATOM     39  C   UNL A   1      42.891  29.820  28.182  1.00  0.00     0.074 A 
ATOM     40  C   UNL A   1      40.781  29.220  29.349  1.00  0.00     0.049 A 
ATOM     41  N   UNL A   1      43.670  30.326  29.093  1.00  0.00    -0.248 NA
ATOM     42  C   UNL A   1      43.336  30.063  26.803  1.00  0.00     0.031 C 
ATOM     43  C   UNL A   1      39.591  28.412  29.611  1.00  0.00     0.029 A 
ATOM     44  N   UNL A   1      40.645  30.286  30.209  1.00  0.00    -0.354 N 
ATOM     45  C   UNL A   1      44.515  31.182  28.394  1.00  0.00     0.074 A 
ATOM     46  C   UNL A   1      44.380  30.866  26.996  1.00  0.00     0.031 C 
ATOM     47  C   UNL A   1      38.728  29.129  30.350  1.00  0.00     0.029 A 
ATOM     48  C   UNL A   1      39.336  30.409  30.666  1.00  0.00     0.049 A 
ATOM     49  H   UNL A   1      41.380  30.886  30.467  1.00  0.00     0.167 HD
ATOM     50  C   UNL A   1      44.971  32.333  28.953  1.00  0.00     0.034 A 
ATOM     51  C   UNL A   1      38.715  31.507  31.154  1.00  0.00     0.034 A 
ATOM     52  C   UNL A   1      45.043  32.315  30.381  1.00  0.00     0.049 A 
ATOM     53  C   UNL A   1      39.707  32.438  31.722  1.00  0.00     0.074 A 
ATOM     54  C   UNL A   1      45.927  31.900  31.348  1.00  0.00     0.029 A 
ATOM     55  N   UNL A   1      43.883  32.667  31.007  1.00  0.00    -0.354 N 
ATOM     56  N   UNL A   1      40.349  32.218  32.834  1.00  0.00    -0.248 NA
ATOM     57  C   UNL A   1      40.191  33.563  30.926  1.00  0.00     0.031 C 
ATOM     58  C   UNL A   1      45.231  31.960  32.589  1.00  0.00     0.029 A 
ATOM     59  C   UNL A   1      43.933  32.400  32.348  1.00  0.00     0.049 A 
ATOM     60  H   UNL A   1      43.106  33.065  30.551  1.00  0.00     0.167 HD
ATOM     61  C   UNL A   1      41.545  32.887  32.663  1.00  0.00     0.074 A 
ATOM     62  C   UNL A   1      41.321  33.834  31.582  1.00  0.00     0.031 C 
ATOM     63  C   UNL A   1      42.713  32.359  33.122  1.00  0.00     0.034 A 
BRANCH  50  64
ATOM     64  C   UNL A   1      44.846  33.646  28.216  1.00  0.00     0.023 A 
ATOM     65  C   UNL A   1      43.583  34.043  27.739  1.00  0.00     0.012 A 
ATOM     66  C   UNL A   1      45.973  34.350  27.727  1.00  0.00     0.148 A 
ATOM     67  C   UNL A   1      43.451  35.110  26.841  1.00  0.00     0.002 A 
ATOM     68  C   UNL A   1      45.831  35.463  26.914  1.00  0.00     0.091 A 
ATOM     69  F   UNL A   1      47.202  33.853  27.923  1.00  0.00    -0.205 F 
ATOM     70  C   UNL A   1      44.572  35.839  26.448  1.00  0.00     0.022 A 
BRANCH  68  71
ATOM     71  S   UNL A   1      47.258  36.449  26.453  1.00  0.00     0.127 S 
ATOM     72  O   UNL A   1      48.025  35.502  25.651  1.00  0.00    -0.237 OA
ATOM     73  O   UNL A   1      46.642  37.546  25.706  1.00  0.00    -0.237 OA
ATOM     74  O   UNL A   1      47.855  36.859  27.719  1.00  0.00    -0.744 OA
ENDBRANCH  68  71
ENDBRANCH  50  64
BRANCH  51  75
ATOM     75  C   UNL A   1      37.275  31.836  31.050  1.00  0.00     0.023 A 
ATOM     76  C   UNL A   1      36.500  32.009  32.211  1.00  0.00     0.012 A 
ATOM     77  C   UNL A   1      36.689  32.169  29.806  1.00  0.00     0.148 A 
ATOM     78  C   UNL A   1      35.189  32.492  32.133  1.00  0.00     0.002 A 
ATOM     79  C   UNL A   1      35.372  32.603  29.728  1.00  0.00     0.091 A 
ATOM     80  F   UNL A   1      37.446  32.146  28.700  1.00  0.00    -0.205 F 
ATOM     81  C   UNL A   1      34.621  32.779  30.893  1.00  0.00     0.022 A 
BRANCH  79  82
ATOM     82  S   UNL A   1      34.586  32.935  28.146  1.00  0.00     0.127 S 
ATOM     83  O   UNL A   1      35.594  33.750  27.466  1.00  0.00    -0.237 OA
ATOM     84  O   UNL A   1      34.415  31.592  27.601  1.00  0.00    -0.237 OA
ATOM     85  O   UNL A   1      33.359  33.659  28.461  1.00  0.00    -0.744 OA
ENDBRANCH  79  82
ENDBRANCH  51  75
BRANCH  63  86
ATOM     86  C   UNL A   1      42.671  31.476  34.329  1.00  0.00     0.023 A 
ATOM     87  C   UNL A   1      42.733  30.075  34.235  1.00  0.00     0.012 A 
ATOM     88  C   UNL A   1      42.675  32.084  35.597  1.00  0.00     0.148 A 
ATOM     89  C   UNL A   1      42.783  29.290  35.389  1.00  0.00     0.002 A 
ATOM     90  C   UNL A   1      42.765  31.304  36.742  1.00  0.00     0.091 A 
ATOM     91  F   UNL A   1      42.609  33.423  35.659  1.00  0.00    -0.205 F 
ATOM     92  C   UNL A   1      42.812  29.904  36.642  1.00  0.00     0.022 A 
BRANCH  90  93
ATOM     93  S   UNL A   1      42.910  32.031  38.376  1.00  0.00     0.127 S 
ATOM     94  O   UNL A   1      41.514  32.283  38.724  1.00  0.00    -0.237 OA
ATOM     95  O   UNL A   1      43.547  30.956  39.139  1.00  0.00    -0.237 OA
ATOM     96  O   UNL A   1      43.738  33.220  38.216  1.00  0.00    -0.744 OA
ENDBRANCH  90  93
ENDBRANCH  63  86
ENDBRANCH  37  38
ENDBRANCH  30  32
ENDBRANCH  29  30
ENDBRANCH  28  29
ENDBRANCH  27  28
ENDBRANCH  26  27
ENDBRANCH   1  26
TORSDOF 22
ENDMDL
MODEL 3
REMARK VINA RESULT:     -10.3      2.862      4.066
REMARK SMILES Cc1ccc(C)c(/C=C2\SC(=S)N(CC(=O)OCCOCCOCCOC(=O)c3ccc(-c4c5nc(c(-c6cccc(S(=O)(=O)[O-])c6F)c6ccc([nH]6)c(-c6cccc(S(=O)(=O)[O-])c6F)c6nc(c(-c7cccc(S(=O)(=O)[O-])c7F)c7ccc4[nH]7)C=C6)C=C5)cc3)C2=O)c1
REMARK SMILES IDX 22 1 21 2 20 3 19 4 18 5 17 6 15 7 16 8 14 9 13 10 8 11 9 12
REMARK SMILES IDX 10 13 92 14 11 15 93 16 12 17 7 18 1 19 2 20 3 21 94 22 4 23
REMARK SMILES IDX 5 24 6 25 23 26 24 27 25 28 26 29 27 30 28 31 29 32 30 33
REMARK SMILES IDX 91 34 31 35 90 36 32 37 33 38 34 39 84 40 35 41 89 42 83 43
REMARK SMILES IDX 85 44 36 45 88 46 82 47 81 48 37 50 69 51 49 52 68 53 50 54
REMARK SMILES IDX 53 55 67 56 86 57 51 58 52 59 66 61 87 62 54 63 38 64 39 65
REMARK SMILES IDX 47 66 40 67 42 68 48 69 41 70 43 71 44 72 45 73 46 74 70 75
REMARK SMILES IDX 71 76 79 77 72 78 74 79 80 80 73 81 75 82 76 83 77 84 78 85
REMARK SMILES IDX 55 86 56 87 64 88 57 89 59 90 65 91 58 92 60 93 61 94 62 95
REMARK SMILES IDX 63 96
REMARK H PARENT 85 49 53 60
REMARK Flexibility Score: inf
ROOT
ATOM      1  C   UNL A   1      31.928  30.496  26.075  1.00  0.00     0.188 C 
ENDROOT
BRANCH   1   2
ATOM      2  C   UNL A   1      31.503  29.005  26.034  1.00  0.00     0.188 C 
BRANCH   2   3
ATOM      3  O   UNL A   1      31.327  28.430  24.740  1.00  0.00    -0.376 OA
BRANCH   3   4
ATOM      4  C   UNL A   1      32.174  28.957  23.708  1.00  0.00     0.202 C 
BRANCH   4   5
ATOM      5  C   UNL A   1      33.551  28.250  23.507  1.00  0.00     0.261 C 
BRANCH   5   6
ATOM      6  O   UNL A   1      33.695  27.474  22.270  1.00  0.00    -0.462 OA
BRANCH   6   7
ATOM      7  C   UNL A   1      33.216  26.191  22.326  1.00  0.00     0.326 C 
ATOM      8  O   UNL A   1      32.250  25.830  21.660  1.00  0.00    -0.250 OA
BRANCH   7   9
ATOM      9  C   UNL A   1      33.874  25.273  23.418  1.00  0.00     0.250 C 
BRANCH   9  10
ATOM     10  N   UNL A   1      33.409  23.899  23.809  1.00  0.00    -0.282 N 
ATOM     11  C   UNL A   1      34.347  20.389  23.933  1.00  0.00     0.029 C 
ATOM     12  C   UNL A   1      33.657  21.529  24.150  1.00  0.00     0.081 C 
ATOM     13  S   UNL A   1      32.122  21.857  24.818  1.00  0.00    -0.054 SA
ATOM     14  C   UNL A   1      34.307  22.855  23.874  1.00  0.00     0.266 C 
ATOM     15  C   UNL A   1      32.303  23.623  24.585  1.00  0.00     0.148 C 
ATOM     16  O   UNL A   1      35.518  22.978  23.972  1.00  0.00    -0.268 OA
ATOM     17  S   UNL A   1      31.269  24.694  25.342  1.00  0.00    -0.052 S 
BRANCH  11  18
ATOM     18  C   UNL A   1      34.183  18.915  24.171  1.00  0.00    -0.021 A 
ATOM     19  C   UNL A   1      36.078  15.960  25.748  1.00  0.00     0.044 C 
ATOM     20  C   UNL A   1      35.044  16.759  25.009  1.00  0.00    -0.051 A 
ATOM     21  C   UNL A   1      34.030  16.066  24.352  1.00  0.00     0.004 A 
ATOM     22  C   UNL A   1      35.121  18.169  24.908  1.00  0.00     0.011 A 
ATOM     23  C   UNL A   1      33.074  16.770  23.646  1.00  0.00     0.004 A 
ATOM     24  C   UNL A   1      33.124  18.175  23.560  1.00  0.00    -0.044 A 
ATOM     25  C   UNL A   1      32.005  18.753  22.739  1.00  0.00     0.045 C 
ENDBRANCH  11  18
ENDBRANCH   9  10
ENDBRANCH   7   9
ENDBRANCH   6   7
ENDBRANCH   5   6
ENDBRANCH   4   5
ENDBRANCH   3   4
ENDBRANCH   2   3
ENDBRANCH   1   2
BRANCH   1  26
ATOM     26  O   UNL A   1      32.644  30.791  27.259  1.00  0.00    -0.376 OA
BRANCH  26  27
ATOM     27  C   UNL A   1      34.063  30.778  27.229  1.00  0.00     0.202 C 
BRANCH  27  28
ATOM     28  C   UNL A   1      34.855  31.871  27.966  1.00  0.00     0.261 C 
BRANCH  28  29
ATOM     29  O   UNL A   1      36.027  31.554  28.753  1.00  0.00    -0.460 OA
BRANCH  29  30
ATOM     30  C   UNL A   1      36.122  31.353  30.080  1.00  0.00     0.338 C 
ATOM     31  O   UNL A   1      35.427  31.977  30.878  1.00  0.00    -0.246 OA
BRANCH  30  32
ATOM     32  C   UNL A   1      37.200  30.486  30.560  1.00  0.00     0.060 A 
ATOM     33  C   UNL A   1      38.421  31.122  30.657  1.00  0.00     0.016 A 
ATOM     34  C   UNL A   1      37.079  29.107  30.795  1.00  0.00     0.016 A 
ATOM     35  C   UNL A   1      39.539  30.333  30.779  1.00  0.00     0.010 A 
ATOM     36  C   UNL A   1      38.234  28.333  30.976  1.00  0.00     0.010 A 
ATOM     37  C   UNL A   1      39.474  28.957  30.907  1.00  0.00    -0.014 A 
BRANCH  37  38
ATOM     38  C   UNL A   1      40.803  28.349  30.986  1.00  0.00     0.031 A 
ATOM     39  C   UNL A   1      41.529  28.506  32.274  1.00  0.00     0.074 A 
ATOM     40  C   UNL A   1      41.397  27.858  29.879  1.00  0.00     0.049 A 
ATOM     41  N   UNL A   1      42.734  28.965  32.453  1.00  0.00    -0.248 NA
ATOM     42  C   UNL A   1      40.801  28.217  33.517  1.00  0.00     0.031 C 
ATOM     43  C   UNL A   1      40.743  27.688  28.582  1.00  0.00     0.029 A 
ATOM     44  N   UNL A   1      42.645  27.308  29.687  1.00  0.00    -0.354 N 
ATOM     45  C   UNL A   1      42.998  28.736  33.799  1.00  0.00     0.074 A 
ATOM     46  C   UNL A   1      41.743  28.432  34.435  1.00  0.00     0.031 C 
ATOM     47  C   UNL A   1      41.476  26.852  27.828  1.00  0.00     0.029 A 
ATOM     48  C   UNL A   1      42.674  26.489  28.563  1.00  0.00     0.049 A 
ATOM     49  H   UNL A   1      43.418  27.474  30.272  1.00  0.00     0.167 HD
ATOM     50  C   UNL A   1      44.250  28.435  34.230  1.00  0.00     0.034 A 
ATOM     51  C   UNL A   1      43.529  25.480  28.279  1.00  0.00     0.034 A 
ATOM     52  C   UNL A   1      45.302  28.933  33.400  1.00  0.00     0.049 A 
ATOM     53  C   UNL A   1      44.807  25.688  28.983  1.00  0.00     0.074 A 
ATOM     54  C   UNL A   1      46.010  30.102  33.249  1.00  0.00     0.029 A 
ATOM     55  N   UNL A   1      45.641  28.109  32.366  1.00  0.00    -0.354 N 
ATOM     56  N   UNL A   1      45.671  26.608  28.656  1.00  0.00    -0.248 NA
ATOM     57  C   UNL A   1      45.063  25.007  30.250  1.00  0.00     0.031 C 
ATOM     58  C   UNL A   1      46.751  29.975  32.039  1.00  0.00     0.029 A 
ATOM     59  C   UNL A   1      46.469  28.735  31.475  1.00  0.00     0.049 A 
ATOM     60  H   UNL A   1      45.327  27.181  32.272  1.00  0.00     0.167 HD
ATOM     61  C   UNL A   1      46.307  26.903  29.845  1.00  0.00     0.074 A 
ATOM     62  C   UNL A   1      46.037  25.781  30.730  1.00  0.00     0.031 C 
ATOM     63  C   UNL A   1      46.655  28.183  30.152  1.00  0.00     0.034 A 
BRANCH  50  64
ATOM     64  C   UNL A   1      44.487  27.237  35.120  1.00  0.00     0.023 A 
ATOM     65  C   UNL A   1      45.192  27.411  36.325  1.00  0.00     0.012 A 
ATOM     66  C   UNL A   1      44.296  25.909  34.668  1.00  0.00     0.148 A 
ATOM     67  C   UNL A   1      45.657  26.310  37.058  1.00  0.00     0.002 A 
ATOM     68  C   UNL A   1      44.674  24.822  35.441  1.00  0.00     0.091 A 
ATOM     69  F   UNL A   1      43.883  25.688  33.412  1.00  0.00    -0.205 F 
ATOM     70  C   UNL A   1      45.375  25.015  36.630  1.00  0.00     0.022 A 
BRANCH  68  71
ATOM     71  S   UNL A   1      44.261  23.151  34.936  1.00  0.00     0.127 S 
ATOM     72  O   UNL A   1      44.821  22.364  36.030  1.00  0.00    -0.237 OA
ATOM     73  O   UNL A   1      42.799  23.200  34.886  1.00  0.00    -0.237 OA
ATOM     74  O   UNL A   1      44.891  22.987  33.631  1.00  0.00    -0.744 OA
ENDBRANCH  68  71
ENDBRANCH  50  64
BRANCH  51  75
ATOM     75  C   UNL A   1      43.238  24.262  27.490  1.00  0.00     0.023 A 
ATOM     76  C   UNL A   1      41.955  23.687  27.517  1.00  0.00     0.012 A 
ATOM     77  C   UNL A   1      44.170  23.758  26.552  1.00  0.00     0.148 A 
ATOM     78  C   UNL A   1      41.616  22.646  26.644  1.00  0.00     0.002 A 
ATOM     79  C   UNL A   1      43.846  22.694  25.720  1.00  0.00     0.091 A 
ATOM     80  F   UNL A   1      45.351  24.375  26.408  1.00  0.00    -0.205 F 
ATOM     81  C   UNL A   1      42.562  22.143  25.753  1.00  0.00     0.022 A 
BRANCH  79  82
ATOM     82  S   UNL A   1      45.052  21.982  24.594  1.00  0.00     0.127 S 
ATOM     83  O   UNL A   1      45.216  23.047  23.604  1.00  0.00    -0.237 OA
ATOM     84  O   UNL A   1      46.203  21.777  25.468  1.00  0.00    -0.237 OA
ATOM     85  O   UNL A   1      44.429  20.775  24.062  1.00  0.00    -0.744 OA
ENDBRANCH  79  82
ENDBRANCH  51  75
BRANCH  63  86
ATOM     86  C   UNL A   1      46.979  29.122  29.034  1.00  0.00     0.023 A 
ATOM     87  C   UNL A   1      48.242  29.146  28.416  1.00  0.00     0.012 A 
ATOM     88  C   UNL A   1      45.946  29.929  28.523  1.00  0.00     0.148 A 
ATOM     89  C   UNL A   1      48.476  29.973  27.316  1.00  0.00     0.002 A 
ATOM     90  C   UNL A   1      46.169  30.720  27.405  1.00  0.00     0.091 A 
ATOM     91  F   UNL A   1      44.752  29.892  29.135  1.00  0.00    -0.205 F 
ATOM     92  C   UNL A   1      47.437  30.750  26.802  1.00  0.00     0.022 A 
BRANCH  90  93
ATOM     93  S   UNL A   1      44.853  31.663  26.632  1.00  0.00     0.127 S 
ATOM     94  O   UNL A   1      45.536  32.261  25.487  1.00  0.00    -0.237 OA
ATOM     95  O   UNL A   1      43.883  30.621  26.291  1.00  0.00    -0.237 OA
ATOM     96  O   UNL A   1      44.386  32.606  27.642  1.00  0.00    -0.744 OA
ENDBRANCH  90  93
ENDBRANCH  63  86
ENDBRANCH  37  38
ENDBRANCH  30  32
ENDBRANCH  29  30
ENDBRANCH  28  29
ENDBRANCH  27  28
ENDBRANCH  26  27
ENDBRANCH   1  26
TORSDOF 22
ENDMDL
