MODEL 1
REMARK VINA RESULT:     -10.1      0.000      0.000
REMARK SMILES COC1=CC2=NC(C(=O)OCCOCCOCCOC(=O)c3ccc(-c4c5nc(c(-c6cccc(S(=O)(=O)[O-])c6F)c6ccc([nH]6)c(-c6cccc(S(=O)(=O)[O-])c6F)c6nc(c(-c7cccc(S(=O)(=O)[O-])c7F)c7ccc4[nH]7)C=C6)C=C5)cc3)=C[C@@H]2C(OC)=C1
REMARK SMILES IDX 15 1 14 2 13 3 12 4 11 5 10 6 8 7 9 8 7 9 3 10 4 11 90 12
REMARK SMILES IDX 5 13 87 14 6 15 86 16 85 17 2 18 1 19 88 20 89 21 16 22
REMARK SMILES IDX 17 23 18 24 19 25 20 26 21 27 22 28 23 29 84 30 24 31 83 32
REMARK SMILES IDX 25 33 26 34 27 35 77 36 28 37 82 38 76 39 78 40 29 41 81 42
REMARK SMILES IDX 75 43 74 44 30 46 62 47 42 48 61 49 43 50 46 51 60 52 79 53
REMARK SMILES IDX 44 54 45 55 59 57 80 58 47 59 31 60 32 61 40 62 33 63 35 64
REMARK SMILES IDX 41 65 34 66 36 67 37 68 38 69 39 70 63 71 64 72 72 73 65 74
REMARK SMILES IDX 67 75 73 76 66 77 68 78 69 79 70 80 71 81 48 82 49 83 57 84
REMARK SMILES IDX 50 85 52 86 58 87 51 88 53 89 54 90 55 91 56 92
REMARK H PARENT 78 45 46 56
REMARK Flexibility Score: inf
ROOT
ATOM      1  C   UNL A   1      31.877  29.576  25.364  1.00  0.00     0.188 C 
ENDROOT
BRANCH   1   2
ATOM      2  C   UNL A   1      31.846  28.102  24.897  1.00  0.00     0.188 C 
BRANCH   2   3
ATOM      3  O   UNL A   1      30.623  27.381  24.834  1.00  0.00    -0.376 OA
BRANCH   3   4
ATOM      4  C   UNL A   1      30.191  26.842  23.593  1.00  0.00     0.202 C 
BRANCH   4   5
ATOM      5  C   UNL A   1      31.075  27.036  22.350  1.00  0.00     0.261 C 
BRANCH   5   6
ATOM      6  O   UNL A   1      31.684  25.831  21.853  1.00  0.00    -0.459 OA
BRANCH   6   7
ATOM      7  C   UNL A   1      33.005  25.674  22.131  1.00  0.00     0.356 C 
ATOM      8  O   UNL A   1      33.908  26.415  21.767  1.00  0.00    -0.244 OA
BRANCH   7   9
ATOM      9  C   UNL A   1      33.220  24.518  23.057  1.00  0.00     0.145 C 
ATOM     10  C   UNL A   1      32.736  20.582  24.992  1.00  0.00     0.124 C 
ATOM     11  C   UNL A   1      31.974  21.654  24.733  1.00  0.00     0.071 C 
ATOM     12  C   UNL A   1      34.163  20.548  24.697  1.00  0.00     0.089 C 
ATOM     13  C   UNL A   1      32.685  22.838  24.228  1.00  0.00     0.060 C 
ATOM     14  C   UNL A   1      34.868  21.676  24.451  1.00  0.00     0.112 C 
ATOM     15  N   UNL A   1      32.145  23.776  23.515  1.00  0.00    -0.245 NA
ATOM     16  C   UNL A   1      34.167  23.003  24.527  1.00  0.00     0.129 C 
ATOM     17  C   UNL A   1      34.406  24.061  23.497  1.00  0.00     0.027 C 
BRANCH  10  18
ATOM     18  O   UNL A   1      32.154  19.396  25.392  1.00  0.00    -0.497 OA
ATOM     19  C   UNL A   1      32.816  18.251  24.856  1.00  0.00     0.278 C 
ENDBRANCH  10  18
BRANCH  14  20
ATOM     20  O   UNL A   1      36.231  21.756  24.250  1.00  0.00    -0.500 OA
ATOM     21  C   UNL A   1      37.067  21.028  25.146  1.00  0.00     0.278 C 
ENDBRANCH  14  20
ENDBRANCH   7   9
ENDBRANCH   6   7
ENDBRANCH   5   6
ENDBRANCH   4   5
ENDBRANCH   3   4
ENDBRANCH   2   3
ENDBRANCH   1   2
BRANCH   1  22
ATOM     22  O   UNL A   1      31.915  29.785  26.772  1.00  0.00    -0.376 OA
BRANCH  22  23
ATOM     23  C   UNL A   1      32.980  30.603  27.247  1.00  0.00     0.202 C 
BRANCH  23  24
ATOM     24  C   UNL A   1      34.372  30.086  26.889  1.00  0.00     0.261 C 
BRANCH  24  25
ATOM     25  O   UNL A   1      35.249  29.986  28.006  1.00  0.00    -0.460 OA
BRANCH  25  26
ATOM     26  C   UNL A   1      36.070  31.035  28.207  1.00  0.00     0.338 C 
ATOM     27  O   UNL A   1      36.004  32.135  27.690  1.00  0.00    -0.246 OA
BRANCH  26  28
ATOM     28  C   UNL A   1      37.112  30.632  29.155  1.00  0.00     0.060 A 
ATOM     29  C   UNL A   1      38.239  31.452  29.262  1.00  0.00     0.016 A 
ATOM     30  C   UNL A   1      37.069  29.346  29.708  1.00  0.00     0.016 A 
ATOM     31  C   UNL A   1      39.409  30.898  29.738  1.00  0.00     0.010 A 
ATOM     32  C   UNL A   1      38.240  28.788  30.160  1.00  0.00     0.010 A 
ATOM     33  C   UNL A   1      39.410  29.544  30.077  1.00  0.00    -0.014 A 
BRANCH  33  34
ATOM     34  C   UNL A   1      40.689  28.867  30.181  1.00  0.00     0.031 A 
ATOM     35  C   UNL A   1      41.217  28.685  31.543  1.00  0.00     0.074 A 
ATOM     36  C   UNL A   1      41.240  28.310  29.083  1.00  0.00     0.049 A 
ATOM     37  N   UNL A   1      42.345  29.100  32.015  1.00  0.00    -0.248 NA
ATOM     38  C   UNL A   1      40.349  28.020  32.528  1.00  0.00     0.031 C 
ATOM     39  C   UNL A   1      40.580  28.155  27.778  1.00  0.00     0.029 A 
ATOM     40  N   UNL A   1      42.411  27.620  28.928  1.00  0.00    -0.354 N 
ATOM     41  C   UNL A   1      42.429  28.527  33.278  1.00  0.00     0.074 A 
ATOM     42  C   UNL A   1      41.115  28.050  33.617  1.00  0.00     0.031 C 
ATOM     43  C   UNL A   1      41.236  27.221  27.060  1.00  0.00     0.029 A 
ATOM     44  C   UNL A   1      42.422  26.816  27.795  1.00  0.00     0.049 A 
ATOM     45  H   UNL A   1      43.168  27.688  29.554  1.00  0.00     0.167 HD
ATOM     46  C   UNL A   1      43.629  28.192  33.815  1.00  0.00     0.034 A 
ATOM     47  C   UNL A   1      43.291  25.825  27.495  1.00  0.00     0.034 A 
ATOM     48  C   UNL A   1      44.733  28.799  33.131  1.00  0.00     0.049 A 
ATOM     49  C   UNL A   1      44.520  26.008  28.296  1.00  0.00     0.074 A 
ATOM     50  C   UNL A   1      45.343  30.030  33.092  1.00  0.00     0.029 A 
ATOM     51  N   UNL A   1      45.210  28.064  32.080  1.00  0.00    -0.354 N 
ATOM     52  N   UNL A   1      45.352  27.001  28.140  1.00  0.00    -0.248 NA
ATOM     53  C   UNL A   1      44.725  25.203  29.496  1.00  0.00     0.031 C 
ATOM     54  C   UNL A   1      46.133  30.049  31.905  1.00  0.00     0.029 A 
ATOM     55  C   UNL A   1      45.962  28.838  31.237  1.00  0.00     0.049 A 
ATOM     56  H   UNL A   1      45.036  27.105  31.948  1.00  0.00     0.167 HD
ATOM     57  C   UNL A   1      45.892  27.190  29.399  1.00  0.00     0.074 A 
ATOM     58  C   UNL A   1      45.623  25.961  30.128  1.00  0.00     0.031 C 
ATOM     59  C   UNL A   1      46.185  28.438  29.862  1.00  0.00     0.034 A 
BRANCH  46  60
ATOM     60  C   UNL A   1      43.855  26.980  34.684  1.00  0.00     0.023 A 
ATOM     61  C   UNL A   1      44.253  27.205  36.018  1.00  0.00     0.012 A 
ATOM     62  C   UNL A   1      43.973  25.660  34.191  1.00  0.00     0.148 A 
ATOM     63  C   UNL A   1      44.754  26.172  36.817  1.00  0.00     0.002 A 
ATOM     64  C   UNL A   1      44.384  24.620  35.016  1.00  0.00     0.091 A 
ATOM     65  F   UNL A   1      43.830  25.415  32.883  1.00  0.00    -0.205 F 
ATOM     66  C   UNL A   1      44.802  24.874  36.323  1.00  0.00     0.022 A 
BRANCH  64  67
ATOM     67  S   UNL A   1      44.382  22.928  34.418  1.00  0.00     0.127 S 
ATOM     68  O   UNL A   1      45.451  22.961  33.427  1.00  0.00    -0.237 OA
ATOM     69  O   UNL A   1      44.684  22.168  35.632  1.00  0.00    -0.237 OA
ATOM     70  O   UNL A   1      43.028  22.720  33.914  1.00  0.00    -0.744 OA
ENDBRANCH  64  67
ENDBRANCH  46  60
BRANCH  47  71
ATOM     71  C   UNL A   1      43.077  24.636  26.641  1.00  0.00     0.023 A 
ATOM     72  C   UNL A   1      43.793  24.505  25.437  1.00  0.00     0.012 A 
ATOM     73  C   UNL A   1      42.329  23.526  27.100  1.00  0.00     0.148 A 
ATOM     74  C   UNL A   1      43.778  23.304  24.719  1.00  0.00     0.002 A 
ATOM     75  C   UNL A   1      42.298  22.342  26.370  1.00  0.00     0.091 A 
ATOM     76  F   UNL A   1      41.716  23.606  28.289  1.00  0.00    -0.205 F 
ATOM     77  C   UNL A   1      43.033  22.223  25.184  1.00  0.00     0.022 A 
BRANCH  75  78
ATOM     78  S   UNL A   1      41.341  20.916  26.900  1.00  0.00     0.127 S 
ATOM     79  O   UNL A   1      41.344  20.081  25.698  1.00  0.00    -0.237 OA
ATOM     80  O   UNL A   1      42.148  20.401  28.002  1.00  0.00    -0.237 OA
ATOM     81  O   UNL A   1      40.027  21.434  27.259  1.00  0.00    -0.744 OA
ENDBRANCH  75  78
ENDBRANCH  47  71
BRANCH  59  82
ATOM     82  C   UNL A   1      46.483  29.518  28.864  1.00  0.00     0.023 A 
ATOM     83  C   UNL A   1      47.777  29.726  28.350  1.00  0.00     0.012 A 
ATOM     84  C   UNL A   1      45.411  30.262  28.339  1.00  0.00     0.148 A 
ATOM     85  C   UNL A   1      47.999  30.670  27.345  1.00  0.00     0.002 A 
ATOM     86  C   UNL A   1      45.629  31.167  27.307  1.00  0.00     0.091 A 
ATOM     87  F   UNL A   1      44.185  30.061  28.847  1.00  0.00    -0.205 F 
ATOM     88  C   UNL A   1      46.924  31.381  26.814  1.00  0.00     0.022 A 
BRANCH  86  89
ATOM     89  S   UNL A   1      44.259  32.004  26.502  1.00  0.00     0.127 S 
ATOM     90  O   UNL A   1      44.918  32.667  25.379  1.00  0.00    -0.237 OA
ATOM     91  O   UNL A   1      43.382  30.893  26.125  1.00  0.00    -0.237 OA
ATOM     92  O   UNL A   1      43.691  32.883  27.516  1.00  0.00    -0.744 OA
ENDBRANCH  86  89
ENDBRANCH  59  82
ENDBRANCH  33  34
ENDBRANCH  26  28
ENDBRANCH  25  26
ENDBRANCH  24  25
ENDBRANCH  23  24
ENDBRANCH  22  23
ENDBRANCH   1  22
TORSDOF 22
ENDMDL
MODEL 2
REMARK VINA RESULT:      -9.5      2.587      7.047
REMARK SMILES COC1=CC2=NC(C(=O)OCCOCCOCCOC(=O)c3ccc(-c4c5nc(c(-c6cccc(S(=O)(=O)[O-])c6F)c6ccc([nH]6)c(-c6cccc(S(=O)(=O)[O-])c6F)c6nc(c(-c7cccc(S(=O)(=O)[O-])c7F)c7ccc4[nH]7)C=C6)C=C5)cc3)=C[C@@H]2C(OC)=C1
REMARK SMILES IDX 15 1 14 2 13 3 12 4 11 5 10 6 8 7 9 8 7 9 3 10 4 11 90 12
REMARK SMILES IDX 5 13 87 14 6 15 86 16 85 17 2 18 1 19 88 20 89 21 16 22
REMARK SMILES IDX 17 23 18 24 19 25 20 26 21 27 22 28 23 29 84 30 24 31 83 32
REMARK SMILES IDX 25 33 26 34 27 35 77 36 28 37 82 38 76 39 78 40 29 41 81 42
REMARK SMILES IDX 75 43 74 44 30 46 62 47 42 48 61 49 43 50 46 51 60 52 79 53
REMARK SMILES IDX 44 54 45 55 59 57 80 58 47 59 31 60 32 61 40 62 33 63 35 64
REMARK SMILES IDX 41 65 34 66 36 67 37 68 38 69 39 70 63 71 64 72 72 73 65 74
REMARK SMILES IDX 67 75 73 76 66 77 68 78 69 79 70 80 71 81 48 82 49 83 57 84
REMARK SMILES IDX 50 85 52 86 58 87 51 88 53 89 54 90 55 91 56 92
REMARK H PARENT 78 45 46 56
REMARK Flexibility Score: inf
ROOT
ATOM      1  C   UNL A   1      31.496  29.991  25.820  1.00  0.00     0.188 C 
ENDROOT
BRANCH   1   2
ATOM      2  C   UNL A   1      31.726  28.706  24.991  1.00  0.00     0.188 C 
BRANCH   2   3
ATOM      3  O   UNL A   1      31.561  28.707  23.580  1.00  0.00    -0.376 OA
BRANCH   3   4
ATOM      4  C   UNL A   1      32.694  28.889  22.742  1.00  0.00     0.202 C 
BRANCH   4   5
ATOM      5  C   UNL A   1      33.794  27.814  22.736  1.00  0.00     0.261 C 
BRANCH   5   6
ATOM      6  O   UNL A   1      33.666  26.832  21.692  1.00  0.00    -0.459 OA
BRANCH   6   7
ATOM      7  C   UNL A   1      32.656  25.935  21.842  1.00  0.00     0.356 C 
ATOM      8  O   UNL A   1      31.504  26.079  21.455  1.00  0.00    -0.244 OA
BRANCH   7   9
ATOM      9  C   UNL A   1      33.158  24.665  22.455  1.00  0.00     0.145 C 
ATOM     10  C   UNL A   1      35.593  21.873  24.852  1.00  0.00     0.124 C 
ATOM     11  C   UNL A   1      35.796  22.783  23.889  1.00  0.00     0.071 C 
ATOM     12  C   UNL A   1      34.258  21.511  25.314  1.00  0.00     0.089 C 
ATOM     13  C   UNL A   1      34.586  23.321  23.250  1.00  0.00     0.060 C 
ATOM     14  C   UNL A   1      33.149  21.815  24.602  1.00  0.00     0.112 C 
ATOM     15  N   UNL A   1      34.513  24.473  22.659  1.00  0.00    -0.245 NA
ATOM     16  C   UNL A   1      33.302  22.508  23.277  1.00  0.00     0.129 C 
ATOM     17  C   UNL A   1      32.404  23.641  22.892  1.00  0.00     0.027 C 
BRANCH  10  18
ATOM     18  O   UNL A   1      36.658  21.367  25.567  1.00  0.00    -0.497 OA
ATOM     19  C   UNL A   1      37.451  20.457  24.805  1.00  0.00     0.278 C 
ENDBRANCH  10  18
BRANCH  14  20
ATOM     20  O   UNL A   1      31.857  21.441  24.910  1.00  0.00    -0.500 OA
ATOM     21  C   UNL A   1      31.087  22.343  25.702  1.00  0.00     0.278 C 
ENDBRANCH  14  20
ENDBRANCH   7   9
ENDBRANCH   6   7
ENDBRANCH   5   6
ENDBRANCH   4   5
ENDBRANCH   3   4
ENDBRANCH   2   3
ENDBRANCH   1   2
BRANCH   1  22
ATOM     22  O   UNL A   1      32.656  30.765  26.108  1.00  0.00    -0.376 OA
BRANCH  22  23
ATOM     23  C   UNL A   1      33.666  30.107  26.867  1.00  0.00     0.202 C 
BRANCH  23  24
ATOM     24  C   UNL A   1      34.575  31.052  27.650  1.00  0.00     0.261 C 
BRANCH  24  25
ATOM     25  O   UNL A   1      35.150  30.462  28.810  1.00  0.00    -0.460 OA
BRANCH  25  26
ATOM     26  C   UNL A   1      36.385  30.888  29.139  1.00  0.00     0.338 C 
ATOM     27  O   UNL A   1      36.703  31.990  29.545  1.00  0.00    -0.246 OA
BRANCH  26  28
ATOM     28  C   UNL A   1      37.331  29.795  28.897  1.00  0.00     0.060 A 
ATOM     29  C   UNL A   1      37.624  28.946  29.968  1.00  0.00     0.016 A 
ATOM     30  C   UNL A   1      38.086  29.797  27.718  1.00  0.00     0.016 A 
ATOM     31  C   UNL A   1      38.813  28.248  29.944  1.00  0.00     0.010 A 
ATOM     32  C   UNL A   1      39.281  29.120  27.704  1.00  0.00     0.010 A 
ATOM     33  C   UNL A   1      39.668  28.434  28.856  1.00  0.00    -0.014 A 
BRANCH  33  34
ATOM     34  C   UNL A   1      41.057  28.045  29.006  1.00  0.00     0.031 A 
ATOM     35  C   UNL A   1      41.480  26.853  28.253  1.00  0.00     0.074 A 
ATOM     36  C   UNL A   1      41.910  28.853  29.671  1.00  0.00     0.049 A 
ATOM     37  N   UNL A   1      41.997  25.765  28.721  1.00  0.00    -0.248 NA
ATOM     38  C   UNL A   1      41.230  26.836  26.803  1.00  0.00     0.031 C 
ATOM     39  C   UNL A   1      41.613  30.219  30.128  1.00  0.00     0.029 A 
ATOM     40  N   UNL A   1      43.245  28.714  29.932  1.00  0.00    -0.354 N 
ATOM     41  C   UNL A   1      42.365  25.039  27.594  1.00  0.00     0.074 A 
ATOM     42  C   UNL A   1      41.702  25.637  26.467  1.00  0.00     0.031 C 
ATOM     43  C   UNL A   1      42.772  30.862  30.373  1.00  0.00     0.029 A 
ATOM     44  C   UNL A   1      43.869  29.922  30.218  1.00  0.00     0.049 A 
ATOM     45  H   UNL A   1      43.714  27.849  29.919  1.00  0.00     0.167 HD
ATOM     46  C   UNL A   1      43.437  24.208  27.618  1.00  0.00     0.034 A 
ATOM     47  C   UNL A   1      45.197  30.175  30.256  1.00  0.00     0.034 A 
ATOM     48  C   UNL A   1      43.881  23.910  28.949  1.00  0.00     0.049 A 
ATOM     49  C   UNL A   1      45.923  28.898  30.420  1.00  0.00     0.074 A 
ATOM     50  C   UNL A   1      43.497  23.086  29.980  1.00  0.00     0.029 A 
ATOM     51  N   UNL A   1      44.795  24.800  29.444  1.00  0.00    -0.354 N 
ATOM     52  N   UNL A   1      45.872  28.162  31.496  1.00  0.00    -0.248 NA
ATOM     53  C   UNL A   1      46.541  28.266  29.259  1.00  0.00     0.031 C 
ATOM     54  C   UNL A   1      44.140  23.584  31.152  1.00  0.00     0.029 A 
ATOM     55  C   UNL A   1      44.878  24.716  30.808  1.00  0.00     0.049 A 
ATOM     56  H   UNL A   1      45.325  25.418  28.892  1.00  0.00     0.167 HD
ATOM     57  C   UNL A   1      46.059  26.873  31.033  1.00  0.00     0.074 A 
ATOM     58  C   UNL A   1      46.646  27.015  29.710  1.00  0.00     0.031 C 
ATOM     59  C   UNL A   1      45.400  25.818  31.590  1.00  0.00     0.034 A 
BRANCH  46  60
ATOM     60  C   UNL A   1      44.368  23.999  26.449  1.00  0.00     0.023 A 
ATOM     61  C   UNL A   1      44.422  22.705  25.890  1.00  0.00     0.012 A 
ATOM     62  C   UNL A   1      45.378  24.910  26.065  1.00  0.00     0.148 A 
ATOM     63  C   UNL A   1      45.438  22.334  25.003  1.00  0.00     0.002 A 
ATOM     64  C   UNL A   1      46.331  24.565  25.114  1.00  0.00     0.091 A 
ATOM     65  F   UNL A   1      45.522  26.069  26.718  1.00  0.00    -0.205 F 
ATOM     66  C   UNL A   1      46.382  23.269  24.599  1.00  0.00     0.022 A 
BRANCH  64  67
ATOM     67  S   UNL A   1      47.511  25.782  24.525  1.00  0.00     0.127 S 
ATOM     68  O   UNL A   1      46.651  26.933  24.272  1.00  0.00    -0.237 OA
ATOM     69  O   UNL A   1      48.412  25.921  25.671  1.00  0.00    -0.237 OA
ATOM     70  O   UNL A   1      48.130  25.158  23.360  1.00  0.00    -0.744 OA
ENDBRANCH  64  67
ENDBRANCH  46  60
BRANCH  47  71
ATOM     71  C   UNL A   1      45.899  31.458  30.028  1.00  0.00     0.023 A 
ATOM     72  C   UNL A   1      46.647  32.037  31.070  1.00  0.00     0.012 A 
ATOM     73  C   UNL A   1      46.014  32.013  28.732  1.00  0.00     0.148 A 
ATOM     74  C   UNL A   1      47.493  33.125  30.828  1.00  0.00     0.002 A 
ATOM     75  C   UNL A   1      46.838  33.110  28.501  1.00  0.00     0.091 A 
ATOM     76  F   UNL A   1      45.378  31.416  27.714  1.00  0.00    -0.205 F 
ATOM     77  C   UNL A   1      47.589  33.661  29.546  1.00  0.00     0.022 A 
BRANCH  75  78
ATOM     78  S   UNL A   1      46.993  33.865  26.878  1.00  0.00     0.127 S 
ATOM     79  O   UNL A   1      47.547  32.769  26.083  1.00  0.00    -0.237 OA
ATOM     80  O   UNL A   1      45.607  34.204  26.567  1.00  0.00    -0.237 OA
ATOM     81  O   UNL A   1      47.901  34.992  27.052  1.00  0.00    -0.744 OA
ENDBRANCH  75  78
ENDBRANCH  47  71
BRANCH  59  82
ATOM     82  C   UNL A   1      44.951  25.931  33.018  1.00  0.00     0.023 A 
ATOM     83  C   UNL A   1      45.762  25.518  34.092  1.00  0.00     0.012 A 
ATOM     84  C   UNL A   1      43.735  26.581  33.291  1.00  0.00     0.148 A 
ATOM     85  C   UNL A   1      45.358  25.734  35.412  1.00  0.00     0.002 A 
ATOM     86  C   UNL A   1      43.358  26.836  34.604  1.00  0.00     0.091 A 
ATOM     87  F   UNL A   1      42.966  26.960  32.257  1.00  0.00    -0.205 F 
ATOM     88  C   UNL A   1      44.164  26.404  35.669  1.00  0.00     0.022 A 
BRANCH  86  89
ATOM     89  S   UNL A   1      41.899  27.813  34.979  1.00  0.00     0.127 S 
ATOM     90  O   UNL A   1      40.815  26.903  34.617  1.00  0.00    -0.237 OA
ATOM     91  O   UNL A   1      42.037  28.057  36.417  1.00  0.00    -0.237 OA
ATOM     92  O   UNL A   1      42.018  29.017  34.165  1.00  0.00    -0.744 OA
ENDBRANCH  86  89
ENDBRANCH  59  82
ENDBRANCH  33  34
ENDBRANCH  26  28
ENDBRANCH  25  26
ENDBRANCH  24  25
ENDBRANCH  23  24
ENDBRANCH  22  23
ENDBRANCH   1  22
TORSDOF 22
ENDMDL
MODEL 3
REMARK VINA RESULT:      -9.5      3.632      9.443
REMARK SMILES COC1=CC2=NC(C(=O)OCCOCCOCCOC(=O)c3ccc(-c4c5nc(c(-c6cccc(S(=O)(=O)[O-])c6F)c6ccc([nH]6)c(-c6cccc(S(=O)(=O)[O-])c6F)c6nc(c(-c7cccc(S(=O)(=O)[O-])c7F)c7ccc4[nH]7)C=C6)C=C5)cc3)=C[C@@H]2C(OC)=C1
REMARK SMILES IDX 15 1 14 2 13 3 12 4 11 5 10 6 8 7 9 8 7 9 3 10 4 11 90 12
REMARK SMILES IDX 5 13 87 14 6 15 86 16 85 17 2 18 1 19 88 20 89 21 16 22
REMARK SMILES IDX 17 23 18 24 19 25 20 26 21 27 22 28 23 29 84 30 24 31 83 32
REMARK SMILES IDX 25 33 26 34 27 35 77 36 28 37 82 38 76 39 78 40 29 41 81 42
REMARK SMILES IDX 75 43 74 44 30 46 62 47 42 48 61 49 43 50 46 51 60 52 79 53
REMARK SMILES IDX 44 54 45 55 59 57 80 58 47 59 31 60 32 61 40 62 33 63 35 64
REMARK SMILES IDX 41 65 34 66 36 67 37 68 38 69 39 70 63 71 64 72 72 73 65 74
REMARK SMILES IDX 67 75 73 76 66 77 68 78 69 79 70 80 71 81 48 82 49 83 57 84
REMARK SMILES IDX 50 85 52 86 58 87 51 88 53 89 54 90 55 91 56 92
REMARK H PARENT 78 45 46 56
REMARK Flexibility Score: inf
ROOT
ATOM      1  C   UNL A   1      37.629  23.491  26.163  1.00  0.00     0.188 C 
ENDROOT
BRANCH   1   2
ATOM      2  C   UNL A   1      36.898  22.179  25.794  1.00  0.00     0.188 C 
BRANCH   2   3
ATOM      3  O   UNL A   1      35.580  21.921  26.259  1.00  0.00    -0.376 OA
BRANCH   3   4
ATOM      4  C   UNL A   1      34.560  21.594  25.326  1.00  0.00     0.202 C 
BRANCH   4   5
ATOM      5  C   UNL A   1      33.248  20.982  25.844  1.00  0.00     0.261 C 
BRANCH   5   6
ATOM      6  O   UNL A   1      32.136  21.895  25.889  1.00  0.00    -0.459 OA
BRANCH   6   7
ATOM      7  C   UNL A   1      32.146  22.792  26.910  1.00  0.00     0.356 C 
ATOM      8  O   UNL A   1      32.401  22.544  28.081  1.00  0.00    -0.244 OA
BRANCH   7   9
ATOM      9  C   UNL A   1      31.911  24.180  26.401  1.00  0.00     0.145 C 
ATOM     10  C   UNL A   1      32.472  27.961  24.196  1.00  0.00     0.124 C 
ATOM     11  C   UNL A   1      33.167  27.212  25.063  1.00  0.00     0.071 C 
ATOM     12  C   UNL A   1      31.102  27.641  23.812  1.00  0.00     0.089 C 
ATOM     13  C   UNL A   1      32.430  26.104  25.688  1.00  0.00     0.060 C 
ATOM     14  C   UNL A   1      30.342  26.781  24.528  1.00  0.00     0.112 C 
ATOM     15  N   UNL A   1      32.977  25.033  26.172  1.00  0.00    -0.245 NA
ATOM     16  C   UNL A   1      30.914  26.172  25.778  1.00  0.00     0.129 C 
ATOM     17  C   UNL A   1      30.721  24.721  26.085  1.00  0.00     0.027 C 
BRANCH  10  18
ATOM     18  O   UNL A   1      33.094  28.974  23.496  1.00  0.00    -0.497 OA
ATOM     19  C   UNL A   1      34.119  28.492  22.627  1.00  0.00     0.278 C 
ENDBRANCH  10  18
BRANCH  14  20
ATOM     20  O   UNL A   1      29.015  26.483  24.298  1.00  0.00    -0.500 OA
ATOM     21  C   UNL A   1      28.256  27.422  23.540  1.00  0.00     0.278 C 
ENDBRANCH  14  20
ENDBRANCH   7   9
ENDBRANCH   6   7
ENDBRANCH   5   6
ENDBRANCH   4   5
ENDBRANCH   3   4
ENDBRANCH   2   3
ENDBRANCH   1   2
BRANCH   1  22
ATOM     22  O   UNL A   1      39.043  23.485  26.002  1.00  0.00    -0.376 OA
BRANCH  22  23
ATOM     23  C   UNL A   1      39.736  22.424  26.653  1.00  0.00     0.202 C 
BRANCH  23  24
ATOM     24  C   UNL A   1      41.187  22.258  26.205  1.00  0.00     0.261 C 
BRANCH  24  25
ATOM     25  O   UNL A   1      42.100  23.093  26.908  1.00  0.00    -0.460 OA
BRANCH  25  26
ATOM     26  C   UNL A   1      42.352  24.294  26.350  1.00  0.00     0.338 C 
ATOM     27  O   UNL A   1      42.983  24.518  25.333  1.00  0.00    -0.246 OA
BRANCH  26  28
ATOM     28  C   UNL A   1      41.758  25.332  27.196  1.00  0.00     0.060 A 
ATOM     29  C   UNL A   1      40.947  26.286  26.574  1.00  0.00     0.016 A 
ATOM     30  C   UNL A   1      42.219  25.485  28.509  1.00  0.00     0.016 A 
ATOM     31  C   UNL A   1      40.776  27.505  27.196  1.00  0.00     0.010 A 
ATOM     32  C   UNL A   1      42.068  26.708  29.117  1.00  0.00     0.010 A 
ATOM     33  C   UNL A   1      41.431  27.727  28.409  1.00  0.00    -0.014 A 
BRANCH  33  34
ATOM     34  C   UNL A   1      41.595  29.097  28.855  1.00  0.00     0.031 A 
ATOM     35  C   UNL A   1      42.821  29.781  28.412  1.00  0.00     0.074 A 
ATOM     36  C   UNL A   1      40.581  29.717  29.495  1.00  0.00     0.049 A 
ATOM     37  N   UNL A   1      43.738  30.315  29.148  1.00  0.00    -0.248 NA
ATOM     38  C   UNL A   1      43.102  29.810  26.968  1.00  0.00     0.031 C 
ATOM     39  C   UNL A   1      39.214  29.195  29.641  1.00  0.00     0.029 A 
ATOM     40  N   UNL A   1      40.489  30.987  29.995  1.00  0.00    -0.354 N 
ATOM     41  C   UNL A   1      44.575  30.964  28.249  1.00  0.00     0.074 A 
ATOM     42  C   UNL A   1      44.262  30.464  26.937  1.00  0.00     0.031 C 
ATOM     43  C   UNL A   1      38.386  30.211  29.954  1.00  0.00     0.029 A 
ATOM     44  C   UNL A   1      39.176  31.412  30.157  1.00  0.00     0.049 A 
ATOM     45  H   UNL A   1      41.272  31.541  30.217  1.00  0.00     0.167 HD
ATOM     46  C   UNL A   1      45.235  32.097  28.600  1.00  0.00     0.034 A 
ATOM     47  C   UNL A   1      38.738  32.674  30.368  1.00  0.00     0.034 A 
ATOM     48  C   UNL A   1      45.253  32.312  30.018  1.00  0.00     0.049 A 
ATOM     49  C   UNL A   1      39.860  33.491  30.880  1.00  0.00     0.074 A 
ATOM     50  C   UNL A   1      45.948  31.834  31.103  1.00  0.00     0.029 A 
ATOM     51  N   UNL A   1      44.178  33.016  30.488  1.00  0.00    -0.354 N 
ATOM     52  N   UNL A   1      40.415  33.318  32.047  1.00  0.00    -0.248 NA
ATOM     53  C   UNL A   1      40.577  34.379  29.971  1.00  0.00     0.031 C 
ATOM     54  C   UNL A   1      45.186  32.188  32.255  1.00  0.00     0.029 A 
ATOM     55  C   UNL A   1      44.032  32.850  31.840  1.00  0.00     0.049 A 
ATOM     56  H   UNL A   1      43.588  33.570  29.929  1.00  0.00     0.167 HD
ATOM     57  C   UNL A   1      41.723  33.727  31.863  1.00  0.00     0.074 A 
ATOM     58  C   UNL A   1      41.713  34.533  30.653  1.00  0.00     0.031 C 
ATOM     59  C   UNL A   1      42.757  33.094  32.485  1.00  0.00     0.034 A 
BRANCH  46  60
ATOM     60  C   UNL A   1      45.496  33.247  27.660  1.00  0.00     0.023 A 
ATOM     61  C   UNL A   1      44.423  33.682  26.856  1.00  0.00     0.012 A 
ATOM     62  C   UNL A   1      46.785  33.721  27.325  1.00  0.00     0.148 A 
ATOM     63  C   UNL A   1      44.623  34.536  25.767  1.00  0.00     0.002 A 
ATOM     64  C   UNL A   1      46.966  34.642  26.299  1.00  0.00     0.091 A 
ATOM     65  F   UNL A   1      47.870  33.182  27.894  1.00  0.00    -0.205 F 
ATOM     66  C   UNL A   1      45.893  35.033  25.499  1.00  0.00     0.022 A 
BRANCH  64  67
ATOM     67  S   UNL A   1      48.586  35.349  25.988  1.00  0.00     0.127 S 
ATOM     68  O   UNL A   1      48.240  36.620  25.360  1.00  0.00    -0.237 OA
ATOM     69  O   UNL A   1      49.144  35.456  27.337  1.00  0.00    -0.237 OA
ATOM     70  O   UNL A   1      49.260  34.366  25.146  1.00  0.00    -0.744 OA
ENDBRANCH  64  67
ENDBRANCH  46  60
BRANCH  47  71
ATOM     71  C   UNL A   1      37.424  33.263  30.032  1.00  0.00     0.023 A 
ATOM     72  C   UNL A   1      36.960  33.221  28.704  1.00  0.00     0.012 A 
ATOM     73  C   UNL A   1      36.526  33.682  31.042  1.00  0.00     0.148 A 
ATOM     74  C   UNL A   1      35.641  33.569  28.392  1.00  0.00     0.002 A 
ATOM     75  C   UNL A   1      35.223  34.051  30.723  1.00  0.00     0.091 A 
ATOM     76  F   UNL A   1      36.926  33.642  32.320  1.00  0.00    -0.205 F 
ATOM     77  C   UNL A   1      34.773  33.983  29.399  1.00  0.00     0.022 A 
BRANCH  75  78
ATOM     78  S   UNL A   1      34.056  34.616  31.968  1.00  0.00     0.127 S 
ATOM     79  O   UNL A   1      34.818  35.665  32.647  1.00  0.00    -0.237 OA
ATOM     80  O   UNL A   1      32.949  35.100  31.149  1.00  0.00    -0.237 OA
ATOM     81  O   UNL A   1      33.774  33.453  32.801  1.00  0.00    -0.744 OA
ENDBRANCH  75  78
ENDBRANCH  47  71
BRANCH  59  82
ATOM     82  C   UNL A   1      42.482  32.376  33.774  1.00  0.00     0.023 A 
ATOM     83  C   UNL A   1      42.374  33.056  35.001  1.00  0.00     0.012 A 
ATOM     84  C   UNL A   1      42.205  30.998  33.730  1.00  0.00     0.148 A 
ATOM     85  C   UNL A   1      42.013  32.372  36.164  1.00  0.00     0.002 A 
ATOM     86  C   UNL A   1      41.801  30.330  34.880  1.00  0.00     0.091 A 
ATOM     87  F   UNL A   1      42.324  30.359  32.555  1.00  0.00    -0.205 F 
ATOM     88  C   UNL A   1      41.714  31.012  36.102  1.00  0.00     0.022 A 
BRANCH  86  89
ATOM     89  S   UNL A   1      41.277  28.614  34.821  1.00  0.00     0.127 S 
ATOM     90  O   UNL A   1      40.908  28.354  36.210  1.00  0.00    -0.237 OA
ATOM     91  O   UNL A   1      40.149  28.655  33.887  1.00  0.00    -0.237 OA
ATOM     92  O   UNL A   1      42.428  27.873  34.318  1.00  0.00    -0.744 OA
ENDBRANCH  86  89
ENDBRANCH  59  82
ENDBRANCH  33  34
ENDBRANCH  26  28
ENDBRANCH  25  26
ENDBRANCH  24  25
ENDBRANCH  23  24
ENDBRANCH  22  23
ENDBRANCH   1  22
TORSDOF 22
ENDMDL
