MODEL 1
REMARK VINA RESULT:     -11.2      0.000      0.000
REMARK SMILES Cc1ccc(S(=O)(=O)Nc2ccccc2/C=C/C(=O)OCCOCCOCCOC(=O)c2ccc(-c3c4nc(c(-c5cccc(S(=O)(=O)[O-])c5F)c5ccc([nH]5)c(-c5cccc(S(=O)(=O)[O-])c5F)c5nc(c(-c6cccc(S(=O)(=O)[O-])c6F)c6ccc3[nH]6)C=C5)C=C4)cc2)cc1
REMARK SMILES IDX 24 1 23 2 22 3 21 4 20 5 18 6 19 7 17 8 16 9 15 10 10 11
REMARK SMILES IDX 11 12 12 13 14 14 13 15 9 16 6 18 7 19 8 20 5 21 1 22 2 23
REMARK SMILES IDX 3 24 96 25 4 26 95 27 25 28 26 29 27 30 28 31 29 32 30 33
REMARK SMILES IDX 31 34 32 35 33 36 94 37 34 38 93 39 35 40 36 41 37 42 87 43
REMARK SMILES IDX 38 44 92 45 86 46 88 47 39 48 91 49 85 50 84 51 40 53 72 54
REMARK SMILES IDX 52 55 71 56 53 57 56 58 70 59 89 60 54 61 55 62 69 64 90 65
REMARK SMILES IDX 57 66 41 67 42 68 50 69 43 70 45 71 51 72 44 73 46 74 47 75
REMARK SMILES IDX 48 76 49 77 73 78 74 79 82 80 75 81 77 82 83 83 76 84 78 85
REMARK SMILES IDX 79 86 80 87 81 88 58 89 59 90 67 91 60 92 62 93 68 94 61 95
REMARK SMILES IDX 63 96 64 97 65 98 66 99
REMARK H PARENT 9 17 88 52 56 63
REMARK Flexibility Score: inf
ROOT
ATOM      1  C   UNL A   1      44.139  23.071  26.011  1.00  0.00     0.188 C 
ENDROOT
BRANCH   1   2
ATOM      2  O   UNL A   1      43.138  22.377  26.724  1.00  0.00    -0.376 OA
BRANCH   2   3
ATOM      3  C   UNL A   1      41.993  22.063  25.947  1.00  0.00     0.202 C 
BRANCH   3   4
ATOM      4  C   UNL A   1      40.803  21.259  26.607  1.00  0.00     0.261 C 
BRANCH   4   5
ATOM      5  O   UNL A   1      39.304  21.021  26.166  1.00  0.00    -0.460 OA
BRANCH   5   6
ATOM      6  C   UNL A   1      38.238  21.773  25.630  1.00  0.00     0.330 C 
ATOM      7  O   UNL A   1      38.172  22.994  25.649  1.00  0.00    -0.247 OA
BRANCH   6   8
ATOM      8  C   UNL A   1      37.108  21.133  24.914  1.00  0.00     0.094 C 
ATOM      9  C   UNL A   1      35.863  21.027  25.438  1.00  0.00     0.018 C 
BRANCH   9  10
ATOM     10  C   UNL A   1      34.642  20.360  24.908  1.00  0.00    -0.001 A 
ATOM     11  C   UNL A   1      33.450  21.004  24.524  1.00  0.00     0.056 A 
ATOM     12  C   UNL A   1      32.354  20.247  24.069  1.00  0.00     0.027 A 
ATOM     13  C   UNL A   1      32.475  18.888  23.796  1.00  0.00     0.002 A 
ATOM     14  C   UNL A   1      34.742  18.973  24.619  1.00  0.00     0.010 A 
ATOM     15  C   UNL A   1      33.686  18.256  24.035  1.00  0.00     0.001 A 
BRANCH  11  16
ATOM     16  N   UNL A   1      33.361  22.421  24.379  1.00  0.00    -0.279 N 
ATOM     17  H   UNL A   1      33.097  22.964  25.156  1.00  0.00     0.180 HD
BRANCH  16  18
ATOM     18  S   UNL A   1      33.692  23.188  22.920  1.00  0.00     0.261 S 
ATOM     19  O   UNL A   1      32.906  22.513  21.916  1.00  0.00    -0.201 OA
ATOM     20  O   UNL A   1      35.134  23.292  22.746  1.00  0.00    -0.201 OA
BRANCH  18  21
ATOM     21  C   UNL A   1      33.096  24.872  23.013  1.00  0.00     0.087 A 
ATOM     22  C   UNL A   1      31.628  28.908  23.454  1.00  0.00     0.044 C 
ATOM     23  C   UNL A   1      32.105  27.488  23.366  1.00  0.00    -0.051 A 
ATOM     24  C   UNL A   1      33.280  27.076  24.007  1.00  0.00     0.005 A 
ATOM     25  C   UNL A   1      31.424  26.574  22.559  1.00  0.00     0.005 A 
ATOM     26  C   UNL A   1      33.788  25.784  23.815  1.00  0.00     0.022 A 
ATOM     27  C   UNL A   1      31.896  25.267  22.418  1.00  0.00     0.022 A 
ENDBRANCH  18  21
ENDBRANCH  16  18
ENDBRANCH  11  16
ENDBRANCH   9  10
ENDBRANCH   6   8
ENDBRANCH   5   6
ENDBRANCH   4   5
ENDBRANCH   3   4
ENDBRANCH   2   3
ENDBRANCH   1   2
BRANCH   1  28
ATOM     28  C   UNL A   1      45.354  23.525  26.843  1.00  0.00     0.188 C 
BRANCH  28  29
ATOM     29  O   UNL A   1      45.763  24.847  26.518  1.00  0.00    -0.376 OA
BRANCH  29  30
ATOM     30  C   UNL A   1      44.859  25.742  25.880  1.00  0.00     0.202 C 
BRANCH  30  31
ATOM     31  C   UNL A   1      43.933  26.637  26.715  1.00  0.00     0.261 C 
BRANCH  31  32
ATOM     32  O   UNL A   1      42.928  27.176  25.841  1.00  0.00    -0.460 OA
BRANCH  32  33
ATOM     33  C   UNL A   1      41.814  26.415  25.780  1.00  0.00     0.338 C 
ATOM     34  O   UNL A   1      41.657  25.485  25.007  1.00  0.00    -0.246 OA
BRANCH  33  35
ATOM     35  C   UNL A   1      40.746  27.078  26.579  1.00  0.00     0.060 A 
ATOM     36  C   UNL A   1      40.690  28.447  26.535  1.00  0.00     0.016 A 
ATOM     37  C   UNL A   1      39.952  26.425  27.529  1.00  0.00     0.016 A 
ATOM     38  C   UNL A   1      39.974  29.131  27.519  1.00  0.00     0.010 A 
ATOM     39  C   UNL A   1      39.348  27.144  28.585  1.00  0.00     0.010 A 
ATOM     40  C   UNL A   1      39.461  28.535  28.679  1.00  0.00    -0.014 A 
BRANCH  40  41
ATOM     41  C   UNL A   1      39.117  29.212  30.030  1.00  0.00     0.031 A 
ATOM     42  C   UNL A   1      38.601  30.590  29.869  1.00  0.00     0.074 A 
ATOM     43  C   UNL A   1      39.247  28.835  31.373  1.00  0.00     0.049 A 
ATOM     44  N   UNL A   1      38.756  31.537  30.737  1.00  0.00    -0.248 NA
ATOM     45  C   UNL A   1      38.018  31.044  28.607  1.00  0.00     0.031 C 
ATOM     46  C   UNL A   1      38.458  29.302  32.516  1.00  0.00     0.029 A 
ATOM     47  N   UNL A   1      40.166  28.024  32.076  1.00  0.00    -0.354 N 
ATOM     48  C   UNL A   1      37.878  32.514  30.341  1.00  0.00     0.074 A 
ATOM     49  C   UNL A   1      37.739  32.307  28.924  1.00  0.00     0.031 C 
ATOM     50  C   UNL A   1      39.013  28.912  33.686  1.00  0.00     0.029 A 
ATOM     51  C   UNL A   1      40.294  28.269  33.446  1.00  0.00     0.049 A 
ATOM     52  H   UNL A   1      40.687  27.322  31.625  1.00  0.00     0.167 HD
ATOM     53  C   UNL A   1      37.081  33.105  31.280  1.00  0.00     0.034 A 
ATOM     54  C   UNL A   1      41.500  28.307  34.137  1.00  0.00     0.034 A 
ATOM     55  C   UNL A   1      37.490  32.759  32.668  1.00  0.00     0.049 A 
ATOM     56  C   UNL A   1      41.615  29.627  34.873  1.00  0.00     0.074 A 
ATOM     57  C   UNL A   1      36.891  32.071  33.717  1.00  0.00     0.029 A 
ATOM     58  N   UNL A   1      38.808  32.953  33.079  1.00  0.00    -0.354 N 
ATOM     59  N   UNL A   1      40.609  30.433  35.038  1.00  0.00    -0.248 NA
ATOM     60  C   UNL A   1      42.875  30.228  35.314  1.00  0.00     0.031 C 
ATOM     61  C   UNL A   1      37.831  31.931  34.780  1.00  0.00     0.029 A 
ATOM     62  C   UNL A   1      39.009  32.535  34.390  1.00  0.00     0.049 A 
ATOM     63  H   UNL A   1      39.512  33.340  32.509  1.00  0.00     0.167 HD
ATOM     64  C   UNL A   1      41.093  31.698  35.219  1.00  0.00     0.074 A 
ATOM     65  C   UNL A   1      42.511  31.510  35.473  1.00  0.00     0.031 C 
ATOM     66  C   UNL A   1      40.299  32.794  35.029  1.00  0.00     0.034 A 
BRANCH  53  67
ATOM     67  C   UNL A   1      35.694  33.671  30.934  1.00  0.00     0.023 A 
ATOM     68  C   UNL A   1      35.033  33.134  29.809  1.00  0.00     0.012 A 
ATOM     69  C   UNL A   1      35.014  34.743  31.566  1.00  0.00     0.148 A 
ATOM     70  C   UNL A   1      33.869  33.696  29.269  1.00  0.00     0.002 A 
ATOM     71  C   UNL A   1      33.886  35.346  31.001  1.00  0.00     0.091 A 
ATOM     72  F   UNL A   1      35.367  35.142  32.787  1.00  0.00    -0.205 F 
ATOM     73  C   UNL A   1      33.315  34.829  29.842  1.00  0.00     0.022 A 
BRANCH  71  74
ATOM     74  S   UNL A   1      33.154  36.842  31.697  1.00  0.00     0.127 S 
ATOM     75  O   UNL A   1      31.944  36.327  32.342  1.00  0.00    -0.237 OA
ATOM     76  O   UNL A   1      34.190  37.296  32.621  1.00  0.00    -0.237 OA
ATOM     77  O   UNL A   1      32.886  37.723  30.565  1.00  0.00    -0.744 OA
ENDBRANCH  71  74
ENDBRANCH  53  67
BRANCH  54  78
ATOM     78  C   UNL A   1      42.761  27.540  33.668  1.00  0.00     0.023 A 
ATOM     79  C   UNL A   1      43.033  26.272  34.222  1.00  0.00     0.012 A 
ATOM     80  C   UNL A   1      43.604  27.928  32.588  1.00  0.00     0.148 A 
ATOM     81  C   UNL A   1      43.987  25.396  33.660  1.00  0.00     0.002 A 
ATOM     82  C   UNL A   1      44.441  27.001  31.943  1.00  0.00     0.091 A 
ATOM     83  F   UNL A   1      43.551  29.185  32.132  1.00  0.00    -0.205 F 
ATOM     84  C   UNL A   1      44.646  25.735  32.484  1.00  0.00     0.022 A 
BRANCH  82  85
ATOM     85  S   UNL A   1      45.081  27.272  30.266  1.00  0.00     0.127 S 
ATOM     86  O   UNL A   1      43.988  27.990  29.616  1.00  0.00    -0.237 OA
ATOM     87  O   UNL A   1      46.273  28.078  30.521  1.00  0.00    -0.237 OA
ATOM     88  O   UNL A   1      45.352  25.945  29.730  1.00  0.00    -0.744 OA
ENDBRANCH  82  85
ENDBRANCH  54  78
BRANCH  66  89
ATOM     89  C   UNL A   1      40.674  34.217  35.390  1.00  0.00     0.023 A 
ATOM     90  C   UNL A   1      39.954  34.968  36.338  1.00  0.00     0.012 A 
ATOM     91  C   UNL A   1      41.683  34.913  34.674  1.00  0.00     0.148 A 
ATOM     92  C   UNL A   1      40.286  36.292  36.643  1.00  0.00     0.002 A 
ATOM     93  C   UNL A   1      41.996  36.235  34.958  1.00  0.00     0.091 A 
ATOM     94  F   UNL A   1      42.308  34.328  33.651  1.00  0.00    -0.205 F 
ATOM     95  C   UNL A   1      41.315  36.923  35.962  1.00  0.00     0.022 A 
BRANCH  93  96
ATOM     96  S   UNL A   1      43.235  37.136  34.019  1.00  0.00     0.127 S 
ATOM     97  O   UNL A   1      43.035  36.589  32.677  1.00  0.00    -0.237 OA
ATOM     98  O   UNL A   1      42.790  38.519  34.189  1.00  0.00    -0.237 OA
ATOM     99  O   UNL A   1      44.520  36.833  34.632  1.00  0.00    -0.744 OA
ENDBRANCH  93  96
ENDBRANCH  66  89
ENDBRANCH  40  41
ENDBRANCH  33  35
ENDBRANCH  32  33
ENDBRANCH  31  32
ENDBRANCH  30  31
ENDBRANCH  29  30
ENDBRANCH  28  29
ENDBRANCH   1  28
TORSDOF 24
ENDMDL
MODEL 2
REMARK VINA RESULT:     -11.1      2.145      2.423
REMARK SMILES Cc1ccc(S(=O)(=O)Nc2ccccc2/C=C/C(=O)OCCOCCOCCOC(=O)c2ccc(-c3c4nc(c(-c5cccc(S(=O)(=O)[O-])c5F)c5ccc([nH]5)c(-c5cccc(S(=O)(=O)[O-])c5F)c5nc(c(-c6cccc(S(=O)(=O)[O-])c6F)c6ccc3[nH]6)C=C5)C=C4)cc2)cc1
REMARK SMILES IDX 24 1 23 2 22 3 21 4 20 5 18 6 19 7 17 8 16 9 15 10 10 11
REMARK SMILES IDX 11 12 12 13 14 14 13 15 9 16 6 18 7 19 8 20 5 21 1 22 2 23
REMARK SMILES IDX 3 24 96 25 4 26 95 27 25 28 26 29 27 30 28 31 29 32 30 33
REMARK SMILES IDX 31 34 32 35 33 36 94 37 34 38 93 39 35 40 36 41 37 42 87 43
REMARK SMILES IDX 38 44 92 45 86 46 88 47 39 48 91 49 85 50 84 51 40 53 72 54
REMARK SMILES IDX 52 55 71 56 53 57 56 58 70 59 89 60 54 61 55 62 69 64 90 65
REMARK SMILES IDX 57 66 41 67 42 68 50 69 43 70 45 71 51 72 44 73 46 74 47 75
REMARK SMILES IDX 48 76 49 77 73 78 74 79 82 80 75 81 77 82 83 83 76 84 78 85
REMARK SMILES IDX 79 86 80 87 81 88 58 89 59 90 67 91 60 92 62 93 68 94 61 95
REMARK SMILES IDX 63 96 64 97 65 98 66 99
REMARK H PARENT 9 17 88 52 56 63
REMARK Flexibility Score: inf
ROOT
ATOM      1  C   UNL A   1      44.354  23.008  25.900  1.00  0.00     0.188 C 
ENDROOT
BRANCH   1   2
ATOM      2  O   UNL A   1      43.538  22.002  26.460  1.00  0.00    -0.376 OA
BRANCH   2   3
ATOM      3  C   UNL A   1      42.330  21.780  25.750  1.00  0.00     0.202 C 
BRANCH   3   4
ATOM      4  C   UNL A   1      41.210  20.867  26.389  1.00  0.00     0.261 C 
BRANCH   4   5
ATOM      5  O   UNL A   1      39.639  21.016  26.481  1.00  0.00    -0.460 OA
BRANCH   5   6
ATOM      6  C   UNL A   1      38.626  21.810  25.904  1.00  0.00     0.330 C 
ATOM      7  O   UNL A   1      38.631  23.032  25.884  1.00  0.00    -0.247 OA
BRANCH   6   8
ATOM      8  C   UNL A   1      37.472  21.213  25.191  1.00  0.00     0.094 C 
ATOM      9  C   UNL A   1      36.184  21.427  25.554  1.00  0.00     0.018 C 
BRANCH   9  10
ATOM     10  C   UNL A   1      34.918  20.861  25.014  1.00  0.00    -0.001 A 
ATOM     11  C   UNL A   1      33.830  21.601  24.511  1.00  0.00     0.056 A 
ATOM     12  C   UNL A   1      32.673  20.938  24.060  1.00  0.00     0.027 A 
ATOM     13  C   UNL A   1      32.643  19.555  23.909  1.00  0.00     0.002 A 
ATOM     14  C   UNL A   1      34.863  19.452  24.847  1.00  0.00     0.010 A 
ATOM     15  C   UNL A   1      33.758  18.812  24.266  1.00  0.00     0.001 A 
BRANCH  11  16
ATOM     16  N   UNL A   1      33.918  23.001  24.245  1.00  0.00    -0.279 N 
ATOM     17  H   UNL A   1      34.213  23.299  23.355  1.00  0.00     0.180 HD
BRANCH  16  18
ATOM     18  S   UNL A   1      33.532  24.153  25.407  1.00  0.00     0.261 S 
ATOM     19  O   UNL A   1      34.568  25.154  25.349  1.00  0.00    -0.201 OA
ATOM     20  O   UNL A   1      33.252  23.487  26.672  1.00  0.00    -0.201 OA
BRANCH  18  21
ATOM     21  C   UNL A   1      32.001  24.949  24.934  1.00  0.00     0.087 A 
ATOM     22  C   UNL A   1      28.200  26.717  23.906  1.00  0.00     0.044 C 
ATOM     23  C   UNL A   1      29.484  26.039  24.279  1.00  0.00    -0.051 A 
ATOM     24  C   UNL A   1      29.912  25.975  25.611  1.00  0.00     0.005 A 
ATOM     25  C   UNL A   1      30.322  25.538  23.280  1.00  0.00     0.005 A 
ATOM     26  C   UNL A   1      31.172  25.456  25.938  1.00  0.00     0.022 A 
ATOM     27  C   UNL A   1      31.551  24.963  23.612  1.00  0.00     0.022 A 
ENDBRANCH  18  21
ENDBRANCH  16  18
ENDBRANCH  11  16
ENDBRANCH   9  10
ENDBRANCH   6   8
ENDBRANCH   5   6
ENDBRANCH   4   5
ENDBRANCH   3   4
ENDBRANCH   2   3
ENDBRANCH   1   2
BRANCH   1  28
ATOM     28  C   UNL A   1      45.537  23.469  26.774  1.00  0.00     0.188 C 
BRANCH  28  29
ATOM     29  O   UNL A   1      45.854  24.839  26.568  1.00  0.00    -0.376 OA
BRANCH  29  30
ATOM     30  C   UNL A   1      44.925  25.704  25.926  1.00  0.00     0.202 C 
BRANCH  30  31
ATOM     31  C   UNL A   1      43.984  26.586  26.756  1.00  0.00     0.261 C 
BRANCH  31  32
ATOM     32  O   UNL A   1      43.009  27.157  25.867  1.00  0.00    -0.460 OA
BRANCH  32  33
ATOM     33  C   UNL A   1      41.873  26.432  25.790  1.00  0.00     0.338 C 
ATOM     34  O   UNL A   1      41.705  25.493  25.030  1.00  0.00    -0.246 OA
BRANCH  33  35
ATOM     35  C   UNL A   1      40.806  27.144  26.547  1.00  0.00     0.060 A 
ATOM     36  C   UNL A   1      40.873  28.513  26.585  1.00  0.00     0.016 A 
ATOM     37  C   UNL A   1      39.885  26.516  27.393  1.00  0.00     0.016 A 
ATOM     38  C   UNL A   1      40.143  29.204  27.554  1.00  0.00     0.010 A 
ATOM     39  C   UNL A   1      39.264  27.227  28.444  1.00  0.00     0.010 A 
ATOM     40  C   UNL A   1      39.490  28.594  28.633  1.00  0.00    -0.014 A 
BRANCH  40  41
ATOM     41  C   UNL A   1      39.100  29.223  29.994  1.00  0.00     0.031 A 
ATOM     42  C   UNL A   1      38.605  30.613  29.867  1.00  0.00     0.074 A 
ATOM     43  C   UNL A   1      39.172  28.794  31.325  1.00  0.00     0.049 A 
ATOM     44  N   UNL A   1      38.735  31.525  30.775  1.00  0.00    -0.248 NA
ATOM     45  C   UNL A   1      38.078  31.121  28.601  1.00  0.00     0.031 C 
ATOM     46  C   UNL A   1      38.343  29.227  32.454  1.00  0.00     0.029 A 
ATOM     47  N   UNL A   1      40.053  27.945  32.033  1.00  0.00    -0.354 N 
ATOM     48  C   UNL A   1      37.884  32.527  30.383  1.00  0.00     0.074 A 
ATOM     49  C   UNL A   1      37.800  32.375  28.955  1.00  0.00     0.031 C 
ATOM     50  C   UNL A   1      38.847  28.786  33.630  1.00  0.00     0.029 A 
ATOM     51  C   UNL A   1      40.130  28.137  33.415  1.00  0.00     0.049 A 
ATOM     52  H   UNL A   1      40.585  27.255  31.576  1.00  0.00     0.167 HD
ATOM     53  C   UNL A   1      37.058  33.091  31.312  1.00  0.00     0.034 A 
ATOM     54  C   UNL A   1      41.308  28.134  34.154  1.00  0.00     0.034 A 
ATOM     55  C   UNL A   1      37.408  32.687  32.701  1.00  0.00     0.049 A 
ATOM     56  C   UNL A   1      41.407  29.423  34.944  1.00  0.00     0.074 A 
ATOM     57  C   UNL A   1      36.760  31.967  33.698  1.00  0.00     0.029 A 
ATOM     58  N   UNL A   1      38.710  32.849  33.170  1.00  0.00    -0.354 N 
ATOM     59  N   UNL A   1      40.404  30.235  35.100  1.00  0.00    -0.248 NA
ATOM     60  C   UNL A   1      42.655  29.992  35.457  1.00  0.00     0.031 C 
ATOM     61  C   UNL A   1      37.655  31.776  34.791  1.00  0.00     0.029 A 
ATOM     62  C   UNL A   1      38.854  32.380  34.471  1.00  0.00     0.049 A 
ATOM     63  H   UNL A   1      39.440  33.249  32.644  1.00  0.00     0.167 HD
ATOM     64  C   UNL A   1      40.895  31.486  35.348  1.00  0.00     0.074 A 
ATOM     65  C   UNL A   1      42.299  31.271  35.651  1.00  0.00     0.031 C 
ATOM     66  C   UNL A   1      40.121  32.598  35.170  1.00  0.00     0.034 A 
BRANCH  53  67
ATOM     67  C   UNL A   1      35.692  33.687  30.934  1.00  0.00     0.023 A 
ATOM     68  C   UNL A   1      35.076  33.210  29.758  1.00  0.00     0.012 A 
ATOM     69  C   UNL A   1      34.994  34.734  31.586  1.00  0.00     0.148 A 
ATOM     70  C   UNL A   1      33.941  33.808  29.194  1.00  0.00     0.002 A 
ATOM     71  C   UNL A   1      33.896  35.374  31.002  1.00  0.00     0.091 A 
ATOM     72  F   UNL A   1      35.296  35.072  32.839  1.00  0.00    -0.205 F 
ATOM     73  C   UNL A   1      33.372  34.919  29.796  1.00  0.00     0.022 A 
BRANCH  71  74
ATOM     74  S   UNL A   1      33.146  36.843  31.736  1.00  0.00     0.127 S 
ATOM     75  O   UNL A   1      34.187  37.295  32.664  1.00  0.00    -0.237 OA
ATOM     76  O   UNL A   1      32.950  37.708  30.575  1.00  0.00    -0.237 OA
ATOM     77  O   UNL A   1      31.928  36.387  32.398  1.00  0.00    -0.744 OA
ENDBRANCH  71  74
ENDBRANCH  53  67
BRANCH  54  78
ATOM     78  C   UNL A   1      42.578  27.370  33.706  1.00  0.00     0.023 A 
ATOM     79  C   UNL A   1      43.450  27.983  32.782  1.00  0.00     0.012 A 
ATOM     80  C   UNL A   1      43.046  26.150  34.270  1.00  0.00     0.148 A 
ATOM     81  C   UNL A   1      44.750  27.489  32.535  1.00  0.00     0.002 A 
ATOM     82  C   UNL A   1      44.386  25.748  34.138  1.00  0.00     0.091 A 
ATOM     83  F   UNL A   1      42.210  25.401  35.000  1.00  0.00    -0.205 F 
ATOM     84  C   UNL A   1      45.241  26.409  33.260  1.00  0.00     0.022 A 
BRANCH  82  85
ATOM     85  S   UNL A   1      45.159  24.555  35.267  1.00  0.00     0.127 S 
ATOM     86  O   UNL A   1      44.705  25.010  36.578  1.00  0.00    -0.237 OA
ATOM     87  O   UNL A   1      44.572  23.292  34.823  1.00  0.00    -0.237 OA
ATOM     88  O   UNL A   1      46.593  24.668  35.036  1.00  0.00    -0.744 OA
ENDBRANCH  82  85
ENDBRANCH  54  78
BRANCH  66  89
ATOM     89  C   UNL A   1      40.496  34.002  35.600  1.00  0.00     0.023 A 
ATOM     90  C   UNL A   1      41.194  34.887  34.759  1.00  0.00     0.012 A 
ATOM     91  C   UNL A   1      40.290  34.437  36.936  1.00  0.00     0.148 A 
ATOM     92  C   UNL A   1      41.566  36.170  35.175  1.00  0.00     0.002 A 
ATOM     93  C   UNL A   1      40.680  35.700  37.358  1.00  0.00     0.091 A 
ATOM     94  F   UNL A   1      39.778  33.605  37.845  1.00  0.00    -0.205 F 
ATOM     95  C   UNL A   1      41.298  36.582  36.471  1.00  0.00     0.022 A 
BRANCH  93  96
ATOM     96  S   UNL A   1      40.471  36.236  39.059  1.00  0.00     0.127 S 
ATOM     97  O   UNL A   1      40.893  37.635  38.977  1.00  0.00    -0.237 OA
ATOM     98  O   UNL A   1      39.035  36.041  39.259  1.00  0.00    -0.237 OA
ATOM     99  O   UNL A   1      41.318  35.376  39.872  1.00  0.00    -0.744 OA
ENDBRANCH  93  96
ENDBRANCH  66  89
ENDBRANCH  40  41
ENDBRANCH  33  35
ENDBRANCH  32  33
ENDBRANCH  31  32
ENDBRANCH  30  31
ENDBRANCH  29  30
ENDBRANCH  28  29
ENDBRANCH   1  28
TORSDOF 24
ENDMDL
MODEL 3
REMARK VINA RESULT:     -10.6      5.837     11.579
REMARK SMILES Cc1ccc(S(=O)(=O)Nc2ccccc2/C=C/C(=O)OCCOCCOCCOC(=O)c2ccc(-c3c4nc(c(-c5cccc(S(=O)(=O)[O-])c5F)c5ccc([nH]5)c(-c5cccc(S(=O)(=O)[O-])c5F)c5nc(c(-c6cccc(S(=O)(=O)[O-])c6F)c6ccc3[nH]6)C=C5)C=C4)cc2)cc1
REMARK SMILES IDX 24 1 23 2 22 3 21 4 20 5 18 6 19 7 17 8 16 9 15 10 10 11
REMARK SMILES IDX 11 12 12 13 14 14 13 15 9 16 6 18 7 19 8 20 5 21 1 22 2 23
REMARK SMILES IDX 3 24 96 25 4 26 95 27 25 28 26 29 27 30 28 31 29 32 30 33
REMARK SMILES IDX 31 34 32 35 33 36 94 37 34 38 93 39 35 40 36 41 37 42 87 43
REMARK SMILES IDX 38 44 92 45 86 46 88 47 39 48 91 49 85 50 84 51 40 53 72 54
REMARK SMILES IDX 52 55 71 56 53 57 56 58 70 59 89 60 54 61 55 62 69 64 90 65
REMARK SMILES IDX 57 66 41 67 42 68 50 69 43 70 45 71 51 72 44 73 46 74 47 75
REMARK SMILES IDX 48 76 49 77 73 78 74 79 82 80 75 81 77 82 83 83 76 84 78 85
REMARK SMILES IDX 79 86 80 87 81 88 58 89 59 90 67 91 60 92 62 93 68 94 61 95
REMARK SMILES IDX 63 96 64 97 65 98 66 99
REMARK H PARENT 9 17 88 52 56 63
REMARK Flexibility Score: inf
ROOT
ATOM      1  C   UNL A   1      34.518  35.194  33.620  1.00  0.00     0.188 C 
ENDROOT
BRANCH   1   2
ATOM      2  O   UNL A   1      34.954  35.712  32.382  1.00  0.00    -0.376 OA
BRANCH   2   3
ATOM      3  C   UNL A   1      34.514  34.965  31.259  1.00  0.00     0.202 C 
BRANCH   3   4
ATOM      4  C   UNL A   1      33.336  35.526  30.366  1.00  0.00     0.261 C 
BRANCH   4   5
ATOM      5  O   UNL A   1      32.654  34.990  29.045  1.00  0.00    -0.460 OA
BRANCH   5   6
ATOM      6  C   UNL A   1      32.865  33.967  28.097  1.00  0.00     0.330 C 
ATOM      7  O   UNL A   1      32.045  33.617  27.261  1.00  0.00    -0.247 OA
BRANCH   6   8
ATOM      8  C   UNL A   1      34.162  33.258  27.985  1.00  0.00     0.094 C 
ATOM      9  C   UNL A   1      34.350  31.985  28.409  1.00  0.00     0.018 C 
BRANCH   9  10
ATOM     10  C   UNL A   1      35.580  31.148  28.448  1.00  0.00    -0.001 A 
ATOM     11  C   UNL A   1      35.844  30.029  27.634  1.00  0.00     0.056 A 
ATOM     12  C   UNL A   1      37.039  29.303  27.799  1.00  0.00     0.027 A 
ATOM     13  C   UNL A   1      38.067  29.773  28.610  1.00  0.00     0.002 A 
ATOM     14  C   UNL A   1      36.646  31.609  29.266  1.00  0.00     0.010 A 
ATOM     15  C   UNL A   1      37.885  30.953  29.316  1.00  0.00     0.001 A 
BRANCH  11  16
ATOM     16  N   UNL A   1      35.043  29.705  26.499  1.00  0.00    -0.279 N 
ATOM     17  H   UNL A   1      35.198  30.184  25.653  1.00  0.00     0.180 HD
BRANCH  16  18
ATOM     18  S   UNL A   1      33.843  28.529  26.564  1.00  0.00     0.261 S 
ATOM     19  O   UNL A   1      33.110  28.761  27.785  1.00  0.00    -0.201 OA
ATOM     20  O   UNL A   1      34.436  27.220  26.326  1.00  0.00    -0.201 OA
BRANCH  18  21
ATOM     21  C   UNL A   1      32.708  28.797  25.207  1.00  0.00     0.087 A 
ATOM     22  C   UNL A   1      30.105  29.600  21.859  1.00  0.00     0.044 C 
ATOM     23  C   UNL A   1      31.040  29.389  23.012  1.00  0.00    -0.051 A 
ATOM     24  C   UNL A   1      32.341  28.910  22.814  1.00  0.00     0.005 A 
ATOM     25  C   UNL A   1      30.588  29.581  24.320  1.00  0.00     0.005 A 
ATOM     26  C   UNL A   1      33.165  28.592  23.902  1.00  0.00     0.022 A 
ATOM     27  C   UNL A   1      31.431  29.325  25.404  1.00  0.00     0.022 A 
ENDBRANCH  18  21
ENDBRANCH  16  18
ENDBRANCH  11  16
ENDBRANCH   9  10
ENDBRANCH   6   8
ENDBRANCH   5   6
ENDBRANCH   4   5
ENDBRANCH   3   4
ENDBRANCH   2   3
ENDBRANCH   1   2
BRANCH   1  28
ATOM     28  C   UNL A   1      34.327  33.665  33.671  1.00  0.00     0.188 C 
BRANCH  28  29
ATOM     29  O   UNL A   1      35.322  33.027  34.460  1.00  0.00    -0.376 OA
BRANCH  29  30
ATOM     30  C   UNL A   1      36.640  33.559  34.524  1.00  0.00     0.202 C 
BRANCH  30  31
ATOM     31  C   UNL A   1      37.658  32.994  35.524  1.00  0.00     0.261 C 
BRANCH  31  32
ATOM     32  O   UNL A   1      38.657  32.273  34.783  1.00  0.00    -0.460 OA
BRANCH  32  33
ATOM     33  C   UNL A   1      39.894  32.797  34.914  1.00  0.00     0.338 C 
ATOM     34  O   UNL A   1      40.535  32.797  35.951  1.00  0.00    -0.246 OA
BRANCH  33  35
ATOM     35  C   UNL A   1      40.195  33.607  33.701  1.00  0.00     0.060 A 
ATOM     36  C   UNL A   1      39.511  33.295  32.554  1.00  0.00     0.016 A 
ATOM     37  C   UNL A   1      41.268  34.498  33.594  1.00  0.00     0.016 A 
ATOM     38  C   UNL A   1      39.995  33.751  31.327  1.00  0.00     0.010 A 
ATOM     39  C   UNL A   1      41.809  34.834  32.332  1.00  0.00     0.010 A 
ATOM     40  C   UNL A   1      41.250  34.347  31.146  1.00  0.00    -0.014 A 
BRANCH  40  41
ATOM     41  C   UNL A   1      42.092  34.429  29.848  1.00  0.00     0.031 A 
ATOM     42  C   UNL A   1      43.132  33.378  29.768  1.00  0.00     0.074 A 
ATOM     43  C   UNL A   1      42.132  35.314  28.764  1.00  0.00     0.049 A 
ATOM     44  N   UNL A   1      44.263  33.510  29.154  1.00  0.00    -0.248 NA
ATOM     45  C   UNL A   1      43.031  32.145  30.548  1.00  0.00     0.031 C 
ATOM     46  C   UNL A   1      42.582  35.039  27.397  1.00  0.00     0.029 A 
ATOM     47  N   UNL A   1      41.878  36.697  28.621  1.00  0.00    -0.354 N 
ATOM     48  C   UNL A   1      44.758  32.234  29.065  1.00  0.00     0.074 A 
ATOM     49  C   UNL A   1      44.166  31.550  30.184  1.00  0.00     0.031 C 
ATOM     50  C   UNL A   1      42.709  36.181  26.683  1.00  0.00     0.029 A 
ATOM     51  C   UNL A   1      42.490  37.336  27.539  1.00  0.00     0.049 A 
ATOM     52  H   UNL A   1      41.301  37.185  29.250  1.00  0.00     0.167 HD
ATOM     53  C   UNL A   1      45.267  31.806  27.872  1.00  0.00     0.034 A 
ATOM     54  C   UNL A   1      43.101  38.584  27.593  1.00  0.00     0.034 A 
ATOM     55  C   UNL A   1      45.439  32.918  26.899  1.00  0.00     0.049 A 
ATOM     56  C   UNL A   1      44.524  38.468  27.085  1.00  0.00     0.074 A 
ATOM     57  C   UNL A   1      44.880  33.227  25.664  1.00  0.00     0.029 A 
ATOM     58  N   UNL A   1      46.158  34.057  27.257  1.00  0.00    -0.354 N 
ATOM     59  N   UNL A   1      44.963  37.425  26.446  1.00  0.00    -0.248 NA
ATOM     60  C   UNL A   1      45.600  39.408  27.404  1.00  0.00     0.031 C 
ATOM     61  C   UNL A   1      45.334  34.514  25.256  1.00  0.00     0.029 A 
ATOM     62  C   UNL A   1      46.177  35.001  26.235  1.00  0.00     0.049 A 
ATOM     63  H   UNL A   1      46.600  34.179  28.128  1.00  0.00     0.167 HD
ATOM     64  C   UNL A   1      46.319  37.362  26.602  1.00  0.00     0.074 A 
ATOM     65  C   UNL A   1      46.685  38.665  27.130  1.00  0.00     0.031 C 
ATOM     66  C   UNL A   1      47.003  36.198  26.388  1.00  0.00     0.034 A 
BRANCH  53  67
ATOM     67  C   UNL A   1      45.232  30.327  27.454  1.00  0.00     0.023 A 
ATOM     68  C   UNL A   1      46.458  29.628  27.428  1.00  0.00     0.012 A 
ATOM     69  C   UNL A   1      44.114  29.580  27.006  1.00  0.00     0.148 A 
ATOM     70  C   UNL A   1      46.594  28.348  26.875  1.00  0.00     0.002 A 
ATOM     71  C   UNL A   1      44.250  28.327  26.400  1.00  0.00     0.091 A 
ATOM     72  F   UNL A   1      42.875  30.004  27.251  1.00  0.00    -0.205 F 
ATOM     73  C   UNL A   1      45.495  27.710  26.323  1.00  0.00     0.022 A 
BRANCH  71  74
ATOM     74  S   UNL A   1      42.850  27.478  25.639  1.00  0.00     0.127 S 
ATOM     75  O   UNL A   1      43.478  26.279  25.078  1.00  0.00    -0.237 OA
ATOM     76  O   UNL A   1      41.976  27.229  26.782  1.00  0.00    -0.237 OA
ATOM     77  O   UNL A   1      42.325  28.392  24.629  1.00  0.00    -0.744 OA
ENDBRANCH  71  74
ENDBRANCH  53  67
BRANCH  54  78
ATOM     78  C   UNL A   1      42.705  39.667  28.627  1.00  0.00     0.023 A 
ATOM     79  C   UNL A   1      41.508  40.387  28.434  1.00  0.00     0.012 A 
ATOM     80  C   UNL A   1      43.366  39.900  29.866  1.00  0.00     0.148 A 
ATOM     81  C   UNL A   1      40.938  41.181  29.453  1.00  0.00     0.002 A 
ATOM     82  C   UNL A   1      42.722  40.565  30.925  1.00  0.00     0.091 A 
ATOM     83  F   UNL A   1      44.599  39.417  30.054  1.00  0.00    -0.205 F 
ATOM     84  C   UNL A   1      41.511  41.220  30.718  1.00  0.00     0.022 A 
BRANCH  82  85
ATOM     85  S   UNL A   1      43.262  40.396  32.650  1.00  0.00     0.127 S 
ATOM     86  O   UNL A   1      43.327  38.947  32.826  1.00  0.00    -0.237 OA
ATOM     87  O   UNL A   1      44.559  41.067  32.631  1.00  0.00    -0.237 OA
ATOM     88  O   UNL A   1      42.245  41.069  33.447  1.00  0.00    -0.744 OA
ENDBRANCH  82  85
ENDBRANCH  54  78
BRANCH  66  89
ATOM     89  C   UNL A   1      48.512  36.067  26.339  1.00  0.00     0.023 A 
ATOM     90  C   UNL A   1      49.232  36.101  25.131  1.00  0.00     0.012 A 
ATOM     91  C   UNL A   1      49.257  35.752  27.505  1.00  0.00     0.148 A 
ATOM     92  C   UNL A   1      50.622  35.946  25.090  1.00  0.00     0.002 A 
ATOM     93  C   UNL A   1      50.633  35.574  27.463  1.00  0.00     0.091 A 
ATOM     94  F   UNL A   1      48.635  35.545  28.668  1.00  0.00    -0.205 F 
ATOM     95  C   UNL A   1      51.325  35.695  26.258  1.00  0.00     0.022 A 
BRANCH  93  96
ATOM     96  S   UNL A   1      51.573  35.123  28.925  1.00  0.00     0.127 S 
ATOM     97  O   UNL A   1      52.944  35.165  28.413  1.00  0.00    -0.237 OA
ATOM     98  O   UNL A   1      51.232  36.206  29.846  1.00  0.00    -0.237 OA
ATOM     99  O   UNL A   1      51.100  33.809  29.334  1.00  0.00    -0.744 OA
ENDBRANCH  93  96
ENDBRANCH  66  89
ENDBRANCH  40  41
ENDBRANCH  33  35
ENDBRANCH  32  33
ENDBRANCH  31  32
ENDBRANCH  30  31
ENDBRANCH  29  30
ENDBRANCH  28  29
ENDBRANCH   1  28
TORSDOF 24
ENDMDL
