MODEL 1
REMARK VINA RESULT:     -11.7      0.000      0.000
REMARK SMILES CC1(C)[C@@]2(C(=O)OCCOCCOCCOC(=O)c3ccc(-c4c5nc(c(-c6cccc(S(=O)(=O)[O-])c6F)c6ccc([nH]6)c(-c6cccc(S(=O)(=O)[O-])c6F)c6nc(c(-c7cccc(S(=O)(=O)[O-])c7F)c7ccc4[nH]7)C=C6)C=C5)cc3)CC[C@]1(C)/C(=N/NC(=O)c1ccc(Cl)cc1)C2
REMARK SMILES IDX 12 1 11 2 10 3 9 4 8 5 7 6 5 7 6 8 4 9 1 10 2 11 3 12 84 13
REMARK SMILES IDX 82 14 98 15 83 16 85 17 86 18 87 19 88 20 89 21 90 23 91 24
REMARK SMILES IDX 92 25 97 26 93 27 96 28 94 29 95 30 13 31 14 32 15 33 16 34
REMARK SMILES IDX 17 35 18 36 19 37 20 38 81 39 21 40 80 41 22 42 23 43 24 44
REMARK SMILES IDX 74 45 25 46 79 47 73 48 75 49 26 50 78 51 72 52 71 53 27 55
REMARK SMILES IDX 59 56 39 57 58 58 40 59 43 60 57 61 76 62 41 63 42 64 56 66
REMARK SMILES IDX 77 67 44 68 28 69 29 70 37 71 30 72 32 73 38 74 31 75 33 76
REMARK SMILES IDX 34 77 35 78 36 79 60 80 61 81 69 82 62 83 64 84 70 85 63 86
REMARK SMILES IDX 65 87 66 88 67 89 68 90 45 91 46 92 54 93 47 94 49 95 55 96
REMARK SMILES IDX 48 97 50 98 51 99 52 100 53 101
REMARK H PARENT 88 22 75 54 43 65
REMARK Flexibility Score: inf
ROOT
ATOM      1  C   UNL A   1      40.976  21.583  27.456  1.00  0.00     0.188 C 
ENDROOT
BRANCH   1   2
ATOM      2  C   UNL A   1      40.128  22.066  26.289  1.00  0.00     0.188 C 
BRANCH   2   3
ATOM      3  O   UNL A   1      38.832  21.512  26.169  1.00  0.00    -0.376 OA
BRANCH   3   4
ATOM      4  C   UNL A   1      37.839  22.362  25.596  1.00  0.00     0.202 C 
BRANCH   4   5
ATOM      5  C   UNL A   1      37.027  21.748  24.451  1.00  0.00     0.261 C 
BRANCH   5   6
ATOM      6  O   UNL A   1      35.759  21.235  24.913  1.00  0.00    -0.463 OA
BRANCH   6   7
ATOM      7  C   UNL A   1      34.916  22.136  25.495  1.00  0.00     0.313 C 
ATOM      8  O   UNL A   1      34.905  22.406  26.686  1.00  0.00    -0.252 OA
BRANCH   7   9
ATOM      9  C   UNL A   1      33.925  22.697  24.493  1.00  0.00     0.079 C 
ATOM     10  C   UNL A   1      31.817  21.510  25.453  1.00  0.00     0.013 C 
ATOM     11  C   UNL A   1      32.425  22.812  24.896  1.00  0.00    -0.008 C 
ATOM     12  C   UNL A   1      32.078  23.927  25.911  1.00  0.00     0.013 C 
ATOM     13  C   UNL A   1      32.005  23.173  23.430  1.00  0.00     0.014 C 
ATOM     14  C   UNL A   1      33.898  21.722  23.270  1.00  0.00     0.021 C 
ATOM     15  C   UNL A   1      34.225  24.122  23.972  1.00  0.00     0.073 C 
ATOM     16  C   UNL A   1      32.544  22.001  22.599  1.00  0.00     0.014 C 
ATOM     17  C   UNL A   1      30.546  23.501  23.198  1.00  0.00     0.018 C 
ATOM     18  C   UNL A   1      33.003  24.319  23.116  1.00  0.00     0.046 C 
ATOM     19  N   UNL A   1      32.685  25.225  22.250  1.00  0.00    -0.181 NA
BRANCH  19  20
ATOM     20  N   UNL A   1      33.383  26.338  21.908  1.00  0.00    -0.243 N 
ATOM     21  C   UNL A   1      33.648  27.566  22.467  1.00  0.00     0.271 C 
ATOM     22  H   UNL A   1      33.813  26.239  21.028  1.00  0.00     0.194 HD
ATOM     23  O   UNL A   1      34.330  28.386  21.847  1.00  0.00    -0.267 OA
BRANCH  21  24
ATOM     24  C   UNL A   1      33.195  27.958  23.804  1.00  0.00     0.041 A 
ATOM     25  C   UNL A   1      32.065  28.788  23.887  1.00  0.00     0.015 A 
ATOM     26  C   UNL A   1      33.839  27.510  24.963  1.00  0.00     0.015 A 
ATOM     27  C   UNL A   1      31.515  29.086  25.134  1.00  0.00     0.021 A 
ATOM     28  C   UNL A   1      33.287  27.821  26.211  1.00  0.00     0.021 A 
ATOM     29  C   UNL A   1      32.118  28.586  26.288  1.00  0.00     0.041 A 
ATOM     30  Cl  UNL A   1      31.386  28.874  27.819  1.00  0.00    -0.084 Cl
ENDBRANCH  21  24
ENDBRANCH  19  20
ENDBRANCH   7   9
ENDBRANCH   6   7
ENDBRANCH   5   6
ENDBRANCH   4   5
ENDBRANCH   3   4
ENDBRANCH   2   3
ENDBRANCH   1   2
BRANCH   1  31
ATOM     31  O   UNL A   1      42.359  21.322  27.247  1.00  0.00    -0.376 OA
BRANCH  31  32
ATOM     32  C   UNL A   1      42.676  21.108  25.865  1.00  0.00     0.202 C 
BRANCH  32  33
ATOM     33  C   UNL A   1      43.742  22.074  25.296  1.00  0.00     0.261 C 
BRANCH  33  34
ATOM     34  O   UNL A   1      43.169  23.314  24.828  1.00  0.00    -0.460 OA
BRANCH  34  35
ATOM     35  C   UNL A   1      43.871  24.438  25.139  1.00  0.00     0.338 C 
ATOM     36  O   UNL A   1      44.910  24.805  24.612  1.00  0.00    -0.246 OA
BRANCH  35  37
ATOM     37  C   UNL A   1      43.068  25.320  26.037  1.00  0.00     0.060 A 
ATOM     38  C   UNL A   1      43.298  26.704  25.961  1.00  0.00     0.016 A 
ATOM     39  C   UNL A   1      42.070  24.835  26.888  1.00  0.00     0.016 A 
ATOM     40  C   UNL A   1      42.590  27.593  26.774  1.00  0.00     0.010 A 
ATOM     41  C   UNL A   1      41.367  25.726  27.713  1.00  0.00     0.010 A 
ATOM     42  C   UNL A   1      41.657  27.105  27.695  1.00  0.00    -0.014 A 
BRANCH  42  43
ATOM     43  C   UNL A   1      41.205  27.972  28.816  1.00  0.00     0.031 A 
ATOM     44  C   UNL A   1      42.046  27.980  30.069  1.00  0.00     0.074 A 
ATOM     45  C   UNL A   1      40.103  28.742  28.747  1.00  0.00     0.049 A 
ATOM     46  N   UNL A   1      41.840  28.582  31.208  1.00  0.00    -0.248 NA
ATOM     47  C   UNL A   1      43.291  27.192  30.023  1.00  0.00     0.031 C 
ATOM     48  C   UNL A   1      39.218  28.864  27.590  1.00  0.00     0.029 A 
ATOM     49  N   UNL A   1      39.526  29.553  29.697  1.00  0.00    -0.354 N 
ATOM     50  C   UNL A   1      42.906  28.221  32.025  1.00  0.00     0.074 A 
ATOM     51  C   UNL A   1      43.753  27.338  31.254  1.00  0.00     0.031 C 
ATOM     52  C   UNL A   1      38.191  29.675  27.910  1.00  0.00     0.029 A 
ATOM     53  C   UNL A   1      38.330  30.105  29.302  1.00  0.00     0.049 A 
ATOM     54  H   UNL A   1      39.932  29.723  30.577  1.00  0.00     0.167 HD
ATOM     55  C   UNL A   1      43.171  28.596  33.298  1.00  0.00     0.034 A 
ATOM     56  C   UNL A   1      37.438  30.846  29.994  1.00  0.00     0.034 A 
ATOM     57  C   UNL A   1      42.343  29.481  34.067  1.00  0.00     0.049 A 
ATOM     58  C   UNL A   1      37.731  31.208  31.432  1.00  0.00     0.074 A 
ATOM     59  C   UNL A   1      42.537  29.932  35.360  1.00  0.00     0.029 A 
ATOM     60  N   UNL A   1      41.157  30.041  33.619  1.00  0.00    -0.354 N 
ATOM     61  N   UNL A   1      38.784  30.928  32.161  1.00  0.00    -0.248 NA
ATOM     62  C   UNL A   1      36.721  32.017  32.135  1.00  0.00     0.031 C 
ATOM     63  C   UNL A   1      41.452  30.742  35.705  1.00  0.00     0.029 A 
ATOM     64  C   UNL A   1      40.606  30.830  34.612  1.00  0.00     0.049 A 
ATOM     65  H   UNL A   1      40.767  29.898  32.727  1.00  0.00     0.167 HD
ATOM     66  C   UNL A   1      38.587  31.567  33.383  1.00  0.00     0.074 A 
ATOM     67  C   UNL A   1      37.320  32.259  33.293  1.00  0.00     0.031 C 
ATOM     68  C   UNL A   1      39.377  31.571  34.486  1.00  0.00     0.034 A 
BRANCH  55  69
ATOM     69  C   UNL A   1      44.421  28.051  33.937  1.00  0.00     0.023 A 
ATOM     70  C   UNL A   1      45.624  28.784  33.862  1.00  0.00     0.012 A 
ATOM     71  C   UNL A   1      44.393  26.838  34.649  1.00  0.00     0.148 A 
ATOM     72  C   UNL A   1      46.787  28.301  34.459  1.00  0.00     0.002 A 
ATOM     73  C   UNL A   1      45.544  26.387  35.283  1.00  0.00     0.091 A 
ATOM     74  F   UNL A   1      43.246  26.145  34.688  1.00  0.00    -0.205 F 
ATOM     75  C   UNL A   1      46.744  27.109  35.178  1.00  0.00     0.022 A 
BRANCH  73  76
ATOM     76  S   UNL A   1      45.575  24.905  36.298  1.00  0.00     0.127 S 
ATOM     77  O   UNL A   1      44.398  25.103  37.143  1.00  0.00    -0.237 OA
ATOM     78  O   UNL A   1      45.436  23.847  35.298  1.00  0.00    -0.237 OA
ATOM     79  O   UNL A   1      46.852  24.921  36.998  1.00  0.00    -0.744 OA
ENDBRANCH  73  76
ENDBRANCH  55  69
BRANCH  56  80
ATOM     80  C   UNL A   1      36.176  31.318  29.350  1.00  0.00     0.023 A 
ATOM     81  C   UNL A   1      35.385  30.410  28.617  1.00  0.00     0.012 A 
ATOM     82  C   UNL A   1      35.776  32.667  29.424  1.00  0.00     0.148 A 
ATOM     83  C   UNL A   1      34.246  30.844  27.936  1.00  0.00     0.002 A 
ATOM     84  C   UNL A   1      34.610  33.081  28.790  1.00  0.00     0.091 A 
ATOM     85  F   UNL A   1      36.550  33.522  30.106  1.00  0.00    -0.205 F 
ATOM     86  C   UNL A   1      33.855  32.176  28.028  1.00  0.00     0.022 A 
BRANCH  84  87
ATOM     87  S   UNL A   1      33.967  34.750  28.945  1.00  0.00     0.127 S 
ATOM     88  O   UNL A   1      34.038  34.966  30.389  1.00  0.00    -0.237 OA
ATOM     89  O   UNL A   1      34.934  35.519  28.159  1.00  0.00    -0.237 OA
ATOM     90  O   UNL A   1      32.627  34.710  28.378  1.00  0.00    -0.744 OA
ENDBRANCH  84  87
ENDBRANCH  56  80
BRANCH  68  91
ATOM     91  C   UNL A   1      38.946  32.406  35.666  1.00  0.00     0.023 A 
ATOM     92  C   UNL A   1      38.060  31.879  36.624  1.00  0.00     0.012 A 
ATOM     93  C   UNL A   1      39.491  33.691  35.864  1.00  0.00     0.148 A 
ATOM     94  C   UNL A   1      37.692  32.632  37.741  1.00  0.00     0.002 A 
ATOM     95  C   UNL A   1      39.163  34.414  37.004  1.00  0.00     0.091 A 
ATOM     96  F   UNL A   1      40.323  34.183  34.933  1.00  0.00    -0.205 F 
ATOM     97  C   UNL A   1      38.252  33.893  37.936  1.00  0.00     0.022 A 
BRANCH  95  98
ATOM     98  S   UNL A   1      39.915  36.000  37.390  1.00  0.00     0.127 S 
ATOM     99  O   UNL A   1      41.302  35.615  37.650  1.00  0.00    -0.237 OA
ATOM    100  O   UNL A   1      39.713  36.750  36.149  1.00  0.00    -0.237 OA
ATOM    101  O   UNL A   1      39.186  36.523  38.537  1.00  0.00    -0.744 OA
ENDBRANCH  95  98
ENDBRANCH  68  91
ENDBRANCH  42  43
ENDBRANCH  35  37
ENDBRANCH  34  35
ENDBRANCH  33  34
ENDBRANCH  32  33
ENDBRANCH  31  32
ENDBRANCH   1  31
TORSDOF 22
ENDMDL
MODEL 2
REMARK VINA RESULT:     -11.3      2.878      8.164
REMARK SMILES CC1(C)[C@@]2(C(=O)OCCOCCOCCOC(=O)c3ccc(-c4c5nc(c(-c6cccc(S(=O)(=O)[O-])c6F)c6ccc([nH]6)c(-c6cccc(S(=O)(=O)[O-])c6F)c6nc(c(-c7cccc(S(=O)(=O)[O-])c7F)c7ccc4[nH]7)C=C6)C=C5)cc3)CC[C@]1(C)/C(=N/NC(=O)c1ccc(Cl)cc1)C2
REMARK SMILES IDX 12 1 11 2 10 3 9 4 8 5 7 6 5 7 6 8 4 9 1 10 2 11 3 12 84 13
REMARK SMILES IDX 82 14 98 15 83 16 85 17 86 18 87 19 88 20 89 21 90 23 91 24
REMARK SMILES IDX 92 25 97 26 93 27 96 28 94 29 95 30 13 31 14 32 15 33 16 34
REMARK SMILES IDX 17 35 18 36 19 37 20 38 81 39 21 40 80 41 22 42 23 43 24 44
REMARK SMILES IDX 74 45 25 46 79 47 73 48 75 49 26 50 78 51 72 52 71 53 27 55
REMARK SMILES IDX 59 56 39 57 58 58 40 59 43 60 57 61 76 62 41 63 42 64 56 66
REMARK SMILES IDX 77 67 44 68 28 69 29 70 37 71 30 72 32 73 38 74 31 75 33 76
REMARK SMILES IDX 34 77 35 78 36 79 60 80 61 81 69 82 62 83 64 84 70 85 63 86
REMARK SMILES IDX 65 87 66 88 67 89 68 90 45 91 46 92 54 93 47 94 49 95 55 96
REMARK SMILES IDX 48 97 50 98 51 99 52 100 53 101
REMARK H PARENT 88 22 75 54 43 65
REMARK Flexibility Score: inf
ROOT
ATOM      1  C   UNL A   1      30.047  29.637  23.877  1.00  0.00     0.188 C 
ENDROOT
BRANCH   1   2
ATOM      2  C   UNL A   1      30.411  28.200  23.535  1.00  0.00     0.188 C 
BRANCH   2   3
ATOM      3  O   UNL A   1      30.697  27.920  22.178  1.00  0.00    -0.376 OA
BRANCH   3   4
ATOM      4  C   UNL A   1      31.461  26.740  21.930  1.00  0.00     0.202 C 
BRANCH   4   5
ATOM      5  C   UNL A   1      32.978  26.941  21.847  1.00  0.00     0.261 C 
BRANCH   5   6
ATOM      6  O   UNL A   1      33.682  26.050  22.739  1.00  0.00    -0.463 OA
BRANCH   6   7
ATOM      7  C   UNL A   1      33.655  24.724  22.416  1.00  0.00     0.313 C 
ATOM      8  O   UNL A   1      33.492  24.289  21.286  1.00  0.00    -0.252 OA
BRANCH   7   9
ATOM      9  C   UNL A   1      33.759  23.849  23.650  1.00  0.00     0.079 C 
ATOM     10  C   UNL A   1      31.295  24.138  24.437  1.00  0.00     0.013 C 
ATOM     11  C   UNL A   1      32.472  23.171  24.207  1.00  0.00    -0.008 C 
ATOM     12  C   UNL A   1      31.914  21.990  23.379  1.00  0.00     0.013 C 
ATOM     13  C   UNL A   1      33.217  22.704  25.504  1.00  0.00     0.014 C 
ATOM     14  C   UNL A   1      34.227  24.763  24.830  1.00  0.00     0.021 C 
ATOM     15  C   UNL A   1      34.732  22.651  23.549  1.00  0.00     0.073 C 
ATOM     16  C   UNL A   1      33.778  24.007  26.090  1.00  0.00     0.014 C 
ATOM     17  C   UNL A   1      32.429  21.855  26.477  1.00  0.00     0.018 C 
ATOM     18  C   UNL A   1      34.470  22.023  24.890  1.00  0.00     0.046 C 
ATOM     19  N   UNL A   1      35.068  21.079  25.541  1.00  0.00    -0.181 NA
BRANCH  19  20
ATOM     20  N   UNL A   1      36.116  20.318  25.136  1.00  0.00    -0.243 N 
ATOM     21  C   UNL A   1      37.486  20.439  25.094  1.00  0.00     0.271 C 
ATOM     22  H   UNL A   1      35.818  19.451  24.778  1.00  0.00     0.194 HD
ATOM     23  O   UNL A   1      38.166  19.526  24.620  1.00  0.00    -0.267 OA
BRANCH  21  24
ATOM     24  C   UNL A   1      38.210  21.595  25.628  1.00  0.00     0.041 A 
ATOM     25  C   UNL A   1      37.595  22.853  25.515  1.00  0.00     0.015 A 
ATOM     26  C   UNL A   1      39.456  21.464  26.251  1.00  0.00     0.015 A 
ATOM     27  C   UNL A   1      38.179  23.967  26.119  1.00  0.00     0.021 A 
ATOM     28  C   UNL A   1      40.041  22.587  26.846  1.00  0.00     0.021 A 
ATOM     29  C   UNL A   1      39.389  23.824  26.798  1.00  0.00     0.041 A 
ATOM     30  Cl  UNL A   1      40.062  25.176  27.623  1.00  0.00    -0.084 Cl
ENDBRANCH  21  24
ENDBRANCH  19  20
ENDBRANCH   7   9
ENDBRANCH   6   7
ENDBRANCH   5   6
ENDBRANCH   4   5
ENDBRANCH   3   4
ENDBRANCH   2   3
ENDBRANCH   1   2
BRANCH   1  31
ATOM     31  O   UNL A   1      30.839  30.347  24.823  1.00  0.00    -0.376 OA
BRANCH  31  32
ATOM     32  C   UNL A   1      32.031  29.636  25.186  1.00  0.00     0.202 C 
BRANCH  32  33
ATOM     33  C   UNL A   1      32.323  29.610  26.704  1.00  0.00     0.261 C 
BRANCH  33  34
ATOM     34  O   UNL A   1      33.734  29.695  26.997  1.00  0.00    -0.460 OA
BRANCH  34  35
ATOM     35  C   UNL A   1      34.168  30.902  27.452  1.00  0.00     0.338 C 
ATOM     36  O   UNL A   1      33.496  31.919  27.542  1.00  0.00    -0.246 OA
BRANCH  35  37
ATOM     37  C   UNL A   1      35.514  30.767  28.083  1.00  0.00     0.060 A 
ATOM     38  C   UNL A   1      35.946  29.472  28.418  1.00  0.00     0.016 A 
ATOM     39  C   UNL A   1      36.371  31.852  28.289  1.00  0.00     0.016 A 
ATOM     40  C   UNL A   1      37.191  29.266  29.017  1.00  0.00     0.010 A 
ATOM     41  C   UNL A   1      37.616  31.647  28.901  1.00  0.00     0.010 A 
ATOM     42  C   UNL A   1      38.013  30.359  29.312  1.00  0.00    -0.014 A 
BRANCH  42  43
ATOM     43  C   UNL A   1      39.126  30.201  30.287  1.00  0.00     0.031 A 
ATOM     44  C   UNL A   1      40.257  29.278  29.905  1.00  0.00     0.074 A 
ATOM     45  C   UNL A   1      39.161  30.847  31.468  1.00  0.00     0.049 A 
ATOM     46  N   UNL A   1      41.301  28.908  30.595  1.00  0.00    -0.248 NA
ATOM     47  C   UNL A   1      40.192  28.694  28.553  1.00  0.00     0.031 C 
ATOM     48  C   UNL A   1      38.159  31.794  31.953  1.00  0.00     0.029 A 
ATOM     49  N   UNL A   1      40.078  30.775  32.491  1.00  0.00    -0.354 N 
ATOM     50  C   UNL A   1      41.998  28.023  29.779  1.00  0.00     0.074 A 
ATOM     51  C   UNL A   1      41.254  27.904  28.546  1.00  0.00     0.031 C 
ATOM     52  C   UNL A   1      38.499  32.190  33.195  1.00  0.00     0.029 A 
ATOM     53  C   UNL A   1      39.724  31.503  33.604  1.00  0.00     0.049 A 
ATOM     54  H   UNL A   1      40.910  30.253  32.432  1.00  0.00     0.167 HD
ATOM     55  C   UNL A   1      43.161  27.374  30.022  1.00  0.00     0.034 A 
ATOM     56  C   UNL A   1      40.307  31.580  34.820  1.00  0.00     0.034 A 
ATOM     57  C   UNL A   1      43.913  27.495  31.239  1.00  0.00     0.049 A 
ATOM     58  C   UNL A   1      41.577  30.804  35.085  1.00  0.00     0.074 A 
ATOM     59  C   UNL A   1      45.111  26.890  31.572  1.00  0.00     0.029 A 
ATOM     60  N   UNL A   1      43.535  28.265  32.327  1.00  0.00    -0.354 N 
ATOM     61  N   UNL A   1      42.267  30.039  34.274  1.00  0.00    -0.248 NA
ATOM     62  C   UNL A   1      42.165  30.927  36.429  1.00  0.00     0.031 C 
ATOM     63  C   UNL A   1      45.443  27.270  32.875  1.00  0.00     0.029 A 
ATOM     64  C   UNL A   1      44.475  28.147  33.335  1.00  0.00     0.049 A 
ATOM     65  H   UNL A   1      42.721  28.815  32.375  1.00  0.00     0.167 HD
ATOM     66  C   UNL A   1      43.392  29.635  34.990  1.00  0.00     0.074 A 
ATOM     67  C   UNL A   1      43.298  30.250  36.297  1.00  0.00     0.031 C 
ATOM     68  C   UNL A   1      44.406  28.820  34.607  1.00  0.00     0.034 A 
BRANCH  55  69
ATOM     69  C   UNL A   1      43.695  26.477  28.938  1.00  0.00     0.023 A 
ATOM     70  C   UNL A   1      43.352  25.109  28.927  1.00  0.00     0.012 A 
ATOM     71  C   UNL A   1      44.498  26.997  27.905  1.00  0.00     0.148 A 
ATOM     72  C   UNL A   1      43.827  24.266  27.924  1.00  0.00     0.002 A 
ATOM     73  C   UNL A   1      44.928  26.161  26.882  1.00  0.00     0.091 A 
ATOM     74  F   UNL A   1      44.832  28.294  27.947  1.00  0.00    -0.205 F 
ATOM     75  C   UNL A   1      44.605  24.794  26.896  1.00  0.00     0.022 A 
BRANCH  73  76
ATOM     76  S   UNL A   1      45.867  26.759  25.473  1.00  0.00     0.127 S 
ATOM     77  O   UNL A   1      47.123  27.161  26.105  1.00  0.00    -0.237 OA
ATOM     78  O   UNL A   1      45.961  25.561  24.639  1.00  0.00    -0.237 OA
ATOM     79  O   UNL A   1      45.086  27.844  24.897  1.00  0.00    -0.744 OA
ENDBRANCH  73  76
ENDBRANCH  55  69
BRANCH  56  80
ATOM     80  C   UNL A   1      39.717  32.430  35.896  1.00  0.00     0.023 A 
ATOM     81  C   UNL A   1      38.728  31.893  36.747  1.00  0.00     0.012 A 
ATOM     82  C   UNL A   1      40.096  33.777  36.056  1.00  0.00     0.148 A 
ATOM     83  C   UNL A   1      38.100  32.691  37.705  1.00  0.00     0.002 A 
ATOM     84  C   UNL A   1      39.507  34.551  37.050  1.00  0.00     0.091 A 
ATOM     85  F   UNL A   1      41.020  34.279  35.226  1.00  0.00    -0.205 F 
ATOM     86  C   UNL A   1      38.495  34.016  37.862  1.00  0.00     0.022 A 
BRANCH  84  87
ATOM     87  S   UNL A   1      40.029  36.233  37.400  1.00  0.00     0.127 S 
ATOM     88  O   UNL A   1      41.397  36.031  37.870  1.00  0.00    -0.237 OA
ATOM     89  O   UNL A   1      39.915  36.863  36.084  1.00  0.00    -0.237 OA
ATOM     90  O   UNL A   1      39.089  36.738  38.392  1.00  0.00    -0.744 OA
ENDBRANCH  84  87
ENDBRANCH  56  80
BRANCH  68  91
ATOM     91  C   UNL A   1      45.542  28.595  35.573  1.00  0.00     0.023 A 
ATOM     92  C   UNL A   1      45.518  27.500  36.458  1.00  0.00     0.012 A 
ATOM     93  C   UNL A   1      46.676  29.432  35.543  1.00  0.00     0.148 A 
ATOM     94  C   UNL A   1      46.587  27.263  37.323  1.00  0.00     0.002 A 
ATOM     95  C   UNL A   1      47.759  29.160  36.370  1.00  0.00     0.091 A 
ATOM     96  F   UNL A   1      46.676  30.479  34.704  1.00  0.00    -0.205 F 
ATOM     97  C   UNL A   1      47.710  28.085  37.271  1.00  0.00     0.022 A 
BRANCH  95  98
ATOM     98  S   UNL A   1      49.288  30.102  36.296  1.00  0.00     0.127 S 
ATOM     99  O   UNL A   1      49.679  29.924  34.898  1.00  0.00    -0.237 OA
ATOM    100  O   UNL A   1      48.838  31.451  36.637  1.00  0.00    -0.237 OA
ATOM    101  O   UNL A   1      50.180  29.497  37.275  1.00  0.00    -0.744 OA
ENDBRANCH  95  98
ENDBRANCH  68  91
ENDBRANCH  42  43
ENDBRANCH  35  37
ENDBRANCH  34  35
ENDBRANCH  33  34
ENDBRANCH  32  33
ENDBRANCH  31  32
ENDBRANCH   1  31
TORSDOF 22
ENDMDL
MODEL 3
REMARK VINA RESULT:     -11.3      5.074      7.109
REMARK SMILES CC1(C)[C@@]2(C(=O)OCCOCCOCCOC(=O)c3ccc(-c4c5nc(c(-c6cccc(S(=O)(=O)[O-])c6F)c6ccc([nH]6)c(-c6cccc(S(=O)(=O)[O-])c6F)c6nc(c(-c7cccc(S(=O)(=O)[O-])c7F)c7ccc4[nH]7)C=C6)C=C5)cc3)CC[C@]1(C)/C(=N/NC(=O)c1ccc(Cl)cc1)C2
REMARK SMILES IDX 12 1 11 2 10 3 9 4 8 5 7 6 5 7 6 8 4 9 1 10 2 11 3 12 84 13
REMARK SMILES IDX 82 14 98 15 83 16 85 17 86 18 87 19 88 20 89 21 90 23 91 24
REMARK SMILES IDX 92 25 97 26 93 27 96 28 94 29 95 30 13 31 14 32 15 33 16 34
REMARK SMILES IDX 17 35 18 36 19 37 20 38 81 39 21 40 80 41 22 42 23 43 24 44
REMARK SMILES IDX 74 45 25 46 79 47 73 48 75 49 26 50 78 51 72 52 71 53 27 55
REMARK SMILES IDX 59 56 39 57 58 58 40 59 43 60 57 61 76 62 41 63 42 64 56 66
REMARK SMILES IDX 77 67 44 68 28 69 29 70 37 71 30 72 32 73 38 74 31 75 33 76
REMARK SMILES IDX 34 77 35 78 36 79 60 80 61 81 69 82 62 83 64 84 70 85 63 86
REMARK SMILES IDX 65 87 66 88 67 89 68 90 45 91 46 92 54 93 47 94 49 95 55 96
REMARK SMILES IDX 48 97 50 98 51 99 52 100 53 101
REMARK H PARENT 88 22 75 54 43 65
REMARK Flexibility Score: inf
ROOT
ATOM      1  C   UNL A   1      41.657  20.062  26.950  1.00  0.00     0.188 C 
ENDROOT
BRANCH   1   2
ATOM      2  C   UNL A   1      40.802  21.148  27.588  1.00  0.00     0.188 C 
BRANCH   2   3
ATOM      3  O   UNL A   1      39.632  21.531  26.892  1.00  0.00    -0.376 OA
BRANCH   3   4
ATOM      4  C   UNL A   1      39.432  20.916  25.619  1.00  0.00     0.202 C 
BRANCH   4   5
ATOM      5  C   UNL A   1      38.047  21.123  24.997  1.00  0.00     0.261 C 
BRANCH   5   6
ATOM      6  O   UNL A   1      37.075  21.523  25.987  1.00  0.00    -0.463 OA
BRANCH   6   7
ATOM      7  C   UNL A   1      36.488  22.742  25.802  1.00  0.00     0.313 C 
ATOM      8  O   UNL A   1      36.983  23.807  26.136  1.00  0.00    -0.252 OA
BRANCH   7   9
ATOM      9  C   UNL A   1      35.097  22.604  25.214  1.00  0.00     0.079 C 
ATOM     10  C   UNL A   1      33.845  22.256  27.469  1.00  0.00     0.013 C 
ATOM     11  C   UNL A   1      33.864  22.958  26.097  1.00  0.00    -0.008 C 
ATOM     12  C   UNL A   1      33.634  24.463  26.371  1.00  0.00     0.013 C 
ATOM     13  C   UNL A   1      32.870  22.375  25.034  1.00  0.00     0.014 C 
ATOM     14  C   UNL A   1      34.881  21.092  24.877  1.00  0.00     0.021 C 
ATOM     15  C   UNL A   1      34.820  23.430  23.935  1.00  0.00     0.073 C 
ATOM     16  C   UNL A   1      33.353  20.932  24.838  1.00  0.00     0.014 C 
ATOM     17  C   UNL A   1      31.393  22.519  25.329  1.00  0.00     0.018 C 
ATOM     18  C   UNL A   1      33.366  23.093  23.750  1.00  0.00     0.046 C 
ATOM     19  N   UNL A   1      32.541  23.305  22.777  1.00  0.00    -0.181 NA
BRANCH  19  20
ATOM     20  N   UNL A   1      32.765  23.981  21.622  1.00  0.00    -0.243 N 
ATOM     21  C   UNL A   1      32.885  25.297  21.239  1.00  0.00     0.271 C 
ATOM     22  H   UNL A   1      32.870  23.370  20.858  1.00  0.00     0.194 HD
ATOM     23  O   UNL A   1      33.072  25.573  20.051  1.00  0.00    -0.267 OA
BRANCH  21  24
ATOM     24  C   UNL A   1      32.844  26.418  22.181  1.00  0.00     0.041 A 
ATOM     25  C   UNL A   1      31.958  26.320  23.266  1.00  0.00     0.015 A 
ATOM     26  C   UNL A   1      33.669  27.539  22.032  1.00  0.00     0.015 A 
ATOM     27  C   UNL A   1      31.970  27.298  24.262  1.00  0.00     0.021 A 
ATOM     28  C   UNL A   1      33.669  28.521  23.029  1.00  0.00     0.021 A 
ATOM     29  C   UNL A   1      32.839  28.383  24.147  1.00  0.00     0.041 A 
ATOM     30  Cl  UNL A   1      32.923  29.539  25.420  1.00  0.00    -0.084 Cl
ENDBRANCH  21  24
ENDBRANCH  19  20
ENDBRANCH   7   9
ENDBRANCH   6   7
ENDBRANCH   5   6
ENDBRANCH   4   5
ENDBRANCH   3   4
ENDBRANCH   2   3
ENDBRANCH   1   2
BRANCH   1  31
ATOM     31  O   UNL A   1      42.262  19.078  27.782  1.00  0.00    -0.376 OA
BRANCH  31  32
ATOM     32  C   UNL A   1      43.021  18.118  27.034  1.00  0.00     0.202 C 
BRANCH  32  33
ATOM     33  C   UNL A   1      43.121  18.419  25.521  1.00  0.00     0.261 C 
BRANCH  33  34
ATOM     34  O   UNL A   1      44.488  18.519  25.067  1.00  0.00    -0.460 OA
BRANCH  34  35
ATOM     35  C   UNL A   1      44.741  19.524  24.184  1.00  0.00     0.338 C 
ATOM     36  O   UNL A   1      44.871  19.402  22.975  1.00  0.00    -0.246 OA
BRANCH  35  37
ATOM     37  C   UNL A   1      44.578  20.851  24.847  1.00  0.00     0.060 A 
ATOM     38  C   UNL A   1      43.832  21.829  24.167  1.00  0.00     0.016 A 
ATOM     39  C   UNL A   1      45.076  21.132  26.123  1.00  0.00     0.016 A 
ATOM     40  C   UNL A   1      43.641  23.097  24.720  1.00  0.00     0.010 A 
ATOM     41  C   UNL A   1      44.894  22.409  26.674  1.00  0.00     0.010 A 
ATOM     42  C   UNL A   1      44.217  23.414  25.955  1.00  0.00    -0.014 A 
BRANCH  42  43
ATOM     43  C   UNL A   1      44.363  24.839  26.355  1.00  0.00     0.031 A 
ATOM     44  C   UNL A   1      45.687  25.506  26.076  1.00  0.00     0.074 A 
ATOM     45  C   UNL A   1      43.371  25.541  26.936  1.00  0.00     0.049 A 
ATOM     46  N   UNL A   1      46.100  26.705  26.387  1.00  0.00    -0.248 NA
ATOM     47  C   UNL A   1      46.681  24.701  25.343  1.00  0.00     0.031 C 
ATOM     48  C   UNL A   1      42.031  25.039  27.232  1.00  0.00     0.029 A 
ATOM     49  N   UNL A   1      43.357  26.834  27.407  1.00  0.00    -0.354 N 
ATOM     50  C   UNL A   1      47.408  26.786  25.923  1.00  0.00     0.074 A 
ATOM     51  C   UNL A   1      47.725  25.513  25.316  1.00  0.00     0.031 C 
ATOM     52  C   UNL A   1      41.334  26.002  27.865  1.00  0.00     0.029 A 
ATOM     53  C   UNL A   1      42.188  27.178  28.046  1.00  0.00     0.049 A 
ATOM     54  H   UNL A   1      44.112  27.455  27.296  1.00  0.00     0.167 HD
ATOM     55  C   UNL A   1      48.270  27.828  25.979  1.00  0.00     0.034 A 
ATOM     56  C   UNL A   1      41.859  28.299  28.722  1.00  0.00     0.034 A 
ATOM     57  C   UNL A   1      47.961  29.100  26.569  1.00  0.00     0.049 A 
ATOM     58  C   UNL A   1      42.859  29.429  28.818  1.00  0.00     0.074 A 
ATOM     59  C   UNL A   1      48.763  30.223  26.660  1.00  0.00     0.029 A 
ATOM     60  N   UNL A   1      46.757  29.416  27.177  1.00  0.00    -0.354 N 
ATOM     61  N   UNL A   1      44.060  29.521  28.300  1.00  0.00    -0.248 NA
ATOM     62  C   UNL A   1      42.443  30.625  29.570  1.00  0.00     0.031 C 
ATOM     63  C   UNL A   1      48.055  31.209  27.352  1.00  0.00     0.029 A 
ATOM     64  C   UNL A   1      46.796  30.715  27.651  1.00  0.00     0.049 A 
ATOM     65  H   UNL A   1      45.988  28.807  27.259  1.00  0.00     0.167 HD
ATOM     66  C   UNL A   1      44.519  30.797  28.617  1.00  0.00     0.074 A 
ATOM     67  C   UNL A   1      43.462  31.448  29.362  1.00  0.00     0.031 C 
ATOM     68  C   UNL A   1      45.711  31.376  28.330  1.00  0.00     0.034 A 
BRANCH  55  69
ATOM     69  C   UNL A   1      49.636  27.633  25.376  1.00  0.00     0.023 A 
ATOM     70  C   UNL A   1      49.827  27.833  23.993  1.00  0.00     0.012 A 
ATOM     71  C   UNL A   1      50.738  27.298  26.185  1.00  0.00     0.148 A 
ATOM     72  C   UNL A   1      51.086  27.669  23.420  1.00  0.00     0.002 A 
ATOM     73  C   UNL A   1      51.999  27.185  25.615  1.00  0.00     0.091 A 
ATOM     74  F   UNL A   1      50.530  27.091  27.493  1.00  0.00    -0.205 F 
ATOM     75  C   UNL A   1      52.174  27.357  24.233  1.00  0.00     0.022 A 
BRANCH  73  76
ATOM     76  S   UNL A   1      53.476  26.864  26.586  1.00  0.00     0.127 S 
ATOM     77  O   UNL A   1      53.364  25.426  26.827  1.00  0.00    -0.237 OA
ATOM     78  O   UNL A   1      54.540  27.245  25.658  1.00  0.00    -0.237 OA
ATOM     79  O   UNL A   1      53.371  27.703  27.772  1.00  0.00    -0.744 OA
ENDBRANCH  73  76
ENDBRANCH  55  69
BRANCH  56  80
ATOM     80  C   UNL A   1      40.518  28.436  29.365  1.00  0.00     0.023 A 
ATOM     81  C   UNL A   1      40.283  27.842  30.622  1.00  0.00     0.012 A 
ATOM     82  C   UNL A   1      39.464  29.114  28.722  1.00  0.00     0.148 A 
ATOM     83  C   UNL A   1      39.015  27.884  31.205  1.00  0.00     0.002 A 
ATOM     84  C   UNL A   1      38.218  29.200  29.334  1.00  0.00     0.091 A 
ATOM     85  F   UNL A   1      39.698  29.653  27.518  1.00  0.00    -0.205 F 
ATOM     86  C   UNL A   1      37.986  28.568  30.566  1.00  0.00     0.022 A 
BRANCH  84  87
ATOM     87  S   UNL A   1      36.865  30.155  28.639  1.00  0.00     0.127 S 
ATOM     88  O   UNL A   1      36.516  29.365  27.461  1.00  0.00    -0.237 OA
ATOM     89  O   UNL A   1      35.882  30.114  29.722  1.00  0.00    -0.237 OA
ATOM     90  O   UNL A   1      37.413  31.477  28.374  1.00  0.00    -0.744 OA
ENDBRANCH  84  87
ENDBRANCH  56  80
BRANCH  68  91
ATOM     91  C   UNL A   1      45.925  32.810  28.747  1.00  0.00     0.023 A 
ATOM     92  C   UNL A   1      46.602  33.108  29.945  1.00  0.00     0.012 A 
ATOM     93  C   UNL A   1      45.523  33.863  27.901  1.00  0.00     0.148 A 
ATOM     94  C   UNL A   1      46.840  34.434  30.314  1.00  0.00     0.002 A 
ATOM     95  C   UNL A   1      45.810  35.178  28.248  1.00  0.00     0.091 A 
ATOM     96  F   UNL A   1      44.867  33.561  26.771  1.00  0.00    -0.205 F 
ATOM     97  C   UNL A   1      46.455  35.466  29.461  1.00  0.00     0.022 A 
BRANCH  95  98
ATOM     98  S   UNL A   1      45.445  36.563  27.162  1.00  0.00     0.127 S 
ATOM     99  O   UNL A   1      45.714  37.703  28.037  1.00  0.00    -0.237 OA
ATOM    100  O   UNL A   1      46.418  36.377  26.085  1.00  0.00    -0.237 OA
ATOM    101  O   UNL A   1      44.057  36.401  26.756  1.00  0.00    -0.744 OA
ENDBRANCH  95  98
ENDBRANCH  68  91
ENDBRANCH  42  43
ENDBRANCH  35  37
ENDBRANCH  34  35
ENDBRANCH  33  34
ENDBRANCH  32  33
ENDBRANCH  31  32
ENDBRANCH   1  31
TORSDOF 22
ENDMDL
