MODEL 1
REMARK VINA RESULT:      -9.5      0.000      0.000
REMARK SMILES COC[C@H]1CC[N@@H+](Cc2ccc(C(=O)OCCOCCOCCOC(=O)c3ccc(-c4c5nc(c(-c6cccc(S(=O)(=O)[O-])c6F)c6ccc([nH]6)c(-c6cccc(S(=O)(=O)[O-])c6F)c6nc(c(-c7cccc(S(=O)(=O)[O-])c7F)c7ccc4[nH]7)C=C6)C=C5)cc3)cn2)C1
REMARK SMILES IDX 19 1 18 2 17 3 16 4 15 5 13 6 14 7 12 8 9 9 10 10 91 11
REMARK SMILES IDX 11 12 90 13 8 14 7 15 4 16 5 17 92 18 6 19 3 21 2 22 1 23
REMARK SMILES IDX 20 24 21 25 22 26 23 27 24 28 25 29 26 30 27 31 28 32 89 33
REMARK SMILES IDX 29 34 88 35 30 36 31 37 32 38 82 39 33 40 87 41 81 42 83 43
REMARK SMILES IDX 34 44 86 45 80 46 79 47 35 49 67 50 47 51 66 52 48 53 51 54
REMARK SMILES IDX 65 55 84 56 49 57 50 58 64 60 85 61 52 62 36 63 37 64 45 65
REMARK SMILES IDX 38 66 40 67 46 68 39 69 41 70 42 71 43 72 44 73 68 74 69 75
REMARK SMILES IDX 77 76 70 77 72 78 78 79 71 80 73 81 74 82 75 83 76 84 53 85
REMARK SMILES IDX 54 86 62 87 55 88 57 89 63 90 56 91 58 92 59 93 60 94 61 95
REMARK H PARENT 7 20 83 48 51 59
REMARK Flexibility Score: inf
ROOT
ATOM      1  C   UNL A   1      36.116  23.133  24.958  1.00  0.00     0.188 C 
ENDROOT
BRANCH   1   2
ATOM      2  O   UNL A   1      34.811  23.623  25.195  1.00  0.00    -0.376 OA
BRANCH   2   3
ATOM      3  C   UNL A   1      33.687  22.756  25.197  1.00  0.00     0.202 C 
BRANCH   3   4
ATOM      4  C   UNL A   1      32.650  22.781  26.322  1.00  0.00     0.261 C 
BRANCH   4   5
ATOM      5  O   UNL A   1      31.302  22.652  25.858  1.00  0.00    -0.460 OA
BRANCH   5   6
ATOM      6  C   UNL A   1      30.462  23.628  26.274  1.00  0.00     0.339 C 
ATOM      7  O   UNL A   1      29.867  23.675  27.339  1.00  0.00    -0.246 OA
BRANCH   6   8
ATOM      8  C   UNL A   1      30.382  24.709  25.280  1.00  0.00     0.078 A 
ATOM      9  C   UNL A   1      30.585  26.585  23.293  1.00  0.00     0.095 A 
ATOM     10  C   UNL A   1      30.382  27.016  24.602  1.00  0.00     0.031 A 
ATOM     11  N   UNL A   1      30.530  25.273  22.945  1.00  0.00    -0.254 NA
ATOM     12  C   UNL A   1      30.307  26.062  25.613  1.00  0.00     0.019 A 
ATOM     13  C   UNL A   1      30.430  24.363  23.940  1.00  0.00     0.127 A 
BRANCH   9  14
ATOM     14  C   UNL A   1      31.128  27.549  22.248  1.00  0.00     0.319 C 
BRANCH  14  15
ATOM     15  N   UNL A   1      32.603  27.726  22.226  1.00  0.00    -0.330 N 
ATOM     16  C   UNL A   1      33.946  28.259  24.185  1.00  0.00     0.076 C 
ATOM     17  C   UNL A   1      33.714  26.758  24.105  1.00  0.00     0.073 C 
ATOM     18  C   UNL A   1      33.108  28.842  23.036  1.00  0.00     0.268 C 
ATOM     19  C   UNL A   1      33.342  26.527  22.649  1.00  0.00     0.263 C 
ATOM     20  H   UNL A   1      32.771  27.929  21.240  1.00  0.00     0.348 HD
BRANCH  16  21
ATOM     21  C   UNL A   1      33.625  28.911  25.532  1.00  0.00     0.169 C 
BRANCH  21  22
ATOM     22  O   UNL A   1      32.494  29.780  25.492  1.00  0.00    -0.384 OA
ATOM     23  C   UNL A   1      32.277  30.500  26.702  1.00  0.00     0.194 C 
ENDBRANCH  21  22
ENDBRANCH  16  21
ENDBRANCH  14  15
ENDBRANCH   9  14
ENDBRANCH   6   8
ENDBRANCH   5   6
ENDBRANCH   4   5
ENDBRANCH   3   4
ENDBRANCH   2   3
ENDBRANCH   1   2
BRANCH   1  24
ATOM     24  C   UNL A   1      37.084  22.890  26.135  1.00  0.00     0.188 C 
BRANCH  24  25
ATOM     25  O   UNL A   1      38.412  23.374  26.114  1.00  0.00    -0.376 OA
BRANCH  25  26
ATOM     26  C   UNL A   1      39.457  22.487  26.482  1.00  0.00     0.202 C 
BRANCH  26  27
ATOM     27  C   UNL A   1      39.467  21.038  25.981  1.00  0.00     0.261 C 
BRANCH  27  28
ATOM     28  O   UNL A   1      40.370  20.168  26.678  1.00  0.00    -0.460 OA
BRANCH  28  29
ATOM     29  C   UNL A   1      41.593  20.027  26.102  1.00  0.00     0.338 C 
ATOM     30  O   UNL A   1      41.940  19.158  25.320  1.00  0.00    -0.246 OA
BRANCH  29  31
ATOM     31  C   UNL A   1      42.412  21.220  26.388  1.00  0.00     0.060 A 
ATOM     32  C   UNL A   1      42.692  21.527  27.729  1.00  0.00     0.016 A 
ATOM     33  C   UNL A   1      42.862  22.051  25.362  1.00  0.00     0.016 A 
ATOM     34  C   UNL A   1      43.400  22.683  28.050  1.00  0.00     0.010 A 
ATOM     35  C   UNL A   1      43.548  23.225  25.688  1.00  0.00     0.010 A 
ATOM     36  C   UNL A   1      43.791  23.560  27.032  1.00  0.00    -0.014 A 
BRANCH  36  37
ATOM     37  C   UNL A   1      44.286  24.914  27.376  1.00  0.00     0.031 A 
ATOM     38  C   UNL A   1      43.301  25.930  27.882  1.00  0.00     0.074 A 
ATOM     39  C   UNL A   1      45.578  25.247  27.214  1.00  0.00     0.049 A 
ATOM     40  N   UNL A   1      43.488  27.187  28.184  1.00  0.00    -0.248 NA
ATOM     41  C   UNL A   1      41.916  25.465  28.060  1.00  0.00     0.031 C 
ATOM     42  C   UNL A   1      46.626  24.354  26.727  1.00  0.00     0.029 A 
ATOM     43  N   UNL A   1      46.215  26.448  27.407  1.00  0.00    -0.354 N 
ATOM     44  C   UNL A   1      42.242  27.672  28.562  1.00  0.00     0.074 A 
ATOM     45  C   UNL A   1      41.305  26.577  28.439  1.00  0.00     0.031 C 
ATOM     46  C   UNL A   1      47.769  25.052  26.609  1.00  0.00     0.029 A 
ATOM     47  C   UNL A   1      47.527  26.442  26.995  1.00  0.00     0.049 A 
ATOM     48  H   UNL A   1      45.776  27.236  27.802  1.00  0.00     0.167 HD
ATOM     49  C   UNL A   1      41.908  28.914  28.988  1.00  0.00     0.034 A 
ATOM     50  C   UNL A   1      48.417  27.450  26.910  1.00  0.00     0.034 A 
ATOM     51  C   UNL A   1      42.841  30.000  29.118  1.00  0.00     0.049 A 
ATOM     52  C   UNL A   1      48.022  28.829  27.371  1.00  0.00     0.074 A 
ATOM     53  C   UNL A   1      42.610  31.280  29.591  1.00  0.00     0.029 A 
ATOM     54  N   UNL A   1      44.177  29.943  28.754  1.00  0.00    -0.354 N 
ATOM     55  N   UNL A   1      46.877  29.242  27.858  1.00  0.00    -0.248 NA
ATOM     56  C   UNL A   1      49.055  29.876  27.306  1.00  0.00     0.031 C 
ATOM     57  C   UNL A   1      43.803  32.004  29.488  1.00  0.00     0.029 A 
ATOM     58  C   UNL A   1      44.783  31.167  28.976  1.00  0.00     0.049 A 
ATOM     59  H   UNL A   1      44.629  29.147  28.390  1.00  0.00     0.167 HD
ATOM     60  C   UNL A   1      47.057  30.584  28.183  1.00  0.00     0.074 A 
ATOM     61  C   UNL A   1      48.430  30.909  27.856  1.00  0.00     0.031 C 
ATOM     62  C   UNL A   1      46.163  31.468  28.691  1.00  0.00     0.034 A 
BRANCH  49  63
ATOM     63  C   UNL A   1      40.471  29.148  29.365  1.00  0.00     0.023 A 
ATOM     64  C   UNL A   1      39.548  29.552  28.377  1.00  0.00     0.012 A 
ATOM     65  C   UNL A   1      40.027  28.953  30.687  1.00  0.00     0.148 A 
ATOM     66  C   UNL A   1      38.216  29.796  28.708  1.00  0.00     0.002 A 
ATOM     67  C   UNL A   1      38.688  29.156  31.000  1.00  0.00     0.091 A 
ATOM     68  F   UNL A   1      40.924  28.598  31.619  1.00  0.00    -0.205 F 
ATOM     69  C   UNL A   1      37.784  29.589  30.015  1.00  0.00     0.022 A 
BRANCH  67  70
ATOM     70  S   UNL A   1      38.027  28.844  32.640  1.00  0.00     0.127 S 
ATOM     71  O   UNL A   1      36.642  29.290  32.490  1.00  0.00    -0.237 OA
ATOM     72  O   UNL A   1      38.190  27.396  32.771  1.00  0.00    -0.237 OA
ATOM     73  O   UNL A   1      38.846  29.627  33.554  1.00  0.00    -0.744 OA
ENDBRANCH  67  70
ENDBRANCH  49  63
BRANCH  50  74
ATOM     74  C   UNL A   1      49.782  27.179  26.379  1.00  0.00     0.023 A 
ATOM     75  C   UNL A   1      50.769  26.648  27.229  1.00  0.00     0.012 A 
ATOM     76  C   UNL A   1      50.093  27.411  25.024  1.00  0.00     0.148 A 
ATOM     77  C   UNL A   1      52.049  26.371  26.745  1.00  0.00     0.002 A 
ATOM     78  C   UNL A   1      51.351  27.081  24.535  1.00  0.00     0.091 A 
ATOM     79  F   UNL A   1      49.142  27.933  24.236  1.00  0.00    -0.205 F 
ATOM     80  C   UNL A   1      52.336  26.576  25.397  1.00  0.00     0.022 A 
BRANCH  78  81
ATOM     81  S   UNL A   1      51.770  27.193  22.792  1.00  0.00     0.127 S 
ATOM     82  O   UNL A   1      50.487  26.909  22.156  1.00  0.00    -0.237 OA
ATOM     83  O   UNL A   1      52.221  28.581  22.681  1.00  0.00    -0.237 OA
ATOM     84  O   UNL A   1      52.816  26.202  22.573  1.00  0.00    -0.744 OA
ENDBRANCH  78  81
ENDBRANCH  50  74
BRANCH  62  85
ATOM     85  C   UNL A   1      46.637  32.876  28.954  1.00  0.00     0.023 A 
ATOM     86  C   UNL A   1      47.131  33.221  30.227  1.00  0.00     0.012 A 
ATOM     87  C   UNL A   1      46.674  33.830  27.917  1.00  0.00     0.148 A 
ATOM     88  C   UNL A   1      47.627  34.502  30.473  1.00  0.00     0.002 A 
ATOM     89  C   UNL A   1      47.212  35.089  28.157  1.00  0.00     0.091 A 
ATOM     90  F   UNL A   1      46.183  33.490  26.716  1.00  0.00    -0.205 F 
ATOM     91  C   UNL A   1      47.679  35.430  29.436  1.00  0.00     0.022 A 
BRANCH  89  92
ATOM     92  S   UNL A   1      47.407  36.315  26.857  1.00  0.00     0.127 S 
ATOM     93  O   UNL A   1      48.079  37.401  27.571  1.00  0.00    -0.237 OA
ATOM     94  O   UNL A   1      48.248  35.612  25.887  1.00  0.00    -0.237 OA
ATOM     95  O   UNL A   1      46.063  36.615  26.383  1.00  0.00    -0.744 OA
ENDBRANCH  89  92
ENDBRANCH  62  85
ENDBRANCH  36  37
ENDBRANCH  29  31
ENDBRANCH  28  29
ENDBRANCH  27  28
ENDBRANCH  26  27
ENDBRANCH  25  26
ENDBRANCH  24  25
ENDBRANCH   1  24
TORSDOF 24
ENDMDL
MODEL 2
REMARK VINA RESULT:      -9.1      6.332     10.944
REMARK SMILES COC[C@H]1CC[N@@H+](Cc2ccc(C(=O)OCCOCCOCCOC(=O)c3ccc(-c4c5nc(c(-c6cccc(S(=O)(=O)[O-])c6F)c6ccc([nH]6)c(-c6cccc(S(=O)(=O)[O-])c6F)c6nc(c(-c7cccc(S(=O)(=O)[O-])c7F)c7ccc4[nH]7)C=C6)C=C5)cc3)cn2)C1
REMARK SMILES IDX 19 1 18 2 17 3 16 4 15 5 13 6 14 7 12 8 9 9 10 10 91 11
REMARK SMILES IDX 11 12 90 13 8 14 7 15 4 16 5 17 92 18 6 19 3 21 2 22 1 23
REMARK SMILES IDX 20 24 21 25 22 26 23 27 24 28 25 29 26 30 27 31 28 32 89 33
REMARK SMILES IDX 29 34 88 35 30 36 31 37 32 38 82 39 33 40 87 41 81 42 83 43
REMARK SMILES IDX 34 44 86 45 80 46 79 47 35 49 67 50 47 51 66 52 48 53 51 54
REMARK SMILES IDX 65 55 84 56 49 57 50 58 64 60 85 61 52 62 36 63 37 64 45 65
REMARK SMILES IDX 38 66 40 67 46 68 39 69 41 70 42 71 43 72 44 73 68 74 69 75
REMARK SMILES IDX 77 76 70 77 72 78 78 79 71 80 73 81 74 82 75 83 76 84 53 85
REMARK SMILES IDX 54 86 62 87 55 88 57 89 63 90 56 91 58 92 59 93 60 94 61 95
REMARK H PARENT 7 20 83 48 51 59
REMARK Flexibility Score: inf
ROOT
ATOM      1  C   UNL A   1      34.832  32.143  28.234  1.00  0.00     0.188 C 
ENDROOT
BRANCH   1   2
ATOM      2  O   UNL A   1      33.682  31.840  27.470  1.00  0.00    -0.376 OA
BRANCH   2   3
ATOM      3  C   UNL A   1      33.247  30.502  27.290  1.00  0.00     0.202 C 
BRANCH   3   4
ATOM      4  C   UNL A   1      32.027  30.157  26.433  1.00  0.00     0.261 C 
BRANCH   4   5
ATOM      5  O   UNL A   1      32.142  28.902  25.755  1.00  0.00    -0.460 OA
BRANCH   5   6
ATOM      6  C   UNL A   1      31.284  28.733  24.722  1.00  0.00     0.339 C 
ATOM      7  O   UNL A   1      30.545  29.578  24.242  1.00  0.00    -0.246 OA
BRANCH   6   8
ATOM      8  C   UNL A   1      31.386  27.373  24.174  1.00  0.00     0.078 A 
ATOM      9  C   UNL A   1      31.571  24.714  23.534  1.00  0.00     0.095 A 
ATOM     10  C   UNL A   1      32.522  25.595  23.021  1.00  0.00     0.031 A 
ATOM     11  N   UNL A   1      30.474  25.146  24.208  1.00  0.00    -0.254 NA
ATOM     12  C   UNL A   1      32.441  26.940  23.370  1.00  0.00     0.019 A 
ATOM     13  C   UNL A   1      30.401  26.461  24.514  1.00  0.00     0.127 A 
BRANCH   9  14
ATOM     14  C   UNL A   1      31.859  23.221  23.579  1.00  0.00     0.319 C 
BRANCH  14  15
ATOM     15  N   UNL A   1      32.399  22.698  24.860  1.00  0.00    -0.330 N 
ATOM     16  C   UNL A   1      33.134  20.403  25.199  1.00  0.00     0.076 C 
ATOM     17  C   UNL A   1      34.258  21.224  24.588  1.00  0.00     0.073 C 
ATOM     18  C   UNL A   1      31.930  21.356  25.233  1.00  0.00     0.268 C 
ATOM     19  C   UNL A   1      33.868  22.660  24.903  1.00  0.00     0.263 C 
ATOM     20  H   UNL A   1      32.032  23.375  25.530  1.00  0.00     0.348 HD
BRANCH  16  21
ATOM     21  C   UNL A   1      32.815  19.083  24.493  1.00  0.00     0.169 C 
BRANCH  21  22
ATOM     22  O   UNL A   1      32.029  18.188  25.279  1.00  0.00    -0.384 OA
ATOM     23  C   UNL A   1      32.655  16.933  25.525  1.00  0.00     0.194 C 
ENDBRANCH  21  22
ENDBRANCH  16  21
ENDBRANCH  14  15
ENDBRANCH   9  14
ENDBRANCH   6   8
ENDBRANCH   5   6
ENDBRANCH   4   5
ENDBRANCH   3   4
ENDBRANCH   2   3
ENDBRANCH   1   2
BRANCH   1  24
ATOM     24  C   UNL A   1      34.806  33.292  29.264  1.00  0.00     0.188 C 
BRANCH  24  25
ATOM     25  O   UNL A   1      34.425  34.603  28.901  1.00  0.00    -0.376 OA
BRANCH  25  26
ATOM     26  C   UNL A   1      33.085  35.005  29.144  1.00  0.00     0.202 C 
BRANCH  26  27
ATOM     27  C   UNL A   1      32.766  36.069  30.202  1.00  0.00     0.261 C 
BRANCH  27  28
ATOM     28  O   UNL A   1      32.229  35.553  31.428  1.00  0.00    -0.460 OA
BRANCH  28  29
ATOM     29  C   UNL A   1      32.943  35.861  32.543  1.00  0.00     0.338 C 
ATOM     30  O   UNL A   1      32.583  36.560  33.475  1.00  0.00    -0.246 OA
BRANCH  29  31
ATOM     31  C   UNL A   1      34.171  35.044  32.583  1.00  0.00     0.060 A 
ATOM     32  C   UNL A   1      34.063  33.706  32.993  1.00  0.00     0.016 A 
ATOM     33  C   UNL A   1      35.413  35.590  32.265  1.00  0.00     0.016 A 
ATOM     34  C   UNL A   1      35.204  32.916  33.116  1.00  0.00     0.010 A 
ATOM     35  C   UNL A   1      36.561  34.804  32.415  1.00  0.00     0.010 A 
ATOM     36  C   UNL A   1      36.463  33.477  32.871  1.00  0.00    -0.014 A 
BRANCH  36  37
ATOM     37  C   UNL A   1      37.687  32.742  33.268  1.00  0.00     0.031 A 
ATOM     38  C   UNL A   1      38.283  33.019  34.619  1.00  0.00     0.074 A 
ATOM     39  C   UNL A   1      38.278  31.869  32.434  1.00  0.00     0.049 A 
ATOM     40  N   UNL A   1      39.377  32.548  35.155  1.00  0.00    -0.248 NA
ATOM     41  C   UNL A   1      37.548  33.964  35.476  1.00  0.00     0.031 C 
ATOM     42  C   UNL A   1      37.801  31.520  31.099  1.00  0.00     0.029 A 
ATOM     43  N   UNL A   1      39.436  31.147  32.582  1.00  0.00    -0.354 N 
ATOM     44  C   UNL A   1      39.479  33.157  36.400  1.00  0.00     0.074 A 
ATOM     45  C   UNL A   1      38.341  34.042  36.534  1.00  0.00     0.031 C 
ATOM     46  C   UNL A   1      38.688  30.688  30.526  1.00  0.00     0.029 A 
ATOM     47  C   UNL A   1      39.801  30.462  31.447  1.00  0.00     0.049 A 
ATOM     48  H   UNL A   1      39.955  31.122  33.419  1.00  0.00     0.167 HD
ATOM     49  C   UNL A   1      40.425  32.987  37.354  1.00  0.00     0.034 A 
ATOM     50  C   UNL A   1      40.919  29.761  31.175  1.00  0.00     0.034 A 
ATOM     51  C   UNL A   1      41.551  32.103  37.224  1.00  0.00     0.049 A 
ATOM     52  C   UNL A   1      41.971  29.597  32.242  1.00  0.00     0.074 A 
ATOM     53  C   UNL A   1      42.535  31.821  38.155  1.00  0.00     0.029 A 
ATOM     54  N   UNL A   1      41.856  31.373  36.086  1.00  0.00    -0.354 N 
ATOM     55  N   UNL A   1      41.986  30.067  33.466  1.00  0.00    -0.248 NA
ATOM     56  C   UNL A   1      43.143  28.775  31.903  1.00  0.00     0.031 C 
ATOM     57  C   UNL A   1      43.450  30.939  37.569  1.00  0.00     0.029 A 
ATOM     58  C   UNL A   1      43.021  30.652  36.282  1.00  0.00     0.049 A 
ATOM     59  H   UNL A   1      41.322  31.369  35.258  1.00  0.00     0.167 HD
ATOM     60  C   UNL A   1      43.150  29.577  34.052  1.00  0.00     0.074 A 
ATOM     61  C   UNL A   1      43.803  28.756  33.055  1.00  0.00     0.031 C 
ATOM     62  C   UNL A   1      43.639  29.799  35.298  1.00  0.00     0.034 A 
BRANCH  49  63
ATOM     63  C   UNL A   1      40.261  33.764  38.632  1.00  0.00     0.023 A 
ATOM     64  C   UNL A   1      40.987  34.959  38.819  1.00  0.00     0.012 A 
ATOM     65  C   UNL A   1      39.380  33.325  39.638  1.00  0.00     0.148 A 
ATOM     66  C   UNL A   1      40.867  35.684  40.004  1.00  0.00     0.002 A 
ATOM     67  C   UNL A   1      39.234  34.077  40.799  1.00  0.00     0.091 A 
ATOM     68  F   UNL A   1      38.721  32.172  39.456  1.00  0.00    -0.205 F 
ATOM     69  C   UNL A   1      39.985  35.249  40.988  1.00  0.00     0.022 A 
BRANCH  67  70
ATOM     70  S   UNL A   1      38.066  33.632  42.089  1.00  0.00     0.127 S 
ATOM     71  O   UNL A   1      36.823  33.504  41.331  1.00  0.00    -0.237 OA
ATOM     72  O   UNL A   1      38.613  32.368  42.582  1.00  0.00    -0.237 OA
ATOM     73  O   UNL A   1      38.107  34.722  43.054  1.00  0.00    -0.744 OA
ENDBRANCH  67  70
ENDBRANCH  49  63
BRANCH  50  74
ATOM     74  C   UNL A   1      41.089  29.145  29.829  1.00  0.00     0.023 A 
ATOM     75  C   UNL A   1      41.799  29.835  28.830  1.00  0.00     0.012 A 
ATOM     76  C   UNL A   1      40.581  27.860  29.551  1.00  0.00     0.148 A 
ATOM     77  C   UNL A   1      41.984  29.264  27.569  1.00  0.00     0.002 A 
ATOM     78  C   UNL A   1      40.816  27.275  28.313  1.00  0.00     0.091 A 
ATOM     79  F   UNL A   1      39.893  27.228  30.513  1.00  0.00    -0.205 F 
ATOM     80  C   UNL A   1      41.503  27.982  27.315  1.00  0.00     0.022 A 
BRANCH  78  81
ATOM     81  S   UNL A   1      40.345  25.583  27.939  1.00  0.00     0.127 S 
ATOM     82  O   UNL A   1      40.298  25.600  26.480  1.00  0.00    -0.237 OA
ATOM     83  O   UNL A   1      41.461  24.828  28.511  1.00  0.00    -0.237 OA
ATOM     84  O   UNL A   1      39.069  25.370  28.609  1.00  0.00    -0.744 OA
ENDBRANCH  78  81
ENDBRANCH  50  74
BRANCH  62  85
ATOM     85  C   UNL A   1      44.937  29.129  35.675  1.00  0.00     0.023 A 
ATOM     86  C   UNL A   1      46.158  29.794  35.452  1.00  0.00     0.012 A 
ATOM     87  C   UNL A   1      44.940  27.881  36.329  1.00  0.00     0.148 A 
ATOM     88  C   UNL A   1      47.365  29.214  35.846  1.00  0.00     0.002 A 
ATOM     89  C   UNL A   1      46.142  27.330  36.761  1.00  0.00     0.091 A 
ATOM     90  F   UNL A   1      43.769  27.253  36.518  1.00  0.00    -0.205 F 
ATOM     91  C   UNL A   1      47.355  27.991  36.511  1.00  0.00     0.022 A 
BRANCH  89  92
ATOM     92  S   UNL A   1      46.216  25.806  37.710  1.00  0.00     0.127 S 
ATOM     93  O   UNL A   1      45.258  24.963  36.995  1.00  0.00    -0.237 OA
ATOM     94  O   UNL A   1      47.615  25.406  37.551  1.00  0.00    -0.237 OA
ATOM     95  O   UNL A   1      45.843  26.163  39.072  1.00  0.00    -0.744 OA
ENDBRANCH  89  92
ENDBRANCH  62  85
ENDBRANCH  36  37
ENDBRANCH  29  31
ENDBRANCH  28  29
ENDBRANCH  27  28
ENDBRANCH  26  27
ENDBRANCH  25  26
ENDBRANCH  24  25
ENDBRANCH   1  24
TORSDOF 24
ENDMDL
MODEL 3
REMARK VINA RESULT:      -8.9      6.407     11.182
REMARK SMILES COC[C@H]1CC[N@@H+](Cc2ccc(C(=O)OCCOCCOCCOC(=O)c3ccc(-c4c5nc(c(-c6cccc(S(=O)(=O)[O-])c6F)c6ccc([nH]6)c(-c6cccc(S(=O)(=O)[O-])c6F)c6nc(c(-c7cccc(S(=O)(=O)[O-])c7F)c7ccc4[nH]7)C=C6)C=C5)cc3)cn2)C1
REMARK SMILES IDX 19 1 18 2 17 3 16 4 15 5 13 6 14 7 12 8 9 9 10 10 91 11
REMARK SMILES IDX 11 12 90 13 8 14 7 15 4 16 5 17 92 18 6 19 3 21 2 22 1 23
REMARK SMILES IDX 20 24 21 25 22 26 23 27 24 28 25 29 26 30 27 31 28 32 89 33
REMARK SMILES IDX 29 34 88 35 30 36 31 37 32 38 82 39 33 40 87 41 81 42 83 43
REMARK SMILES IDX 34 44 86 45 80 46 79 47 35 49 67 50 47 51 66 52 48 53 51 54
REMARK SMILES IDX 65 55 84 56 49 57 50 58 64 60 85 61 52 62 36 63 37 64 45 65
REMARK SMILES IDX 38 66 40 67 46 68 39 69 41 70 42 71 43 72 44 73 68 74 69 75
REMARK SMILES IDX 77 76 70 77 72 78 78 79 71 80 73 81 74 82 75 83 76 84 53 85
REMARK SMILES IDX 54 86 62 87 55 88 57 89 63 90 56 91 58 92 59 93 60 94 61 95
REMARK H PARENT 7 20 83 48 51 59
REMARK Flexibility Score: inf
ROOT
ATOM      1  C   UNL A   1      35.869  32.196  28.164  1.00  0.00     0.188 C 
ENDROOT
BRANCH   1   2
ATOM      2  O   UNL A   1      34.754  31.338  28.022  1.00  0.00    -0.376 OA
BRANCH   2   3
ATOM      3  C   UNL A   1      34.903  30.006  27.558  1.00  0.00     0.202 C 
BRANCH   3   4
ATOM      4  C   UNL A   1      33.808  29.303  26.754  1.00  0.00     0.261 C 
BRANCH   4   5
ATOM      5  O   UNL A   1      32.502  29.849  26.968  1.00  0.00    -0.460 OA
BRANCH   5   6
ATOM      6  C   UNL A   1      31.759  30.002  25.847  1.00  0.00     0.339 C 
ATOM      7  O   UNL A   1      31.098  30.980  25.536  1.00  0.00    -0.246 OA
BRANCH   6   8
ATOM      8  C   UNL A   1      31.886  28.828  24.971  1.00  0.00     0.078 A 
ATOM      9  C   UNL A   1      32.425  26.530  23.577  1.00  0.00     0.095 A 
ATOM     10  C   UNL A   1      32.395  27.740  22.887  1.00  0.00     0.031 A 
ATOM     11  N   UNL A   1      32.046  26.428  24.878  1.00  0.00    -0.254 NA
ATOM     12  C   UNL A   1      32.148  28.909  23.602  1.00  0.00     0.019 A 
ATOM     13  C   UNL A   1      31.785  27.573  25.548  1.00  0.00     0.127 A 
BRANCH   9  14
ATOM     14  C   UNL A   1      33.125  25.323  22.972  1.00  0.00     0.319 C 
BRANCH  14  15
ATOM     15  N   UNL A   1      32.241  24.250  22.446  1.00  0.00    -0.330 N 
ATOM     16  C   UNL A   1      32.180  21.978  23.316  1.00  0.00     0.076 C 
ATOM     17  C   UNL A   1      31.279  22.878  24.147  1.00  0.00     0.073 C 
ATOM     18  C   UNL A   1      32.870  22.928  22.325  1.00  0.00     0.268 C 
ATOM     19  C   UNL A   1      31.014  24.066  23.235  1.00  0.00     0.263 C 
ATOM     20  H   UNL A   1      32.025  24.602  21.512  1.00  0.00     0.348 HD
BRANCH  16  21
ATOM     21  C   UNL A   1      33.180  21.128  24.103  1.00  0.00     0.169 C 
BRANCH  21  22
ATOM     22  O   UNL A   1      34.311  21.861  24.570  1.00  0.00    -0.384 OA
ATOM     23  C   UNL A   1      34.038  22.691  25.696  1.00  0.00     0.194 C 
ENDBRANCH  21  22
ENDBRANCH  16  21
ENDBRANCH  14  15
ENDBRANCH   9  14
ENDBRANCH   6   8
ENDBRANCH   5   6
ENDBRANCH   4   5
ENDBRANCH   3   4
ENDBRANCH   2   3
ENDBRANCH   1   2
BRANCH   1  24
ATOM     24  C   UNL A   1      35.707  33.587  28.813  1.00  0.00     0.188 C 
BRANCH  24  25
ATOM     25  O   UNL A   1      35.052  34.645  28.143  1.00  0.00    -0.376 OA
BRANCH  25  26
ATOM     26  C   UNL A   1      33.638  34.721  28.226  1.00  0.00     0.202 C 
BRANCH  26  27
ATOM     27  C   UNL A   1      32.961  35.609  29.277  1.00  0.00     0.261 C 
BRANCH  27  28
ATOM     28  O   UNL A   1      32.588  34.933  30.486  1.00  0.00    -0.460 OA
BRANCH  28  29
ATOM     29  C   UNL A   1      32.846  35.617  31.631  1.00  0.00     0.338 C 
ATOM     30  O   UNL A   1      32.175  36.510  32.119  1.00  0.00    -0.246 OA
BRANCH  29  31
ATOM     31  C   UNL A   1      33.967  34.976  32.346  1.00  0.00     0.060 A 
ATOM     32  C   UNL A   1      35.266  35.448  32.101  1.00  0.00     0.016 A 
ATOM     33  C   UNL A   1      33.754  33.902  33.209  1.00  0.00     0.016 A 
ATOM     34  C   UNL A   1      36.361  34.827  32.697  1.00  0.00     0.010 A 
ATOM     35  C   UNL A   1      34.856  33.263  33.785  1.00  0.00     0.010 A 
ATOM     36  C   UNL A   1      36.163  33.702  33.505  1.00  0.00    -0.014 A 
BRANCH  36  37
ATOM     37  C   UNL A   1      37.322  32.872  33.909  1.00  0.00     0.031 A 
ATOM     38  C   UNL A   1      38.092  33.265  35.138  1.00  0.00     0.074 A 
ATOM     39  C   UNL A   1      37.706  31.808  33.183  1.00  0.00     0.049 A 
ATOM     40  N   UNL A   1      39.171  32.733  35.647  1.00  0.00    -0.248 NA
ATOM     41  C   UNL A   1      37.578  34.423  35.889  1.00  0.00     0.031 C 
ATOM     42  C   UNL A   1      37.046  31.331  31.970  1.00  0.00     0.029 A 
ATOM     43  N   UNL A   1      38.774  30.962  33.346  1.00  0.00    -0.354 N 
ATOM     44  C   UNL A   1      39.483  33.503  36.760  1.00  0.00     0.074 A 
ATOM     45  C   UNL A   1      38.486  34.549  36.845  1.00  0.00     0.031 C 
ATOM     46  C   UNL A   1      37.755  30.305  31.467  1.00  0.00     0.029 A 
ATOM     47  C   UNL A   1      38.925  30.068  32.312  1.00  0.00     0.049 A 
ATOM     48  H   UNL A   1      39.374  30.992  34.126  1.00  0.00     0.167 HD
ATOM     49  C   UNL A   1      40.500  33.350  37.642  1.00  0.00     0.034 A 
ATOM     50  C   UNL A   1      39.911  29.184  32.062  1.00  0.00     0.034 A 
ATOM     51  C   UNL A   1      41.486  32.307  37.561  1.00  0.00     0.049 A 
ATOM     52  C   UNL A   1      41.044  29.039  33.045  1.00  0.00     0.074 A 
ATOM     53  C   UNL A   1      42.523  32.035  38.436  1.00  0.00     0.029 A 
ATOM     54  N   UNL A   1      41.572  31.377  36.537  1.00  0.00    -0.354 N 
ATOM     55  N   UNL A   1      41.251  29.683  34.169  1.00  0.00    -0.248 NA
ATOM     56  C   UNL A   1      42.061  28.018  32.745  1.00  0.00     0.031 C 
ATOM     57  C   UNL A   1      43.251  30.955  37.925  1.00  0.00     0.029 A 
ATOM     58  C   UNL A   1      42.652  30.538  36.746  1.00  0.00     0.049 A 
ATOM     59  H   UNL A   1      40.954  31.322  35.771  1.00  0.00     0.167 HD
ATOM     60  C   UNL A   1      42.402  29.129  34.723  1.00  0.00     0.074 A 
ATOM     61  C   UNL A   1      42.836  28.082  33.821  1.00  0.00     0.031 C 
ATOM     62  C   UNL A   1      43.048  29.468  35.867  1.00  0.00     0.034 A 
BRANCH  49  63
ATOM     63  C   UNL A   1      40.574  34.327  38.783  1.00  0.00     0.023 A 
ATOM     64  C   UNL A   1      41.436  35.440  38.693  1.00  0.00     0.012 A 
ATOM     65  C   UNL A   1      39.782  34.158  39.935  1.00  0.00     0.148 A 
ATOM     66  C   UNL A   1      41.538  36.347  39.746  1.00  0.00     0.002 A 
ATOM     67  C   UNL A   1      39.857  35.090  40.963  1.00  0.00     0.091 A 
ATOM     68  F   UNL A   1      38.990  33.079  40.016  1.00  0.00    -0.205 F 
ATOM     69  C   UNL A   1      40.742  36.178  40.876  1.00  0.00     0.022 A 
BRANCH  67  70
ATOM     70  S   UNL A   1      38.817  34.994  42.424  1.00  0.00     0.127 S 
ATOM     71  O   UNL A   1      39.219  36.195  43.153  1.00  0.00    -0.237 OA
ATOM     72  O   UNL A   1      37.471  35.050  41.853  1.00  0.00    -0.237 OA
ATOM     73  O   UNL A   1      39.147  33.728  43.063  1.00  0.00    -0.744 OA
ENDBRANCH  67  70
ENDBRANCH  49  63
BRANCH  50  74
ATOM     74  C   UNL A   1      39.855  28.353  30.827  1.00  0.00     0.023 A 
ATOM     75  C   UNL A   1      39.027  27.215  30.789  1.00  0.00     0.012 A 
ATOM     76  C   UNL A   1      40.589  28.708  29.678  1.00  0.00     0.148 A 
ATOM     77  C   UNL A   1      38.946  26.435  29.634  1.00  0.00     0.002 A 
ATOM     78  C   UNL A   1      40.463  27.959  28.516  1.00  0.00     0.091 A 
ATOM     79  F   UNL A   1      41.385  29.786  29.743  1.00  0.00    -0.205 F 
ATOM     80  C   UNL A   1      39.655  26.813  28.496  1.00  0.00     0.022 A 
BRANCH  78  81
ATOM     81  S   UNL A   1      41.236  28.440  26.968  1.00  0.00     0.127 S 
ATOM     82  O   UNL A   1      41.630  27.147  26.414  1.00  0.00    -0.237 OA
ATOM     83  O   UNL A   1      40.130  29.098  26.272  1.00  0.00    -0.237 OA
ATOM     84  O   UNL A   1      42.331  29.329  27.333  1.00  0.00    -0.744 OA
ENDBRANCH  78  81
ENDBRANCH  50  74
BRANCH  62  85
ATOM     85  C   UNL A   1      44.286  28.687  36.234  1.00  0.00     0.023 A 
ATOM     86  C   UNL A   1      45.554  29.167  35.854  1.00  0.00     0.012 A 
ATOM     87  C   UNL A   1      44.197  27.527  37.029  1.00  0.00     0.148 A 
ATOM     88  C   UNL A   1      46.713  28.490  36.233  1.00  0.00     0.002 A 
ATOM     89  C   UNL A   1      45.358  26.883  37.443  1.00  0.00     0.091 A 
ATOM     90  F   UNL A   1      42.981  27.074  37.368  1.00  0.00    -0.205 F 
ATOM     91  C   UNL A   1      46.615  27.357  37.037  1.00  0.00     0.022 A 
BRANCH  89  92
ATOM     92  S   UNL A   1      45.332  25.474  38.558  1.00  0.00     0.127 S 
ATOM     93  O   UNL A   1      44.629  26.024  39.716  1.00  0.00    -0.237 OA
ATOM     94  O   UNL A   1      44.568  24.485  37.795  1.00  0.00    -0.237 OA
ATOM     95  O   UNL A   1      46.725  25.115  38.783  1.00  0.00    -0.744 OA
ENDBRANCH  89  92
ENDBRANCH  62  85
ENDBRANCH  36  37
ENDBRANCH  29  31
ENDBRANCH  28  29
ENDBRANCH  27  28
ENDBRANCH  26  27
ENDBRANCH  25  26
ENDBRANCH  24  25
ENDBRANCH   1  24
TORSDOF 24
ENDMDL
