MODEL 1
REMARK VINA RESULT:     -10.4      0.000      0.000
REMARK SMILES O=C(OCCOCCOCCOC(=O)c1sccc1S(=O)(=O)N1CCO[C@@H]2CCCC[C@@H]21)c1ccc(-c2c3nc(c(-c4cccc(S(=O)(=O)[O-])c4F)c4ccc([nH]4)c(-c4cccc(S(=O)(=O)[O-])c4F)c4nc(c(-c5cccc(S(=O)(=O)[O-])c5F)c5ccc2[nH]5)C=C4)C=C3)cc1
REMARK SMILES IDX 7 1 6 2 5 3 4 4 3 5 2 6 1 7 33 8 34 9 95 10 35 11 94 12
REMARK SMILES IDX 36 13 37 14 38 15 88 16 39 17 93 18 87 19 89 20 40 21 92 22
REMARK SMILES IDX 86 23 85 24 41 26 73 27 53 28 72 29 54 30 57 31 71 32 90 33
REMARK SMILES IDX 55 34 56 35 70 37 91 38 58 39 42 40 43 41 51 42 44 43 46 44
REMARK SMILES IDX 52 45 45 46 47 47 48 48 49 49 50 50 74 51 75 52 83 53 76 54
REMARK SMILES IDX 78 55 84 56 77 57 79 58 80 59 81 60 82 61 59 62 60 63 68 64
REMARK SMILES IDX 61 65 63 66 69 67 62 68 64 69 65 70 66 71 67 72 8 73 9 74
REMARK SMILES IDX 10 75 11 76 12 77 13 78 14 79 15 80 16 81 19 82 17 83 18 84
REMARK SMILES IDX 20 85 21 86 22 87 23 88 24 89 32 90 25 91 27 92 31 93 26 94
REMARK SMILES IDX 28 95 30 96 29 97
REMARK H PARENT 89 25 57 36
REMARK Flexibility Score: inf
ROOT
ATOM      1  C   UNL A   1      32.758  29.094  27.463  1.00  0.00     0.188 C 
ENDROOT
BRANCH   1   2
ATOM      2  O   UNL A   1      32.746  30.120  26.469  1.00  0.00    -0.376 OA
BRANCH   2   3
ATOM      3  C   UNL A   1      31.492  30.802  26.360  1.00  0.00     0.202 C 
BRANCH   3   4
ATOM      4  C   UNL A   1      31.545  32.277  26.786  1.00  0.00     0.261 C 
BRANCH   4   5
ATOM      5  O   UNL A   1      32.863  32.696  27.176  1.00  0.00    -0.460 OA
BRANCH   5   6
ATOM      6  C   UNL A   1      33.246  33.598  28.112  1.00  0.00     0.338 C 
ATOM      7  O   UNL A   1      32.547  34.603  28.246  1.00  0.00    -0.246 OA
BRANCH   6   8
ATOM      8  C   UNL A   1      34.443  33.455  29.010  1.00  0.00     0.060 A 
ATOM      9  C   UNL A   1      35.697  34.039  28.821  1.00  0.00     0.016 A 
ATOM     10  C   UNL A   1      34.266  32.659  30.159  1.00  0.00     0.016 A 
ATOM     11  C   UNL A   1      36.764  33.765  29.671  1.00  0.00     0.010 A 
ATOM     12  C   UNL A   1      35.325  32.400  31.035  1.00  0.00     0.010 A 
ATOM     13  C   UNL A   1      36.591  32.919  30.758  1.00  0.00    -0.014 A 
BRANCH  13  14
ATOM     14  C   UNL A   1      37.794  32.395  31.424  1.00  0.00     0.031 A 
ATOM     15  C   UNL A   1      38.511  31.265  30.753  1.00  0.00     0.074 A 
ATOM     16  C   UNL A   1      38.291  32.974  32.529  1.00  0.00     0.049 A 
ATOM     17  N   UNL A   1      39.547  30.585  31.159  1.00  0.00    -0.248 NA
ATOM     18  C   UNL A   1      38.004  30.866  29.428  1.00  0.00     0.031 C 
ATOM     19  C   UNL A   1      37.750  34.172  33.164  1.00  0.00     0.029 A 
ATOM     20  N   UNL A   1      39.359  32.627  33.312  1.00  0.00    -0.354 N 
ATOM     21  C   UNL A   1      39.785  29.648  30.164  1.00  0.00     0.074 A 
ATOM     22  C   UNL A   1      38.804  29.857  29.126  1.00  0.00     0.031 C 
ATOM     23  C   UNL A   1      38.467  34.439  34.269  1.00  0.00     0.029 A 
ATOM     24  C   UNL A   1      39.470  33.394  34.446  1.00  0.00     0.049 A 
ATOM     25  H   UNL A   1      39.983  31.900  33.086  1.00  0.00     0.167 HD
ATOM     26  C   UNL A   1      40.734  28.687  30.132  1.00  0.00     0.034 A 
ATOM     27  C   UNL A   1      40.257  33.231  35.526  1.00  0.00     0.034 A 
ATOM     28  C   UNL A   1      41.681  28.482  31.189  1.00  0.00     0.049 A 
ATOM     29  C   UNL A   1      41.230  32.083  35.526  1.00  0.00     0.074 A 
ATOM     30  C   UNL A   1      42.659  27.514  31.297  1.00  0.00     0.029 A 
ATOM     31  N   UNL A   1      41.748  29.257  32.340  1.00  0.00    -0.354 N 
ATOM     32  N   UNL A   1      41.460  31.199  34.583  1.00  0.00    -0.248 NA
ATOM     33  C   UNL A   1      42.070  31.918  36.719  1.00  0.00     0.031 C 
ATOM     34  C   UNL A   1      43.290  27.677  32.535  1.00  0.00     0.029 A 
ATOM     35  C   UNL A   1      42.741  28.779  33.173  1.00  0.00     0.049 A 
ATOM     36  H   UNL A   1      41.172  30.031  32.534  1.00  0.00     0.167 HD
ATOM     37  C   UNL A   1      42.499  30.403  35.047  1.00  0.00     0.074 A 
ATOM     38  C   UNL A   1      42.856  30.912  36.356  1.00  0.00     0.031 C 
ATOM     39  C   UNL A   1      43.102  29.345  34.449  1.00  0.00     0.034 A 
BRANCH  26  40
ATOM     40  C   UNL A   1      40.722  27.761  28.949  1.00  0.00     0.023 A 
ATOM     41  C   UNL A   1      39.826  26.673  28.903  1.00  0.00     0.012 A 
ATOM     42  C   UNL A   1      41.642  27.946  27.899  1.00  0.00     0.148 A 
ATOM     43  C   UNL A   1      39.880  25.756  27.852  1.00  0.00     0.002 A 
ATOM     44  C   UNL A   1      41.657  27.057  26.834  1.00  0.00     0.091 A 
ATOM     45  F   UNL A   1      42.507  28.966  27.982  1.00  0.00    -0.205 F 
ATOM     46  C   UNL A   1      40.790  25.952  26.817  1.00  0.00     0.022 A 
BRANCH  44  47
ATOM     47  S   UNL A   1      42.749  27.261  25.425  1.00  0.00     0.127 S 
ATOM     48  O   UNL A   1      44.038  27.478  26.079  1.00  0.00    -0.237 OA
ATOM     49  O   UNL A   1      42.618  25.969  24.749  1.00  0.00    -0.237 OA
ATOM     50  O   UNL A   1      42.231  28.396  24.673  1.00  0.00    -0.744 OA
ENDBRANCH  44  47
ENDBRANCH  26  40
BRANCH  27  51
ATOM     51  C   UNL A   1      40.134  34.150  36.693  1.00  0.00     0.023 A 
ATOM     52  C   UNL A   1      40.552  35.489  36.583  1.00  0.00     0.012 A 
ATOM     53  C   UNL A   1      39.593  33.700  37.915  1.00  0.00     0.148 A 
ATOM     54  C   UNL A   1      40.459  36.356  37.675  1.00  0.00     0.002 A 
ATOM     55  C   UNL A   1      39.456  34.579  38.982  1.00  0.00     0.091 A 
ATOM     56  F   UNL A   1      39.216  32.417  38.006  1.00  0.00    -0.205 F 
ATOM     57  C   UNL A   1      39.903  35.905  38.871  1.00  0.00     0.022 A 
BRANCH  55  58
ATOM     58  S   UNL A   1      38.652  34.106  40.517  1.00  0.00     0.127 S 
ATOM     59  O   UNL A   1      39.549  33.066  41.014  1.00  0.00    -0.237 OA
ATOM     60  O   UNL A   1      38.680  35.357  41.273  1.00  0.00    -0.237 OA
ATOM     61  O   UNL A   1      37.316  33.664  40.139  1.00  0.00    -0.744 OA
ENDBRANCH  55  58
ENDBRANCH  27  51
BRANCH  39  62
ATOM     62  C   UNL A   1      44.256  28.703  35.170  1.00  0.00     0.023 A 
ATOM     63  C   UNL A   1      45.562  29.200  35.002  1.00  0.00     0.012 A 
ATOM     64  C   UNL A   1      44.015  27.673  36.100  1.00  0.00     0.148 A 
ATOM     65  C   UNL A   1      46.618  28.662  35.737  1.00  0.00     0.002 A 
ATOM     66  C   UNL A   1      45.061  27.182  36.868  1.00  0.00     0.091 A 
ATOM     67  F   UNL A   1      42.764  27.205  36.225  1.00  0.00    -0.205 F 
ATOM     68  C   UNL A   1      46.366  27.667  36.680  1.00  0.00     0.022 A 
BRANCH  66  69
ATOM     69  S   UNL A   1      44.806  25.987  38.182  1.00  0.00     0.127 S 
ATOM     70  O   UNL A   1      44.640  24.746  37.427  1.00  0.00    -0.237 OA
ATOM     71  O   UNL A   1      46.057  26.082  38.934  1.00  0.00    -0.237 OA
ATOM     72  O   UNL A   1      43.627  26.434  38.913  1.00  0.00    -0.744 OA
ENDBRANCH  66  69
ENDBRANCH  39  62
ENDBRANCH  13  14
ENDBRANCH   6   8
ENDBRANCH   5   6
ENDBRANCH   4   5
ENDBRANCH   3   4
ENDBRANCH   2   3
ENDBRANCH   1   2
BRANCH   1  73
ATOM     73  C   UNL A   1      31.466  28.288  27.598  1.00  0.00     0.188 C 
BRANCH  73  74
ATOM     74  O   UNL A   1      31.518  26.948  27.126  1.00  0.00    -0.376 OA
BRANCH  74  75
ATOM     75  C   UNL A   1      30.658  26.649  26.021  1.00  0.00     0.202 C 
BRANCH  75  76
ATOM     76  C   UNL A   1      30.835  27.537  24.791  1.00  0.00     0.261 C 
BRANCH  76  77
ATOM     77  O   UNL A   1      31.325  26.814  23.642  1.00  0.00    -0.459 OA
BRANCH  77  78
ATOM     78  C   UNL A   1      32.682  26.655  23.593  1.00  0.00     0.349 C 
ATOM     79  O   UNL A   1      33.479  27.358  24.200  1.00  0.00    -0.245 OA
BRANCH  78  80
ATOM     80  C   UNL A   1      33.053  25.564  22.728  1.00  0.00     0.132 A 
ATOM     81  S   UNL A   1      32.741  25.681  21.048  1.00  0.00    -0.136 S 
ATOM     82  C   UNL A   1      33.532  24.316  23.066  1.00  0.00     0.108 A 
ATOM     83  C   UNL A   1      33.109  24.028  20.799  1.00  0.00     0.067 A 
ATOM     84  C   UNL A   1      33.502  23.406  21.966  1.00  0.00     0.034 A 
BRANCH  82  85
ATOM     85  S   UNL A   1      34.043  23.865  24.658  1.00  0.00     0.245 S 
ATOM     86  O   UNL A   1      35.241  24.661  24.853  1.00  0.00    -0.207 OA
ATOM     87  O   UNL A   1      32.868  23.998  25.474  1.00  0.00    -0.207 OA
BRANCH  85  88
ATOM     88  N   UNL A   1      34.492  22.212  24.622  1.00  0.00    -0.190 NA
ATOM     89  C   UNL A   1      35.934  21.973  24.880  1.00  0.00     0.131 C 
ATOM     90  C   UNL A   1      33.489  21.204  25.109  1.00  0.00     0.102 C 
ATOM     91  C   UNL A   1      36.313  20.522  25.149  1.00  0.00     0.177 C 
ATOM     92  C   UNL A   1      34.100  19.804  25.380  1.00  0.00     0.136 C 
ATOM     93  C   UNL A   1      32.236  21.154  24.209  1.00  0.00     0.023 C 
ATOM     94  O   UNL A   1      35.338  19.592  24.688  1.00  0.00    -0.375 OA
ATOM     95  C   UNL A   1      33.170  18.647  25.025  1.00  0.00     0.034 C 
ATOM     96  C   UNL A   1      32.162  20.046  23.164  1.00  0.00     0.002 C 
ATOM     97  C   UNL A   1      32.725  18.696  23.575  1.00  0.00     0.003 C 
ENDBRANCH  85  88
ENDBRANCH  82  85
ENDBRANCH  78  80
ENDBRANCH  77  78
ENDBRANCH  76  77
ENDBRANCH  75  76
ENDBRANCH  74  75
ENDBRANCH  73  74
ENDBRANCH   1  73
TORSDOF 22
ENDMDL
MODEL 2
REMARK VINA RESULT:      -9.9      1.734      7.665
REMARK SMILES O=C(OCCOCCOCCOC(=O)c1sccc1S(=O)(=O)N1CCO[C@@H]2CCCC[C@@H]21)c1ccc(-c2c3nc(c(-c4cccc(S(=O)(=O)[O-])c4F)c4ccc([nH]4)c(-c4cccc(S(=O)(=O)[O-])c4F)c4nc(c(-c5cccc(S(=O)(=O)[O-])c5F)c5ccc2[nH]5)C=C4)C=C3)cc1
REMARK SMILES IDX 7 1 6 2 5 3 4 4 3 5 2 6 1 7 33 8 34 9 95 10 35 11 94 12
REMARK SMILES IDX 36 13 37 14 38 15 88 16 39 17 93 18 87 19 89 20 40 21 92 22
REMARK SMILES IDX 86 23 85 24 41 26 73 27 53 28 72 29 54 30 57 31 71 32 90 33
REMARK SMILES IDX 55 34 56 35 70 37 91 38 58 39 42 40 43 41 51 42 44 43 46 44
REMARK SMILES IDX 52 45 45 46 47 47 48 48 49 49 50 50 74 51 75 52 83 53 76 54
REMARK SMILES IDX 78 55 84 56 77 57 79 58 80 59 81 60 82 61 59 62 60 63 68 64
REMARK SMILES IDX 61 65 63 66 69 67 62 68 64 69 65 70 66 71 67 72 8 73 9 74
REMARK SMILES IDX 10 75 11 76 12 77 13 78 14 79 15 80 16 81 19 82 17 83 18 84
REMARK SMILES IDX 20 85 21 86 22 87 23 88 24 89 32 90 25 91 27 92 31 93 26 94
REMARK SMILES IDX 28 95 30 96 29 97
REMARK H PARENT 89 25 57 36
REMARK Flexibility Score: inf
ROOT
ATOM      1  C   UNL A   1      34.138  31.809  28.240  1.00  0.00     0.188 C 
ENDROOT
BRANCH   1   2
ATOM      2  O   UNL A   1      34.121  33.151  27.750  1.00  0.00    -0.376 OA
BRANCH   2   3
ATOM      3  C   UNL A   1      32.851  33.798  27.889  1.00  0.00     0.202 C 
BRANCH   3   4
ATOM      4  C   UNL A   1      32.935  35.216  28.475  1.00  0.00     0.261 C 
BRANCH   4   5
ATOM      5  O   UNL A   1      32.619  35.258  29.877  1.00  0.00    -0.460 OA
BRANCH   5   6
ATOM      6  C   UNL A   1      33.436  35.155  30.954  1.00  0.00     0.338 C 
ATOM      7  O   UNL A   1      33.283  35.977  31.858  1.00  0.00    -0.246 OA
BRANCH   6   8
ATOM      8  C   UNL A   1      34.496  34.105  31.136  1.00  0.00     0.060 A 
ATOM      9  C   UNL A   1      34.350  32.884  31.798  1.00  0.00     0.016 A 
ATOM     10  C   UNL A   1      35.755  34.388  30.569  1.00  0.00     0.016 A 
ATOM     11  C   UNL A   1      35.428  32.024  31.985  1.00  0.00     0.010 A 
ATOM     12  C   UNL A   1      36.837  33.517  30.727  1.00  0.00     0.010 A 
ATOM     13  C   UNL A   1      36.680  32.353  31.483  1.00  0.00    -0.014 A 
BRANCH  13  14
ATOM     14  C   UNL A   1      37.843  31.601  31.980  1.00  0.00     0.031 A 
ATOM     15  C   UNL A   1      38.351  31.949  33.344  1.00  0.00     0.074 A 
ATOM     16  C   UNL A   1      38.361  30.574  31.288  1.00  0.00     0.049 A 
ATOM     17  N   UNL A   1      39.391  31.489  33.982  1.00  0.00    -0.248 NA
ATOM     18  C   UNL A   1      37.559  32.935  34.103  1.00  0.00     0.031 C 
ATOM     19  C   UNL A   1      37.835  30.063  30.025  1.00  0.00     0.029 A 
ATOM     20  N   UNL A   1      39.446  29.782  31.549  1.00  0.00    -0.354 N 
ATOM     21  C   UNL A   1      39.406  32.163  35.195  1.00  0.00     0.074 A 
ATOM     22  C   UNL A   1      38.264  33.046  35.217  1.00  0.00     0.031 C 
ATOM     23  C   UNL A   1      38.627  29.065  29.597  1.00  0.00     0.029 A 
ATOM     24  C   UNL A   1      39.743  28.916  30.524  1.00  0.00     0.049 A 
ATOM     25  H   UNL A   1      39.962  29.828  32.386  1.00  0.00     0.167 HD
ATOM     26  C   UNL A   1      40.308  32.059  36.196  1.00  0.00     0.034 A 
ATOM     27  C   UNL A   1      40.825  28.137  30.338  1.00  0.00     0.034 A 
ATOM     28  C   UNL A   1      41.449  31.193  36.139  1.00  0.00     0.049 A 
ATOM     29  C   UNL A   1      41.880  28.121  31.411  1.00  0.00     0.074 A 
ATOM     30  C   UNL A   1      42.459  31.034  37.066  1.00  0.00     0.029 A 
ATOM     31  N   UNL A   1      41.740  30.351  35.073  1.00  0.00    -0.354 N 
ATOM     32  N   UNL A   1      41.892  28.753  32.562  1.00  0.00    -0.248 NA
ATOM     33  C   UNL A   1      43.056  27.273  31.180  1.00  0.00     0.031 C 
ATOM     34  C   UNL A   1      43.386  30.127  36.541  1.00  0.00     0.029 A 
ATOM     35  C   UNL A   1      42.923  29.680  35.311  1.00  0.00     0.049 A 
ATOM     36  H   UNL A   1      41.184  30.248  34.267  1.00  0.00     0.167 HD
ATOM     37  C   UNL A   1      43.050  28.347  33.211  1.00  0.00     0.074 A 
ATOM     38  C   UNL A   1      43.712  27.409  32.326  1.00  0.00     0.031 C 
ATOM     39  C   UNL A   1      43.527  28.715  34.427  1.00  0.00     0.034 A 
BRANCH  26  40
ATOM     40  C   UNL A   1      40.112  32.963  37.381  1.00  0.00     0.023 A 
ATOM     41  C   UNL A   1      39.272  32.573  38.444  1.00  0.00     0.012 A 
ATOM     42  C   UNL A   1      40.727  34.229  37.411  1.00  0.00     0.148 A 
ATOM     43  C   UNL A   1      39.010  33.451  39.497  1.00  0.00     0.002 A 
ATOM     44  C   UNL A   1      40.500  35.077  38.486  1.00  0.00     0.091 A 
ATOM     45  F   UNL A   1      41.493  34.591  36.373  1.00  0.00    -0.205 F 
ATOM     46  C   UNL A   1      39.629  34.698  39.520  1.00  0.00     0.022 A 
BRANCH  44  47
ATOM     47  S   UNL A   1      41.300  36.676  38.636  1.00  0.00     0.127 S 
ATOM     48  O   UNL A   1      40.151  37.567  38.794  1.00  0.00    -0.237 OA
ATOM     49  O   UNL A   1      42.106  36.500  39.845  1.00  0.00    -0.237 OA
ATOM     50  O   UNL A   1      42.068  36.861  37.413  1.00  0.00    -0.744 OA
ENDBRANCH  44  47
ENDBRANCH  26  40
BRANCH  27  51
ATOM     51  C   UNL A   1      40.973  27.342  29.086  1.00  0.00     0.023 A 
ATOM     52  C   UNL A   1      40.167  26.209  28.870  1.00  0.00     0.012 A 
ATOM     53  C   UNL A   1      41.910  27.713  28.100  1.00  0.00     0.148 A 
ATOM     54  C   UNL A   1      40.309  25.445  27.709  1.00  0.00     0.002 A 
ATOM     55  C   UNL A   1      42.012  26.980  26.924  1.00  0.00     0.091 A 
ATOM     56  F   UNL A   1      42.680  28.786  28.330  1.00  0.00    -0.205 F 
ATOM     57  C   UNL A   1      41.224  25.835  26.732  1.00  0.00     0.022 A 
BRANCH  55  58
ATOM     58  S   UNL A   1      43.086  27.477  25.573  1.00  0.00     0.127 S 
ATOM     59  O   UNL A   1      44.148  28.187  26.283  1.00  0.00    -0.237 OA
ATOM     60  O   UNL A   1      43.479  26.188  25.006  1.00  0.00    -0.237 OA
ATOM     61  O   UNL A   1      42.257  28.291  24.694  1.00  0.00    -0.744 OA
ENDBRANCH  55  58
ENDBRANCH  27  51
BRANCH  39  62
ATOM     62  C   UNL A   1      44.791  28.057  34.907  1.00  0.00     0.023 A 
ATOM     63  C   UNL A   1      46.032  28.700  34.745  1.00  0.00     0.012 A 
ATOM     64  C   UNL A   1      44.722  26.845  35.622  1.00  0.00     0.148 A 
ATOM     65  C   UNL A   1      47.193  28.132  35.269  1.00  0.00     0.002 A 
ATOM     66  C   UNL A   1      45.872  26.315  36.189  1.00  0.00     0.091 A 
ATOM     67  F   UNL A   1      43.529  26.243  35.744  1.00  0.00    -0.205 F 
ATOM     68  C   UNL A   1      47.110  26.950  36.003  1.00  0.00     0.022 A 
BRANCH  66  69
ATOM     69  S   UNL A   1      45.837  24.863  37.245  1.00  0.00     0.127 S 
ATOM     70  O   UNL A   1      45.674  23.788  36.267  1.00  0.00    -0.237 OA
ATOM     71  O   UNL A   1      47.153  24.914  37.882  1.00  0.00    -0.237 OA
ATOM     72  O   UNL A   1      44.716  25.052  38.156  1.00  0.00    -0.744 OA
ENDBRANCH  66  69
ENDBRANCH  39  62
ENDBRANCH  13  14
ENDBRANCH   6   8
ENDBRANCH   5   6
ENDBRANCH   4   5
ENDBRANCH   3   4
ENDBRANCH   2   3
ENDBRANCH   1   2
BRANCH   1  73
ATOM     73  C   UNL A   1      33.713  30.734  27.240  1.00  0.00     0.188 C 
BRANCH  73  74
ATOM     74  O   UNL A   1      32.342  30.357  27.280  1.00  0.00    -0.376 OA
BRANCH  74  75
ATOM     75  C   UNL A   1      32.087  28.949  27.258  1.00  0.00     0.202 C 
BRANCH  75  76
ATOM     76  C   UNL A   1      31.865  28.343  25.873  1.00  0.00     0.261 C 
BRANCH  76  77
ATOM     77  O   UNL A   1      33.094  28.145  25.143  1.00  0.00    -0.459 OA
BRANCH  77  78
ATOM     78  C   UNL A   1      33.500  26.844  25.034  1.00  0.00     0.349 C 
ATOM     79  O   UNL A   1      34.150  26.253  25.886  1.00  0.00    -0.245 OA
BRANCH  78  80
ATOM     80  C   UNL A   1      33.076  26.264  23.785  1.00  0.00     0.132 A 
ATOM     81  S   UNL A   1      33.494  27.036  22.315  1.00  0.00    -0.136 S 
ATOM     82  C   UNL A   1      32.233  25.193  23.570  1.00  0.00     0.108 A 
ATOM     83  C   UNL A   1      32.440  26.033  21.413  1.00  0.00     0.067 A 
ATOM     84  C   UNL A   1      31.811  25.099  22.209  1.00  0.00     0.034 A 
BRANCH  82  85
ATOM     85  S   UNL A   1      31.678  24.123  24.812  1.00  0.00     0.245 S 
ATOM     86  O   UNL A   1      31.108  25.031  25.793  1.00  0.00    -0.207 OA
ATOM     87  O   UNL A   1      30.907  23.125  24.123  1.00  0.00    -0.207 OA
BRANCH  85  88
ATOM     88  N   UNL A   1      33.047  23.365  25.509  1.00  0.00    -0.190 NA
ATOM     89  C   UNL A   1      32.983  23.242  26.986  1.00  0.00     0.131 C 
ATOM     90  C   UNL A   1      33.723  22.280  24.718  1.00  0.00     0.102 C 
ATOM     91  C   UNL A   1      34.026  22.322  27.607  1.00  0.00     0.177 C 
ATOM     92  C   UNL A   1      34.701  21.419  25.560  1.00  0.00     0.136 C 
ATOM     93  C   UNL A   1      34.357  22.820  23.419  1.00  0.00     0.023 C 
ATOM     94  O   UNL A   1      35.140  22.080  26.754  1.00  0.00    -0.375 OA
ATOM     95  C   UNL A   1      35.946  20.976  24.795  1.00  0.00     0.034 C 
ATOM     96  C   UNL A   1      35.852  23.114  23.432  1.00  0.00     0.002 C 
ATOM     97  C   UNL A   1      36.719  22.154  24.231  1.00  0.00     0.003 C 
ENDBRANCH  85  88
ENDBRANCH  82  85
ENDBRANCH  78  80
ENDBRANCH  77  78
ENDBRANCH  76  77
ENDBRANCH  75  76
ENDBRANCH  74  75
ENDBRANCH  73  74
ENDBRANCH   1  73
TORSDOF 22
ENDMDL
MODEL 3
REMARK VINA RESULT:      -9.8      1.957      3.023
REMARK SMILES O=C(OCCOCCOCCOC(=O)c1sccc1S(=O)(=O)N1CCO[C@@H]2CCCC[C@@H]21)c1ccc(-c2c3nc(c(-c4cccc(S(=O)(=O)[O-])c4F)c4ccc([nH]4)c(-c4cccc(S(=O)(=O)[O-])c4F)c4nc(c(-c5cccc(S(=O)(=O)[O-])c5F)c5ccc2[nH]5)C=C4)C=C3)cc1
REMARK SMILES IDX 7 1 6 2 5 3 4 4 3 5 2 6 1 7 33 8 34 9 95 10 35 11 94 12
REMARK SMILES IDX 36 13 37 14 38 15 88 16 39 17 93 18 87 19 89 20 40 21 92 22
REMARK SMILES IDX 86 23 85 24 41 26 73 27 53 28 72 29 54 30 57 31 71 32 90 33
REMARK SMILES IDX 55 34 56 35 70 37 91 38 58 39 42 40 43 41 51 42 44 43 46 44
REMARK SMILES IDX 52 45 45 46 47 47 48 48 49 49 50 50 74 51 75 52 83 53 76 54
REMARK SMILES IDX 78 55 84 56 77 57 79 58 80 59 81 60 82 61 59 62 60 63 68 64
REMARK SMILES IDX 61 65 63 66 69 67 62 68 64 69 65 70 66 71 67 72 8 73 9 74
REMARK SMILES IDX 10 75 11 76 12 77 13 78 14 79 15 80 16 81 19 82 17 83 18 84
REMARK SMILES IDX 20 85 21 86 22 87 23 88 24 89 32 90 25 91 27 92 31 93 26 94
REMARK SMILES IDX 28 95 30 96 29 97
REMARK H PARENT 89 25 57 36
REMARK Flexibility Score: inf
ROOT
ATOM      1  C   UNL A   1      34.739  33.025  27.994  1.00  0.00     0.188 C 
ENDROOT
BRANCH   1   2
ATOM      2  O   UNL A   1      33.624  33.812  28.417  1.00  0.00    -0.376 OA
BRANCH   2   3
ATOM      3  C   UNL A   1      33.872  35.222  28.393  1.00  0.00     0.202 C 
BRANCH   3   4
ATOM      4  C   UNL A   1      32.903  36.040  29.261  1.00  0.00     0.261 C 
BRANCH   4   5
ATOM      5  O   UNL A   1      33.313  36.110  30.637  1.00  0.00    -0.460 OA
BRANCH   5   6
ATOM      6  C   UNL A   1      33.418  35.127  31.564  1.00  0.00     0.338 C 
ATOM      7  O   UNL A   1      32.458  34.958  32.317  1.00  0.00    -0.246 OA
BRANCH   6   8
ATOM      8  C   UNL A   1      34.602  34.217  31.727  1.00  0.00     0.060 A 
ATOM      9  C   UNL A   1      34.614  32.975  32.366  1.00  0.00     0.016 A 
ATOM     10  C   UNL A   1      35.814  34.667  31.166  1.00  0.00     0.016 A 
ATOM     11  C   UNL A   1      35.792  32.255  32.539  1.00  0.00     0.010 A 
ATOM     12  C   UNL A   1      36.998  33.938  31.310  1.00  0.00     0.010 A 
ATOM     13  C   UNL A   1      36.991  32.750  32.043  1.00  0.00    -0.014 A 
BRANCH  13  14
ATOM     14  C   UNL A   1      38.241  32.143  32.527  1.00  0.00     0.031 A 
ATOM     15  C   UNL A   1      38.871  31.093  31.666  1.00  0.00     0.074 A 
ATOM     16  C   UNL A   1      38.850  32.586  33.639  1.00  0.00     0.049 A 
ATOM     17  N   UNL A   1      39.928  30.363  31.891  1.00  0.00    -0.248 NA
ATOM     18  C   UNL A   1      38.235  30.854  30.358  1.00  0.00     0.031 C 
ATOM     19  C   UNL A   1      38.394  33.707  34.456  1.00  0.00     0.029 A 
ATOM     20  N   UNL A   1      39.980  32.142  34.272  1.00  0.00    -0.354 N 
ATOM     21  C   UNL A   1      40.054  29.545  30.777  1.00  0.00     0.074 A 
ATOM     22  C   UNL A   1      38.984  29.881  29.867  1.00  0.00     0.031 C 
ATOM     23  C   UNL A   1      39.215  33.838  35.511  1.00  0.00     0.029 A 
ATOM     24  C   UNL A   1      40.210  32.772  35.471  1.00  0.00     0.049 A 
ATOM     25  H   UNL A   1      40.567  31.442  33.906  1.00  0.00     0.167 HD
ATOM     26  C   UNL A   1      40.978  28.587  30.545  1.00  0.00     0.034 A 
ATOM     27  C   UNL A   1      41.092  32.478  36.445  1.00  0.00     0.034 A 
ATOM     28  C   UNL A   1      42.015  28.254  31.477  1.00  0.00     0.049 A 
ATOM     29  C   UNL A   1      42.040  31.331  36.221  1.00  0.00     0.074 A 
ATOM     30  C   UNL A   1      42.981  27.273  31.379  1.00  0.00     0.029 A 
ATOM     31  N   UNL A   1      42.204  28.889  32.698  1.00  0.00    -0.354 N 
ATOM     32  N   UNL A   1      42.164  30.561  35.165  1.00  0.00    -0.248 NA
ATOM     33  C   UNL A   1      42.984  31.023  37.303  1.00  0.00     0.031 C 
ATOM     34  C   UNL A   1      43.728  27.286  32.562  1.00  0.00     0.029 A 
ATOM     35  C   UNL A   1      43.262  28.311  33.372  1.00  0.00     0.049 A 
ATOM     36  H   UNL A   1      41.664  29.641  33.032  1.00  0.00     0.167 HD
ATOM     37  C   UNL A   1      43.226  29.708  35.434  1.00  0.00     0.074 A 
ATOM     38  C   UNL A   1      43.714  30.060  36.753  1.00  0.00     0.031 C 
ATOM     39  C   UNL A   1      43.751  28.722  34.665  1.00  0.00     0.034 A 
BRANCH  26  40
ATOM     40  C   UNL A   1      40.838  27.805  29.270  1.00  0.00     0.023 A 
ATOM     41  C   UNL A   1      39.906  26.750  29.178  1.00  0.00     0.012 A 
ATOM     42  C   UNL A   1      41.674  28.089  28.173  1.00  0.00     0.148 A 
ATOM     43  C   UNL A   1      39.844  25.959  28.030  1.00  0.00     0.002 A 
ATOM     44  C   UNL A   1      41.572  27.329  27.016  1.00  0.00     0.091 A 
ATOM     45  F   UNL A   1      42.575  29.073  28.296  1.00  0.00    -0.205 F 
ATOM     46  C   UNL A   1      40.671  26.253  26.949  1.00  0.00     0.022 A 
BRANCH  44  47
ATOM     47  S   UNL A   1      42.549  27.669  25.551  1.00  0.00     0.127 S 
ATOM     48  O   UNL A   1      43.900  27.733  26.106  1.00  0.00    -0.237 OA
ATOM     49  O   UNL A   1      42.283  26.489  24.727  1.00  0.00    -0.237 OA
ATOM     50  O   UNL A   1      42.039  28.919  25.006  1.00  0.00    -0.744 OA
ENDBRANCH  44  47
ENDBRANCH  26  40
BRANCH  27  51
ATOM     51  C   UNL A   1      41.096  33.257  37.716  1.00  0.00     0.023 A 
ATOM     52  C   UNL A   1      40.277  32.861  38.789  1.00  0.00     0.012 A 
ATOM     53  C   UNL A   1      41.920  34.391  37.868  1.00  0.00     0.148 A 
ATOM     54  C   UNL A   1      40.259  33.593  39.979  1.00  0.00     0.002 A 
ATOM     55  C   UNL A   1      41.936  35.086  39.070  1.00  0.00     0.091 A 
ATOM     56  F   UNL A   1      42.682  34.764  36.829  1.00  0.00    -0.205 F 
ATOM     57  C   UNL A   1      41.094  34.699  40.124  1.00  0.00     0.022 A 
BRANCH  55  58
ATOM     58  S   UNL A   1      43.060  36.454  39.374  1.00  0.00     0.127 S 
ATOM     59  O   UNL A   1      42.590  37.445  38.408  1.00  0.00    -0.237 OA
ATOM     60  O   UNL A   1      42.779  36.775  40.772  1.00  0.00    -0.237 OA
ATOM     61  O   UNL A   1      44.395  35.922  39.138  1.00  0.00    -0.744 OA
ENDBRANCH  55  58
ENDBRANCH  27  51
BRANCH  39  62
ATOM     62  C   UNL A   1      44.955  27.992  35.194  1.00  0.00     0.023 A 
ATOM     63  C   UNL A   1      46.248  28.505  34.977  1.00  0.00     0.012 A 
ATOM     64  C   UNL A   1      44.783  26.851  36.002  1.00  0.00     0.148 A 
ATOM     65  C   UNL A   1      47.357  27.877  35.543  1.00  0.00     0.002 A 
ATOM     66  C   UNL A   1      45.886  26.266  36.607  1.00  0.00     0.091 A 
ATOM     67  F   UNL A   1      43.543  26.372  36.175  1.00  0.00    -0.205 F 
ATOM     68  C   UNL A   1      47.175  26.769  36.369  1.00  0.00     0.022 A 
BRANCH  66  69
ATOM     69  S   UNL A   1      45.731  24.912  37.775  1.00  0.00     0.127 S 
ATOM     70  O   UNL A   1      45.292  23.819  36.907  1.00  0.00    -0.237 OA
ATOM     71  O   UNL A   1      47.098  24.780  38.279  1.00  0.00    -0.237 OA
ATOM     72  O   UNL A   1      44.759  25.345  38.771  1.00  0.00    -0.744 OA
ENDBRANCH  66  69
ENDBRANCH  39  62
ENDBRANCH  13  14
ENDBRANCH   6   8
ENDBRANCH   5   6
ENDBRANCH   4   5
ENDBRANCH   3   4
ENDBRANCH   2   3
ENDBRANCH   1   2
BRANCH   1  73
ATOM     73  C   UNL A   1      34.929  31.696  28.725  1.00  0.00     0.188 C 
BRANCH  73  74
ATOM     74  O   UNL A   1      34.433  30.544  28.054  1.00  0.00    -0.376 OA
BRANCH  74  75
ATOM     75  C   UNL A   1      33.568  30.800  26.943  1.00  0.00     0.202 C 
BRANCH  75  76
ATOM     76  C   UNL A   1      32.281  29.979  26.909  1.00  0.00     0.261 C 
BRANCH  76  77
ATOM     77  O   UNL A   1      32.510  28.586  26.607  1.00  0.00    -0.459 OA
BRANCH  77  78
ATOM     78  C   UNL A   1      31.410  27.781  26.711  1.00  0.00     0.349 C 
ATOM     79  O   UNL A   1      30.744  27.656  27.731  1.00  0.00    -0.245 OA
BRANCH  78  80
ATOM     80  C   UNL A   1      31.143  27.093  25.475  1.00  0.00     0.132 A 
ATOM     81  S   UNL A   1      30.690  27.996  24.092  1.00  0.00    -0.136 S 
ATOM     82  C   UNL A   1      31.065  25.736  25.238  1.00  0.00     0.108 A 
ATOM     83  C   UNL A   1      30.257  26.581  23.230  1.00  0.00     0.067 A 
ATOM     84  C   UNL A   1      30.490  25.438  23.966  1.00  0.00     0.034 A 
BRANCH  82  85
ATOM     85  S   UNL A   1      31.535  24.519  26.376  1.00  0.00     0.245 S 
ATOM     86  O   UNL A   1      32.382  25.250  27.303  1.00  0.00    -0.207 OA
ATOM     87  O   UNL A   1      30.307  23.883  26.766  1.00  0.00    -0.207 OA
BRANCH  85  88
ATOM     88  N   UNL A   1      32.502  23.369  25.553  1.00  0.00    -0.190 NA
ATOM     89  C   UNL A   1      31.809  22.087  25.274  1.00  0.00     0.131 C 
ATOM     90  C   UNL A   1      33.509  23.883  24.562  1.00  0.00     0.102 C 
ATOM     91  C   UNL A   1      32.523  21.162  24.296  1.00  0.00     0.177 C 
ATOM     92  C   UNL A   1      34.065  22.783  23.619  1.00  0.00     0.136 C 
ATOM     93  C   UNL A   1      34.615  24.716  25.240  1.00  0.00     0.023 C 
ATOM     94  O   UNL A   1      33.908  21.461  24.151  1.00  0.00    -0.375 OA
ATOM     95  C   UNL A   1      35.539  22.965  23.266  1.00  0.00     0.034 C 
ATOM     96  C   UNL A   1      35.940  24.022  25.536  1.00  0.00     0.002 C 
ATOM     97  C   UNL A   1      36.420  23.020  24.500  1.00  0.00     0.003 C 
ENDBRANCH  85  88
ENDBRANCH  82  85
ENDBRANCH  78  80
ENDBRANCH  77  78
ENDBRANCH  76  77
ENDBRANCH  75  76
ENDBRANCH  74  75
ENDBRANCH  73  74
ENDBRANCH   1  73
TORSDOF 22
ENDMDL
