MODEL 1
REMARK VINA RESULT:     -10.9      0.000      0.000
REMARK SMILES COc1cc(OC(F)(F)F)cc2c1O[C@@H](C(F)(F)F)C(C(=O)OCCOCCOCCOC(=O)c1ccc(-c3c4nc(c(-c5cccc(S(=O)(=O)[O-])c5F)c5ccc([nH]5)c(-c5cccc(S(=O)(=O)[O-])c5F)c5nc(c(-c6cccc(S(=O)(=O)[O-])c6F)c6ccc3[nH]6)C=C5)C=C4)cc1)=C2
REMARK SMILES IDX 28 1 27 2 26 3 25 4 24 5 23 6 21 7 22 8 20 9 3 10 4 11 13 12
REMARK SMILES IDX 5 13 12 14 14 15 11 16 98 17 15 18 2 19 1 20 6 21 7 22 8 23
REMARK SMILES IDX 9 24 10 25 16 26 17 27 18 28 19 29 29 30 30 31 31 32 32 33
REMARK SMILES IDX 33 34 34 35 35 36 36 37 97 38 37 39 96 40 38 41 39 42 40 43
REMARK SMILES IDX 90 44 41 45 95 46 89 47 91 48 42 49 94 50 88 51 87 52 43 54
REMARK SMILES IDX 75 55 55 56 74 57 56 58 59 59 73 60 92 61 57 62 58 63 72 65
REMARK SMILES IDX 93 66 60 67 44 68 45 69 53 70 46 71 48 72 54 73 47 74 49 75
REMARK SMILES IDX 50 76 51 77 52 78 76 79 77 80 85 81 78 82 80 83 86 84 79 85
REMARK SMILES IDX 81 86 82 87 83 88 84 89 61 90 62 91 70 92 63 93 65 94 71 95
REMARK SMILES IDX 64 96 66 97 67 98 68 99 69 100
REMARK H PARENT 91 53 59 64
REMARK Flexibility Score: inf
ROOT
ATOM      1  C   UNL A   1      40.854  21.319  27.470  1.00  0.00     0.188 C 
ENDROOT
BRANCH   1   2
ATOM      2  C   UNL A   1      40.030  22.025  26.376  1.00  0.00     0.188 C 
BRANCH   2   3
ATOM      3  O   UNL A   1      39.134  21.157  25.694  1.00  0.00    -0.376 OA
BRANCH   3   4
ATOM      4  C   UNL A   1      37.918  21.750  25.257  1.00  0.00     0.202 C 
BRANCH   4   5
ATOM      5  C   UNL A   1      37.550  22.974  26.097  1.00  0.00     0.261 C 
BRANCH   5   6
ATOM      6  O   UNL A   1      36.387  23.669  25.613  1.00  0.00    -0.460 OA
BRANCH   6   7
ATOM      7  C   UNL A   1      35.191  23.091  25.862  1.00  0.00     0.338 C 
ATOM      8  O   UNL A   1      35.016  22.025  26.422  1.00  0.00    -0.246 OA
BRANCH   7   9
ATOM      9  C   UNL A   1      34.103  23.986  25.422  1.00  0.00     0.087 C 
ATOM     10  C   UNL A   1      31.570  26.799  23.636  1.00  0.00     0.165 A 
ATOM     11  C   UNL A   1      31.186  27.935  24.360  1.00  0.00     0.097 A 
ATOM     12  C   UNL A   1      32.407  25.848  24.227  1.00  0.00     0.170 A 
ATOM     13  C   UNL A   1      31.608  28.116  25.678  1.00  0.00     0.134 A 
ATOM     14  C   UNL A   1      32.860  26.037  25.544  1.00  0.00     0.025 A 
ATOM     15  O   UNL A   1      32.866  24.794  23.478  1.00  0.00    -0.471 OA
ATOM     16  C   UNL A   1      32.434  27.154  26.269  1.00  0.00     0.059 A 
ATOM     17  C   UNL A   1      33.876  25.133  26.085  1.00  0.00     0.027 C 
ATOM     18  C   UNL A   1      33.228  23.615  24.248  1.00  0.00     0.316 C 
BRANCH  10  19
ATOM     19  O   UNL A   1      31.141  26.784  22.334  1.00  0.00    -0.493 OA
ATOM     20  C   UNL A   1      30.296  27.871  21.965  1.00  0.00     0.278 C 
ENDBRANCH  10  19
BRANCH  13  21
ATOM     21  O   UNL A   1      31.303  29.178  26.481  1.00  0.00    -0.406 OA
BRANCH  21  22
ATOM     22  C   UNL A   1      31.652  30.473  26.018  1.00  0.00     0.573 C 
ATOM     23  F   UNL A   1      31.812  31.335  27.045  1.00  0.00    -0.132 F 
ATOM     24  F   UNL A   1      32.778  30.438  25.273  1.00  0.00    -0.132 F 
ATOM     25  F   UNL A   1      30.650  30.937  25.238  1.00  0.00    -0.132 F 
ENDBRANCH  21  22
ENDBRANCH  13  21
BRANCH  18  26
ATOM     26  C   UNL A   1      33.711  22.523  23.281  1.00  0.00     0.430 C 
ATOM     27  F   UNL A   1      35.046  22.615  23.078  1.00  0.00    -0.167 F 
ATOM     28  F   UNL A   1      33.495  21.300  23.828  1.00  0.00    -0.167 F 
ATOM     29  F   UNL A   1      33.078  22.554  22.094  1.00  0.00    -0.167 F 
ENDBRANCH  18  26
ENDBRANCH   7   9
ENDBRANCH   6   7
ENDBRANCH   5   6
ENDBRANCH   4   5
ENDBRANCH   3   4
ENDBRANCH   2   3
ENDBRANCH   1   2
BRANCH   1  30
ATOM     30  O   UNL A   1      42.229  21.018  27.259  1.00  0.00    -0.376 OA
BRANCH  30  31
ATOM     31  C   UNL A   1      42.696  20.816  25.934  1.00  0.00     0.202 C 
BRANCH  31  32
ATOM     32  C   UNL A   1      43.726  21.807  25.385  1.00  0.00     0.261 C 
BRANCH  32  33
ATOM     33  O   UNL A   1      43.168  23.062  24.964  1.00  0.00    -0.460 OA
BRANCH  33  34
ATOM     34  C   UNL A   1      43.948  24.149  25.184  1.00  0.00     0.338 C 
ATOM     35  O   UNL A   1      44.984  24.440  24.611  1.00  0.00    -0.246 OA
BRANCH  34  36
ATOM     36  C   UNL A   1      43.271  25.065  26.124  1.00  0.00     0.060 A 
ATOM     37  C   UNL A   1      43.655  26.413  26.125  1.00  0.00     0.016 A 
ATOM     38  C   UNL A   1      42.319  24.600  27.033  1.00  0.00     0.016 A 
ATOM     39  C   UNL A   1      43.098  27.301  27.045  1.00  0.00     0.010 A 
ATOM     40  C   UNL A   1      41.781  25.486  27.973  1.00  0.00     0.010 A 
ATOM     41  C   UNL A   1      42.184  26.835  27.997  1.00  0.00    -0.014 A 
BRANCH  41  42
ATOM     42  C   UNL A   1      41.746  27.715  29.106  1.00  0.00     0.031 A 
ATOM     43  C   UNL A   1      42.532  27.719  30.387  1.00  0.00     0.074 A 
ATOM     44  C   UNL A   1      40.633  28.464  28.991  1.00  0.00     0.049 A 
ATOM     45  N   UNL A   1      42.281  28.343  31.509  1.00  0.00    -0.248 NA
ATOM     46  C   UNL A   1      43.761  26.910  30.409  1.00  0.00     0.031 C 
ATOM     47  C   UNL A   1      39.788  28.546  27.802  1.00  0.00     0.029 A 
ATOM     48  N   UNL A   1      40.003  29.265  29.911  1.00  0.00    -0.354 N 
ATOM     49  C   UNL A   1      43.298  27.976  32.381  1.00  0.00     0.074 A 
ATOM     50  C   UNL A   1      44.176  27.082  31.656  1.00  0.00     0.031 C 
ATOM     51  C   UNL A   1      38.716  29.309  28.083  1.00  0.00     0.029 A 
ATOM     52  C   UNL A   1      38.792  29.749  29.476  1.00  0.00     0.049 A 
ATOM     53  H   UNL A   1      40.382  29.473  30.796  1.00  0.00     0.167 HD
ATOM     54  C   UNL A   1      43.488  28.353  33.666  1.00  0.00     0.034 A 
ATOM     55  C   UNL A   1      37.838  30.435  30.136  1.00  0.00     0.034 A 
ATOM     56  C   UNL A   1      42.628  29.255  34.382  1.00  0.00     0.049 A 
ATOM     57  C   UNL A   1      38.065  30.823  31.575  1.00  0.00     0.074 A 
ATOM     58  C   UNL A   1      42.782  29.753  35.664  1.00  0.00     0.029 A 
ATOM     59  N   UNL A   1      41.443  29.776  33.889  1.00  0.00    -0.354 N 
ATOM     60  N   UNL A   1      39.107  30.599  32.338  1.00  0.00    -0.248 NA
ATOM     61  C   UNL A   1      36.994  31.585  32.238  1.00  0.00     0.031 C 
ATOM     62  C   UNL A   1      41.675  30.557  35.956  1.00  0.00     0.029 A 
ATOM     63  C   UNL A   1      40.843  30.573  34.849  1.00  0.00     0.049 A 
ATOM     64  H   UNL A   1      41.081  29.605  32.990  1.00  0.00     0.167 HD
ATOM     65  C   UNL A   1      38.832  31.214  33.555  1.00  0.00     0.074 A 
ATOM     66  C   UNL A   1      37.534  31.842  33.421  1.00  0.00     0.031 C 
ATOM     67  C   UNL A   1      39.577  31.241  34.687  1.00  0.00     0.034 A 
BRANCH  54  68
ATOM     68  C   UNL A   1      44.690  27.807  34.386  1.00  0.00     0.023 A 
ATOM     69  C   UNL A   1      45.899  28.530  34.367  1.00  0.00     0.012 A 
ATOM     70  C   UNL A   1      44.600  26.622  35.141  1.00  0.00     0.148 A 
ATOM     71  C   UNL A   1      47.009  28.070  35.074  1.00  0.00     0.002 A 
ATOM     72  C   UNL A   1      45.700  26.189  35.873  1.00  0.00     0.091 A 
ATOM     73  F   UNL A   1      43.447  25.939  35.124  1.00  0.00    -0.205 F 
ATOM     74  C   UNL A   1      46.906  26.908  35.834  1.00  0.00     0.022 A 
BRANCH  72  75
ATOM     75  S   UNL A   1      45.646  24.743  36.936  1.00  0.00     0.127 S 
ATOM     76  O   UNL A   1      46.973  24.779  37.549  1.00  0.00    -0.237 OA
ATOM     77  O   UNL A   1      44.545  25.068  37.843  1.00  0.00    -0.237 OA
ATOM     78  O   UNL A   1      45.395  23.608  36.058  1.00  0.00    -0.744 OA
ENDBRANCH  72  75
ENDBRANCH  54  68
BRANCH  55  79
ATOM     79  C   UNL A   1      36.573  30.809  29.443  1.00  0.00     0.023 A 
ATOM     80  C   UNL A   1      35.840  29.825  28.752  1.00  0.00     0.012 A 
ATOM     81  C   UNL A   1      36.094  32.134  29.464  1.00  0.00     0.148 A 
ATOM     82  C   UNL A   1      34.670  30.160  28.068  1.00  0.00     0.002 A 
ATOM     83  C   UNL A   1      34.900  32.449  28.825  1.00  0.00     0.091 A 
ATOM     84  F   UNL A   1      36.817  33.063  30.104  1.00  0.00    -0.205 F 
ATOM     85  C   UNL A   1      34.195  31.467  28.113  1.00  0.00     0.022 A 
BRANCH  83  86
ATOM     86  S   UNL A   1      34.161  34.084  28.937  1.00  0.00     0.127 S 
ATOM     87  O   UNL A   1      33.942  34.214  30.375  1.00  0.00    -0.237 OA
ATOM     88  O   UNL A   1      35.220  34.937  28.397  1.00  0.00    -0.237 OA
ATOM     89  O   UNL A   1      32.963  34.023  28.111  1.00  0.00    -0.744 OA
ENDBRANCH  83  86
ENDBRANCH  55  79
BRANCH  67  90
ATOM     90  C   UNL A   1      39.031  31.991  35.875  1.00  0.00     0.023 A 
ATOM     91  C   UNL A   1      39.193  33.387  35.950  1.00  0.00     0.012 A 
ATOM     92  C   UNL A   1      38.283  31.327  36.868  1.00  0.00     0.148 A 
ATOM     93  C   UNL A   1      38.641  34.110  37.008  1.00  0.00     0.002 A 
ATOM     94  C   UNL A   1      37.696  32.059  37.894  1.00  0.00     0.091 A 
ATOM     95  F   UNL A   1      38.155  29.994  36.789  1.00  0.00    -0.205 F 
ATOM     96  C   UNL A   1      37.883  33.449  37.972  1.00  0.00     0.022 A 
BRANCH  94  97
ATOM     97  S   UNL A   1      36.625  31.302  39.123  1.00  0.00     0.127 S 
ATOM     98  O   UNL A   1      37.516  31.211  40.279  1.00  0.00    -0.237 OA
ATOM     99  O   UNL A   1      35.554  32.290  39.255  1.00  0.00    -0.237 OA
ATOM    100  O   UNL A   1      36.204  30.029  38.554  1.00  0.00    -0.744 OA
ENDBRANCH  94  97
ENDBRANCH  67  90
ENDBRANCH  41  42
ENDBRANCH  34  36
ENDBRANCH  33  34
ENDBRANCH  32  33
ENDBRANCH  31  32
ENDBRANCH  30  31
ENDBRANCH   1  30
TORSDOF 24
ENDMDL
MODEL 2
REMARK VINA RESULT:     -10.7      5.587      8.075
REMARK SMILES COc1cc(OC(F)(F)F)cc2c1O[C@@H](C(F)(F)F)C(C(=O)OCCOCCOCCOC(=O)c1ccc(-c3c4nc(c(-c5cccc(S(=O)(=O)[O-])c5F)c5ccc([nH]5)c(-c5cccc(S(=O)(=O)[O-])c5F)c5nc(c(-c6cccc(S(=O)(=O)[O-])c6F)c6ccc3[nH]6)C=C5)C=C4)cc1)=C2
REMARK SMILES IDX 28 1 27 2 26 3 25 4 24 5 23 6 21 7 22 8 20 9 3 10 4 11 13 12
REMARK SMILES IDX 5 13 12 14 14 15 11 16 98 17 15 18 2 19 1 20 6 21 7 22 8 23
REMARK SMILES IDX 9 24 10 25 16 26 17 27 18 28 19 29 29 30 30 31 31 32 32 33
REMARK SMILES IDX 33 34 34 35 35 36 36 37 97 38 37 39 96 40 38 41 39 42 40 43
REMARK SMILES IDX 90 44 41 45 95 46 89 47 91 48 42 49 94 50 88 51 87 52 43 54
REMARK SMILES IDX 75 55 55 56 74 57 56 58 59 59 73 60 92 61 57 62 58 63 72 65
REMARK SMILES IDX 93 66 60 67 44 68 45 69 53 70 46 71 48 72 54 73 47 74 49 75
REMARK SMILES IDX 50 76 51 77 52 78 76 79 77 80 85 81 78 82 80 83 86 84 79 85
REMARK SMILES IDX 81 86 82 87 83 88 84 89 61 90 62 91 70 92 63 93 65 94 71 95
REMARK SMILES IDX 64 96 66 97 67 98 68 99 69 100
REMARK H PARENT 91 53 59 64
REMARK Flexibility Score: inf
ROOT
ATOM      1  C   UNL A   1      40.985  20.855  27.507  1.00  0.00     0.188 C 
ENDROOT
BRANCH   1   2
ATOM      2  C   UNL A   1      40.782  22.121  26.651  1.00  0.00     0.188 C 
BRANCH   2   3
ATOM      3  O   UNL A   1      39.420  22.376  26.334  1.00  0.00    -0.376 OA
BRANCH   3   4
ATOM      4  C   UNL A   1      38.931  23.656  26.713  1.00  0.00     0.202 C 
BRANCH   4   5
ATOM      5  C   UNL A   1      37.658  24.026  25.950  1.00  0.00     0.261 C 
BRANCH   5   6
ATOM      6  O   UNL A   1      37.215  22.999  25.045  1.00  0.00    -0.460 OA
BRANCH   6   7
ATOM      7  C   UNL A   1      36.217  23.332  24.196  1.00  0.00     0.338 C 
ATOM      8  O   UNL A   1      36.224  23.174  22.990  1.00  0.00    -0.246 OA
BRANCH   7   9
ATOM      9  C   UNL A   1      35.066  23.853  24.960  1.00  0.00     0.087 C 
ATOM     10  C   UNL A   1      31.375  25.146  26.451  1.00  0.00     0.165 A 
ATOM     11  C   UNL A   1      31.155  26.516  26.646  1.00  0.00     0.097 A 
ATOM     12  C   UNL A   1      32.609  24.703  25.963  1.00  0.00     0.170 A 
ATOM     13  C   UNL A   1      32.164  27.444  26.384  1.00  0.00     0.134 A 
ATOM     14  C   UNL A   1      33.620  25.633  25.670  1.00  0.00     0.025 A 
ATOM     15  O   UNL A   1      32.781  23.373  25.673  1.00  0.00    -0.471 OA
ATOM     16  C   UNL A   1      33.401  26.993  25.909  1.00  0.00     0.059 A 
ATOM     17  C   UNL A   1      34.834  25.176  24.992  1.00  0.00     0.027 C 
ATOM     18  C   UNL A   1      34.160  22.916  25.722  1.00  0.00     0.316 C 
BRANCH  10  19
ATOM     19  O   UNL A   1      30.279  24.357  26.681  1.00  0.00    -0.493 OA
ATOM     20  C   UNL A   1      30.471  22.968  26.424  1.00  0.00     0.278 C 
ENDBRANCH  10  19
BRANCH  13  21
ATOM     21  O   UNL A   1      32.069  28.798  26.532  1.00  0.00    -0.406 OA
BRANCH  21  22
ATOM     22  C   UNL A   1      31.880  29.575  25.360  1.00  0.00     0.573 C 
ATOM     23  F   UNL A   1      31.590  30.859  25.663  1.00  0.00    -0.132 F 
ATOM     24  F   UNL A   1      32.969  29.530  24.563  1.00  0.00    -0.132 F 
ATOM     25  F   UNL A   1      30.835  29.066  24.669  1.00  0.00    -0.132 F 
ENDBRANCH  21  22
ENDBRANCH  13  21
BRANCH  18  26
ATOM     26  C   UNL A   1      34.195  21.417  25.387  1.00  0.00     0.430 C 
ATOM     27  F   UNL A   1      33.141  20.774  25.942  1.00  0.00    -0.167 F 
ATOM     28  F   UNL A   1      34.080  21.245  24.046  1.00  0.00    -0.167 F 
ATOM     29  F   UNL A   1      35.336  20.817  25.777  1.00  0.00    -0.167 F 
ENDBRANCH  18  26
ENDBRANCH   7   9
ENDBRANCH   6   7
ENDBRANCH   5   6
ENDBRANCH   4   5
ENDBRANCH   3   4
ENDBRANCH   2   3
ENDBRANCH   1   2
BRANCH   1  30
ATOM     30  O   UNL A   1      42.082  19.983  27.261  1.00  0.00    -0.376 OA
BRANCH  30  31
ATOM     31  C   UNL A   1      42.037  19.118  26.136  1.00  0.00     0.202 C 
BRANCH  31  32
ATOM     32  C   UNL A   1      43.362  18.537  25.634  1.00  0.00     0.261 C 
BRANCH  32  33
ATOM     33  O   UNL A   1      43.811  19.089  24.387  1.00  0.00    -0.460 OA
BRANCH  33  34
ATOM     34  C   UNL A   1      45.045  19.653  24.411  1.00  0.00     0.338 C 
ATOM     35  O   UNL A   1      46.086  19.165  24.004  1.00  0.00    -0.246 OA
BRANCH  34  36
ATOM     36  C   UNL A   1      44.941  21.058  24.853  1.00  0.00     0.060 A 
ATOM     37  C   UNL A   1      44.713  22.041  23.880  1.00  0.00     0.016 A 
ATOM     38  C   UNL A   1      45.125  21.415  26.190  1.00  0.00     0.016 A 
ATOM     39  C   UNL A   1      44.681  23.389  24.238  1.00  0.00     0.010 A 
ATOM     40  C   UNL A   1      45.119  22.769  26.543  1.00  0.00     0.010 A 
ATOM     41  C   UNL A   1      44.920  23.762  25.566  1.00  0.00    -0.014 A 
BRANCH  41  42
ATOM     42  C   UNL A   1      45.095  25.191  25.921  1.00  0.00     0.031 A 
ATOM     43  C   UNL A   1      46.483  25.768  25.949  1.00  0.00     0.074 A 
ATOM     44  C   UNL A   1      44.038  25.951  26.262  1.00  0.00     0.049 A 
ATOM     45  N   UNL A   1      46.874  26.962  26.312  1.00  0.00    -0.248 NA
ATOM     46  C   UNL A   1      47.575  24.882  25.514  1.00  0.00     0.031 C 
ATOM     47  C   UNL A   1      42.646  25.506  26.272  1.00  0.00     0.029 A 
ATOM     48  N   UNL A   1      43.984  27.248  26.708  1.00  0.00    -0.354 N 
ATOM     49  C   UNL A   1      48.257  26.961  26.185  1.00  0.00     0.074 A 
ATOM     50  C   UNL A   1      48.638  25.651  25.702  1.00  0.00     0.031 C 
ATOM     51  C   UNL A   1      41.878  26.498  26.759  1.00  0.00     0.029 A 
ATOM     52  C   UNL A   1      42.728  27.634  27.112  1.00  0.00     0.049 A 
ATOM     53  H   UNL A   1      44.767  27.843  26.735  1.00  0.00     0.167 HD
ATOM     54  C   UNL A   1      49.131  27.962  26.442  1.00  0.00     0.034 A 
ATOM     55  C   UNL A   1      42.317  28.760  27.730  1.00  0.00     0.034 A 
ATOM     56  C   UNL A   1      48.753  29.270  26.904  1.00  0.00     0.049 A 
ATOM     57  C   UNL A   1      43.316  29.850  28.025  1.00  0.00     0.074 A 
ATOM     58  C   UNL A   1      49.563  30.371  27.119  1.00  0.00     0.029 A 
ATOM     59  N   UNL A   1      47.464  29.647  27.243  1.00  0.00    -0.354 N 
ATOM     60  N   UNL A   1      44.598  29.893  27.754  1.00  0.00    -0.248 NA
ATOM     61  C   UNL A   1      42.806  31.062  28.687  1.00  0.00     0.031 C 
ATOM     62  C   UNL A   1      48.766  31.408  27.614  1.00  0.00     0.029 A 
ATOM     63  C   UNL A   1      47.458  30.958  27.688  1.00  0.00     0.049 A 
ATOM     64  H   UNL A   1      46.671  29.069  27.178  1.00  0.00     0.167 HD
ATOM     65  C   UNL A   1      45.039  31.142  28.183  1.00  0.00     0.074 A 
ATOM     66  C   UNL A   1      43.883  31.834  28.711  1.00  0.00     0.031 C 
ATOM     67  C   UNL A   1      46.292  31.659  28.159  1.00  0.00     0.034 A 
BRANCH  54  68
ATOM     68  C   UNL A   1      50.592  27.694  26.208  1.00  0.00     0.023 A 
ATOM     69  C   UNL A   1      51.406  27.292  27.285  1.00  0.00     0.012 A 
ATOM     70  C   UNL A   1      51.138  27.766  24.912  1.00  0.00     0.148 A 
ATOM     71  C   UNL A   1      52.750  26.985  27.079  1.00  0.00     0.002 A 
ATOM     72  C   UNL A   1      52.470  27.422  24.708  1.00  0.00     0.091 A 
ATOM     73  F   UNL A   1      50.350  28.174  23.908  1.00  0.00    -0.205 F 
ATOM     74  C   UNL A   1      53.278  27.039  25.792  1.00  0.00     0.022 A 
BRANCH  72  75
ATOM     75  S   UNL A   1      53.223  27.395  23.079  1.00  0.00     0.127 S 
ATOM     76  O   UNL A   1      54.475  26.687  23.346  1.00  0.00    -0.237 OA
ATOM     77  O   UNL A   1      52.246  26.634  22.300  1.00  0.00    -0.237 OA
ATOM     78  O   UNL A   1      53.367  28.788  22.679  1.00  0.00    -0.744 OA
ENDBRANCH  72  75
ENDBRANCH  54  68
BRANCH  55  79
ATOM     79  C   UNL A   1      40.886  28.922  28.112  1.00  0.00     0.023 A 
ATOM     80  C   UNL A   1      39.940  29.279  27.132  1.00  0.00     0.012 A 
ATOM     81  C   UNL A   1      40.459  28.725  29.440  1.00  0.00     0.148 A 
ATOM     82  C   UNL A   1      38.600  29.468  27.474  1.00  0.00     0.002 A 
ATOM     83  C   UNL A   1      39.114  28.864  29.763  1.00  0.00     0.091 A 
ATOM     84  F   UNL A   1      41.377  28.411  30.365  1.00  0.00    -0.205 F 
ATOM     85  C   UNL A   1      38.185  29.251  28.785  1.00  0.00     0.022 A 
BRANCH  83  86
ATOM     86  S   UNL A   1      38.482  28.485  31.402  1.00  0.00     0.127 S 
ATOM     87  O   UNL A   1      37.084  28.889  31.284  1.00  0.00    -0.237 OA
ATOM     88  O   UNL A   1      38.700  27.041  31.489  1.00  0.00    -0.237 OA
ATOM     89  O   UNL A   1      39.298  29.269  32.321  1.00  0.00    -0.744 OA
ENDBRANCH  83  86
ENDBRANCH  55  79
BRANCH  67  90
ATOM     90  C   UNL A   1      46.490  33.053  28.696  1.00  0.00     0.023 A 
ATOM     91  C   UNL A   1      46.911  33.233  30.028  1.00  0.00     0.012 A 
ATOM     92  C   UNL A   1      46.345  34.178  27.859  1.00  0.00     0.148 A 
ATOM     93  C   UNL A   1      47.160  34.511  30.528  1.00  0.00     0.002 A 
ATOM     94  C   UNL A   1      46.641  35.445  28.350  1.00  0.00     0.091 A 
ATOM     95  F   UNL A   1      45.926  33.989  26.600  1.00  0.00    -0.205 F 
ATOM     96  C   UNL A   1      47.039  35.614  29.686  1.00  0.00     0.022 A 
BRANCH  94  97
ATOM     97  S   UNL A   1      46.604  36.910  27.310  1.00  0.00     0.127 S 
ATOM     98  O   UNL A   1      47.094  37.939  28.227  1.00  0.00    -0.237 OA
ATOM     99  O   UNL A   1      47.534  36.557  26.238  1.00  0.00    -0.237 OA
ATOM    100  O   UNL A   1      45.219  37.060  26.882  1.00  0.00    -0.744 OA
ENDBRANCH  94  97
ENDBRANCH  67  90
ENDBRANCH  41  42
ENDBRANCH  34  36
ENDBRANCH  33  34
ENDBRANCH  32  33
ENDBRANCH  31  32
ENDBRANCH  30  31
ENDBRANCH   1  30
TORSDOF 24
ENDMDL
MODEL 3
REMARK VINA RESULT:     -10.7      3.011      9.252
REMARK SMILES COc1cc(OC(F)(F)F)cc2c1O[C@@H](C(F)(F)F)C(C(=O)OCCOCCOCCOC(=O)c1ccc(-c3c4nc(c(-c5cccc(S(=O)(=O)[O-])c5F)c5ccc([nH]5)c(-c5cccc(S(=O)(=O)[O-])c5F)c5nc(c(-c6cccc(S(=O)(=O)[O-])c6F)c6ccc3[nH]6)C=C5)C=C4)cc1)=C2
REMARK SMILES IDX 28 1 27 2 26 3 25 4 24 5 23 6 21 7 22 8 20 9 3 10 4 11 13 12
REMARK SMILES IDX 5 13 12 14 14 15 11 16 98 17 15 18 2 19 1 20 6 21 7 22 8 23
REMARK SMILES IDX 9 24 10 25 16 26 17 27 18 28 19 29 29 30 30 31 31 32 32 33
REMARK SMILES IDX 33 34 34 35 35 36 36 37 97 38 37 39 96 40 38 41 39 42 40 43
REMARK SMILES IDX 90 44 41 45 95 46 89 47 91 48 42 49 94 50 88 51 87 52 43 54
REMARK SMILES IDX 75 55 55 56 74 57 56 58 59 59 73 60 92 61 57 62 58 63 72 65
REMARK SMILES IDX 93 66 60 67 44 68 45 69 53 70 46 71 48 72 54 73 47 74 49 75
REMARK SMILES IDX 50 76 51 77 52 78 76 79 77 80 85 81 78 82 80 83 86 84 79 85
REMARK SMILES IDX 81 86 82 87 83 88 84 89 61 90 62 91 70 92 63 93 65 94 71 95
REMARK SMILES IDX 64 96 66 97 67 98 68 99 69 100
REMARK H PARENT 91 53 59 64
REMARK Flexibility Score: inf
ROOT
ATOM      1  C   UNL A   1      34.918  32.841  28.055  1.00  0.00     0.188 C 
ENDROOT
BRANCH   1   2
ATOM      2  C   UNL A   1      34.567  31.348  27.905  1.00  0.00     0.188 C 
BRANCH   2   3
ATOM      3  O   UNL A   1      33.217  31.120  27.524  1.00  0.00    -0.376 OA
BRANCH   3   4
ATOM      4  C   UNL A   1      32.947  29.848  26.950  1.00  0.00     0.202 C 
BRANCH   4   5
ATOM      5  C   UNL A   1      33.088  29.870  25.427  1.00  0.00     0.261 C 
BRANCH   5   6
ATOM      6  O   UNL A   1      33.753  28.710  24.898  1.00  0.00    -0.460 OA
BRANCH   6   7
ATOM      7  C   UNL A   1      33.314  28.256  23.702  1.00  0.00     0.338 C 
ATOM      8  O   UNL A   1      33.279  28.894  22.666  1.00  0.00    -0.246 OA
BRANCH   7   9
ATOM      9  C   UNL A   1      32.949  26.830  23.813  1.00  0.00     0.087 C 
ATOM     10  C   UNL A   1      31.831  22.952  24.922  1.00  0.00     0.165 A 
ATOM     11  C   UNL A   1      32.781  21.924  24.876  1.00  0.00     0.097 A 
ATOM     12  C   UNL A   1      32.192  24.250  24.543  1.00  0.00     0.170 A 
ATOM     13  C   UNL A   1      34.078  22.173  24.427  1.00  0.00     0.134 A 
ATOM     14  C   UNL A   1      33.504  24.514  24.118  1.00  0.00     0.025 A 
ATOM     15  O   UNL A   1      31.289  25.272  24.694  1.00  0.00    -0.471 OA
ATOM     16  C   UNL A   1      34.430  23.469  24.036  1.00  0.00     0.059 A 
ATOM     17  C   UNL A   1      33.917  25.901  23.900  1.00  0.00     0.027 C 
ATOM     18  C   UNL A   1      31.501  26.403  23.806  1.00  0.00     0.316 C 
BRANCH  10  19
ATOM     19  O   UNL A   1      30.619  22.583  25.447  1.00  0.00    -0.493 OA
ATOM     20  C   UNL A   1      30.415  22.952  26.808  1.00  0.00     0.278 C 
ENDBRANCH  10  19
BRANCH  13  21
ATOM     21  O   UNL A   1      35.088  21.257  24.339  1.00  0.00    -0.406 OA
BRANCH  21  22
ATOM     22  C   UNL A   1      36.209  21.432  25.190  1.00  0.00     0.573 C 
ATOM     23  F   UNL A   1      36.782  22.641  25.005  1.00  0.00    -0.132 F 
ATOM     24  F   UNL A   1      35.865  21.284  26.488  1.00  0.00    -0.132 F 
ATOM     25  F   UNL A   1      37.130  20.487  24.892  1.00  0.00    -0.132 F 
ENDBRANCH  21  22
ENDBRANCH  13  21
BRANCH  18  26
ATOM     26  C   UNL A   1      30.417  27.457  24.081  1.00  0.00     0.430 C 
ATOM     27  F   UNL A   1      29.193  26.882  24.152  1.00  0.00    -0.167 F 
ATOM     28  F   UNL A   1      30.636  28.033  25.290  1.00  0.00    -0.167 F 
ATOM     29  F   UNL A   1      30.394  28.439  23.161  1.00  0.00    -0.167 F 
ENDBRANCH  18  26
ENDBRANCH   7   9
ENDBRANCH   6   7
ENDBRANCH   5   6
ENDBRANCH   4   5
ENDBRANCH   3   4
ENDBRANCH   2   3
ENDBRANCH   1   2
BRANCH   1  30
ATOM     30  O   UNL A   1      33.904  33.835  27.971  1.00  0.00    -0.376 OA
BRANCH  30  31
ATOM     31  C   UNL A   1      34.190  35.151  28.421  1.00  0.00     0.202 C 
BRANCH  31  32
ATOM     32  C   UNL A   1      33.109  35.874  29.231  1.00  0.00     0.261 C 
BRANCH  32  33
ATOM     33  O   UNL A   1      32.633  35.135  30.366  1.00  0.00    -0.460 OA
BRANCH  33  34
ATOM     34  C   UNL A   1      32.865  35.709  31.573  1.00  0.00     0.338 C 
ATOM     35  O   UNL A   1      32.201  36.575  32.116  1.00  0.00    -0.246 OA
BRANCH  34  36
ATOM     36  C   UNL A   1      33.971  35.005  32.253  1.00  0.00     0.060 A 
ATOM     37  C   UNL A   1      35.281  35.439  32.005  1.00  0.00     0.016 A 
ATOM     38  C   UNL A   1      33.735  33.900  33.072  1.00  0.00     0.016 A 
ATOM     39  C   UNL A   1      36.363  34.760  32.566  1.00  0.00     0.010 A 
ATOM     40  C   UNL A   1      34.822  33.204  33.612  1.00  0.00     0.010 A 
ATOM     41  C   UNL A   1      36.140  33.618  33.343  1.00  0.00    -0.014 A 
BRANCH  41  42
ATOM     42  C   UNL A   1      37.280  32.771  33.769  1.00  0.00     0.031 A 
ATOM     43  C   UNL A   1      38.074  33.174  34.981  1.00  0.00     0.074 A 
ATOM     44  C   UNL A   1      37.635  31.685  33.058  1.00  0.00     0.049 A 
ATOM     45  N   UNL A   1      39.154  32.632  35.479  1.00  0.00    -0.248 NA
ATOM     46  C   UNL A   1      37.586  34.345  35.729  1.00  0.00     0.031 C 
ATOM     47  C   UNL A   1      36.946  31.193  31.867  1.00  0.00     0.029 A 
ATOM     48  N   UNL A   1      38.696  30.828  33.215  1.00  0.00    -0.354 N 
ATOM     49  C   UNL A   1      39.498  33.414  36.575  1.00  0.00     0.074 A 
ATOM     50  C   UNL A   1      38.506  34.462  36.676  1.00  0.00     0.031 C 
ATOM     51  C   UNL A   1      37.635  30.152  31.367  1.00  0.00     0.029 A 
ATOM     52  C   UNL A   1      38.822  29.921  32.189  1.00  0.00     0.049 A 
ATOM     53  H   UNL A   1      39.306  30.859  33.987  1.00  0.00     0.167 HD
ATOM     54  C   UNL A   1      40.542  33.268  37.423  1.00  0.00     0.034 A 
ATOM     55  C   UNL A   1      39.802  29.034  31.924  1.00  0.00     0.034 A 
ATOM     56  C   UNL A   1      41.518  32.216  37.336  1.00  0.00     0.049 A 
ATOM     57  C   UNL A   1      40.965  28.908  32.874  1.00  0.00     0.074 A 
ATOM     58  C   UNL A   1      42.568  31.945  38.196  1.00  0.00     0.029 A 
ATOM     59  N   UNL A   1      41.579  31.277  36.320  1.00  0.00    -0.354 N 
ATOM     60  N   UNL A   1      41.193  29.552  33.993  1.00  0.00    -0.248 NA
ATOM     61  C   UNL A   1      41.995  27.911  32.540  1.00  0.00     0.031 C 
ATOM     62  C   UNL A   1      43.280  30.856  37.685  1.00  0.00     0.029 A 
ATOM     63  C   UNL A   1      42.662  30.438  36.518  1.00  0.00     0.049 A 
ATOM     64  H   UNL A   1      40.947  31.216  35.569  1.00  0.00     0.167 HD
ATOM     65  C   UNL A   1      42.371  29.020  34.509  1.00  0.00     0.074 A 
ATOM     66  C   UNL A   1      42.797  27.983  33.593  1.00  0.00     0.031 C 
ATOM     67  C   UNL A   1      43.048  29.372  35.630  1.00  0.00     0.034 A 
BRANCH  54  68
ATOM     68  C   UNL A   1      40.677  34.261  38.544  1.00  0.00     0.023 A 
ATOM     69  C   UNL A   1      41.505  35.390  38.377  1.00  0.00     0.012 A 
ATOM     70  C   UNL A   1      39.929  34.117  39.727  1.00  0.00     0.148 A 
ATOM     71  C   UNL A   1      41.601  36.351  39.382  1.00  0.00     0.002 A 
ATOM     72  C   UNL A   1      40.001  35.098  40.710  1.00  0.00     0.091 A 
ATOM     73  F   UNL A   1      39.168  33.024  39.874  1.00  0.00    -0.205 F 
ATOM     74  C   UNL A   1      40.842  36.212  40.541  1.00  0.00     0.022 A 
BRANCH  72  75
ATOM     75  S   UNL A   1      39.012  35.043  42.207  1.00  0.00     0.127 S 
ATOM     76  O   UNL A   1      39.213  33.662  42.642  1.00  0.00    -0.237 OA
ATOM     77  O   UNL A   1      39.666  36.048  43.046  1.00  0.00    -0.237 OA
ATOM     78  O   UNL A   1      37.653  35.380  41.804  1.00  0.00    -0.744 OA
ENDBRANCH  72  75
ENDBRANCH  54  68
BRANCH  55  79
ATOM     79  C   UNL A   1      39.727  28.183  30.703  1.00  0.00     0.023 A 
ATOM     80  C   UNL A   1      38.933  27.020  30.712  1.00  0.00     0.012 A 
ATOM     81  C   UNL A   1      40.439  28.520  29.535  1.00  0.00     0.148 A 
ATOM     82  C   UNL A   1      38.875  26.191  29.590  1.00  0.00     0.002 A 
ATOM     83  C   UNL A   1      40.335  27.718  28.404  1.00  0.00     0.091 A 
ATOM     84  F   UNL A   1      41.211  29.615  29.552  1.00  0.00    -0.205 F 
ATOM     85  C   UNL A   1      39.566  26.544  28.435  1.00  0.00     0.022 A 
BRANCH  83  86
ATOM     86  S   UNL A   1      41.098  28.168  26.841  1.00  0.00     0.127 S 
ATOM     87  O   UNL A   1      40.951  26.936  26.071  1.00  0.00    -0.237 OA
ATOM     88  O   UNL A   1      40.254  29.277  26.395  1.00  0.00    -0.237 OA
ATOM     89  O   UNL A   1      42.463  28.553  27.175  1.00  0.00    -0.744 OA
ENDBRANCH  83  86
ENDBRANCH  55  79
BRANCH  67  90
ATOM     90  C   UNL A   1      44.313  28.620  35.956  1.00  0.00     0.023 A 
ATOM     91  C   UNL A   1      45.552  29.120  35.512  1.00  0.00     0.012 A 
ATOM     92  C   UNL A   1      44.282  27.472  36.773  1.00  0.00     0.148 A 
ATOM     93  C   UNL A   1      46.741  28.475  35.854  1.00  0.00     0.002 A 
ATOM     94  C   UNL A   1      45.474  26.862  37.148  1.00  0.00     0.091 A 
ATOM     95  F   UNL A   1      43.092  27.001  37.170  1.00  0.00    -0.205 F 
ATOM     96  C   UNL A   1      46.703  27.355  36.682  1.00  0.00     0.022 A 
BRANCH  94  97
ATOM     97  S   UNL A   1      45.524  25.474  38.289  1.00  0.00     0.127 S 
ATOM     98  O   UNL A   1      44.672  24.499  37.609  1.00  0.00    -0.237 OA
ATOM     99  O   UNL A   1      46.947  25.133  38.306  1.00  0.00    -0.237 OA
ATOM    100  O   UNL A   1      45.010  25.979  39.555  1.00  0.00    -0.744 OA
ENDBRANCH  94  97
ENDBRANCH  67  90
ENDBRANCH  41  42
ENDBRANCH  34  36
ENDBRANCH  33  34
ENDBRANCH  32  33
ENDBRANCH  31  32
ENDBRANCH  30  31
ENDBRANCH   1  30
TORSDOF 24
ENDMDL
