MODEL 1
REMARK VINA RESULT:      -9.2      0.000      0.000
REMARK SMILES CCOC(=O)c1c(NC(=O)[C@@H]2[C@@H](C(=O)OCCOCCOCCOC(=O)c3ccc(-c4c5nc(c(-c6cccc(S(=O)(=O)[O-])c6F)c6ccc([nH]6)c(-c6cccc(S(=O)(=O)[O-])c6F)c6nc(c(-c7cccc(S(=O)(=O)[O-])c7F)c7ccc4[nH]7)C=C6)C=C5)cc3)[C@@H]3C=C[C@H]2CC3)sc2c1CCC2
REMARK SMILES IDX 19 1 18 2 17 3 16 4 15 5 13 6 14 7 12 8 11 9 93 10 90 11
REMARK SMILES IDX 92 12 94 13 91 14 95 15 9 16 8 17 10 19 7 20 6 21 98 22
REMARK SMILES IDX 96 23 97 24 99 25 101 26 100 27 4 28 5 29 3 30 2 31 1 32
REMARK SMILES IDX 20 33 21 34 22 35 23 36 24 37 25 38 26 39 27 40 28 41 89 42
REMARK SMILES IDX 29 43 88 44 30 45 31 46 32 47 82 48 33 49 87 50 81 51 83 52
REMARK SMILES IDX 34 53 86 54 80 55 79 56 35 58 67 59 47 60 66 61 48 62 51 63
REMARK SMILES IDX 65 64 84 65 49 66 50 67 64 69 85 70 52 71 36 72 37 73 45 74
REMARK SMILES IDX 38 75 40 76 46 77 39 78 41 79 42 80 43 81 44 82 68 83 69 84
REMARK SMILES IDX 77 85 70 86 72 87 78 88 71 89 73 90 74 91 75 92 76 93 53 94
REMARK SMILES IDX 54 95 62 96 55 97 57 98 63 99 56 100 58 101 59 102 60 103
REMARK SMILES IDX 61 104
REMARK H PARENT 8 18 83 57 51 68
REMARK Flexibility Score: inf
ROOT
ATOM      1  C   UNL A   1      37.562  19.931  24.667  1.00  0.00     0.188 C 
ENDROOT
BRANCH   1   2
ATOM      2  O   UNL A   1      36.249  20.227  25.134  1.00  0.00    -0.376 OA
BRANCH   2   3
ATOM      3  C   UNL A   1      35.969  21.533  25.601  1.00  0.00     0.202 C 
BRANCH   3   4
ATOM      4  C   UNL A   1      34.724  22.209  24.993  1.00  0.00     0.261 C 
BRANCH   4   5
ATOM      5  O   UNL A   1      34.926  23.404  24.200  1.00  0.00    -0.463 OA
BRANCH   5   6
ATOM      6  C   UNL A   1      33.934  23.728  23.328  1.00  0.00     0.310 C 
ATOM      7  O   UNL A   1      33.988  23.492  22.124  1.00  0.00    -0.252 OA
BRANCH   6   8
ATOM      8  C   UNL A   1      32.767  24.518  23.936  1.00  0.00     0.119 C 
ATOM      9  C   UNL A   1      33.101  25.658  24.880  1.00  0.00     0.100 C 
ATOM     10  C   UNL A   1      32.094  25.652  26.073  1.00  0.00     0.025 C 
ATOM     11  C   UNL A   1      31.334  23.951  24.262  1.00  0.00     0.026 C 
ATOM     12  C   UNL A   1      30.742  25.981  25.506  1.00  0.00    -0.027 C 
ATOM     13  C   UNL A   1      31.940  24.200  26.664  1.00  0.00     0.009 C 
ATOM     14  C   UNL A   1      30.353  25.112  24.556  1.00  0.00    -0.027 C 
ATOM     15  C   UNL A   1      31.251  23.275  25.629  1.00  0.00     0.009 C 
BRANCH   9  16
ATOM     16  C   UNL A   1      33.193  27.014  24.105  1.00  0.00     0.229 C 
ATOM     17  N   UNL A   1      33.476  28.289  24.564  1.00  0.00    -0.317 N 
ATOM     18  H   UNL A   1      33.241  28.985  23.910  1.00  0.00     0.170 HD
ATOM     19  O   UNL A   1      33.029  26.942  22.872  1.00  0.00    -0.274 OA
BRANCH  17  20
ATOM     20  C   UNL A   1      34.018  28.821  25.741  1.00  0.00     0.110 A 
ATOM     21  C   UNL A   1      33.439  29.752  26.618  1.00  0.00     0.098 A 
ATOM     22  C   UNL A   1      34.503  30.354  27.359  1.00  0.00    -0.017 A 
ATOM     23  S   UNL A   1      35.221  28.032  26.733  1.00  0.00    -0.122 S 
ATOM     24  C   UNL A   1      35.598  29.528  27.368  1.00  0.00     0.011 A 
ATOM     25  C   UNL A   1      34.791  31.546  28.196  1.00  0.00     0.038 C 
ATOM     26  C   UNL A   1      36.814  30.072  28.009  1.00  0.00     0.047 C 
ATOM     27  C   UNL A   1      36.364  31.549  28.224  1.00  0.00     0.010 C 
BRANCH  21  28
ATOM     28  C   UNL A   1      32.014  29.969  26.614  1.00  0.00     0.341 C 
ATOM     29  O   UNL A   1      31.251  29.113  27.063  1.00  0.00    -0.246 OA
BRANCH  28  30
ATOM     30  O   UNL A   1      31.618  31.190  26.174  1.00  0.00    -0.462 OA
BRANCH  30  31
ATOM     31  C   UNL A   1      30.497  31.158  25.275  1.00  0.00     0.230 C 
ATOM     32  C   UNL A   1      30.562  30.052  24.227  1.00  0.00     0.049 C 
ENDBRANCH  30  31
ENDBRANCH  28  30
ENDBRANCH  21  28
ENDBRANCH  17  20
ENDBRANCH   9  16
ENDBRANCH   6   8
ENDBRANCH   5   6
ENDBRANCH   4   5
ENDBRANCH   3   4
ENDBRANCH   2   3
ENDBRANCH   1   2
BRANCH   1  33
ATOM     33  C   UNL A   1      38.464  18.972  25.461  1.00  0.00     0.188 C 
BRANCH  33  34
ATOM     34  O   UNL A   1      39.818  19.379  25.509  1.00  0.00    -0.376 OA
BRANCH  34  35
ATOM     35  C   UNL A   1      40.102  20.384  26.459  1.00  0.00     0.202 C 
BRANCH  35  36
ATOM     36  C   UNL A   1      41.410  21.113  26.189  1.00  0.00     0.261 C 
BRANCH  36  37
ATOM     37  O   UNL A   1      41.355  22.517  26.408  1.00  0.00    -0.460 OA
BRANCH  37  38
ATOM     38  C   UNL A   1      40.155  23.037  26.737  1.00  0.00     0.338 C 
ATOM     39  O   UNL A   1      39.092  22.846  26.173  1.00  0.00    -0.246 OA
BRANCH  38  40
ATOM     40  C   UNL A   1      40.378  24.006  27.815  1.00  0.00     0.060 A 
ATOM     41  C   UNL A   1      39.459  25.048  27.925  1.00  0.00     0.016 A 
ATOM     42  C   UNL A   1      41.651  24.058  28.406  1.00  0.00     0.016 A 
ATOM     43  C   UNL A   1      39.921  26.254  28.400  1.00  0.00     0.010 A 
ATOM     44  C   UNL A   1      42.118  25.269  28.840  1.00  0.00     0.010 A 
ATOM     45  C   UNL A   1      41.274  26.368  28.744  1.00  0.00    -0.014 A 
BRANCH  45  46
ATOM     46  C   UNL A   1      41.764  27.653  29.185  1.00  0.00     0.031 A 
ATOM     47  C   UNL A   1      43.033  27.982  28.506  1.00  0.00     0.074 A 
ATOM     48  C   UNL A   1      41.071  28.450  30.022  1.00  0.00     0.049 A 
ATOM     49  N   UNL A   1      44.212  27.971  29.030  1.00  0.00    -0.248 NA
ATOM     50  C   UNL A   1      43.033  28.069  27.035  1.00  0.00     0.031 C 
ATOM     51  C   UNL A   1      39.701  28.256  30.508  1.00  0.00     0.029 A 
ATOM     52  N   UNL A   1      41.392  29.683  30.508  1.00  0.00    -0.354 N 
ATOM     53  C   UNL A   1      45.049  28.391  28.004  1.00  0.00     0.074 A 
ATOM     54  C   UNL A   1      44.341  28.140  26.780  1.00  0.00     0.031 C 
ATOM     55  C   UNL A   1      39.231  29.430  30.987  1.00  0.00     0.029 A 
ATOM     56  C   UNL A   1      40.291  30.422  30.944  1.00  0.00     0.049 A 
ATOM     57  H   UNL A   1      42.316  30.021  30.548  1.00  0.00     0.167 HD
ATOM     58  C   UNL A   1      46.047  29.274  28.277  1.00  0.00     0.034 A 
ATOM     59  C   UNL A   1      40.244  31.764  31.163  1.00  0.00     0.034 A 
ATOM     60  C   UNL A   1      46.364  29.267  29.689  1.00  0.00     0.049 A 
ATOM     61  C   UNL A   1      41.640  32.232  31.317  1.00  0.00     0.074 A 
ATOM     62  C   UNL A   1      46.681  28.293  30.617  1.00  0.00     0.029 A 
ATOM     63  N   UNL A   1      45.965  30.365  30.412  1.00  0.00    -0.354 N 
ATOM     64  N   UNL A   1      42.390  31.928  32.338  1.00  0.00    -0.248 NA
ATOM     65  C   UNL A   1      42.348  32.662  30.121  1.00  0.00     0.031 C 
ATOM     66  C   UNL A   1      46.031  28.699  31.818  1.00  0.00     0.029 A 
ATOM     67  C   UNL A   1      45.429  29.937  31.593  1.00  0.00     0.049 A 
ATOM     68  H   UNL A   1      46.052  31.303  30.127  1.00  0.00     0.167 HD
ATOM     69  C   UNL A   1      43.621  31.635  31.769  1.00  0.00     0.074 A 
ATOM     70  C   UNL A   1      43.568  32.217  30.427  1.00  0.00     0.031 C 
ATOM     71  C   UNL A   1      44.430  30.683  32.320  1.00  0.00     0.034 A 
BRANCH  58  72
ATOM     72  C   UNL A   1      46.371  30.473  27.401  1.00  0.00     0.023 A 
ATOM     73  C   UNL A   1      47.736  30.827  27.304  1.00  0.00     0.012 A 
ATOM     74  C   UNL A   1      45.434  31.432  26.943  1.00  0.00     0.148 A 
ATOM     75  C   UNL A   1      48.136  32.095  26.877  1.00  0.00     0.002 A 
ATOM     76  C   UNL A   1      45.840  32.662  26.442  1.00  0.00     0.091 A 
ATOM     77  F   UNL A   1      44.126  31.235  27.091  1.00  0.00    -0.205 F 
ATOM     78  C   UNL A   1      47.189  33.016  26.445  1.00  0.00     0.022 A 
BRANCH  76  79
ATOM     79  S   UNL A   1      44.656  33.871  25.832  1.00  0.00     0.127 S 
ATOM     80  O   UNL A   1      43.920  34.196  27.050  1.00  0.00    -0.237 OA
ATOM     81  O   UNL A   1      45.543  34.923  25.339  1.00  0.00    -0.237 OA
ATOM     82  O   UNL A   1      43.892  33.195  24.790  1.00  0.00    -0.744 OA
ENDBRANCH  76  79
ENDBRANCH  58  72
BRANCH  59  83
ATOM     83  C   UNL A   1      39.135  32.741  31.000  1.00  0.00     0.023 A 
ATOM     84  C   UNL A   1      39.102  33.570  29.857  1.00  0.00     0.012 A 
ATOM     85  C   UNL A   1      37.964  32.659  31.785  1.00  0.00     0.148 A 
ATOM     86  C   UNL A   1      37.936  34.251  29.483  1.00  0.00     0.002 A 
ATOM     87  C   UNL A   1      36.809  33.343  31.413  1.00  0.00     0.091 A 
ATOM     88  F   UNL A   1      37.949  31.836  32.840  1.00  0.00    -0.205 F 
ATOM     89  C   UNL A   1      36.786  34.128  30.254  1.00  0.00     0.022 A 
BRANCH  87  90
ATOM     90  S   UNL A   1      35.278  33.207  32.349  1.00  0.00     0.127 S 
ATOM     91  O   UNL A   1      34.418  34.172  31.662  1.00  0.00    -0.237 OA
ATOM     92  O   UNL A   1      34.918  31.808  32.139  1.00  0.00    -0.237 OA
ATOM     93  O   UNL A   1      35.615  33.576  33.718  1.00  0.00    -0.744 OA
ENDBRANCH  87  90
ENDBRANCH  59  83
BRANCH  71  94
ATOM     94  C   UNL A   1      44.140  30.224  33.724  1.00  0.00     0.023 A 
ATOM     95  C   UNL A   1      44.550  30.928  34.875  1.00  0.00     0.012 A 
ATOM     96  C   UNL A   1      43.295  29.112  33.871  1.00  0.00     0.148 A 
ATOM     97  C   UNL A   1      44.145  30.509  36.146  1.00  0.00     0.002 A 
ATOM     98  C   UNL A   1      42.854  28.730  35.129  1.00  0.00     0.091 A 
ATOM     99  F   UNL A   1      42.920  28.451  32.764  1.00  0.00    -0.205 F 
ATOM    100  C   UNL A   1      43.285  29.418  36.272  1.00  0.00     0.022 A 
BRANCH  98 101
ATOM    101  S   UNL A   1      41.656  27.411  35.325  1.00  0.00     0.127 S 
ATOM    102  O   UNL A   1      40.662  27.748  34.308  1.00  0.00    -0.237 OA
ATOM    103  O   UNL A   1      42.451  26.217  35.034  1.00  0.00    -0.237 OA
ATOM    104  O   UNL A   1      41.195  27.493  36.707  1.00  0.00    -0.744 OA
ENDBRANCH  98 101
ENDBRANCH  71  94
ENDBRANCH  45  46
ENDBRANCH  38  40
ENDBRANCH  37  38
ENDBRANCH  36  37
ENDBRANCH  35  36
ENDBRANCH  34  35
ENDBRANCH  33  34
ENDBRANCH   1  33
TORSDOF 25
ENDMDL
MODEL 2
REMARK VINA RESULT:      -8.8      3.726      5.529
REMARK SMILES CCOC(=O)c1c(NC(=O)[C@@H]2[C@@H](C(=O)OCCOCCOCCOC(=O)c3ccc(-c4c5nc(c(-c6cccc(S(=O)(=O)[O-])c6F)c6ccc([nH]6)c(-c6cccc(S(=O)(=O)[O-])c6F)c6nc(c(-c7cccc(S(=O)(=O)[O-])c7F)c7ccc4[nH]7)C=C6)C=C5)cc3)[C@@H]3C=C[C@H]2CC3)sc2c1CCC2
REMARK SMILES IDX 19 1 18 2 17 3 16 4 15 5 13 6 14 7 12 8 11 9 93 10 90 11
REMARK SMILES IDX 92 12 94 13 91 14 95 15 9 16 8 17 10 19 7 20 6 21 98 22
REMARK SMILES IDX 96 23 97 24 99 25 101 26 100 27 4 28 5 29 3 30 2 31 1 32
REMARK SMILES IDX 20 33 21 34 22 35 23 36 24 37 25 38 26 39 27 40 28 41 89 42
REMARK SMILES IDX 29 43 88 44 30 45 31 46 32 47 82 48 33 49 87 50 81 51 83 52
REMARK SMILES IDX 34 53 86 54 80 55 79 56 35 58 67 59 47 60 66 61 48 62 51 63
REMARK SMILES IDX 65 64 84 65 49 66 50 67 64 69 85 70 52 71 36 72 37 73 45 74
REMARK SMILES IDX 38 75 40 76 46 77 39 78 41 79 42 80 43 81 44 82 68 83 69 84
REMARK SMILES IDX 77 85 70 86 72 87 78 88 71 89 73 90 74 91 75 92 76 93 53 94
REMARK SMILES IDX 54 95 62 96 55 97 57 98 63 99 56 100 58 101 59 102 60 103
REMARK SMILES IDX 61 104
REMARK H PARENT 8 18 83 57 51 68
REMARK Flexibility Score: inf
ROOT
ATOM      1  C   UNL A   1      36.684  23.089  23.239  1.00  0.00     0.188 C 
ENDROOT
BRANCH   1   2
ATOM      2  O   UNL A   1      35.544  23.840  22.827  1.00  0.00    -0.376 OA
BRANCH   2   3
ATOM      3  C   UNL A   1      34.299  23.180  22.708  1.00  0.00     0.202 C 
BRANCH   3   4
ATOM      4  C   UNL A   1      33.314  23.787  21.689  1.00  0.00     0.261 C 
BRANCH   4   5
ATOM      5  O   UNL A   1      32.365  24.769  22.171  1.00  0.00    -0.463 OA
BRANCH   5   6
ATOM      6  C   UNL A   1      31.443  24.330  23.069  1.00  0.00     0.310 C 
ATOM      7  O   UNL A   1      30.605  23.470  22.812  1.00  0.00    -0.252 OA
BRANCH   6   8
ATOM      8  C   UNL A   1      31.445  25.069  24.415  1.00  0.00     0.119 C 
ATOM      9  C   UNL A   1      32.419  24.599  25.478  1.00  0.00     0.100 C 
ATOM     10  C   UNL A   1      31.715  24.628  26.872  1.00  0.00     0.025 C 
ATOM     11  C   UNL A   1      30.203  25.764  25.091  1.00  0.00     0.026 C 
ATOM     12  C   UNL A   1      31.435  26.070  27.190  1.00  0.00    -0.027 C 
ATOM     13  C   UNL A   1      30.296  23.951  26.793  1.00  0.00     0.009 C 
ATOM     14  C   UNL A   1      30.667  26.666  26.262  1.00  0.00    -0.027 C 
ATOM     15  C   UNL A   1      29.348  24.802  25.912  1.00  0.00     0.009 C 
BRANCH   9  16
ATOM     16  C   UNL A   1      33.758  25.404  25.402  1.00  0.00     0.229 C 
ATOM     17  N   UNL A   1      34.031  26.636  24.835  1.00  0.00    -0.317 N 
ATOM     18  H   UNL A   1      34.996  26.796  24.727  1.00  0.00     0.170 HD
ATOM     19  O   UNL A   1      34.732  24.882  25.978  1.00  0.00    -0.274 OA
BRANCH  17  20
ATOM     20  C   UNL A   1      33.256  27.710  24.376  1.00  0.00     0.110 A 
ATOM     21  C   UNL A   1      32.805  28.825  25.100  1.00  0.00     0.098 A 
ATOM     22  C   UNL A   1      31.684  29.363  24.394  1.00  0.00    -0.017 A 
ATOM     23  S   UNL A   1      33.189  28.255  22.718  1.00  0.00    -0.122 S 
ATOM     24  C   UNL A   1      31.732  28.987  23.076  1.00  0.00     0.011 A 
ATOM     25  C   UNL A   1      30.523  30.266  24.595  1.00  0.00     0.038 C 
ATOM     26  C   UNL A   1      30.575  29.384  22.246  1.00  0.00     0.047 C 
ATOM     27  C   UNL A   1      29.618  29.910  23.359  1.00  0.00     0.010 C 
BRANCH  21  28
ATOM     28  C   UNL A   1      33.444  29.199  26.336  1.00  0.00     0.341 C 
ATOM     29  O   UNL A   1      32.781  29.335  27.365  1.00  0.00    -0.246 OA
BRANCH  28  30
ATOM     30  O   UNL A   1      34.797  29.294  26.281  1.00  0.00    -0.462 OA
BRANCH  30  31
ATOM     31  C   UNL A   1      35.369  30.163  27.271  1.00  0.00     0.230 C 
ATOM     32  C   UNL A   1      36.181  29.447  28.345  1.00  0.00     0.049 C 
ENDBRANCH  30  31
ENDBRANCH  28  30
ENDBRANCH  21  28
ENDBRANCH  17  20
ENDBRANCH   9  16
ENDBRANCH   6   8
ENDBRANCH   5   6
ENDBRANCH   4   5
ENDBRANCH   3   4
ENDBRANCH   2   3
ENDBRANCH   1   2
BRANCH   1  33
ATOM     33  C   UNL A   1      36.635  22.265  24.536  1.00  0.00     0.188 C 
BRANCH  33  34
ATOM     34  O   UNL A   1      37.863  22.242  25.237  1.00  0.00    -0.376 OA
BRANCH  34  35
ATOM     35  C   UNL A   1      38.336  20.952  25.563  1.00  0.00     0.202 C 
BRANCH  35  36
ATOM     36  C   UNL A   1      39.726  20.961  26.182  1.00  0.00     0.261 C 
BRANCH  36  37
ATOM     37  O   UNL A   1      40.255  22.260  26.417  1.00  0.00    -0.460 OA
BRANCH  37  38
ATOM     38  C   UNL A   1      41.518  22.489  26.003  1.00  0.00     0.338 C 
ATOM     39  O   UNL A   1      42.294  21.679  25.527  1.00  0.00    -0.246 OA
BRANCH  38  40
ATOM     40  C   UNL A   1      41.854  23.869  26.366  1.00  0.00     0.060 A 
ATOM     41  C   UNL A   1      42.232  24.720  25.328  1.00  0.00     0.016 A 
ATOM     42  C   UNL A   1      42.143  24.149  27.711  1.00  0.00     0.016 A 
ATOM     43  C   UNL A   1      43.137  25.714  25.618  1.00  0.00     0.010 A 
ATOM     44  C   UNL A   1      43.073  25.113  27.991  1.00  0.00     0.010 A 
ATOM     45  C   UNL A   1      43.624  25.818  26.927  1.00  0.00    -0.014 A 
BRANCH  45  46
ATOM     46  C   UNL A   1      44.618  26.826  27.211  1.00  0.00     0.031 A 
ATOM     47  C   UNL A   1      45.971  26.314  26.917  1.00  0.00     0.074 A 
ATOM     48  C   UNL A   1      44.299  28.080  27.591  1.00  0.00     0.049 A 
ATOM     49  N   UNL A   1      46.871  25.973  27.778  1.00  0.00    -0.248 NA
ATOM     50  C   UNL A   1      46.267  25.879  25.541  1.00  0.00     0.031 C 
ATOM     51  C   UNL A   1      42.963  28.681  27.646  1.00  0.00     0.029 A 
ATOM     52  N   UNL A   1      45.117  29.134  27.874  1.00  0.00    -0.354 N 
ATOM     53  C   UNL A   1      47.965  25.605  27.006  1.00  0.00     0.074 A 
ATOM     54  C   UNL A   1      47.448  25.281  25.706  1.00  0.00     0.031 C 
ATOM     55  C   UNL A   1      43.085  30.027  27.683  1.00  0.00     0.029 A 
ATOM     56  C   UNL A   1      44.493  30.377  27.766  1.00  0.00     0.049 A 
ATOM     57  H   UNL A   1      46.061  29.027  28.132  1.00  0.00     0.167 HD
ATOM     58  C   UNL A   1      49.210  26.000  27.384  1.00  0.00     0.034 A 
ATOM     59  C   UNL A   1      45.101  31.589  27.662  1.00  0.00     0.034 A 
ATOM     60  C   UNL A   1      49.233  26.344  28.790  1.00  0.00     0.049 A 
ATOM     61  C   UNL A   1      46.490  31.425  28.147  1.00  0.00     0.074 A 
ATOM     62  C   UNL A   1      48.845  25.716  29.958  1.00  0.00     0.029 A 
ATOM     63  N   UNL A   1      49.335  27.680  29.092  1.00  0.00    -0.354 N 
ATOM     64  N   UNL A   1      46.793  31.199  29.393  1.00  0.00    -0.248 NA
ATOM     65  C   UNL A   1      47.510  31.062  27.175  1.00  0.00     0.031 C 
ATOM     66  C   UNL A   1      48.299  26.751  30.772  1.00  0.00     0.029 A 
ATOM     67  C   UNL A   1      48.464  27.965  30.104  1.00  0.00     0.049 A 
ATOM     68  H   UNL A   1      49.935  28.324  28.653  1.00  0.00     0.167 HD
ATOM     69  C   UNL A   1      47.777  30.224  29.323  1.00  0.00     0.074 A 
ATOM     70  C   UNL A   1      48.259  30.267  27.942  1.00  0.00     0.031 C 
ATOM     71  C   UNL A   1      47.879  29.271  30.295  1.00  0.00     0.034 A 
BRANCH  58  72
ATOM     72  C   UNL A   1      50.245  26.554  26.419  1.00  0.00     0.023 A 
ATOM     73  C   UNL A   1      49.790  27.535  25.509  1.00  0.00     0.012 A 
ATOM     74  C   UNL A   1      51.506  25.969  26.142  1.00  0.00     0.148 A 
ATOM     75  C   UNL A   1      50.497  27.838  24.342  1.00  0.00     0.002 A 
ATOM     76  C   UNL A   1      52.243  26.332  25.023  1.00  0.00     0.091 A 
ATOM     77  F   UNL A   1      51.969  24.963  26.879  1.00  0.00    -0.205 F 
ATOM     78  C   UNL A   1      51.725  27.236  24.097  1.00  0.00     0.022 A 
BRANCH  76  79
ATOM     79  S   UNL A   1      53.858  25.614  24.682  1.00  0.00     0.127 S 
ATOM     80  O   UNL A   1      54.580  25.930  25.911  1.00  0.00    -0.237 OA
ATOM     81  O   UNL A   1      53.517  24.204  24.504  1.00  0.00    -0.237 OA
ATOM     82  O   UNL A   1      54.342  26.270  23.475  1.00  0.00    -0.744 OA
ENDBRANCH  76  79
ENDBRANCH  58  72
BRANCH  59  83
ATOM     83  C   UNL A   1      44.693  32.828  26.947  1.00  0.00     0.023 A 
ATOM     84  C   UNL A   1      44.494  32.789  25.549  1.00  0.00     0.012 A 
ATOM     85  C   UNL A   1      44.207  33.953  27.648  1.00  0.00     0.148 A 
ATOM     86  C   UNL A   1      43.796  33.805  24.883  1.00  0.00     0.002 A 
ATOM     87  C   UNL A   1      43.520  34.964  26.981  1.00  0.00     0.091 A 
ATOM     88  F   UNL A   1      44.331  33.989  28.980  1.00  0.00    -0.205 F 
ATOM     89  C   UNL A   1      43.299  34.887  25.600  1.00  0.00     0.022 A 
BRANCH  87  90
ATOM     90  S   UNL A   1      42.825  36.378  27.850  1.00  0.00     0.127 S 
ATOM     91  O   UNL A   1      44.024  37.020  28.391  1.00  0.00    -0.237 OA
ATOM     92  O   UNL A   1      42.175  37.110  26.766  1.00  0.00    -0.237 OA
ATOM     93  O   UNL A   1      41.935  35.824  28.863  1.00  0.00    -0.744 OA
ENDBRANCH  87  90
ENDBRANCH  59  83
BRANCH  71  94
ATOM     94  C   UNL A   1      47.161  29.500  31.598  1.00  0.00     0.023 A 
ATOM     95  C   UNL A   1      47.705  30.239  32.669  1.00  0.00     0.012 A 
ATOM     96  C   UNL A   1      45.827  29.068  31.678  1.00  0.00     0.148 A 
ATOM     97  C   UNL A   1      46.937  30.514  33.805  1.00  0.00     0.002 A 
ATOM     98  C   UNL A   1      45.054  29.386  32.783  1.00  0.00     0.091 A 
ATOM     99  F   UNL A   1      45.328  28.360  30.651  1.00  0.00    -0.205 F 
ATOM    100  C   UNL A   1      45.606  30.099  33.856  1.00  0.00     0.022 A 
BRANCH  98 101
ATOM    101  S   UNL A   1      43.309  28.978  32.837  1.00  0.00     0.127 S 
ATOM    102  O   UNL A   1      42.840  29.476  31.546  1.00  0.00    -0.237 OA
ATOM    103  O   UNL A   1      43.329  27.520  32.961  1.00  0.00    -0.237 OA
ATOM    104  O   UNL A   1      42.774  29.664  34.008  1.00  0.00    -0.744 OA
ENDBRANCH  98 101
ENDBRANCH  71  94
ENDBRANCH  45  46
ENDBRANCH  38  40
ENDBRANCH  37  38
ENDBRANCH  36  37
ENDBRANCH  35  36
ENDBRANCH  34  35
ENDBRANCH  33  34
ENDBRANCH   1  33
TORSDOF 25
ENDMDL
MODEL 3
REMARK VINA RESULT:      -8.8      5.706     13.830
REMARK SMILES CCOC(=O)c1c(NC(=O)[C@@H]2[C@@H](C(=O)OCCOCCOCCOC(=O)c3ccc(-c4c5nc(c(-c6cccc(S(=O)(=O)[O-])c6F)c6ccc([nH]6)c(-c6cccc(S(=O)(=O)[O-])c6F)c6nc(c(-c7cccc(S(=O)(=O)[O-])c7F)c7ccc4[nH]7)C=C6)C=C5)cc3)[C@@H]3C=C[C@H]2CC3)sc2c1CCC2
REMARK SMILES IDX 19 1 18 2 17 3 16 4 15 5 13 6 14 7 12 8 11 9 93 10 90 11
REMARK SMILES IDX 92 12 94 13 91 14 95 15 9 16 8 17 10 19 7 20 6 21 98 22
REMARK SMILES IDX 96 23 97 24 99 25 101 26 100 27 4 28 5 29 3 30 2 31 1 32
REMARK SMILES IDX 20 33 21 34 22 35 23 36 24 37 25 38 26 39 27 40 28 41 89 42
REMARK SMILES IDX 29 43 88 44 30 45 31 46 32 47 82 48 33 49 87 50 81 51 83 52
REMARK SMILES IDX 34 53 86 54 80 55 79 56 35 58 67 59 47 60 66 61 48 62 51 63
REMARK SMILES IDX 65 64 84 65 49 66 50 67 64 69 85 70 52 71 36 72 37 73 45 74
REMARK SMILES IDX 38 75 40 76 46 77 39 78 41 79 42 80 43 81 44 82 68 83 69 84
REMARK SMILES IDX 77 85 70 86 72 87 78 88 71 89 73 90 74 91 75 92 76 93 53 94
REMARK SMILES IDX 54 95 62 96 55 97 57 98 63 99 56 100 58 101 59 102 60 103
REMARK SMILES IDX 61 104
REMARK H PARENT 8 18 83 57 51 68
REMARK Flexibility Score: inf
ROOT
ATOM      1  C   UNL A   1      49.155  38.799  33.133  1.00  0.00     0.188 C 
ENDROOT
BRANCH   1   2
ATOM      2  O   UNL A   1      47.922  39.276  32.600  1.00  0.00    -0.376 OA
BRANCH   2   3
ATOM      3  C   UNL A   1      46.977  39.854  33.479  1.00  0.00     0.202 C 
BRANCH   3   4
ATOM      4  C   UNL A   1      45.706  39.021  33.738  1.00  0.00     0.261 C 
BRANCH   4   5
ATOM      5  O   UNL A   1      44.606  39.163  32.806  1.00  0.00    -0.463 OA
BRANCH   5   6
ATOM      6  C   UNL A   1      43.439  39.639  33.316  1.00  0.00     0.310 C 
ATOM      7  O   UNL A   1      42.638  38.943  33.935  1.00  0.00    -0.252 OA
BRANCH   6   8
ATOM      8  C   UNL A   1      43.127  41.101  32.969  1.00  0.00     0.119 C 
ATOM      9  C   UNL A   1      43.870  41.725  31.804  1.00  0.00     0.100 C 
ATOM     10  C   UNL A   1      44.263  43.192  32.168  1.00  0.00     0.025 C 
ATOM     11  C   UNL A   1      42.682  42.219  33.986  1.00  0.00     0.026 C 
ATOM     12  C   UNL A   1      42.983  43.969  32.293  1.00  0.00    -0.027 C 
ATOM     13  C   UNL A   1      44.913  43.254  33.601  1.00  0.00     0.009 C 
ATOM     14  C   UNL A   1      42.155  43.459  33.221  1.00  0.00    -0.027 C 
ATOM     15  C   UNL A   1      43.857  42.904  34.680  1.00  0.00     0.009 C 
BRANCH   9  16
ATOM     16  C   UNL A   1      43.055  41.575  30.477  1.00  0.00     0.229 C 
ATOM     17  N   UNL A   1      43.454  41.722  29.160  1.00  0.00    -0.317 N 
ATOM     18  H   UNL A   1      42.692  41.799  28.542  1.00  0.00     0.170 HD
ATOM     19  O   UNL A   1      41.866  41.225  30.613  1.00  0.00    -0.274 OA
BRANCH  17  20
ATOM     20  C   UNL A   1      44.687  41.788  28.499  1.00  0.00     0.110 A 
ATOM     21  C   UNL A   1      45.215  40.891  27.558  1.00  0.00     0.098 A 
ATOM     22  C   UNL A   1      46.633  41.077  27.544  1.00  0.00    -0.017 A 
ATOM     23  S   UNL A   1      45.577  43.260  28.192  1.00  0.00    -0.122 S 
ATOM     24  C   UNL A   1      46.949  42.327  28.012  1.00  0.00     0.011 A 
ATOM     25  C   UNL A   1      47.878  40.394  27.113  1.00  0.00     0.038 C 
ATOM     26  C   UNL A   1      48.391  42.619  28.155  1.00  0.00     0.047 C 
ATOM     27  C   UNL A   1      48.977  41.197  27.902  1.00  0.00     0.010 C 
BRANCH  21  28
ATOM     28  C   UNL A   1      44.348  39.984  26.848  1.00  0.00     0.341 C 
ATOM     29  O   UNL A   1      44.582  38.775  26.841  1.00  0.00    -0.246 OA
BRANCH  28  30
ATOM     30  O   UNL A   1      43.250  40.553  26.290  1.00  0.00    -0.462 OA
BRANCH  30  31
ATOM     31  C   UNL A   1      42.008  39.944  26.678  1.00  0.00     0.230 C 
ATOM     32  C   UNL A   1      40.785  40.838  26.503  1.00  0.00     0.049 C 
ENDBRANCH  30  31
ENDBRANCH  28  30
ENDBRANCH  21  28
ENDBRANCH  17  20
ENDBRANCH   9  16
ENDBRANCH   6   8
ENDBRANCH   5   6
ENDBRANCH   4   5
ENDBRANCH   3   4
ENDBRANCH   2   3
ENDBRANCH   1   2
BRANCH   1  33
ATOM     33  C   UNL A   1      49.276  37.343  33.611  1.00  0.00     0.188 C 
BRANCH  33  34
ATOM     34  O   UNL A   1      48.447  36.444  32.901  1.00  0.00    -0.376 OA
BRANCH  34  35
ATOM     35  C   UNL A   1      48.922  36.083  31.621  1.00  0.00     0.202 C 
BRANCH  35  36
ATOM     36  C   UNL A   1      47.834  36.064  30.558  1.00  0.00     0.261 C 
BRANCH  36  37
ATOM     37  O   UNL A   1      46.543  36.425  31.035  1.00  0.00    -0.460 OA
BRANCH  37  38
ATOM     38  C   UNL A   1      45.776  37.171  30.215  1.00  0.00     0.338 C 
ATOM     39  O   UNL A   1      46.066  38.239  29.707  1.00  0.00    -0.246 OA
BRANCH  38  40
ATOM     40  C   UNL A   1      44.453  36.539  30.157  1.00  0.00     0.060 A 
ATOM     41  C   UNL A   1      43.871  36.185  31.373  1.00  0.00     0.016 A 
ATOM     42  C   UNL A   1      44.032  35.993  28.934  1.00  0.00     0.016 A 
ATOM     43  C   UNL A   1      43.049  35.082  31.387  1.00  0.00     0.010 A 
ATOM     44  C   UNL A   1      43.247  34.872  28.956  1.00  0.00     0.010 A 
ATOM     45  C   UNL A   1      42.844  34.381  30.192  1.00  0.00    -0.014 A 
BRANCH  45  46
ATOM     46  C   UNL A   1      42.028  33.190  30.227  1.00  0.00     0.031 A 
ATOM     47  C   UNL A   1      40.617  33.539  30.480  1.00  0.00     0.074 A 
ATOM     48  C   UNL A   1      42.516  31.963  29.956  1.00  0.00     0.049 A 
ATOM     49  N   UNL A   1      39.961  33.351  31.576  1.00  0.00    -0.248 NA
ATOM     50  C   UNL A   1      39.936  34.427  29.521  1.00  0.00     0.031 C 
ATOM     51  C   UNL A   1      43.854  31.626  29.458  1.00  0.00     0.029 A 
ATOM     52  N   UNL A   1      41.874  30.761  29.932  1.00  0.00    -0.354 N 
ATOM     53  C   UNL A   1      38.679  33.804  31.293  1.00  0.00     0.074 A 
ATOM     54  C   UNL A   1      38.807  34.699  30.178  1.00  0.00     0.031 C 
ATOM     55  C   UNL A   1      43.833  30.376  28.943  1.00  0.00     0.029 A 
ATOM     56  C   UNL A   1      42.524  29.788  29.171  1.00  0.00     0.049 A 
ATOM     57  H   UNL A   1      41.028  30.594  30.408  1.00  0.00     0.167 HD
ATOM     58  C   UNL A   1      37.608  33.085  31.726  1.00  0.00     0.034 A 
ATOM     59  C   UNL A   1      41.987  28.633  28.694  1.00  0.00     0.034 A 
ATOM     60  C   UNL A   1      37.984  32.213  32.818  1.00  0.00     0.049 A 
ATOM     61  C   UNL A   1      40.772  28.352  29.491  1.00  0.00     0.074 A 
ATOM     62  C   UNL A   1      38.631  32.383  34.028  1.00  0.00     0.029 A 
ATOM     63  N   UNL A   1      38.053  30.871  32.536  1.00  0.00    -0.354 N 
ATOM     64  N   UNL A   1      40.801  28.010  30.747  1.00  0.00    -0.248 NA
ATOM     65  C   UNL A   1      39.508  28.891  29.013  1.00  0.00     0.031 C 
ATOM     66  C   UNL A   1      39.440  31.219  34.183  1.00  0.00     0.029 A 
ATOM     67  C   UNL A   1      39.180  30.361  33.113  1.00  0.00     0.049 A 
ATOM     68  H   UNL A   1      37.399  30.362  32.005  1.00  0.00     0.167 HD
ATOM     69  C   UNL A   1      39.774  28.749  31.315  1.00  0.00     0.074 A 
ATOM     70  C   UNL A   1      38.944  29.176  30.188  1.00  0.00     0.031 C 
ATOM     71  C   UNL A   1      39.876  29.207  32.597  1.00  0.00     0.034 A 
BRANCH  58  72
ATOM     72  C   UNL A   1      36.390  32.792  30.866  1.00  0.00     0.023 A 
ATOM     73  C   UNL A   1      36.413  31.580  30.141  1.00  0.00     0.012 A 
ATOM     74  C   UNL A   1      35.405  33.738  30.487  1.00  0.00     0.148 A 
ATOM     75  C   UNL A   1      35.578  31.367  29.040  1.00  0.00     0.002 A 
ATOM     76  C   UNL A   1      34.523  33.489  29.444  1.00  0.00     0.091 A 
ATOM     77  F   UNL A   1      35.373  34.949  31.038  1.00  0.00    -0.205 F 
ATOM     78  C   UNL A   1      34.632  32.322  28.690  1.00  0.00     0.022 A 
BRANCH  76  79
ATOM     79  S   UNL A   1      33.252  34.675  28.978  1.00  0.00     0.127 S 
ATOM     80  O   UNL A   1      34.057  35.757  28.421  1.00  0.00    -0.237 OA
ATOM     81  O   UNL A   1      32.480  33.905  28.004  1.00  0.00    -0.237 OA
ATOM     82  O   UNL A   1      32.528  34.988  30.203  1.00  0.00    -0.744 OA
ENDBRANCH  76  79
ENDBRANCH  58  72
BRANCH  59  83
ATOM     83  C   UNL A   1      42.267  27.868  27.450  1.00  0.00     0.023 A 
ATOM     84  C   UNL A   1      41.848  28.390  26.206  1.00  0.00     0.012 A 
ATOM     85  C   UNL A   1      43.192  26.802  27.435  1.00  0.00     0.148 A 
ATOM     86  C   UNL A   1      42.367  27.904  24.998  1.00  0.00     0.002 A 
ATOM     87  C   UNL A   1      43.700  26.316  26.233  1.00  0.00     0.091 A 
ATOM     88  F   UNL A   1      43.650  26.327  28.600  1.00  0.00    -0.205 F 
ATOM     89  C   UNL A   1      43.302  26.874  25.012  1.00  0.00     0.022 A 
BRANCH  87  90
ATOM     90  S   UNL A   1      44.933  25.006  26.178  1.00  0.00     0.127 S 
ATOM     91  O   UNL A   1      44.240  23.911  26.857  1.00  0.00    -0.237 OA
ATOM     92  O   UNL A   1      45.113  24.820  24.741  1.00  0.00    -0.237 OA
ATOM     93  O   UNL A   1      46.090  25.520  26.900  1.00  0.00    -0.744 OA
ENDBRANCH  87  90
ENDBRANCH  59  83
BRANCH  71  94
ATOM     94  C   UNL A   1      40.930  28.606  33.488  1.00  0.00     0.023 A 
ATOM     95  C   UNL A   1      40.761  27.393  34.187  1.00  0.00     0.012 A 
ATOM     96  C   UNL A   1      42.189  29.228  33.498  1.00  0.00     0.148 A 
ATOM     97  C   UNL A   1      41.824  26.831  34.903  1.00  0.00     0.002 A 
ATOM     98  C   UNL A   1      43.253  28.641  34.166  1.00  0.00     0.091 A 
ATOM     99  F   UNL A   1      42.329  30.385  32.832  1.00  0.00    -0.205 F 
ATOM    100  C   UNL A   1      43.074  27.448  34.880  1.00  0.00     0.022 A 
BRANCH  98 101
ATOM    101  S   UNL A   1      44.903  29.337  34.063  1.00  0.00     0.127 S 
ATOM    102  O   UNL A   1      44.747  30.597  34.786  1.00  0.00    -0.237 OA
ATOM    103  O   UNL A   1      45.713  28.331  34.751  1.00  0.00    -0.237 OA
ATOM    104  O   UNL A   1      45.196  29.460  32.640  1.00  0.00    -0.744 OA
ENDBRANCH  98 101
ENDBRANCH  71  94
ENDBRANCH  45  46
ENDBRANCH  38  40
ENDBRANCH  37  38
ENDBRANCH  36  37
ENDBRANCH  35  36
ENDBRANCH  34  35
ENDBRANCH  33  34
ENDBRANCH   1  33
TORSDOF 25
ENDMDL
