MODEL 1
REMARK VINA RESULT:      -9.1      0.000      0.000
REMARK SMILES C[C@H](C(=O)OCCOCCOCCOC(=O)c1ccc(-c2c3nc(c(-c4cccc(S(=O)(=O)[O-])c4F)c4ccc([nH]4)c(-c4cccc(S(=O)(=O)[O-])c4F)c4nc(c(-c5cccc(S(=O)(=O)[O-])c5F)c5ccc2[nH]5)C=C4)C=C3)cc1)[C@@H](C)Nc1cccc2ccccc12
REMARK SMILES IDX 9 1 8 2 7 3 6 4 5 5 3 6 4 7 2 8 1 9 80 10 81 11 82 12 83 14
REMARK SMILES IDX 84 15 92 16 85 17 87 18 91 19 86 20 88 21 90 22 89 23 10 24
REMARK SMILES IDX 11 25 12 26 13 27 14 28 15 29 16 30 17 31 18 32 79 33 19 34
REMARK SMILES IDX 78 35 20 36 21 37 22 38 72 39 23 40 77 41 71 42 73 43 24 44
REMARK SMILES IDX 76 45 70 46 69 47 25 49 57 50 37 51 56 52 38 53 41 54 55 55
REMARK SMILES IDX 74 56 39 57 40 58 54 60 75 61 42 62 26 63 27 64 35 65 28 66
REMARK SMILES IDX 30 67 36 68 29 69 31 70 32 71 33 72 34 73 58 74 59 75 67 76
REMARK SMILES IDX 60 77 62 78 68 79 61 80 63 81 64 82 65 83 66 84 43 85 44 86
REMARK SMILES IDX 52 87 45 88 47 89 53 90 46 91 48 92 49 93 50 94 51 95
REMARK H PARENT 82 13 73 48 41 59
REMARK Flexibility Score: inf
ROOT
ATOM      1  C   UNL A   1      34.022  30.614  27.839  1.00  0.00     0.188 C 
ENDROOT
BRANCH   1   2
ATOM      2  O   UNL A   1      33.509  29.560  27.032  1.00  0.00    -0.376 OA
BRANCH   2   3
ATOM      3  C   UNL A   1      32.094  29.539  26.820  1.00  0.00     0.202 C 
BRANCH   3   4
ATOM      4  C   UNL A   1      31.619  29.493  25.358  1.00  0.00     0.261 C 
BRANCH   4   5
ATOM      5  O   UNL A   1      32.087  28.311  24.681  1.00  0.00    -0.463 OA
BRANCH   5   6
ATOM      6  C   UNL A   1      31.321  27.190  24.792  1.00  0.00     0.310 C 
ATOM      7  O   UNL A   1      30.945  26.723  25.857  1.00  0.00    -0.252 OA
BRANCH   6   8
ATOM      8  C   UNL A   1      30.897  26.685  23.410  1.00  0.00     0.118 C 
ATOM      9  C   UNL A   1      30.719  27.861  22.440  1.00  0.00     0.022 C 
BRANCH   8  10
ATOM     10  C   UNL A   1      31.918  25.655  22.871  1.00  0.00     0.090 C 
ATOM     11  C   UNL A   1      32.884  26.253  21.835  1.00  0.00     0.031 C 
BRANCH  10  12
ATOM     12  N   UNL A   1      32.748  25.168  23.967  1.00  0.00    -0.381 N 
ATOM     13  H   UNL A   1      33.392  25.837  24.293  1.00  0.00     0.160 HD
BRANCH  12  14
ATOM     14  C   UNL A   1      32.819  23.963  24.644  1.00  0.00     0.042 A 
ATOM     15  C   UNL A   1      33.141  24.105  26.015  1.00  0.00     0.026 A 
ATOM     16  C   UNL A   1      32.596  22.637  24.142  1.00  0.00     0.005 A 
ATOM     17  C   UNL A   1      33.344  23.019  26.855  1.00  0.00     0.003 A 
ATOM     18  C   UNL A   1      32.886  21.535  25.001  1.00  0.00    -0.016 A 
ATOM     19  C   UNL A   1      32.136  22.279  22.846  1.00  0.00     0.011 A 
ATOM     20  C   UNL A   1      33.261  21.741  26.334  1.00  0.00     0.009 A 
ATOM     21  C   UNL A   1      32.801  20.210  24.541  1.00  0.00     0.009 A 
ATOM     22  C   UNL A   1      31.975  20.952  22.427  1.00  0.00     0.001 A 
ATOM     23  C   UNL A   1      32.339  19.916  23.265  1.00  0.00     0.001 A 
ENDBRANCH  12  14
ENDBRANCH  10  12
ENDBRANCH   8  10
ENDBRANCH   6   8
ENDBRANCH   5   6
ENDBRANCH   4   5
ENDBRANCH   3   4
ENDBRANCH   2   3
ENDBRANCH   1   2
BRANCH   1  24
ATOM     24  C   UNL A   1      33.651  32.044  27.417  1.00  0.00     0.188 C 
BRANCH  24  25
ATOM     25  O   UNL A   1      33.296  32.914  28.485  1.00  0.00    -0.376 OA
BRANCH  25  26
ATOM     26  C   UNL A   1      34.123  34.058  28.699  1.00  0.00     0.202 C 
BRANCH  26  27
ATOM     27  C   UNL A   1      33.468  35.235  29.437  1.00  0.00     0.261 C 
BRANCH  27  28
ATOM     28  O   UNL A   1      32.832  34.886  30.682  1.00  0.00    -0.460 OA
BRANCH  28  29
ATOM     29  C   UNL A   1      33.261  35.512  31.807  1.00  0.00     0.338 C 
ATOM     30  O   UNL A   1      32.701  36.409  32.396  1.00  0.00    -0.246 OA
BRANCH  29  31
ATOM     31  C   UNL A   1      34.418  34.742  32.346  1.00  0.00     0.060 A 
ATOM     32  C   UNL A   1      35.691  35.330  32.285  1.00  0.00     0.016 A 
ATOM     33  C   UNL A   1      34.255  33.497  32.961  1.00  0.00     0.016 A 
ATOM     34  C   UNL A   1      36.805  34.649  32.786  1.00  0.00     0.010 A 
ATOM     35  C   UNL A   1      35.369  32.819  33.464  1.00  0.00     0.010 A 
ATOM     36  C   UNL A   1      36.656  33.371  33.340  1.00  0.00    -0.014 A 
BRANCH  36  37
ATOM     37  C   UNL A   1      37.849  32.528  33.610  1.00  0.00     0.031 A 
ATOM     38  C   UNL A   1      38.664  32.815  34.844  1.00  0.00     0.074 A 
ATOM     39  C   UNL A   1      38.219  31.530  32.785  1.00  0.00     0.049 A 
ATOM     40  N   UNL A   1      39.759  32.243  35.271  1.00  0.00    -0.248 NA
ATOM     41  C   UNL A   1      38.175  33.901  35.714  1.00  0.00     0.031 C 
ATOM     42  C   UNL A   1      37.525  31.137  31.561  1.00  0.00     0.029 A 
ATOM     43  N   UNL A   1      39.298  30.679  32.850  1.00  0.00    -0.354 N 
ATOM     44  C   UNL A   1      40.108  32.915  36.435  1.00  0.00     0.074 A 
ATOM     45  C   UNL A   1      39.117  33.947  36.643  1.00  0.00     0.031 C 
ATOM     46  C   UNL A   1      38.208  30.136  30.976  1.00  0.00     0.029 A 
ATOM     47  C   UNL A   1      39.402  29.837  31.767  1.00  0.00     0.049 A 
ATOM     48  H   UNL A   1      39.935  30.673  33.600  1.00  0.00     0.167 HD
ATOM     49  C   UNL A   1      41.151  32.689  37.269  1.00  0.00     0.034 A 
ATOM     50  C   UNL A   1      40.361  28.945  31.441  1.00  0.00     0.034 A 
ATOM     51  C   UNL A   1      42.132  31.656  37.079  1.00  0.00     0.049 A 
ATOM     52  C   UNL A   1      41.535  28.737  32.369  1.00  0.00     0.074 A 
ATOM     53  C   UNL A   1      43.195  31.322  37.900  1.00  0.00     0.029 A 
ATOM     54  N   UNL A   1      42.185  30.805  35.988  1.00  0.00    -0.354 N 
ATOM     55  N   UNL A   1      41.785  29.298  33.527  1.00  0.00    -0.248 NA
ATOM     56  C   UNL A   1      42.544  27.749  31.955  1.00  0.00     0.031 C 
ATOM     57  C   UNL A   1      43.916  30.295  37.284  1.00  0.00     0.029 A 
ATOM     58  C   UNL A   1      43.275  29.958  36.103  1.00  0.00     0.049 A 
ATOM     59  H   UNL A   1      41.545  30.803  35.240  1.00  0.00     0.167 HD
ATOM     60  C   UNL A   1      42.952  28.701  33.997  1.00  0.00     0.074 A 
ATOM     61  C   UNL A   1      43.350  27.723  33.007  1.00  0.00     0.031 C 
ATOM     62  C   UNL A   1      43.637  28.948  35.142  1.00  0.00     0.034 A 
BRANCH  49  63
ATOM     63  C   UNL A   1      41.280  33.575  38.479  1.00  0.00     0.023 A 
ATOM     64  C   UNL A   1      40.645  33.214  39.686  1.00  0.00     0.012 A 
ATOM     65  C   UNL A   1      42.072  34.738  38.435  1.00  0.00     0.148 A 
ATOM     66  C   UNL A   1      40.771  34.015  40.819  1.00  0.00     0.002 A 
ATOM     67  C   UNL A   1      42.232  35.506  39.582  1.00  0.00     0.091 A 
ATOM     68  F   UNL A   1      42.647  35.077  37.271  1.00  0.00    -0.205 F 
ATOM     69  C   UNL A   1      41.573  35.153  40.771  1.00  0.00     0.022 A 
BRANCH  67  70
ATOM     70  S   UNL A   1      43.307  36.943  39.643  1.00  0.00     0.127 S 
ATOM     71  O   UNL A   1      44.588  36.369  39.234  1.00  0.00    -0.237 OA
ATOM     72  O   UNL A   1      42.692  37.828  38.655  1.00  0.00    -0.237 OA
ATOM     73  O   UNL A   1      43.252  37.429  41.015  1.00  0.00    -0.744 OA
ENDBRANCH  67  70
ENDBRANCH  49  63
BRANCH  50  74
ATOM     74  C   UNL A   1      40.254  28.154  30.180  1.00  0.00     0.023 A 
ATOM     75  C   UNL A   1      39.267  27.155  30.066  1.00  0.00     0.012 A 
ATOM     76  C   UNL A   1      41.134  28.375  29.104  1.00  0.00     0.148 A 
ATOM     77  C   UNL A   1      39.183  26.366  28.917  1.00  0.00     0.002 A 
ATOM     78  C   UNL A   1      41.008  27.626  27.940  1.00  0.00     0.091 A 
ATOM     79  F   UNL A   1      42.078  29.318  29.240  1.00  0.00    -0.205 F 
ATOM     80  C   UNL A   1      40.047  26.607  27.852  1.00  0.00     0.022 A 
BRANCH  78  81
ATOM     81  S   UNL A   1      41.997  27.943  26.475  1.00  0.00     0.127 S 
ATOM     82  O   UNL A   1      43.325  27.520  26.912  1.00  0.00    -0.237 OA
ATOM     83  O   UNL A   1      41.363  27.066  25.492  1.00  0.00    -0.237 OA
ATOM     84  O   UNL A   1      41.848  29.366  26.200  1.00  0.00    -0.744 OA
ENDBRANCH  78  81
ENDBRANCH  50  74
BRANCH  62  85
ATOM     85  C   UNL A   1      44.864  28.118  35.430  1.00  0.00     0.023 A 
ATOM     86  C   UNL A   1      46.141  28.592  35.071  1.00  0.00     0.012 A 
ATOM     87  C   UNL A   1      44.754  26.900  36.133  1.00  0.00     0.148 A 
ATOM     88  C   UNL A   1      47.284  27.852  35.376  1.00  0.00     0.002 A 
ATOM     89  C   UNL A   1      45.900  26.194  36.479  1.00  0.00     0.091 A 
ATOM     90  F   UNL A   1      43.529  26.457  36.455  1.00  0.00    -0.205 F 
ATOM     91  C   UNL A   1      47.164  26.661  36.090  1.00  0.00     0.022 A 
BRANCH  89  92
ATOM     92  S   UNL A   1      45.851  24.705  37.483  1.00  0.00     0.127 S 
ATOM     93  O   UNL A   1      45.171  25.180  38.687  1.00  0.00    -0.237 OA
ATOM     94  O   UNL A   1      45.057  23.798  36.653  1.00  0.00    -0.237 OA
ATOM     95  O   UNL A   1      47.236  24.297  37.670  1.00  0.00    -0.744 OA
ENDBRANCH  89  92
ENDBRANCH  62  85
ENDBRANCH  36  37
ENDBRANCH  29  31
ENDBRANCH  28  29
ENDBRANCH  27  28
ENDBRANCH  26  27
ENDBRANCH  25  26
ENDBRANCH  24  25
ENDBRANCH   1  24
TORSDOF 23
ENDMDL
MODEL 2
REMARK VINA RESULT:      -8.8      6.510     11.130
REMARK SMILES C[C@H](C(=O)OCCOCCOCCOC(=O)c1ccc(-c2c3nc(c(-c4cccc(S(=O)(=O)[O-])c4F)c4ccc([nH]4)c(-c4cccc(S(=O)(=O)[O-])c4F)c4nc(c(-c5cccc(S(=O)(=O)[O-])c5F)c5ccc2[nH]5)C=C4)C=C3)cc1)[C@@H](C)Nc1cccc2ccccc12
REMARK SMILES IDX 9 1 8 2 7 3 6 4 5 5 3 6 4 7 2 8 1 9 80 10 81 11 82 12 83 14
REMARK SMILES IDX 84 15 92 16 85 17 87 18 91 19 86 20 88 21 90 22 89 23 10 24
REMARK SMILES IDX 11 25 12 26 13 27 14 28 15 29 16 30 17 31 18 32 79 33 19 34
REMARK SMILES IDX 78 35 20 36 21 37 22 38 72 39 23 40 77 41 71 42 73 43 24 44
REMARK SMILES IDX 76 45 70 46 69 47 25 49 57 50 37 51 56 52 38 53 41 54 55 55
REMARK SMILES IDX 74 56 39 57 40 58 54 60 75 61 42 62 26 63 27 64 35 65 28 66
REMARK SMILES IDX 30 67 36 68 29 69 31 70 32 71 33 72 34 73 58 74 59 75 67 76
REMARK SMILES IDX 60 77 62 78 68 79 61 80 63 81 64 82 65 83 66 84 43 85 44 86
REMARK SMILES IDX 52 87 45 88 47 89 53 90 46 91 48 92 49 93 50 94 51 95
REMARK H PARENT 82 13 73 48 41 59
REMARK Flexibility Score: inf
ROOT
ATOM      1  C   UNL A   1      39.336  24.019  27.425  1.00  0.00     0.188 C 
ENDROOT
BRANCH   1   2
ATOM      2  O   UNL A   1      38.638  23.187  26.505  1.00  0.00    -0.376 OA
BRANCH   2   3
ATOM      3  C   UNL A   1      38.076  23.826  25.355  1.00  0.00     0.202 C 
BRANCH   3   4
ATOM      4  C   UNL A   1      36.592  23.540  25.066  1.00  0.00     0.261 C 
BRANCH   4   5
ATOM      5  O   UNL A   1      35.975  22.793  26.132  1.00  0.00    -0.463 OA
BRANCH   5   6
ATOM      6  C   UNL A   1      35.482  21.562  25.822  1.00  0.00     0.310 C 
ATOM      7  O   UNL A   1      36.151  20.663  25.333  1.00  0.00    -0.252 OA
BRANCH   6   8
ATOM      8  C   UNL A   1      34.031  21.427  26.288  1.00  0.00     0.118 C 
ATOM      9  C   UNL A   1      33.891  21.877  27.749  1.00  0.00     0.022 C 
BRANCH   8  10
ATOM     10  C   UNL A   1      33.084  22.221  25.356  1.00  0.00     0.090 C 
ATOM     11  C   UNL A   1      31.622  21.755  25.450  1.00  0.00     0.031 C 
BRANCH  10  12
ATOM     12  N   UNL A   1      33.087  23.628  25.739  1.00  0.00    -0.381 N 
ATOM     13  H   UNL A   1      33.720  23.832  26.464  1.00  0.00     0.160 HD
BRANCH  12  14
ATOM     14  C   UNL A   1      32.385  24.736  25.296  1.00  0.00     0.042 A 
ATOM     15  C   UNL A   1      31.735  25.444  26.335  1.00  0.00     0.026 A 
ATOM     16  C   UNL A   1      32.259  25.243  23.959  1.00  0.00     0.005 A 
ATOM     17  C   UNL A   1      30.911  26.535  26.099  1.00  0.00     0.003 A 
ATOM     18  C   UNL A   1      31.346  26.315  23.731  1.00  0.00    -0.016 A 
ATOM     19  C   UNL A   1      32.931  24.772  22.799  1.00  0.00     0.011 A 
ATOM     20  C   UNL A   1      30.683  26.936  24.795  1.00  0.00     0.009 A 
ATOM     21  C   UNL A   1      31.085  26.787  22.432  1.00  0.00     0.009 A 
ATOM     22  C   UNL A   1      32.724  25.307  21.521  1.00  0.00     0.001 A 
ATOM     23  C   UNL A   1      31.776  26.294  21.332  1.00  0.00     0.001 A 
ENDBRANCH  12  14
ENDBRANCH  10  12
ENDBRANCH   8  10
ENDBRANCH   6   8
ENDBRANCH   5   6
ENDBRANCH   4   5
ENDBRANCH   3   4
ENDBRANCH   2   3
ENDBRANCH   1   2
BRANCH   1  24
ATOM     24  C   UNL A   1      40.831  24.241  27.152  1.00  0.00     0.188 C 
BRANCH  24  25
ATOM     25  O   UNL A   1      41.571  23.062  26.853  1.00  0.00    -0.376 OA
BRANCH  25  26
ATOM     26  C   UNL A   1      42.487  23.127  25.760  1.00  0.00     0.202 C 
BRANCH  26  27
ATOM     27  C   UNL A   1      43.532  22.001  25.690  1.00  0.00     0.261 C 
BRANCH  27  28
ATOM     28  O   UNL A   1      44.694  22.206  26.518  1.00  0.00    -0.460 OA
BRANCH  28  29
ATOM     29  C   UNL A   1      45.795  22.746  25.936  1.00  0.00     0.338 C 
ATOM     30  O   UNL A   1      46.481  22.241  25.077  1.00  0.00    -0.246 OA
BRANCH  29  31
ATOM     31  C   UNL A   1      45.877  24.175  26.351  1.00  0.00     0.060 A 
ATOM     32  C   UNL A   1      46.169  24.459  27.694  1.00  0.00     0.016 A 
ATOM     33  C   UNL A   1      45.740  25.220  25.433  1.00  0.00     0.016 A 
ATOM     34  C   UNL A   1      46.265  25.785  28.127  1.00  0.00     0.010 A 
ATOM     35  C   UNL A   1      45.839  26.545  25.867  1.00  0.00     0.010 A 
ATOM     36  C   UNL A   1      46.059  26.836  27.224  1.00  0.00    -0.014 A 
BRANCH  36  37
ATOM     37  C   UNL A   1      45.875  28.225  27.720  1.00  0.00     0.031 A 
ATOM     38  C   UNL A   1      44.512  28.632  28.216  1.00  0.00     0.074 A 
ATOM     39  C   UNL A   1      46.883  29.117  27.732  1.00  0.00     0.049 A 
ATOM     40  N   UNL A   1      44.101  29.790  28.661  1.00  0.00    -0.248 NA
ATOM     41  C   UNL A   1      43.471  27.589  28.202  1.00  0.00     0.031 C 
ATOM     42  C   UNL A   1      48.251  28.861  27.288  1.00  0.00     0.029 A 
ATOM     43  N   UNL A   1      46.894  30.439  28.114  1.00  0.00    -0.354 N 
ATOM     44  C   UNL A   1      42.752  29.627  28.950  1.00  0.00     0.074 A 
ATOM     45  C   UNL A   1      42.409  28.262  28.618  1.00  0.00     0.031 C 
ATOM     46  C   UNL A   1      48.965  29.997  27.401  1.00  0.00     0.029 A 
ATOM     47  C   UNL A   1      48.099  31.066  27.897  1.00  0.00     0.049 A 
ATOM     48  H   UNL A   1      46.113  30.893  28.505  1.00  0.00     0.167 HD
ATOM     49  C   UNL A   1      41.875  30.524  29.459  1.00  0.00     0.034 A 
ATOM     50  C   UNL A   1      48.454  32.358  28.058  1.00  0.00     0.034 A 
ATOM     51  C   UNL A   1      42.210  31.878  29.807  1.00  0.00     0.049 A 
ATOM     52  C   UNL A   1      47.447  33.349  28.592  1.00  0.00     0.074 A 
ATOM     53  C   UNL A   1      41.398  32.843  30.376  1.00  0.00     0.029 A 
ATOM     54  N   UNL A   1      43.447  32.466  29.601  1.00  0.00    -0.354 N 
ATOM     55  N   UNL A   1      46.209  33.148  28.974  1.00  0.00    -0.248 NA
ATOM     56  C   UNL A   1      47.900  34.741  28.746  1.00  0.00     0.031 C 
ATOM     57  C   UNL A   1      42.132  34.028  30.477  1.00  0.00     0.029 A 
ATOM     58  C   UNL A   1      43.416  33.787  30.014  1.00  0.00     0.049 A 
ATOM     59  H   UNL A   1      44.232  32.013  29.217  1.00  0.00     0.167 HD
ATOM     60  C   UNL A   1      45.752  34.374  29.451  1.00  0.00     0.074 A 
ATOM     61  C   UNL A   1      46.851  35.308  29.326  1.00  0.00     0.031 C 
ATOM     62  C   UNL A   1      44.528  34.699  29.939  1.00  0.00     0.034 A 
BRANCH  49  63
ATOM     63  C   UNL A   1      40.460  30.064  29.685  1.00  0.00     0.023 A 
ATOM     64  C   UNL A   1      39.593  29.892  28.585  1.00  0.00     0.012 A 
ATOM     65  C   UNL A   1      40.004  29.753  30.980  1.00  0.00     0.148 A 
ATOM     66  C   UNL A   1      38.285  29.449  28.777  1.00  0.00     0.002 A 
ATOM     67  C   UNL A   1      38.716  29.265  31.158  1.00  0.00     0.091 A 
ATOM     68  F   UNL A   1      40.837  29.946  32.014  1.00  0.00    -0.205 F 
ATOM     69  C   UNL A   1      37.851  29.124  30.060  1.00  0.00     0.022 A 
BRANCH  67  70
ATOM     70  S   UNL A   1      38.090  28.744  32.758  1.00  0.00     0.127 S 
ATOM     71  O   UNL A   1      38.950  29.497  33.669  1.00  0.00    -0.237 OA
ATOM     72  O   UNL A   1      36.702  29.203  32.709  1.00  0.00    -0.237 OA
ATOM     73  O   UNL A   1      38.252  27.297  32.802  1.00  0.00    -0.744 OA
ENDBRANCH  67  70
ENDBRANCH  49  63
BRANCH  50  74
ATOM     74  C   UNL A   1      49.840  32.802  27.728  1.00  0.00     0.023 A 
ATOM     75  C   UNL A   1      50.858  32.687  28.695  1.00  0.00     0.012 A 
ATOM     76  C   UNL A   1      50.148  33.353  26.469  1.00  0.00     0.148 A 
ATOM     77  C   UNL A   1      52.148  33.146  28.427  1.00  0.00     0.002 A 
ATOM     78  C   UNL A   1      51.448  33.755  26.189  1.00  0.00     0.091 A 
ATOM     79  F   UNL A   1      49.161  33.472  25.570  1.00  0.00    -0.205 F 
ATOM     80  C   UNL A   1      52.446  33.671  27.172  1.00  0.00     0.022 A 
BRANCH  78  81
ATOM     81  S   UNL A   1      51.951  34.335  24.565  1.00  0.00     0.127 S 
ATOM     82  O   UNL A   1      51.061  35.476  24.365  1.00  0.00    -0.237 OA
ATOM     83  O   UNL A   1      53.354  34.680  24.793  1.00  0.00    -0.237 OA
ATOM     84  O   UNL A   1      51.745  33.209  23.664  1.00  0.00    -0.744 OA
ENDBRANCH  78  81
ENDBRANCH  50  74
BRANCH  62  85
ATOM     85  C   UNL A   1      44.311  36.109  30.432  1.00  0.00     0.023 A 
ATOM     86  C   UNL A   1      44.639  36.455  31.758  1.00  0.00     0.012 A 
ATOM     87  C   UNL A   1      43.858  37.112  29.550  1.00  0.00     0.148 A 
ATOM     88  C   UNL A   1      44.485  37.767  32.208  1.00  0.00     0.002 A 
ATOM     89  C   UNL A   1      43.758  38.427  29.991  1.00  0.00     0.091 A 
ATOM     90  F   UNL A   1      43.538  36.763  28.296  1.00  0.00    -0.205 F 
ATOM     91  C   UNL A   1      44.057  38.753  31.322  1.00  0.00     0.022 A 
BRANCH  89  92
ATOM     92  S   UNL A   1      43.312  39.780  28.896  1.00  0.00     0.127 S 
ATOM     93  O   UNL A   1      44.624  40.251  28.455  1.00  0.00    -0.237 OA
ATOM     94  O   UNL A   1      42.531  39.099  27.863  1.00  0.00    -0.237 OA
ATOM     95  O   UNL A   1      42.552  40.722  29.706  1.00  0.00    -0.744 OA
ENDBRANCH  89  92
ENDBRANCH  62  85
ENDBRANCH  36  37
ENDBRANCH  29  31
ENDBRANCH  28  29
ENDBRANCH  27  28
ENDBRANCH  26  27
ENDBRANCH  25  26
ENDBRANCH  24  25
ENDBRANCH   1  24
TORSDOF 23
ENDMDL
MODEL 3
REMARK VINA RESULT:      -8.8      9.872     14.491
REMARK SMILES C[C@H](C(=O)OCCOCCOCCOC(=O)c1ccc(-c2c3nc(c(-c4cccc(S(=O)(=O)[O-])c4F)c4ccc([nH]4)c(-c4cccc(S(=O)(=O)[O-])c4F)c4nc(c(-c5cccc(S(=O)(=O)[O-])c5F)c5ccc2[nH]5)C=C4)C=C3)cc1)[C@@H](C)Nc1cccc2ccccc12
REMARK SMILES IDX 9 1 8 2 7 3 6 4 5 5 3 6 4 7 2 8 1 9 80 10 81 11 82 12 83 14
REMARK SMILES IDX 84 15 92 16 85 17 87 18 91 19 86 20 88 21 90 22 89 23 10 24
REMARK SMILES IDX 11 25 12 26 13 27 14 28 15 29 16 30 17 31 18 32 79 33 19 34
REMARK SMILES IDX 78 35 20 36 21 37 22 38 72 39 23 40 77 41 71 42 73 43 24 44
REMARK SMILES IDX 76 45 70 46 69 47 25 49 57 50 37 51 56 52 38 53 41 54 55 55
REMARK SMILES IDX 74 56 39 57 40 58 54 60 75 61 42 62 26 63 27 64 35 65 28 66
REMARK SMILES IDX 30 67 36 68 29 69 31 70 32 71 33 72 34 73 58 74 59 75 67 76
REMARK SMILES IDX 60 77 62 78 68 79 61 80 63 81 64 82 65 83 66 84 43 85 44 86
REMARK SMILES IDX 52 87 45 88 47 89 53 90 46 91 48 92 49 93 50 94 51 95
REMARK H PARENT 82 13 73 48 41 59
REMARK Flexibility Score: inf
ROOT
ATOM      1  C   UNL A   1      45.168  45.185  28.917  1.00  0.00     0.188 C 
ENDROOT
BRANCH   1   2
ATOM      2  O   UNL A   1      45.429  45.155  27.519  1.00  0.00    -0.376 OA
BRANCH   2   3
ATOM      3  C   UNL A   1      45.514  43.864  26.906  1.00  0.00     0.202 C 
BRANCH   3   4
ATOM      4  C   UNL A   1      44.652  43.642  25.651  1.00  0.00     0.261 C 
BRANCH   4   5
ATOM      5  O   UNL A   1      45.461  43.465  24.472  1.00  0.00    -0.463 OA
BRANCH   5   6
ATOM      6  C   UNL A   1      44.847  42.948  23.372  1.00  0.00     0.310 C 
ATOM      7  O   UNL A   1      43.851  42.240  23.416  1.00  0.00    -0.252 OA
BRANCH   6   8
ATOM      8  C   UNL A   1      45.494  43.480  22.091  1.00  0.00     0.118 C 
ATOM      9  C   UNL A   1      45.608  42.364  21.043  1.00  0.00     0.022 C 
BRANCH   8  10
ATOM     10  C   UNL A   1      44.703  44.693  21.545  1.00  0.00     0.090 C 
ATOM     11  C   UNL A   1      45.450  46.025  21.724  1.00  0.00     0.031 C 
BRANCH  10  12
ATOM     12  N   UNL A   1      44.492  44.535  20.111  1.00  0.00    -0.381 N 
ATOM     13  H   UNL A   1      45.290  44.210  19.635  1.00  0.00     0.160 HD
BRANCH  12  14
ATOM     14  C   UNL A   1      43.405  44.745  19.281  1.00  0.00     0.042 A 
ATOM     15  C   UNL A   1      42.394  43.762  19.415  1.00  0.00     0.026 A 
ATOM     16  C   UNL A   1      43.182  45.812  18.347  1.00  0.00     0.005 A 
ATOM     17  C   UNL A   1      41.260  43.738  18.617  1.00  0.00     0.003 A 
ATOM     18  C   UNL A   1      42.048  45.724  17.484  1.00  0.00    -0.016 A 
ATOM     19  C   UNL A   1      43.993  46.963  18.153  1.00  0.00     0.011 A 
ATOM     20  C   UNL A   1      41.115  44.691  17.625  1.00  0.00     0.009 A 
ATOM     21  C   UNL A   1      41.829  46.672  16.469  1.00  0.00     0.009 A 
ATOM     22  C   UNL A   1      43.717  47.944  17.193  1.00  0.00     0.001 A 
ATOM     23  C   UNL A   1      42.651  47.782  16.328  1.00  0.00     0.001 A 
ENDBRANCH  12  14
ENDBRANCH  10  12
ENDBRANCH   8  10
ENDBRANCH   6   8
ENDBRANCH   5   6
ENDBRANCH   4   5
ENDBRANCH   3   4
ENDBRANCH   2   3
ENDBRANCH   1   2
BRANCH   1  24
ATOM     24  C   UNL A   1      44.643  43.886  29.547  1.00  0.00     0.188 C 
BRANCH  24  25
ATOM     25  O   UNL A   1      43.588  44.054  30.486  1.00  0.00    -0.376 OA
BRANCH  25  26
ATOM     26  C   UNL A   1      43.225  42.918  31.271  1.00  0.00     0.202 C 
BRANCH  26  27
ATOM     27  C   UNL A   1      42.651  41.721  30.497  1.00  0.00     0.261 C 
BRANCH  27  28
ATOM     28  O   UNL A   1      43.069  40.431  30.987  1.00  0.00    -0.460 OA
BRANCH  28  29
ATOM     29  C   UNL A   1      44.199  39.894  30.463  1.00  0.00     0.338 C 
ATOM     30  O   UNL A   1      45.272  40.441  30.339  1.00  0.00    -0.246 OA
BRANCH  29  31
ATOM     31  C   UNL A   1      43.973  38.431  30.292  1.00  0.00     0.060 A 
ATOM     32  C   UNL A   1      44.147  37.598  31.407  1.00  0.00     0.016 A 
ATOM     33  C   UNL A   1      43.533  37.889  29.080  1.00  0.00     0.016 A 
ATOM     34  C   UNL A   1      43.938  36.220  31.296  1.00  0.00     0.010 A 
ATOM     35  C   UNL A   1      43.321  36.511  28.971  1.00  0.00     0.010 A 
ATOM     36  C   UNL A   1      43.564  35.664  30.066  1.00  0.00    -0.014 A 
BRANCH  36  37
ATOM     37  C   UNL A   1      43.617  34.193  29.862  1.00  0.00     0.031 A 
ATOM     38  C   UNL A   1      42.352  33.398  30.060  1.00  0.00     0.074 A 
ATOM     39  C   UNL A   1      44.754  33.561  29.516  1.00  0.00     0.049 A 
ATOM     40  N   UNL A   1      42.159  32.108  29.974  1.00  0.00    -0.248 NA
ATOM     41  C   UNL A   1      41.142  34.165  30.405  1.00  0.00     0.031 C 
ATOM     42  C   UNL A   1      46.047  34.201  29.287  1.00  0.00     0.029 A 
ATOM     43  N   UNL A   1      45.002  32.222  29.321  1.00  0.00    -0.354 N 
ATOM     44  C   UNL A   1      40.820  31.905  30.284  1.00  0.00     0.074 A 
ATOM     45  C   UNL A   1      40.250  33.202  30.573  1.00  0.00     0.031 C 
ATOM     46  C   UNL A   1      46.959  33.252  29.006  1.00  0.00     0.029 A 
ATOM     47  C   UNL A   1      46.322  31.937  29.062  1.00  0.00     0.049 A 
ATOM     48  H   UNL A   1      44.300  31.533  29.364  1.00  0.00     0.167 HD
ATOM     49  C   UNL A   1      40.118  30.748  30.314  1.00  0.00     0.034 A 
ATOM     50  C   UNL A   1      46.948  30.750  28.912  1.00  0.00     0.034 A 
ATOM     51  C   UNL A   1      40.672  29.455  30.013  1.00  0.00     0.049 A 
ATOM     52  C   UNL A   1      46.150  29.470  28.987  1.00  0.00     0.074 A 
ATOM     53  C   UNL A   1      40.023  28.234  29.970  1.00  0.00     0.029 A 
ATOM     54  N   UNL A   1      42.005  29.212  29.726  1.00  0.00    -0.354 N 
ATOM     55  N   UNL A   1      44.862  29.305  29.162  1.00  0.00    -0.248 NA
ATOM     56  C   UNL A   1      46.893  28.211  28.812  1.00  0.00     0.031 C 
ATOM     57  C   UNL A   1      40.973  27.245  29.695  1.00  0.00     0.029 A 
ATOM     58  C   UNL A   1      42.204  27.857  29.522  1.00  0.00     0.049 A 
ATOM     59  H   UNL A   1      42.707  29.900  29.675  1.00  0.00     0.167 HD
ATOM     60  C   UNL A   1      44.635  27.934  29.076  1.00  0.00     0.074 A 
ATOM     61  C   UNL A   1      45.917  27.314  28.816  1.00  0.00     0.031 C 
ATOM     62  C   UNL A   1      43.471  27.249  29.210  1.00  0.00     0.034 A 
BRANCH  49  63
ATOM     63  C   UNL A   1      38.660  30.826  30.676  1.00  0.00     0.023 A 
ATOM     64  C   UNL A   1      38.243  30.520  31.989  1.00  0.00     0.012 A 
ATOM     65  C   UNL A   1      37.708  31.255  29.731  1.00  0.00     0.148 A 
ATOM     66  C   UNL A   1      36.898  30.606  32.344  1.00  0.00     0.002 A 
ATOM     67  C   UNL A   1      36.377  31.385  30.106  1.00  0.00     0.091 A 
ATOM     68  F   UNL A   1      38.121  31.519  28.483  1.00  0.00    -0.205 F 
ATOM     69  C   UNL A   1      35.968  31.050  31.407  1.00  0.00     0.022 A 
BRANCH  67  70
ATOM     70  S   UNL A   1      35.117  32.025  28.997  1.00  0.00     0.127 S 
ATOM     71  O   UNL A   1      34.714  30.816  28.281  1.00  0.00    -0.237 OA
ATOM     72  O   UNL A   1      34.119  32.542  29.933  1.00  0.00    -0.237 OA
ATOM     73  O   UNL A   1      35.774  33.040  28.184  1.00  0.00    -0.744 OA
ENDBRANCH  67  70
ENDBRANCH  49  63
BRANCH  50  74
ATOM     74  C   UNL A   1      48.417  30.703  28.655  1.00  0.00     0.023 A 
ATOM     75  C   UNL A   1      48.893  30.716  27.329  1.00  0.00     0.012 A 
ATOM     76  C   UNL A   1      49.341  30.630  29.715  1.00  0.00     0.148 A 
ATOM     77  C   UNL A   1      50.260  30.618  27.063  1.00  0.00     0.002 A 
ATOM     78  C   UNL A   1      50.703  30.591  29.445  1.00  0.00     0.091 A 
ATOM     79  F   UNL A   1      48.866  30.600  30.968  1.00  0.00    -0.205 F 
ATOM     80  C   UNL A   1      51.165  30.565  28.120  1.00  0.00     0.022 A 
BRANCH  78  81
ATOM     81  S   UNL A   1      51.946  30.639  30.741  1.00  0.00     0.127 S 
ATOM     82  O   UNL A   1      51.729  29.361  31.412  1.00  0.00    -0.237 OA
ATOM     83  O   UNL A   1      53.183  30.725  29.964  1.00  0.00    -0.237 OA
ATOM     84  O   UNL A   1      51.646  31.826  31.530  1.00  0.00    -0.744 OA
ENDBRANCH  78  81
ENDBRANCH  50  74
BRANCH  62  85
ATOM     85  C   UNL A   1      43.502  25.752  29.026  1.00  0.00     0.023 A 
ATOM     86  C   UNL A   1      43.822  24.911  30.111  1.00  0.00     0.012 A 
ATOM     87  C   UNL A   1      43.132  25.175  27.793  1.00  0.00     0.148 A 
ATOM     88  C   UNL A   1      43.806  23.523  29.961  1.00  0.00     0.002 A 
ATOM     89  C   UNL A   1      43.068  23.792  27.667  1.00  0.00     0.091 A 
ATOM     90  F   UNL A   1      42.844  25.991  26.768  1.00  0.00    -0.205 F 
ATOM     91  C   UNL A   1      43.418  22.965  28.745  1.00  0.00     0.022 A 
BRANCH  89  92
ATOM     92  S   UNL A   1      42.484  22.985  26.172  1.00  0.00     0.127 S 
ATOM     93  O   UNL A   1      43.119  21.672  26.275  1.00  0.00    -0.237 OA
ATOM     94  O   UNL A   1      41.034  22.977  26.371  1.00  0.00    -0.237 OA
ATOM     95  O   UNL A   1      42.938  23.812  25.062  1.00  0.00    -0.744 OA
ENDBRANCH  89  92
ENDBRANCH  62  85
ENDBRANCH  36  37
ENDBRANCH  29  31
ENDBRANCH  28  29
ENDBRANCH  27  28
ENDBRANCH  26  27
ENDBRANCH  25  26
ENDBRANCH  24  25
ENDBRANCH   1  24
TORSDOF 23
ENDMDL
