MODEL 1
REMARK VINA RESULT:     -10.3      0.000      0.000
REMARK SMILES NS(=O)(=O)c1ccc(/N=C/c2ccc(O)c(C(=O)OCCOCCOCCOC(=O)c3ccc(-c4c5nc(c(-c6cccc(S(=O)(=O)[O-])c6F)c6ccc([nH]6)c(-c6cccc(S(=O)(=O)[O-])c6F)c6nc(c(-c7cccc(S(=O)(=O)[O-])c7F)c7ccc4[nH]7)C=C6)C=C5)cc3)c2)cc1
REMARK SMILES IDX 23 1 22 2 21 3 20 4 19 5 17 6 18 7 16 8 11 9 12 10 94 11
REMARK SMILES IDX 13 12 14 13 10 14 9 15 8 16 5 17 6 18 96 19 7 20 95 21 2 22
REMARK SMILES IDX 3 23 4 24 1 25 15 28 24 30 25 31 26 32 27 33 28 34 29 35
REMARK SMILES IDX 30 36 31 37 32 38 93 39 33 40 92 41 34 42 35 43 36 44 86 45
REMARK SMILES IDX 37 46 91 47 85 48 87 49 38 50 90 51 84 52 83 53 39 55 71 56
REMARK SMILES IDX 51 57 70 58 52 59 55 60 69 61 88 62 53 63 54 64 68 66 89 67
REMARK SMILES IDX 56 68 40 69 41 70 49 71 42 72 44 73 50 74 43 75 45 76 46 77
REMARK SMILES IDX 47 78 48 79 72 80 73 81 81 82 74 83 76 84 82 85 75 86 77 87
REMARK SMILES IDX 78 88 79 89 80 90 57 91 58 92 66 93 59 94 61 95 67 96 60 97
REMARK SMILES IDX 62 98 63 99 64 100 65 101
REMARK H PARENT 1 26 1 27 15 29 87 54 55 65
REMARK Flexibility Score: inf
ROOT
ATOM      1  C   UNL A   1      31.802  29.096  26.531  1.00  0.00     0.188 C 
ENDROOT
BRANCH   1   2
ATOM      2  O   UNL A   1      33.003  28.381  26.733  1.00  0.00    -0.376 OA
BRANCH   2   3
ATOM      3  C   UNL A   1      33.979  28.258  25.715  1.00  0.00     0.202 C 
BRANCH   3   4
ATOM      4  C   UNL A   1      33.656  27.711  24.321  1.00  0.00     0.261 C 
BRANCH   4   5
ATOM      5  O   UNL A   1      32.689  26.655  24.290  1.00  0.00    -0.460 OA
BRANCH   5   6
ATOM      6  C   UNL A   1      32.594  26.005  23.105  1.00  0.00     0.342 C 
ATOM      7  O   UNL A   1      32.464  26.502  21.996  1.00  0.00    -0.246 OA
BRANCH   6   8
ATOM      8  C   UNL A   1      32.912  24.577  23.271  1.00  0.00     0.102 A 
ATOM      9  C   UNL A   1      34.476  22.773  23.630  1.00  0.00    -0.006 A 
ATOM     10  C   UNL A   1      33.446  21.840  23.460  1.00  0.00     0.013 A 
ATOM     11  C   UNL A   1      34.218  24.145  23.522  1.00  0.00     0.029 A 
ATOM     12  C   UNL A   1      32.147  22.278  23.202  1.00  0.00     0.048 A 
ATOM     13  C   UNL A   1      31.878  23.641  23.126  1.00  0.00     0.130 A 
BRANCH   9  14
ATOM     14  C   UNL A   1      35.832  22.278  23.945  1.00  0.00     0.119 C 
ATOM     15  N   UNL A   1      36.079  21.655  25.050  1.00  0.00    -0.256 NA
BRANCH  15  16
ATOM     16  C   UNL A   1      37.365  21.169  25.335  1.00  0.00     0.063 A 
ATOM     17  C   UNL A   1      40.023  20.414  25.848  1.00  0.00     0.082 A 
ATOM     18  C   UNL A   1      39.606  21.717  26.126  1.00  0.00     0.024 A 
ATOM     19  C   UNL A   1      39.126  19.482  25.328  1.00  0.00     0.024 A 
ATOM     20  C   UNL A   1      38.284  22.084  25.864  1.00  0.00     0.030 A 
ATOM     21  C   UNL A   1      37.805  19.866  25.065  1.00  0.00     0.030 A 
BRANCH  17  22
ATOM     22  S   UNL A   1      41.709  19.992  26.170  1.00  0.00     0.238 S 
ATOM     23  O   UNL A   1      42.551  21.077  25.726  1.00  0.00    -0.207 OA
ATOM     24  O   UNL A   1      41.923  18.621  25.764  1.00  0.00    -0.207 OA
BRANCH  22  25
ATOM     25  N   UNL A   1      41.838  19.995  27.846  1.00  0.00    -0.225 NA
ATOM     26  H   UNL A   1      42.259  19.118  28.156  1.00  0.00     0.137 HD
ATOM     27  H   UNL A   1      40.910  20.091  28.259  1.00  0.00     0.137 HD
ENDBRANCH  22  25
ENDBRANCH  17  22
ENDBRANCH  15  16
ENDBRANCH   9  14
BRANCH  13  28
ATOM     28  O   UNL A   1      30.581  23.989  22.873  1.00  0.00    -0.507 OA
ATOM     29  H   UNL A   1      29.899  23.714  23.455  1.00  0.00     0.293 HD
ENDBRANCH  13  28
ENDBRANCH   6   8
ENDBRANCH   5   6
ENDBRANCH   4   5
ENDBRANCH   3   4
ENDBRANCH   2   3
ENDBRANCH   1   2
BRANCH   1  30
ATOM     30  C   UNL A   1      31.787  30.431  25.758  1.00  0.00     0.188 C 
BRANCH  30  31
ATOM     31  O   UNL A   1      30.952  31.505  26.149  1.00  0.00    -0.376 OA
BRANCH  31  32
ATOM     32  C   UNL A   1      31.525  32.646  26.764  1.00  0.00     0.202 C 
BRANCH  32  33
ATOM     33  C   UNL A   1      32.882  32.545  27.464  1.00  0.00     0.261 C 
BRANCH  33  34
ATOM     34  O   UNL A   1      33.551  33.802  27.629  1.00  0.00    -0.460 OA
BRANCH  34  35
ATOM     35  C   UNL A   1      33.473  34.336  28.874  1.00  0.00     0.338 C 
ATOM     36  O   UNL A   1      32.529  34.926  29.369  1.00  0.00    -0.246 OA
BRANCH  35  37
ATOM     37  C   UNL A   1      34.669  33.952  29.642  1.00  0.00     0.060 A 
ATOM     38  C   UNL A   1      35.927  34.276  29.118  1.00  0.00     0.016 A 
ATOM     39  C   UNL A   1      34.556  33.238  30.835  1.00  0.00     0.016 A 
ATOM     40  C   UNL A   1      37.084  33.870  29.782  1.00  0.00     0.010 A 
ATOM     41  C   UNL A   1      35.716  32.812  31.486  1.00  0.00     0.010 A 
ATOM     42  C   UNL A   1      36.984  33.106  30.951  1.00  0.00    -0.014 A 
BRANCH  42  43
ATOM     43  C   UNL A   1      38.193  32.498  31.554  1.00  0.00     0.031 A 
ATOM     44  C   UNL A   1      38.815  31.305  30.886  1.00  0.00     0.074 A 
ATOM     45  C   UNL A   1      38.702  32.976  32.703  1.00  0.00     0.049 A 
ATOM     46  N   UNL A   1      39.812  30.561  31.284  1.00  0.00    -0.248 NA
ATOM     47  C   UNL A   1      38.235  30.896  29.596  1.00  0.00     0.031 C 
ATOM     48  C   UNL A   1      38.194  34.135  33.437  1.00  0.00     0.029 A 
ATOM     49  N   UNL A   1      39.741  32.517  33.473  1.00  0.00    -0.354 N 
ATOM     50  C   UNL A   1      39.964  29.581  30.311  1.00  0.00     0.074 A 
ATOM     51  C   UNL A   1      38.954  29.822  29.304  1.00  0.00     0.031 C 
ATOM     52  C   UNL A   1      38.896  34.269  34.575  1.00  0.00     0.029 A 
ATOM     53  C   UNL A   1      39.882  33.193  34.662  1.00  0.00     0.049 A 
ATOM     54  H   UNL A   1      40.330  31.776  33.199  1.00  0.00     0.167 HD
ATOM     55  C   UNL A   1      40.870  28.577  30.256  1.00  0.00     0.034 A 
ATOM     56  C   UNL A   1      40.689  32.948  35.713  1.00  0.00     0.034 A 
ATOM     57  C   UNL A   1      41.880  28.343  31.252  1.00  0.00     0.049 A 
ATOM     58  C   UNL A   1      41.653  31.790  35.649  1.00  0.00     0.074 A 
ATOM     59  C   UNL A   1      42.872  27.379  31.261  1.00  0.00     0.029 A 
ATOM     60  N   UNL A   1      42.016  29.067  32.425  1.00  0.00    -0.354 N 
ATOM     61  N   UNL A   1      41.871  30.947  34.668  1.00  0.00    -0.248 NA
ATOM     62  C   UNL A   1      42.501  31.565  36.830  1.00  0.00     0.031 C 
ATOM     63  C   UNL A   1      43.593  27.505  32.453  1.00  0.00     0.029 A 
ATOM     64  C   UNL A   1      43.063  28.562  33.176  1.00  0.00     0.049 A 
ATOM     65  H   UNL A   1      41.450  29.830  32.687  1.00  0.00     0.167 HD
ATOM     66  C   UNL A   1      42.897  30.113  35.100  1.00  0.00     0.074 A 
ATOM     67  C   UNL A   1      43.276  30.567  36.422  1.00  0.00     0.031 C 
ATOM     68  C   UNL A   1      43.465  29.055  34.468  1.00  0.00     0.034 A 
BRANCH  55  69
ATOM     69  C   UNL A   1      40.829  27.667  29.059  1.00  0.00     0.023 A 
ATOM     70  C   UNL A   1      39.838  26.667  28.982  1.00  0.00     0.012 A 
ATOM     71  C   UNL A   1      41.728  27.836  27.989  1.00  0.00     0.148 A 
ATOM     72  C   UNL A   1      39.757  25.833  27.868  1.00  0.00     0.002 A 
ATOM     73  C   UNL A   1      41.618  27.026  26.865  1.00  0.00     0.091 A 
ATOM     74  F   UNL A   1      42.678  28.776  28.094  1.00  0.00    -0.205 F 
ATOM     75  C   UNL A   1      40.640  26.020  26.806  1.00  0.00     0.022 A 
BRANCH  73  76
ATOM     76  S   UNL A   1      42.660  27.231  25.416  1.00  0.00     0.127 S 
ATOM     77  O   UNL A   1      43.997  27.210  26.010  1.00  0.00    -0.237 OA
ATOM     78  O   UNL A   1      42.326  26.046  24.626  1.00  0.00    -0.237 OA
ATOM     79  O   UNL A   1      42.265  28.496  24.813  1.00  0.00    -0.744 OA
ENDBRANCH  73  76
ENDBRANCH  55  69
BRANCH  56  80
ATOM     80  C   UNL A   1      40.637  33.824  36.918  1.00  0.00     0.023 A 
ATOM     81  C   UNL A   1      41.376  35.023  36.934  1.00  0.00     0.012 A 
ATOM     82  C   UNL A   1      39.863  33.479  38.043  1.00  0.00     0.148 A 
ATOM     83  C   UNL A   1      41.370  35.846  38.061  1.00  0.00     0.002 A 
ATOM     84  C   UNL A   1      39.819  34.329  39.141  1.00  0.00     0.091 A 
ATOM     85  F   UNL A   1      39.185  32.322  38.017  1.00  0.00    -0.205 F 
ATOM     86  C   UNL A   1      40.584  35.505  39.158  1.00  0.00     0.022 A 
BRANCH  84  87
ATOM     87  S   UNL A   1      38.744  34.029  40.549  1.00  0.00     0.127 S 
ATOM     88  O   UNL A   1      37.473  33.730  39.895  1.00  0.00    -0.237 OA
ATOM     89  O   UNL A   1      39.393  32.882  41.186  1.00  0.00    -0.237 OA
ATOM     90  O   UNL A   1      38.781  35.252  41.338  1.00  0.00    -0.744 OA
ENDBRANCH  84  87
ENDBRANCH  56  80
BRANCH  68  91
ATOM     91  C   UNL A   1      44.571  28.321  35.181  1.00  0.00     0.023 A 
ATOM     92  C   UNL A   1      45.873  28.859  35.188  1.00  0.00     0.012 A 
ATOM     93  C   UNL A   1      44.306  27.146  35.912  1.00  0.00     0.148 A 
ATOM     94  C   UNL A   1      46.901  28.224  35.885  1.00  0.00     0.002 A 
ATOM     95  C   UNL A   1      45.323  26.544  36.644  1.00  0.00     0.091 A 
ATOM     96  F   UNL A   1      43.064  26.640  35.882  1.00  0.00    -0.205 F 
ATOM     97  C   UNL A   1      46.624  27.075  36.622  1.00  0.00     0.022 A 
BRANCH  95  98
ATOM     98  S   UNL A   1      45.040  25.116  37.697  1.00  0.00     0.127 S 
ATOM     99  O   UNL A   1      44.721  24.080  36.715  1.00  0.00    -0.237 OA
ATOM    100  O   UNL A   1      46.335  24.953  38.357  1.00  0.00    -0.237 OA
ATOM    101  O   UNL A   1      43.951  25.487  38.591  1.00  0.00    -0.744 OA
ENDBRANCH  95  98
ENDBRANCH  68  91
ENDBRANCH  42  43
ENDBRANCH  35  37
ENDBRANCH  34  35
ENDBRANCH  33  34
ENDBRANCH  32  33
ENDBRANCH  31  32
ENDBRANCH  30  31
ENDBRANCH   1  30
TORSDOF 25
ENDMDL
MODEL 2
REMARK VINA RESULT:      -9.5      4.453      9.335
REMARK SMILES NS(=O)(=O)c1ccc(/N=C/c2ccc(O)c(C(=O)OCCOCCOCCOC(=O)c3ccc(-c4c5nc(c(-c6cccc(S(=O)(=O)[O-])c6F)c6ccc([nH]6)c(-c6cccc(S(=O)(=O)[O-])c6F)c6nc(c(-c7cccc(S(=O)(=O)[O-])c7F)c7ccc4[nH]7)C=C6)C=C5)cc3)c2)cc1
REMARK SMILES IDX 23 1 22 2 21 3 20 4 19 5 17 6 18 7 16 8 11 9 12 10 94 11
REMARK SMILES IDX 13 12 14 13 10 14 9 15 8 16 5 17 6 18 96 19 7 20 95 21 2 22
REMARK SMILES IDX 3 23 4 24 1 25 15 28 24 30 25 31 26 32 27 33 28 34 29 35
REMARK SMILES IDX 30 36 31 37 32 38 93 39 33 40 92 41 34 42 35 43 36 44 86 45
REMARK SMILES IDX 37 46 91 47 85 48 87 49 38 50 90 51 84 52 83 53 39 55 71 56
REMARK SMILES IDX 51 57 70 58 52 59 55 60 69 61 88 62 53 63 54 64 68 66 89 67
REMARK SMILES IDX 56 68 40 69 41 70 49 71 42 72 44 73 50 74 43 75 45 76 46 77
REMARK SMILES IDX 47 78 48 79 72 80 73 81 81 82 74 83 76 84 82 85 75 86 77 87
REMARK SMILES IDX 78 88 79 89 80 90 57 91 58 92 66 93 59 94 61 95 67 96 60 97
REMARK SMILES IDX 62 98 63 99 64 100 65 101
REMARK H PARENT 1 26 1 27 15 29 87 54 55 65
REMARK Flexibility Score: inf
ROOT
ATOM      1  C   UNL A   1      37.292  33.069  35.512  1.00  0.00     0.188 C 
ENDROOT
BRANCH   1   2
ATOM      2  O   UNL A   1      37.109  34.052  34.514  1.00  0.00    -0.376 OA
BRANCH   2   3
ATOM      3  C   UNL A   1      36.441  33.768  33.299  1.00  0.00     0.202 C 
BRANCH   3   4
ATOM      4  C   UNL A   1      36.039  32.347  32.888  1.00  0.00     0.261 C 
BRANCH   4   5
ATOM      5  O   UNL A   1      37.086  31.563  32.305  1.00  0.00    -0.460 OA
BRANCH   5   6
ATOM      6  C   UNL A   1      36.823  31.102  31.058  1.00  0.00     0.342 C 
ATOM      7  O   UNL A   1      35.779  31.210  30.433  1.00  0.00    -0.246 OA
BRANCH   6   8
ATOM      8  C   UNL A   1      38.059  30.633  30.409  1.00  0.00     0.102 A 
ATOM      9  C   UNL A   1      39.372  28.930  29.314  1.00  0.00    -0.006 A 
ATOM     10  C   UNL A   1      40.479  29.788  29.295  1.00  0.00     0.013 A 
ATOM     11  C   UNL A   1      38.162  29.341  29.883  1.00  0.00     0.029 A 
ATOM     12  C   UNL A   1      40.371  31.072  29.828  1.00  0.00     0.048 A 
ATOM     13  C   UNL A   1      39.160  31.499  30.365  1.00  0.00     0.130 A 
BRANCH   9  14
ATOM     14  C   UNL A   1      39.507  27.591  28.703  1.00  0.00     0.119 C 
ATOM     15  N   UNL A   1      40.563  26.870  28.890  1.00  0.00    -0.256 NA
BRANCH  15  16
ATOM     16  C   UNL A   1      40.677  25.590  28.325  1.00  0.00     0.063 A 
ATOM     17  C   UNL A   1      41.145  23.060  27.194  1.00  0.00     0.082 A 
ATOM     18  C   UNL A   1      42.048  23.584  28.120  1.00  0.00     0.024 A 
ATOM     19  C   UNL A   1      40.006  23.781  26.835  1.00  0.00     0.024 A 
ATOM     20  C   UNL A   1      41.809  24.844  28.674  1.00  0.00     0.030 A 
ATOM     21  C   UNL A   1      39.782  25.046  27.393  1.00  0.00     0.030 A 
BRANCH  17  22
ATOM     22  S   UNL A   1      41.492  21.475  26.495  1.00  0.00     0.238 S 
ATOM     23  O   UNL A   1      42.426  21.641  25.409  1.00  0.00    -0.207 OA
ATOM     24  O   UNL A   1      40.246  20.755  26.352  1.00  0.00    -0.207 OA
BRANCH  22  25
ATOM     25  N   UNL A   1      42.350  20.660  27.690  1.00  0.00    -0.225 NA
ATOM     26  H   UNL A   1      42.894  21.331  28.235  1.00  0.00     0.137 HD
ATOM     27  H   UNL A   1      42.981  19.985  27.255  1.00  0.00     0.137 HD
ENDBRANCH  22  25
ENDBRANCH  17  22
ENDBRANCH  15  16
ENDBRANCH   9  14
BRANCH  13  28
ATOM     28  O   UNL A   1      39.136  32.771  30.865  1.00  0.00    -0.507 OA
ATOM     29  H   UNL A   1      39.788  33.047  31.479  1.00  0.00     0.293 HD
ENDBRANCH  13  28
ENDBRANCH   6   8
ENDBRANCH   5   6
ENDBRANCH   4   5
ENDBRANCH   3   4
ENDBRANCH   2   3
ENDBRANCH   1   2
BRANCH   1  30
ATOM     30  C   UNL A   1      37.145  33.413  37.009  1.00  0.00     0.188 C 
BRANCH  30  31
ATOM     31  O   UNL A   1      37.733  32.609  38.015  1.00  0.00    -0.376 OA
BRANCH  31  32
ATOM     32  C   UNL A   1      38.810  33.123  38.778  1.00  0.00     0.202 C 
BRANCH  32  33
ATOM     33  C   UNL A   1      38.805  34.584  39.234  1.00  0.00     0.261 C 
BRANCH  33  34
ATOM     34  O   UNL A   1      40.101  35.194  39.257  1.00  0.00    -0.460 OA
BRANCH  34  35
ATOM     35  C   UNL A   1      40.321  36.115  38.287  1.00  0.00     0.338 C 
ATOM     36  O   UNL A   1      40.189  37.324  38.369  1.00  0.00    -0.246 OA
BRANCH  35  37
ATOM     37  C   UNL A   1      40.922  35.453  37.117  1.00  0.00     0.060 A 
ATOM     38  C   UNL A   1      40.116  35.226  35.994  1.00  0.00     0.016 A 
ATOM     39  C   UNL A   1      42.246  35.013  37.144  1.00  0.00     0.016 A 
ATOM     40  C   UNL A   1      40.629  34.541  34.894  1.00  0.00     0.010 A 
ATOM     41  C   UNL A   1      42.752  34.307  36.050  1.00  0.00     0.010 A 
ATOM     42  C   UNL A   1      41.940  34.048  34.931  1.00  0.00    -0.014 A 
BRANCH  42  43
ATOM     43  C   UNL A   1      42.431  33.149  33.861  1.00  0.00     0.031 A 
ATOM     44  C   UNL A   1      42.653  33.712  32.486  1.00  0.00     0.074 A 
ATOM     45  C   UNL A   1      42.635  31.842  34.101  1.00  0.00     0.049 A 
ATOM     46  N   UNL A   1      42.988  33.095  31.384  1.00  0.00    -0.248 NA
ATOM     47  C   UNL A   1      42.475  35.166  32.332  1.00  0.00     0.031 C 
ATOM     48  C   UNL A   1      42.467  31.184  35.396  1.00  0.00     0.029 A 
ATOM     49  N   UNL A   1      42.993  30.827  33.249  1.00  0.00    -0.354 N 
ATOM     50  C   UNL A   1      43.033  34.075  30.400  1.00  0.00     0.074 A 
ATOM     51  C   UNL A   1      42.690  35.329  31.035  1.00  0.00     0.031 C 
ATOM     52  C   UNL A   1      42.678  29.865  35.243  1.00  0.00     0.029 A 
ATOM     53  C   UNL A   1      42.970  29.585  33.838  1.00  0.00     0.049 A 
ATOM     54  H   UNL A   1      43.244  30.975  32.309  1.00  0.00     0.167 HD
ATOM     55  C   UNL A   1      43.345  33.945  29.090  1.00  0.00     0.034 A 
ATOM     56  C   UNL A   1      43.131  28.362  33.296  1.00  0.00     0.034 A 
ATOM     57  C   UNL A   1      43.696  32.701  28.461  1.00  0.00     0.049 A 
ATOM     58  C   UNL A   1      43.424  28.240  31.822  1.00  0.00     0.074 A 
ATOM     59  C   UNL A   1      44.072  32.476  27.149  1.00  0.00     0.029 A 
ATOM     60  N   UNL A   1      43.696  31.468  29.094  1.00  0.00    -0.354 N 
ATOM     61  N   UNL A   1      43.588  29.187  30.929  1.00  0.00    -0.248 NA
ATOM     62  C   UNL A   1      43.579  26.879  31.285  1.00  0.00     0.031 C 
ATOM     63  C   UNL A   1      44.275  31.102  26.982  1.00  0.00     0.029 A 
ATOM     64  C   UNL A   1      44.047  30.474  28.197  1.00  0.00     0.049 A 
ATOM     65  H   UNL A   1      43.479  31.320  30.044  1.00  0.00     0.167 HD
ATOM     66  C   UNL A   1      43.893  28.540  29.736  1.00  0.00     0.074 A 
ATOM     67  C   UNL A   1      43.916  27.121  30.024  1.00  0.00     0.031 C 
ATOM     68  C   UNL A   1      44.118  29.071  28.508  1.00  0.00     0.034 A 
BRANCH  55  69
ATOM     69  C   UNL A   1      43.347  35.192  28.248  1.00  0.00     0.023 A 
ATOM     70  C   UNL A   1      42.131  35.681  27.729  1.00  0.00     0.012 A 
ATOM     71  C   UNL A   1      44.538  35.908  28.018  1.00  0.00     0.148 A 
ATOM     72  C   UNL A   1      42.102  36.853  26.974  1.00  0.00     0.002 A 
ATOM     73  C   UNL A   1      44.496  37.095  27.296  1.00  0.00     0.091 A 
ATOM     74  F   UNL A   1      45.687  35.411  28.498  1.00  0.00    -0.205 F 
ATOM     75  C   UNL A   1      43.282  37.564  26.768  1.00  0.00     0.022 A 
BRANCH  73  76
ATOM     76  S   UNL A   1      45.946  38.122  27.034  1.00  0.00     0.127 S 
ATOM     77  O   UNL A   1      46.671  37.354  26.021  1.00  0.00    -0.237 OA
ATOM     78  O   UNL A   1      45.357  39.369  26.547  1.00  0.00    -0.237 OA
ATOM     79  O   UNL A   1      46.605  38.225  28.329  1.00  0.00    -0.744 OA
ENDBRANCH  73  76
ENDBRANCH  55  69
BRANCH  56  80
ATOM     80  C   UNL A   1      43.034  27.145  34.151  1.00  0.00     0.023 A 
ATOM     81  C   UNL A   1      41.766  26.673  34.542  1.00  0.00     0.012 A 
ATOM     82  C   UNL A   1      44.185  26.454  34.577  1.00  0.00     0.148 A 
ATOM     83  C   UNL A   1      41.647  25.554  35.368  1.00  0.00     0.002 A 
ATOM     84  C   UNL A   1      44.058  25.309  35.356  1.00  0.00     0.091 A 
ATOM     85  F   UNL A   1      45.384  26.932  34.214  1.00  0.00    -0.205 F 
ATOM     86  C   UNL A   1      42.791  24.867  35.765  1.00  0.00     0.022 A 
BRANCH  84  87
ATOM     87  S   UNL A   1      45.469  24.296  35.815  1.00  0.00     0.127 S 
ATOM     88  O   UNL A   1      44.831  23.214  36.559  1.00  0.00    -0.237 OA
ATOM     89  O   UNL A   1      46.004  23.913  34.507  1.00  0.00    -0.237 OA
ATOM     90  O   UNL A   1      46.343  25.169  36.587  1.00  0.00    -0.744 OA
ENDBRANCH  84  87
ENDBRANCH  56  80
BRANCH  68  91
ATOM     91  C   UNL A   1      44.429  28.121  27.379  1.00  0.00     0.023 A 
ATOM     92  C   UNL A   1      43.375  27.515  26.667  1.00  0.00     0.012 A 
ATOM     93  C   UNL A   1      45.759  27.893  26.971  1.00  0.00     0.148 A 
ATOM     94  C   UNL A   1      43.640  26.674  25.586  1.00  0.00     0.002 A 
ATOM     95  C   UNL A   1      46.014  27.092  25.864  1.00  0.00     0.091 A 
ATOM     96  F   UNL A   1      46.749  28.466  27.670  1.00  0.00    -0.205 F 
ATOM     97  C   UNL A   1      44.956  26.472  25.177  1.00  0.00     0.022 A 
BRANCH  95  98
ATOM     98  S   UNL A   1      47.669  26.850  25.208  1.00  0.00     0.127 S 
ATOM     99  O   UNL A   1      48.410  26.458  26.406  1.00  0.00    -0.237 OA
ATOM    100  O   UNL A   1      47.465  25.774  24.238  1.00  0.00    -0.237 OA
ATOM    101  O   UNL A   1      48.057  28.125  24.621  1.00  0.00    -0.744 OA
ENDBRANCH  95  98
ENDBRANCH  68  91
ENDBRANCH  42  43
ENDBRANCH  35  37
ENDBRANCH  34  35
ENDBRANCH  33  34
ENDBRANCH  32  33
ENDBRANCH  31  32
ENDBRANCH  30  31
ENDBRANCH   1  30
TORSDOF 25
ENDMDL
MODEL 3
REMARK VINA RESULT:      -9.4      5.035      9.045
REMARK SMILES NS(=O)(=O)c1ccc(/N=C/c2ccc(O)c(C(=O)OCCOCCOCCOC(=O)c3ccc(-c4c5nc(c(-c6cccc(S(=O)(=O)[O-])c6F)c6ccc([nH]6)c(-c6cccc(S(=O)(=O)[O-])c6F)c6nc(c(-c7cccc(S(=O)(=O)[O-])c7F)c7ccc4[nH]7)C=C6)C=C5)cc3)c2)cc1
REMARK SMILES IDX 23 1 22 2 21 3 20 4 19 5 17 6 18 7 16 8 11 9 12 10 94 11
REMARK SMILES IDX 13 12 14 13 10 14 9 15 8 16 5 17 6 18 96 19 7 20 95 21 2 22
REMARK SMILES IDX 3 23 4 24 1 25 15 28 24 30 25 31 26 32 27 33 28 34 29 35
REMARK SMILES IDX 30 36 31 37 32 38 93 39 33 40 92 41 34 42 35 43 36 44 86 45
REMARK SMILES IDX 37 46 91 47 85 48 87 49 38 50 90 51 84 52 83 53 39 55 71 56
REMARK SMILES IDX 51 57 70 58 52 59 55 60 69 61 88 62 53 63 54 64 68 66 89 67
REMARK SMILES IDX 56 68 40 69 41 70 49 71 42 72 44 73 50 74 43 75 45 76 46 77
REMARK SMILES IDX 47 78 48 79 72 80 73 81 81 82 74 83 76 84 82 85 75 86 77 87
REMARK SMILES IDX 78 88 79 89 80 90 57 91 58 92 66 93 59 94 61 95 67 96 60 97
REMARK SMILES IDX 62 98 63 99 64 100 65 101
REMARK H PARENT 1 26 1 27 15 29 87 54 55 65
REMARK Flexibility Score: inf
ROOT
ATOM      1  C   UNL A   1      34.351  34.800  31.025  1.00  0.00     0.188 C 
ENDROOT
BRANCH   1   2
ATOM      2  O   UNL A   1      34.074  33.460  30.673  1.00  0.00    -0.376 OA
BRANCH   2   3
ATOM      3  C   UNL A   1      35.102  32.551  30.326  1.00  0.00     0.202 C 
BRANCH   3   4
ATOM      4  C   UNL A   1      35.689  32.466  28.914  1.00  0.00     0.261 C 
BRANCH   4   5
ATOM      5  O   UNL A   1      36.809  31.584  28.772  1.00  0.00    -0.460 OA
BRANCH   5   6
ATOM      6  C   UNL A   1      36.495  30.326  28.376  1.00  0.00     0.342 C 
ATOM      7  O   UNL A   1      35.687  29.999  27.520  1.00  0.00    -0.246 OA
BRANCH   6   8
ATOM      8  C   UNL A   1      37.441  29.353  28.947  1.00  0.00     0.102 A 
ATOM      9  C   UNL A   1      39.280  27.802  28.744  1.00  0.00    -0.006 A 
ATOM     10  C   UNL A   1      39.121  27.431  30.085  1.00  0.00     0.013 A 
ATOM     11  C   UNL A   1      38.432  28.753  28.164  1.00  0.00     0.029 A 
ATOM     12  C   UNL A   1      38.125  28.028  30.858  1.00  0.00     0.048 A 
ATOM     13  C   UNL A   1      37.302  28.998  30.296  1.00  0.00     0.130 A 
BRANCH   9  14
ATOM     14  C   UNL A   1      40.371  27.182  27.964  1.00  0.00     0.119 C 
ATOM     15  N   UNL A   1      41.415  26.689  28.545  1.00  0.00    -0.256 NA
BRANCH  15  16
ATOM     16  C   UNL A   1      42.439  26.082  27.802  1.00  0.00     0.063 A 
ATOM     17  C   UNL A   1      44.439  24.662  26.429  1.00  0.00     0.082 A 
ATOM     18  C   UNL A   1      43.250  24.021  26.782  1.00  0.00     0.024 A 
ATOM     19  C   UNL A   1      44.635  26.007  26.744  1.00  0.00     0.024 A 
ATOM     20  C   UNL A   1      42.264  24.734  27.468  1.00  0.00     0.030 A 
ATOM     21  C   UNL A   1      43.639  26.708  27.437  1.00  0.00     0.030 A 
BRANCH  17  22
ATOM     22  S   UNL A   1      45.674  23.723  25.584  1.00  0.00     0.238 S 
ATOM     23  O   UNL A   1      46.216  24.526  24.514  1.00  0.00    -0.207 OA
ATOM     24  O   UNL A   1      45.170  22.384  25.377  1.00  0.00    -0.207 OA
BRANCH  22  25
ATOM     25  N   UNL A   1      46.927  23.569  26.694  1.00  0.00    -0.225 NA
ATOM     26  H   UNL A   1      46.763  24.197  27.482  1.00  0.00     0.137 HD
ATOM     27  H   UNL A   1      47.811  23.811  26.245  1.00  0.00     0.137 HD
ENDBRANCH  22  25
ENDBRANCH  17  22
ENDBRANCH  15  16
ENDBRANCH   9  14
BRANCH  13  28
ATOM     28  O   UNL A   1      36.352  29.537  31.120  1.00  0.00    -0.507 OA
ATOM     29  H   UNL A   1      35.494  29.718  30.791  1.00  0.00     0.293 HD
ENDBRANCH  13  28
ENDBRANCH   6   8
ENDBRANCH   5   6
ENDBRANCH   4   5
ENDBRANCH   3   4
ENDBRANCH   2   3
ENDBRANCH   1   2
BRANCH   1  30
ATOM     30  C   UNL A   1      33.849  35.396  32.358  1.00  0.00     0.188 C 
BRANCH  30  31
ATOM     31  O   UNL A   1      34.565  35.215  33.566  1.00  0.00    -0.376 OA
BRANCH  31  32
ATOM     32  C   UNL A   1      35.848  34.614  33.533  1.00  0.00     0.202 C 
BRANCH  32  33
ATOM     33  C   UNL A   1      36.489  34.092  34.820  1.00  0.00     0.261 C 
BRANCH  33  34
ATOM     34  O   UNL A   1      36.745  32.682  34.817  1.00  0.00    -0.460 OA
BRANCH  34  35
ATOM     35  C   UNL A   1      37.851  32.296  35.501  1.00  0.00     0.338 C 
ATOM     36  O   UNL A   1      37.952  32.111  36.701  1.00  0.00    -0.246 OA
BRANCH  35  37
ATOM     37  C   UNL A   1      38.919  31.957  34.545  1.00  0.00     0.060 A 
ATOM     38  C   UNL A   1      38.560  31.349  33.335  1.00  0.00     0.016 A 
ATOM     39  C   UNL A   1      40.259  32.186  34.858  1.00  0.00     0.016 A 
ATOM     40  C   UNL A   1      39.547  30.951  32.435  1.00  0.00     0.010 A 
ATOM     41  C   UNL A   1      41.248  31.767  33.965  1.00  0.00     0.010 A 
ATOM     42  C   UNL A   1      40.898  31.127  32.761  1.00  0.00    -0.014 A 
BRANCH  42  43
ATOM     43  C   UNL A   1      41.957  30.531  31.914  1.00  0.00     0.031 A 
ATOM     44  C   UNL A   1      42.528  29.196  32.299  1.00  0.00     0.074 A 
ATOM     45  C   UNL A   1      42.431  31.190  30.842  1.00  0.00     0.049 A 
ATOM     46  N   UNL A   1      43.518  28.534  31.762  1.00  0.00    -0.248 NA
ATOM     47  C   UNL A   1      41.899  28.516  33.444  1.00  0.00     0.031 C 
ATOM     48  C   UNL A   1      41.947  32.483  30.361  1.00  0.00     0.029 A 
ATOM     49  N   UNL A   1      43.455  30.872  29.985  1.00  0.00    -0.354 N 
ATOM     50  C   UNL A   1      43.651  27.375  32.516  1.00  0.00     0.074 A 
ATOM     51  C   UNL A   1      42.642  27.424  33.551  1.00  0.00     0.031 C 
ATOM     52  C   UNL A   1      42.706  32.871  29.321  1.00  0.00     0.029 A 
ATOM     53  C   UNL A   1      43.741  31.867  29.081  1.00  0.00     0.049 A 
ATOM     54  H   UNL A   1      43.937  30.014  30.015  1.00  0.00     0.167 HD
ATOM     55  C   UNL A   1      44.527  26.356  32.353  1.00  0.00     0.034 A 
ATOM     56  C   UNL A   1      44.744  31.970  28.187  1.00  0.00     0.034 A 
ATOM     57  C   UNL A   1      45.524  26.303  31.318  1.00  0.00     0.049 A 
ATOM     58  C   UNL A   1      45.740  30.843  28.063  1.00  0.00     0.074 A 
ATOM     59  C   UNL A   1      46.427  25.291  31.045  1.00  0.00     0.029 A 
ATOM     60  N   UNL A   1      45.762  27.311  30.399  1.00  0.00    -0.354 N 
ATOM     61  N   UNL A   1      45.777  29.696  28.698  1.00  0.00    -0.248 NA
ATOM     62  C   UNL A   1      46.819  31.016  27.078  1.00  0.00     0.031 C 
ATOM     63  C   UNL A   1      47.229  25.699  29.974  1.00  0.00     0.029 A 
ATOM     64  C   UNL A   1      46.811  26.956  29.567  1.00  0.00     0.049 A 
ATOM     65  H   UNL A   1      45.260  28.157  30.344  1.00  0.00     0.167 HD
ATOM     66  C   UNL A   1      46.861  29.002  28.172  1.00  0.00     0.074 A 
ATOM     67  C   UNL A   1      47.440  29.845  27.147  1.00  0.00     0.031 C 
ATOM     68  C   UNL A   1      47.345  27.782  28.516  1.00  0.00     0.034 A 
BRANCH  55  69
ATOM     69  C   UNL A   1      44.429  25.195  33.305  1.00  0.00     0.023 A 
ATOM     70  C   UNL A   1      43.711  24.044  32.922  1.00  0.00     0.012 A 
ATOM     71  C   UNL A   1      45.092  25.219  34.547  1.00  0.00     0.148 A 
ATOM     72  C   UNL A   1      43.633  22.941  33.773  1.00  0.00     0.002 A 
ATOM     73  C   UNL A   1      45.041  24.102  35.373  1.00  0.00     0.091 A 
ATOM     74  F   UNL A   1      45.747  26.333  34.901  1.00  0.00    -0.205 F 
ATOM     75  C   UNL A   1      44.307  22.967  34.991  1.00  0.00     0.022 A 
BRANCH  73  76
ATOM     76  S   UNL A   1      45.931  24.008  36.931  1.00  0.00     0.127 S 
ATOM     77  O   UNL A   1      45.494  22.709  37.441  1.00  0.00    -0.237 OA
ATOM     78  O   UNL A   1      47.326  24.052  36.491  1.00  0.00    -0.237 OA
ATOM     79  O   UNL A   1      45.501  25.162  37.709  1.00  0.00    -0.744 OA
ENDBRANCH  73  76
ENDBRANCH  55  69
BRANCH  56  80
ATOM     80  C   UNL A   1      44.857  33.178  27.322  1.00  0.00     0.023 A 
ATOM     81  C   UNL A   1      44.212  33.195  26.070  1.00  0.00     0.012 A 
ATOM     82  C   UNL A   1      45.593  34.307  27.731  1.00  0.00     0.148 A 
ATOM     83  C   UNL A   1      44.327  34.302  25.227  1.00  0.00     0.002 A 
ATOM     84  C   UNL A   1      45.659  35.426  26.909  1.00  0.00     0.091 A 
ATOM     85  F   UNL A   1      46.218  34.263  28.917  1.00  0.00    -0.205 F 
ATOM     86  C   UNL A   1      45.039  35.419  25.651  1.00  0.00     0.022 A 
BRANCH  84  87
ATOM     87  S   UNL A   1      46.456  36.952  27.424  1.00  0.00     0.127 S 
ATOM     88  O   UNL A   1      46.398  37.747  26.200  1.00  0.00    -0.237 OA
ATOM     89  O   UNL A   1      45.570  37.409  28.497  1.00  0.00    -0.237 OA
ATOM     90  O   UNL A   1      47.788  36.567  27.870  1.00  0.00    -0.744 OA
ENDBRANCH  84  87
ENDBRANCH  56  80
BRANCH  68  91
ATOM     91  C   UNL A   1      48.550  27.269  27.770  1.00  0.00     0.023 A 
ATOM     92  C   UNL A   1      48.382  26.647  26.517  1.00  0.00     0.012 A 
ATOM     93  C   UNL A   1      49.852  27.474  28.270  1.00  0.00     0.148 A 
ATOM     94  C   UNL A   1      49.486  26.212  25.786  1.00  0.00     0.002 A 
ATOM     95  C   UNL A   1      50.951  27.080  27.515  1.00  0.00     0.091 A 
ATOM     96  F   UNL A   1      49.992  28.052  29.471  1.00  0.00    -0.205 F 
ATOM     97  C   UNL A   1      50.769  26.438  26.278  1.00  0.00     0.022 A 
BRANCH  95  98
ATOM     98  S   UNL A   1      52.641  27.413  28.024  1.00  0.00     0.127 S 
ATOM     99  O   UNL A   1      53.395  26.486  27.182  1.00  0.00    -0.237 OA
ATOM    100  O   UNL A   1      52.800  28.824  27.672  1.00  0.00    -0.237 OA
ATOM    101  O   UNL A   1      52.690  27.140  29.454  1.00  0.00    -0.744 OA
ENDBRANCH  95  98
ENDBRANCH  68  91
ENDBRANCH  42  43
ENDBRANCH  35  37
ENDBRANCH  34  35
ENDBRANCH  33  34
ENDBRANCH  32  33
ENDBRANCH  31  32
ENDBRANCH  30  31
ENDBRANCH   1  30
TORSDOF 25
ENDMDL
