MODEL 1
REMARK VINA RESULT:     -10.4      0.000      0.000
REMARK SMILES Cc1ccc(C(=O)CC(C)(C)C(=O)OCCOCCOCCOC(=O)c2ccc(-c3c4nc(c(-c5cccc(S(=O)(=O)[O-])c5F)c5ccc([nH]5)c(-c5cccc(S(=O)(=O)[O-])c5F)c5nc(c(-c6cccc(S(=O)(=O)[O-])c6F)c6ccc3[nH]6)C=C5)C=C4)cc2)cc1
REMARK SMILES IDX 18 1 17 2 16 3 15 4 14 5 12 6 13 7 9 8 10 9 11 10 8 11 6 12
REMARK SMILES IDX 7 13 5 14 1 15 2 16 3 17 90 18 4 19 89 20 19 21 20 22 21 23
REMARK SMILES IDX 22 24 23 25 24 26 25 27 26 28 27 29 88 30 28 31 87 32 29 33
REMARK SMILES IDX 30 34 31 35 81 36 32 37 86 38 80 39 82 40 33 41 85 42 79 43
REMARK SMILES IDX 78 44 34 46 66 47 46 48 65 49 47 50 50 51 64 52 83 53 48 54
REMARK SMILES IDX 49 55 63 57 84 58 51 59 35 60 36 61 44 62 37 63 39 64 45 65
REMARK SMILES IDX 38 66 40 67 41 68 42 69 43 70 67 71 68 72 76 73 69 74 71 75
REMARK SMILES IDX 77 76 70 77 72 78 73 79 74 80 75 81 52 82 53 83 61 84 54 85
REMARK SMILES IDX 56 86 62 87 55 88 57 89 58 90 59 91 60 92
REMARK H PARENT 82 45 50 56
REMARK Flexibility Score: inf
ROOT
ATOM      1  C   UNL A   1      33.658  33.147  28.272  1.00  0.00     0.188 C 
ENDROOT
BRANCH   1   2
ATOM      2  O   UNL A   1      34.849  32.348  28.356  1.00  0.00    -0.376 OA
BRANCH   2   3
ATOM      3  C   UNL A   1      34.661  31.025  27.753  1.00  0.00     0.202 C 
BRANCH   3   4
ATOM      4  C   UNL A   1      33.255  30.891  27.010  1.00  0.00     0.261 C 
BRANCH   4   5
ATOM      5  O   UNL A   1      32.095  29.748  27.091  1.00  0.00    -0.463 OA
BRANCH   5   6
ATOM      6  C   UNL A   1      31.759  28.418  26.808  1.00  0.00     0.312 C 
ATOM      7  O   UNL A   1      31.662  27.463  27.564  1.00  0.00    -0.252 OA
BRANCH   6   8
ATOM      8  C   UNL A   1      31.650  28.047  25.361  1.00  0.00     0.070 C 
ATOM      9  C   UNL A   1      31.012  29.233  24.640  1.00  0.00     0.024 C 
ATOM     10  C   UNL A   1      30.764  26.804  25.305  1.00  0.00     0.024 C 
BRANCH   8  11
ATOM     11  C   UNL A   1      33.068  27.688  24.800  1.00  0.00     0.099 C 
BRANCH  11  12
ATOM     12  C   UNL A   1      33.512  26.516  23.886  1.00  0.00     0.163 C 
ATOM     13  O   UNL A   1      33.784  26.768  22.706  1.00  0.00    -0.294 OA
BRANCH  12  14
ATOM     14  C   UNL A   1      33.917  25.156  24.320  1.00  0.00     0.018 A 
ATOM     15  C   UNL A   1      35.689  21.432  25.630  1.00  0.00     0.044 C 
ATOM     16  C   UNL A   1      35.080  22.721  25.155  1.00  0.00    -0.051 A 
ATOM     17  C   UNL A   1      34.980  23.026  23.793  1.00  0.00     0.004 A 
ATOM     18  C   UNL A   1      34.638  23.662  26.091  1.00  0.00     0.004 A 
ATOM     19  C   UNL A   1      34.408  24.239  23.375  1.00  0.00     0.012 A 
ATOM     20  C   UNL A   1      34.083  24.880  25.677  1.00  0.00     0.012 A 
ENDBRANCH  12  14
ENDBRANCH  11  12
ENDBRANCH   8  11
ENDBRANCH   6   8
ENDBRANCH   5   6
ENDBRANCH   4   5
ENDBRANCH   3   4
ENDBRANCH   2   3
ENDBRANCH   1   2
BRANCH   1  21
ATOM     21  C   UNL A   1      33.754  34.487  29.010  1.00  0.00     0.188 C 
BRANCH  21  22
ATOM     22  O   UNL A   1      32.789  34.810  30.012  1.00  0.00    -0.376 OA
BRANCH  22  23
ATOM     23  C   UNL A   1      32.899  36.054  30.702  1.00  0.00     0.202 C 
BRANCH  23  24
ATOM     24  C   UNL A   1      33.042  36.037  32.238  1.00  0.00     0.261 C 
BRANCH  24  25
ATOM     25  O   UNL A   1      33.546  34.784  32.700  1.00  0.00    -0.460 OA
BRANCH  25  26
ATOM     26  C   UNL A   1      34.875  34.773  33.094  1.00  0.00     0.338 C 
ATOM     27  O   UNL A   1      35.601  35.701  33.151  1.00  0.00    -0.246 OA
BRANCH  26  28
ATOM     28  C   UNL A   1      35.202  33.310  33.104  1.00  0.00     0.060 A 
ATOM     29  C   UNL A   1      36.133  32.798  33.990  1.00  0.00     0.016 A 
ATOM     30  C   UNL A   1      34.963  32.571  31.983  1.00  0.00     0.016 A 
ATOM     31  C   UNL A   1      37.010  31.747  33.584  1.00  0.00     0.010 A 
ATOM     32  C   UNL A   1      35.987  31.694  31.570  1.00  0.00     0.010 A 
ATOM     33  C   UNL A   1      37.165  31.355  32.253  1.00  0.00    -0.014 A 
BRANCH  33  34
ATOM     34  C   UNL A   1      38.582  30.782  31.664  1.00  0.00     0.031 A 
ATOM     35  C   UNL A   1      39.078  29.410  30.810  1.00  0.00     0.074 A 
ATOM     36  C   UNL A   1      39.644  31.604  31.906  1.00  0.00     0.049 A 
ATOM     37  N   UNL A   1      40.309  28.920  30.872  1.00  0.00    -0.248 NA
ATOM     38  C   UNL A   1      38.348  28.492  29.894  1.00  0.00     0.031 C 
ATOM     39  C   UNL A   1      41.016  31.449  31.430  1.00  0.00     0.029 A 
ATOM     40  N   UNL A   1      39.792  32.607  32.871  1.00  0.00    -0.354 N 
ATOM     41  C   UNL A   1      40.441  27.893  29.930  1.00  0.00     0.074 A 
ATOM     42  C   UNL A   1      39.148  27.482  29.608  1.00  0.00     0.031 C 
ATOM     43  C   UNL A   1      41.837  31.903  32.387  1.00  0.00     0.029 A 
ATOM     44  C   UNL A   1      41.014  32.343  33.496  1.00  0.00     0.049 A 
ATOM     45  H   UNL A   1      39.167  33.342  33.067  1.00  0.00     0.167 HD
ATOM     46  C   UNL A   1      41.585  27.486  29.323  1.00  0.00     0.034 A 
ATOM     47  C   UNL A   1      41.112  31.991  34.813  1.00  0.00     0.034 A 
ATOM     48  C   UNL A   1      42.710  27.864  30.136  1.00  0.00     0.049 A 
ATOM     49  C   UNL A   1      41.816  30.649  35.007  1.00  0.00     0.074 A 
ATOM     50  C   UNL A   1      43.665  28.855  30.136  1.00  0.00     0.029 A 
ATOM     51  N   UNL A   1      42.721  27.312  31.398  1.00  0.00    -0.354 N 
ATOM     52  N   UNL A   1      42.520  30.032  34.090  1.00  0.00    -0.248 NA
ATOM     53  C   UNL A   1      41.712  29.854  36.233  1.00  0.00     0.031 C 
ATOM     54  C   UNL A   1      44.101  29.009  31.497  1.00  0.00     0.029 A 
ATOM     55  C   UNL A   1      43.454  28.067  32.284  1.00  0.00     0.049 A 
ATOM     56  H   UNL A   1      42.260  26.476  31.638  1.00  0.00     0.167 HD
ATOM     57  C   UNL A   1      42.783  28.747  34.504  1.00  0.00     0.074 A 
ATOM     58  C   UNL A   1      42.310  28.705  35.876  1.00  0.00     0.031 C 
ATOM     59  C   UNL A   1      43.293  27.760  33.701  1.00  0.00     0.034 A 
BRANCH  46  60
ATOM     60  C   UNL A   1      41.619  26.671  28.019  1.00  0.00     0.023 A 
ATOM     61  C   UNL A   1      41.599  27.364  26.795  1.00  0.00     0.012 A 
ATOM     62  C   UNL A   1      41.594  25.243  27.914  1.00  0.00     0.148 A 
ATOM     63  C   UNL A   1      41.586  26.695  25.556  1.00  0.00     0.002 A 
ATOM     64  C   UNL A   1      41.682  24.580  26.681  1.00  0.00     0.091 A 
ATOM     65  F   UNL A   1      41.378  24.489  29.002  1.00  0.00    -0.205 F 
ATOM     66  C   UNL A   1      41.659  25.306  25.495  1.00  0.00     0.022 A 
BRANCH  64  67
ATOM     67  S   UNL A   1      41.894  22.786  26.576  1.00  0.00     0.127 S 
ATOM     68  O   UNL A   1      42.511  22.619  25.263  1.00  0.00    -0.237 OA
ATOM     69  O   UNL A   1      42.781  22.493  27.704  1.00  0.00    -0.237 OA
ATOM     70  O   UNL A   1      40.551  22.232  26.721  1.00  0.00    -0.744 OA
ENDBRANCH  64  67
ENDBRANCH  46  60
BRANCH  47  71
ATOM     71  C   UNL A   1      40.107  32.665  35.719  1.00  0.00     0.023 A 
ATOM     72  C   UNL A   1      39.017  31.850  36.131  1.00  0.00     0.012 A 
ATOM     73  C   UNL A   1      40.283  33.891  36.386  1.00  0.00     0.148 A 
ATOM     74  C   UNL A   1      38.209  32.180  37.221  1.00  0.00     0.002 A 
ATOM     75  C   UNL A   1      39.456  34.226  37.477  1.00  0.00     0.091 A 
ATOM     76  F   UNL A   1      41.316  34.672  36.058  1.00  0.00    -0.205 F 
ATOM     77  C   UNL A   1      38.433  33.363  37.906  1.00  0.00     0.022 A 
BRANCH  75  78
ATOM     78  S   UNL A   1      39.835  35.643  38.531  1.00  0.00     0.127 S 
ATOM     79  O   UNL A   1      41.192  35.332  38.971  1.00  0.00    -0.237 OA
ATOM     80  O   UNL A   1      39.732  36.776  37.608  1.00  0.00    -0.237 OA
ATOM     81  O   UNL A   1      38.784  35.601  39.533  1.00  0.00    -0.744 OA
ENDBRANCH  75  78
ENDBRANCH  47  71
BRANCH  59  82
ATOM     82  C   UNL A   1      43.647  26.377  34.227  1.00  0.00     0.023 A 
ATOM     83  C   UNL A   1      42.624  25.551  34.734  1.00  0.00     0.012 A 
ATOM     84  C   UNL A   1      44.978  25.915  34.391  1.00  0.00     0.148 A 
ATOM     85  C   UNL A   1      42.904  24.327  35.352  1.00  0.00     0.002 A 
ATOM     86  C   UNL A   1      45.260  24.750  35.100  1.00  0.00     0.091 A 
ATOM     87  F   UNL A   1      45.984  26.555  33.781  1.00  0.00    -0.205 F 
ATOM     88  C   UNL A   1      44.222  23.941  35.564  1.00  0.00     0.022 A 
BRANCH  86  89
ATOM     89  S   UNL A   1      46.940  24.259  35.519  1.00  0.00     0.127 S 
ATOM     90  O   UNL A   1      47.448  25.462  36.180  1.00  0.00    -0.237 OA
ATOM     91  O   UNL A   1      46.706  23.125  36.410  1.00  0.00    -0.237 OA
ATOM     92  O   UNL A   1      47.591  23.947  34.254  1.00  0.00    -0.744 OA
ENDBRANCH  86  89
ENDBRANCH  59  82
ENDBRANCH  33  34
ENDBRANCH  26  28
ENDBRANCH  25  26
ENDBRANCH  24  25
ENDBRANCH  23  24
ENDBRANCH  22  23
ENDBRANCH  21  22
ENDBRANCH   1  21
TORSDOF 23
ENDMDL
MODEL 2
REMARK VINA RESULT:      -9.2      2.004      2.668
REMARK SMILES Cc1ccc(C(=O)CC(C)(C)C(=O)OCCOCCOCCOC(=O)c2ccc(-c3c4nc(c(-c5cccc(S(=O)(=O)[O-])c5F)c5ccc([nH]5)c(-c5cccc(S(=O)(=O)[O-])c5F)c5nc(c(-c6cccc(S(=O)(=O)[O-])c6F)c6ccc3[nH]6)C=C5)C=C4)cc2)cc1
REMARK SMILES IDX 18 1 17 2 16 3 15 4 14 5 12 6 13 7 9 8 10 9 11 10 8 11 6 12
REMARK SMILES IDX 7 13 5 14 1 15 2 16 3 17 90 18 4 19 89 20 19 21 20 22 21 23
REMARK SMILES IDX 22 24 23 25 24 26 25 27 26 28 27 29 88 30 28 31 87 32 29 33
REMARK SMILES IDX 30 34 31 35 81 36 32 37 86 38 80 39 82 40 33 41 85 42 79 43
REMARK SMILES IDX 78 44 34 46 66 47 46 48 65 49 47 50 50 51 64 52 83 53 48 54
REMARK SMILES IDX 49 55 63 57 84 58 51 59 35 60 36 61 44 62 37 63 39 64 45 65
REMARK SMILES IDX 38 66 40 67 41 68 42 69 43 70 67 71 68 72 76 73 69 74 71 75
REMARK SMILES IDX 77 76 70 77 72 78 73 79 74 80 75 81 52 82 53 83 61 84 54 85
REMARK SMILES IDX 56 86 62 87 55 88 57 89 58 90 59 91 60 92
REMARK H PARENT 82 45 50 56
REMARK Flexibility Score: inf
ROOT
ATOM      1  C   UNL A   1      34.365  31.908  27.604  1.00  0.00     0.188 C 
ENDROOT
BRANCH   1   2
ATOM      2  O   UNL A   1      33.862  30.564  27.677  1.00  0.00    -0.376 OA
BRANCH   2   3
ATOM      3  C   UNL A   1      34.508  29.686  26.698  1.00  0.00     0.202 C 
BRANCH   3   4
ATOM      4  C   UNL A   1      33.674  28.351  26.436  1.00  0.00     0.261 C 
BRANCH   4   5
ATOM      5  O   UNL A   1      33.123  27.674  25.058  1.00  0.00    -0.463 OA
BRANCH   5   6
ATOM      6  C   UNL A   1      32.843  26.476  24.389  1.00  0.00     0.312 C 
ATOM      7  O   UNL A   1      33.409  25.971  23.432  1.00  0.00    -0.252 OA
BRANCH   6   8
ATOM      8  C   UNL A   1      31.583  25.768  24.781  1.00  0.00     0.070 C 
ATOM      9  C   UNL A   1      31.302  24.722  23.704  1.00  0.00     0.024 C 
ATOM     10  C   UNL A   1      30.493  26.835  24.837  1.00  0.00     0.024 C 
BRANCH   8  11
ATOM     11  C   UNL A   1      31.754  25.139  26.207  1.00  0.00     0.099 C 
BRANCH  11  12
ATOM     12  C   UNL A   1      31.454  23.702  26.706  1.00  0.00     0.163 C 
ATOM     13  O   UNL A   1      30.381  23.500  27.287  1.00  0.00    -0.294 OA
BRANCH  12  14
ATOM     14  C   UNL A   1      32.179  22.463  26.332  1.00  0.00     0.018 A 
ATOM     15  C   UNL A   1      34.566  19.203  24.782  1.00  0.00     0.044 C 
ATOM     16  C   UNL A   1      33.723  20.332  25.305  1.00  0.00    -0.051 A 
ATOM     17  C   UNL A   1      32.429  20.563  24.824  1.00  0.00     0.004 A 
ATOM     18  C   UNL A   1      34.250  21.201  26.266  1.00  0.00     0.004 A 
ATOM     19  C   UNL A   1      31.662  21.627  25.328  1.00  0.00     0.012 A 
ATOM     20  C   UNL A   1      33.494  22.272  26.758  1.00  0.00     0.012 A 
ENDBRANCH  12  14
ENDBRANCH  11  12
ENDBRANCH   8  11
ENDBRANCH   6   8
ENDBRANCH   5   6
ENDBRANCH   4   5
ENDBRANCH   3   4
ENDBRANCH   2   3
ENDBRANCH   1   2
BRANCH   1  21
ATOM     21  C   UNL A   1      33.319  32.983  27.921  1.00  0.00     0.188 C 
BRANCH  21  22
ATOM     22  O   UNL A   1      33.748  34.295  28.288  1.00  0.00    -0.376 OA
BRANCH  22  23
ATOM     23  C   UNL A   1      34.666  34.445  29.369  1.00  0.00     0.202 C 
BRANCH  23  24
ATOM     24  C   UNL A   1      34.120  34.422  30.812  1.00  0.00     0.261 C 
BRANCH  24  25
ATOM     25  O   UNL A   1      34.335  33.153  31.430  1.00  0.00    -0.460 OA
BRANCH  25  26
ATOM     26  C   UNL A   1      35.587  32.957  31.991  1.00  0.00     0.338 C 
ATOM     27  O   UNL A   1      36.324  33.793  32.382  1.00  0.00    -0.246 OA
BRANCH  26  28
ATOM     28  C   UNL A   1      35.864  31.518  31.680  1.00  0.00     0.060 A 
ATOM     29  C   UNL A   1      36.557  30.720  32.572  1.00  0.00     0.016 A 
ATOM     30  C   UNL A   1      35.865  31.111  30.378  1.00  0.00     0.016 A 
ATOM     31  C   UNL A   1      37.475  29.736  32.095  1.00  0.00     0.010 A 
ATOM     32  C   UNL A   1      36.932  30.283  29.971  1.00  0.00     0.010 A 
ATOM     33  C   UNL A   1      37.916  29.683  30.771  1.00  0.00    -0.014 A 
BRANCH  33  34
ATOM     34  C   UNL A   1      39.414  29.160  30.363  1.00  0.00     0.031 A 
ATOM     35  C   UNL A   1      40.066  27.765  29.666  1.00  0.00     0.074 A 
ATOM     36  C   UNL A   1      40.400  30.062  30.641  1.00  0.00     0.049 A 
ATOM     37  N   UNL A   1      41.311  27.359  29.879  1.00  0.00    -0.248 NA
ATOM     38  C   UNL A   1      39.482  26.742  28.757  1.00  0.00     0.031 C 
ATOM     39  C   UNL A   1      41.818  29.960  30.309  1.00  0.00     0.029 A 
ATOM     40  N   UNL A   1      40.396  31.136  31.537  1.00  0.00    -0.354 N 
ATOM     41  C   UNL A   1      41.590  26.279  29.035  1.00  0.00     0.074 A 
ATOM     42  C   UNL A   1      40.360  25.766  28.624  1.00  0.00     0.031 C 
ATOM     43  C   UNL A   1      42.514  30.529  31.302  1.00  0.00     0.029 A 
ATOM     44  C   UNL A   1      41.564  30.993  32.293  1.00  0.00     0.049 A 
ATOM     45  H   UNL A   1      39.716  31.843  31.618  1.00  0.00     0.167 HD
ATOM     46  C   UNL A   1      42.809  25.902  28.570  1.00  0.00     0.034 A 
ATOM     47  C   UNL A   1      41.551  30.741  33.636  1.00  0.00     0.034 A 
ATOM     48  C   UNL A   1      43.827  26.405  29.454  1.00  0.00     0.049 A 
ATOM     49  C   UNL A   1      42.306  29.462  33.995  1.00  0.00     0.074 A 
ATOM     50  C   UNL A   1      44.721  27.451  29.469  1.00  0.00     0.029 A 
ATOM     51  N   UNL A   1      43.745  25.944  30.750  1.00  0.00    -0.354 N 
ATOM     52  N   UNL A   1      43.130  28.828  33.198  1.00  0.00    -0.248 NA
ATOM     53  C   UNL A   1      42.127  28.749  35.263  1.00  0.00     0.031 C 
ATOM     54  C   UNL A   1      45.011  27.727  30.850  1.00  0.00     0.029 A 
ATOM     55  C   UNL A   1      44.344  26.804  31.641  1.00  0.00     0.049 A 
ATOM     56  H   UNL A   1      43.309  25.100  31.007  1.00  0.00     0.167 HD
ATOM     57  C   UNL A   1      43.421  27.593  33.730  1.00  0.00     0.074 A 
ATOM     58  C   UNL A   1      42.820  27.618  35.051  1.00  0.00     0.031 C 
ATOM     59  C   UNL A   1      44.062  26.587  33.055  1.00  0.00     0.034 A 
BRANCH  46  60
ATOM     60  C   UNL A   1      43.016  25.002  27.340  1.00  0.00     0.023 A 
ATOM     61  C   UNL A   1      41.891  24.379  26.768  1.00  0.00     0.012 A 
ATOM     62  C   UNL A   1      44.273  24.663  26.742  1.00  0.00     0.148 A 
ATOM     63  C   UNL A   1      41.998  23.508  25.667  1.00  0.00     0.002 A 
ATOM     64  C   UNL A   1      44.365  23.876  25.585  1.00  0.00     0.091 A 
ATOM     65  F   UNL A   1      45.421  25.010  27.342  1.00  0.00    -0.205 F 
ATOM     66  C   UNL A   1      43.226  23.279  25.054  1.00  0.00     0.022 A 
BRANCH  64  67
ATOM     67  S   UNL A   1      45.930  23.656  24.704  1.00  0.00     0.127 S 
ATOM     68  O   UNL A   1      45.508  22.982  23.479  1.00  0.00    -0.237 OA
ATOM     69  O   UNL A   1      46.394  25.031  24.509  1.00  0.00    -0.237 OA
ATOM     70  O   UNL A   1      46.770  22.871  25.604  1.00  0.00    -0.744 OA
ENDBRANCH  64  67
ENDBRANCH  46  60
BRANCH  47  71
ATOM     71  C   UNL A   1      40.426  31.413  34.390  1.00  0.00     0.023 A 
ATOM     72  C   UNL A   1      39.439  30.536  34.919  1.00  0.00     0.012 A 
ATOM     73  C   UNL A   1      40.406  32.747  34.834  1.00  0.00     0.148 A 
ATOM     74  C   UNL A   1      38.548  30.931  35.918  1.00  0.00     0.002 A 
ATOM     75  C   UNL A   1      39.495  33.145  35.833  1.00  0.00     0.091 A 
ATOM     76  F   UNL A   1      41.338  33.597  34.393  1.00  0.00    -0.205 F 
ATOM     77  C   UNL A   1      38.581  32.234  36.388  1.00  0.00     0.022 A 
BRANCH  75  78
ATOM     78  S   UNL A   1      39.634  34.761  36.628  1.00  0.00     0.127 S 
ATOM     79  O   UNL A   1      41.033  34.769  37.044  1.00  0.00    -0.237 OA
ATOM     80  O   UNL A   1      39.310  35.690  35.543  1.00  0.00    -0.237 OA
ATOM     81  O   UNL A   1      38.628  34.703  37.675  1.00  0.00    -0.744 OA
ENDBRANCH  75  78
ENDBRANCH  47  71
BRANCH  59  82
ATOM     82  C   UNL A   1      44.438  25.268  33.715  1.00  0.00     0.023 A 
ATOM     83  C   UNL A   1      43.509  24.210  33.717  1.00  0.00     0.012 A 
ATOM     84  C   UNL A   1      45.619  25.081  34.479  1.00  0.00     0.148 A 
ATOM     85  C   UNL A   1      43.745  23.024  34.422  1.00  0.00     0.002 A 
ATOM     86  C   UNL A   1      45.803  23.945  35.264  1.00  0.00     0.091 A 
ATOM     87  F   UNL A   1      46.621  25.963  34.382  1.00  0.00    -0.205 F 
ATOM     88  C   UNL A   1      44.875  22.903  35.220  1.00  0.00     0.022 A 
BRANCH  86  89
ATOM     89  S   UNL A   1      47.177  23.780  36.415  1.00  0.00     0.127 S 
ATOM     90  O   UNL A   1      48.311  24.201  35.591  1.00  0.00    -0.237 OA
ATOM     91  O   UNL A   1      46.800  24.723  37.466  1.00  0.00    -0.237 OA
ATOM     92  O   UNL A   1      47.203  22.377  36.803  1.00  0.00    -0.744 OA
ENDBRANCH  86  89
ENDBRANCH  59  82
ENDBRANCH  33  34
ENDBRANCH  26  28
ENDBRANCH  25  26
ENDBRANCH  24  25
ENDBRANCH  23  24
ENDBRANCH  22  23
ENDBRANCH  21  22
ENDBRANCH   1  21
TORSDOF 23
ENDMDL
MODEL 3
REMARK VINA RESULT:      -9.0      3.409     10.259
REMARK SMILES Cc1ccc(C(=O)CC(C)(C)C(=O)OCCOCCOCCOC(=O)c2ccc(-c3c4nc(c(-c5cccc(S(=O)(=O)[O-])c5F)c5ccc([nH]5)c(-c5cccc(S(=O)(=O)[O-])c5F)c5nc(c(-c6cccc(S(=O)(=O)[O-])c6F)c6ccc3[nH]6)C=C5)C=C4)cc2)cc1
REMARK SMILES IDX 18 1 17 2 16 3 15 4 14 5 12 6 13 7 9 8 10 9 11 10 8 11 6 12
REMARK SMILES IDX 7 13 5 14 1 15 2 16 3 17 90 18 4 19 89 20 19 21 20 22 21 23
REMARK SMILES IDX 22 24 23 25 24 26 25 27 26 28 27 29 88 30 28 31 87 32 29 33
REMARK SMILES IDX 30 34 31 35 81 36 32 37 86 38 80 39 82 40 33 41 85 42 79 43
REMARK SMILES IDX 78 44 34 46 66 47 46 48 65 49 47 50 50 51 64 52 83 53 48 54
REMARK SMILES IDX 49 55 63 57 84 58 51 59 35 60 36 61 44 62 37 63 39 64 45 65
REMARK SMILES IDX 38 66 40 67 41 68 42 69 43 70 67 71 68 72 76 73 69 74 71 75
REMARK SMILES IDX 77 76 70 77 72 78 73 79 74 80 75 81 52 82 53 83 61 84 54 85
REMARK SMILES IDX 56 86 62 87 55 88 57 89 58 90 59 91 60 92
REMARK H PARENT 82 45 50 56
REMARK Flexibility Score: inf
ROOT
ATOM      1  C   UNL A   1      46.401  26.934  24.627  1.00  0.00     0.188 C 
ENDROOT
BRANCH   1   2
ATOM      2  O   UNL A   1      45.383  26.770  25.627  1.00  0.00    -0.376 OA
BRANCH   2   3
ATOM      3  C   UNL A   1      45.813  25.868  26.700  1.00  0.00     0.202 C 
BRANCH   3   4
ATOM      4  C   UNL A   1      44.687  24.805  27.086  1.00  0.00     0.261 C 
BRANCH   4   5
ATOM      5  O   UNL A   1      43.181  24.994  27.682  1.00  0.00    -0.463 OA
BRANCH   5   6
ATOM      6  C   UNL A   1      41.982  24.355  28.020  1.00  0.00     0.312 C 
ATOM      7  O   UNL A   1      41.805  23.283  28.579  1.00  0.00    -0.252 OA
BRANCH   6   8
ATOM      8  C   UNL A   1      40.722  24.973  27.499  1.00  0.00     0.070 C 
ATOM      9  C   UNL A   1      41.030  25.514  26.104  1.00  0.00     0.024 C 
ATOM     10  C   UNL A   1      40.359  26.090  28.475  1.00  0.00     0.024 C 
BRANCH   8  11
ATOM     11  C   UNL A   1      39.574  23.906  27.496  1.00  0.00     0.099 C 
BRANCH  11  12
ATOM     12  C   UNL A   1      39.114  22.939  26.375  1.00  0.00     0.163 C 
ATOM     13  O   UNL A   1      39.892  22.044  26.023  1.00  0.00    -0.294 OA
BRANCH  12  14
ATOM     14  C   UNL A   1      37.736  22.779  25.851  1.00  0.00     0.018 A 
ATOM     15  C   UNL A   1      33.983  22.345  23.739  1.00  0.00     0.044 C 
ATOM     16  C   UNL A   1      35.285  22.517  24.469  1.00  0.00    -0.051 A 
ATOM     17  C   UNL A   1      35.757  23.782  24.838  1.00  0.00     0.004 A 
ATOM     18  C   UNL A   1      36.070  21.395  24.756  1.00  0.00     0.004 A 
ATOM     19  C   UNL A   1      36.979  23.916  25.518  1.00  0.00     0.012 A 
ATOM     20  C   UNL A   1      37.297  21.527  25.419  1.00  0.00     0.012 A 
ENDBRANCH  12  14
ENDBRANCH  11  12
ENDBRANCH   8  11
ENDBRANCH   6   8
ENDBRANCH   5   6
ENDBRANCH   4   5
ENDBRANCH   3   4
ENDBRANCH   2   3
ENDBRANCH   1   2
BRANCH   1  21
ATOM     21  C   UNL A   1      47.563  27.834  25.062  1.00  0.00     0.188 C 
BRANCH  21  22
ATOM     22  O   UNL A   1      47.300  28.984  25.867  1.00  0.00    -0.376 OA
BRANCH  22  23
ATOM     23  C   UNL A   1      48.178  29.283  26.951  1.00  0.00     0.202 C 
BRANCH  23  24
ATOM     24  C   UNL A   1      47.740  28.907  28.382  1.00  0.00     0.261 C 
BRANCH  24  25
ATOM     25  O   UNL A   1      46.665  29.733  28.831  1.00  0.00    -0.460 OA
BRANCH  25  26
ATOM     26  C   UNL A   1      47.029  30.899  29.486  1.00  0.00     0.338 C 
ATOM     27  O   UNL A   1      47.905  31.025  30.267  1.00  0.00    -0.246 OA
BRANCH  26  28
ATOM     28  C   UNL A   1      45.874  31.810  29.200  1.00  0.00     0.060 A 
ATOM     29  C   UNL A   1      45.357  32.630  30.186  1.00  0.00     0.016 A 
ATOM     30  C   UNL A   1      45.043  31.517  28.159  1.00  0.00     0.016 A 
ATOM     31  C   UNL A   1      43.950  32.867  30.260  1.00  0.00     0.010 A 
ATOM     32  C   UNL A   1      43.658  31.609  28.407  1.00  0.00     0.010 A 
ATOM     33  C   UNL A   1      43.013  32.123  29.542  1.00  0.00    -0.014 A 
BRANCH  33  34
ATOM     34  C   UNL A   1      41.509  31.817  30.113  1.00  0.00     0.031 A 
ATOM     35  C   UNL A   1      40.113  32.723  30.408  1.00  0.00     0.074 A 
ATOM     36  C   UNL A   1      41.304  30.506  30.433  1.00  0.00     0.049 A 
ATOM     37  N   UNL A   1      39.202  32.383  31.312  1.00  0.00    -0.248 NA
ATOM     38  C   UNL A   1      39.609  33.994  29.820  1.00  0.00     0.031 C 
ATOM     39  C   UNL A   1      40.057  29.879  30.862  1.00  0.00     0.029 A 
ATOM     40  N   UNL A   1      42.238  29.504  30.720  1.00  0.00    -0.354 N 
ATOM     41  C   UNL A   1      38.101  33.238  31.195  1.00  0.00     0.074 A 
ATOM     42  C   UNL A   1      38.544  34.366  30.504  1.00  0.00     0.031 C 
ATOM     43  C   UNL A   1      40.363  28.921  31.748  1.00  0.00     0.029 A 
ATOM     44  C   UNL A   1      41.802  28.923  31.915  1.00  0.00     0.049 A 
ATOM     45  H   UNL A   1      43.032  29.260  30.192  1.00  0.00     0.167 HD
ATOM     46  C   UNL A   1      36.815  32.962  31.535  1.00  0.00     0.034 A 
ATOM     47  C   UNL A   1      42.519  28.993  33.077  1.00  0.00     0.034 A 
ATOM     48  C   UNL A   1      36.803  31.903  32.508  1.00  0.00     0.049 A 
ATOM     49  C   UNL A   1      41.723  29.630  34.215  1.00  0.00     0.074 A 
ATOM     50  C   UNL A   1      36.561  30.548  32.519  1.00  0.00     0.029 A 
ATOM     51  N   UNL A   1      37.463  32.190  33.683  1.00  0.00    -0.354 N 
ATOM     52  N   UNL A   1      40.425  29.817  34.210  1.00  0.00    -0.248 NA
ATOM     53  C   UNL A   1      42.342  30.184  35.421  1.00  0.00     0.031 C 
ATOM     54  C   UNL A   1      37.278  30.009  33.643  1.00  0.00     0.029 A 
ATOM     55  C   UNL A   1      37.884  31.051  34.329  1.00  0.00     0.049 A 
ATOM     56  H   UNL A   1      37.615  33.102  34.020  1.00  0.00     0.167 HD
ATOM     57  C   UNL A   1      40.079  30.642  35.254  1.00  0.00     0.074 A 
ATOM     58  C   UNL A   1      41.304  30.793  36.018  1.00  0.00     0.031 C 
ATOM     59  C   UNL A   1      38.848  31.226  35.409  1.00  0.00     0.034 A 
BRANCH  46  60
ATOM     60  C   UNL A   1      35.603  33.746  31.007  1.00  0.00     0.023 A 
ATOM     61  C   UNL A   1      35.120  33.448  29.719  1.00  0.00     0.012 A 
ATOM     62  C   UNL A   1      34.939  34.827  31.673  1.00  0.00     0.148 A 
ATOM     63  C   UNL A   1      34.041  34.147  29.143  1.00  0.00     0.002 A 
ATOM     64  C   UNL A   1      33.803  35.452  31.140  1.00  0.00     0.091 A 
ATOM     65  F   UNL A   1      35.457  35.348  32.796  1.00  0.00    -0.205 F 
ATOM     66  C   UNL A   1      33.362  35.126  29.862  1.00  0.00     0.022 A 
BRANCH  64  67
ATOM     67  S   UNL A   1      32.835  36.645  32.095  1.00  0.00     0.127 S 
ATOM     68  O   UNL A   1      31.501  36.049  32.082  1.00  0.00    -0.237 OA
ATOM     69  O   UNL A   1      33.491  36.630  33.404  1.00  0.00    -0.237 OA
ATOM     70  O   UNL A   1      32.971  37.911  31.381  1.00  0.00    -0.744 OA
ENDBRANCH  64  67
ENDBRANCH  46  60
BRANCH  47  71
ATOM     71  C   UNL A   1      44.018  28.939  32.894  1.00  0.00     0.023 A 
ATOM     72  C   UNL A   1      44.680  30.197  32.917  1.00  0.00     0.012 A 
ATOM     73  C   UNL A   1      44.822  27.787  32.971  1.00  0.00     0.148 A 
ATOM     74  C   UNL A   1      46.057  30.313  33.118  1.00  0.00     0.002 A 
ATOM     75  C   UNL A   1      46.214  27.909  33.160  1.00  0.00     0.091 A 
ATOM     76  F   UNL A   1      44.241  26.584  32.991  1.00  0.00    -0.205 F 
ATOM     77  C   UNL A   1      46.827  29.170  33.252  1.00  0.00     0.022 A 
BRANCH  75  78
ATOM     78  S   UNL A   1      47.229  26.467  33.551  1.00  0.00     0.127 S 
ATOM     79  O   UNL A   1      46.593  25.978  34.770  1.00  0.00    -0.237 OA
ATOM     80  O   UNL A   1      47.049  25.610  32.377  1.00  0.00    -0.237 OA
ATOM     81  O   UNL A   1      48.565  27.026  33.675  1.00  0.00    -0.744 OA
ENDBRANCH  75  78
ENDBRANCH  47  71
BRANCH  59  82
ATOM     82  C   UNL A   1      38.486  32.063  36.627  1.00  0.00     0.023 A 
ATOM     83  C   UNL A   1      39.038  33.352  36.764  1.00  0.00     0.012 A 
ATOM     84  C   UNL A   1      37.745  31.566  37.730  1.00  0.00     0.148 A 
ATOM     85  C   UNL A   1      38.849  34.114  37.923  1.00  0.00     0.002 A 
ATOM     86  C   UNL A   1      37.648  32.282  38.920  1.00  0.00     0.091 A 
ATOM     87  F   UNL A   1      37.046  30.431  37.605  1.00  0.00    -0.205 F 
ATOM     88  C   UNL A   1      38.182  33.568  39.013  1.00  0.00     0.022 A 
BRANCH  86  89
ATOM     89  S   UNL A   1      36.912  31.585  40.408  1.00  0.00     0.127 S 
ATOM     90  O   UNL A   1      37.817  30.471  40.697  1.00  0.00    -0.237 OA
ATOM     91  O   UNL A   1      37.004  32.706  41.340  1.00  0.00    -0.237 OA
ATOM     92  O   UNL A   1      35.563  31.183  40.033  1.00  0.00    -0.744 OA
ENDBRANCH  86  89
ENDBRANCH  59  82
ENDBRANCH  33  34
ENDBRANCH  26  28
ENDBRANCH  25  26
ENDBRANCH  24  25
ENDBRANCH  23  24
ENDBRANCH  22  23
ENDBRANCH  21  22
ENDBRANCH   1  21
TORSDOF 23
ENDMDL
