MODEL 1
REMARK VINA RESULT:     -10.8      0.000      0.000
REMARK SMILES Cc1cc(C(=O)N[C@H]2C=C[C@H](C(=O)OCCOCCOCCOC(=O)c3ccc(-c4c5nc(c(-c6cccc(S(=O)(=O)[O-])c6F)c6ccc([nH]6)c(-c6cccc(S(=O)(=O)[O-])c6F)c6nc(c(-c7cccc(S(=O)(=O)[O-])c7F)c7ccc4[nH]7)C=C6)C=C5)cc3)C2)ccc1F
REMARK SMILES IDX 19 1 18 2 17 3 16 4 15 5 14 6 12 7 13 8 11 9 8 10 9 11 89 12
REMARK SMILES IDX 10 13 7 14 5 15 6 16 4 18 1 19 2 20 3 21 92 22 91 23 93 24
REMARK SMILES IDX 90 25 20 26 21 27 22 28 23 29 24 30 25 31 26 32 27 33 88 34
REMARK SMILES IDX 28 35 87 36 29 37 30 38 31 39 81 40 32 41 86 42 80 43 82 44
REMARK SMILES IDX 33 45 85 46 79 47 78 48 34 50 66 51 46 52 65 53 47 54 50 55
REMARK SMILES IDX 64 56 83 57 48 58 49 59 63 61 84 62 51 63 35 64 36 65 44 66
REMARK SMILES IDX 37 67 39 68 45 69 38 70 40 71 41 72 42 73 43 74 67 75 68 76
REMARK SMILES IDX 76 77 69 78 71 79 77 80 70 81 72 82 73 83 74 84 75 85 52 86
REMARK SMILES IDX 53 87 61 88 54 89 56 90 62 91 55 92 57 93 58 94 59 95 60 96
REMARK H PARENT 7 17 82 49 50 60
REMARK Flexibility Score: inf
ROOT
ATOM      1  C   UNL A   1      42.697  18.729  25.828  1.00  0.00     0.188 C 
ENDROOT
BRANCH   1   2
ATOM      2  C   UNL A   1      42.155  19.731  26.880  1.00  0.00     0.188 C 
BRANCH   2   3
ATOM      3  O   UNL A   1      40.749  19.880  27.074  1.00  0.00    -0.376 OA
BRANCH   3   4
ATOM      4  C   UNL A   1      39.984  20.359  25.968  1.00  0.00     0.202 C 
BRANCH   4   5
ATOM      5  C   UNL A   1      39.298  21.733  26.122  1.00  0.00     0.261 C 
BRANCH   5   6
ATOM      6  O   UNL A   1      37.859  21.661  26.067  1.00  0.00    -0.463 OA
BRANCH   6   7
ATOM      7  C   UNL A   1      37.228  22.470  25.178  1.00  0.00     0.312 C 
ATOM      8  O   UNL A   1      37.222  22.289  23.965  1.00  0.00    -0.252 OA
BRANCH   7   9
ATOM      9  C   UNL A   1      36.368  23.523  25.905  1.00  0.00     0.124 C 
ATOM     10  C   UNL A   1      34.154  22.768  25.379  1.00  0.00     0.106 C 
ATOM     11  C   UNL A   1      34.402  24.110  24.760  1.00  0.00    -0.006 C 
ATOM     12  C   UNL A   1      35.153  22.821  26.537  1.00  0.00     0.048 C 
ATOM     13  C   UNL A   1      35.665  24.494  25.001  1.00  0.00    -0.014 C 
BRANCH  10  14
ATOM     14  N   UNL A   1      32.790  22.565  25.765  1.00  0.00    -0.346 N 
ATOM     15  C   UNL A   1      31.924  21.537  25.466  1.00  0.00     0.251 C 
ATOM     16  O   UNL A   1      30.741  21.706  25.771  1.00  0.00    -0.269 OA
ATOM     17  H   UNL A   1      32.411  23.274  26.334  1.00  0.00     0.164 HD
BRANCH  15  18
ATOM     18  C   UNL A   1      32.325  20.219  24.856  1.00  0.00     0.040 A 
ATOM     19  C   UNL A   1      33.238  16.596  25.662  1.00  0.00     0.047 C 
ATOM     20  C   UNL A   1      32.970  17.849  24.881  1.00  0.00    -0.015 A 
ATOM     21  C   UNL A   1      32.740  19.070  25.544  1.00  0.00     0.020 A 
ATOM     22  C   UNL A   1      32.855  17.807  23.495  1.00  0.00     0.126 A 
ATOM     23  C   UNL A   1      32.520  18.944  22.775  1.00  0.00     0.040 A 
ATOM     24  F   UNL A   1      33.070  16.658  22.839  1.00  0.00    -0.207 F 
ATOM     25  C   UNL A   1      32.247  20.138  23.452  1.00  0.00     0.017 A 
ENDBRANCH  15  18
ENDBRANCH  10  14
ENDBRANCH   7   9
ENDBRANCH   6   7
ENDBRANCH   5   6
ENDBRANCH   4   5
ENDBRANCH   3   4
ENDBRANCH   2   3
ENDBRANCH   1   2
BRANCH   1  26
ATOM     26  O   UNL A   1      43.194  19.356  24.652  1.00  0.00    -0.376 OA
BRANCH  26  27
ATOM     27  C   UNL A   1      44.567  19.085  24.368  1.00  0.00     0.202 C 
BRANCH  27  28
ATOM     28  C   UNL A   1      45.546  20.256  24.562  1.00  0.00     0.261 C 
BRANCH  28  29
ATOM     29  O   UNL A   1      45.393  20.927  25.814  1.00  0.00    -0.460 OA
BRANCH  29  30
ATOM     30  C   UNL A   1      45.508  22.263  25.700  1.00  0.00     0.338 C 
ATOM     31  O   UNL A   1      46.503  22.952  25.803  1.00  0.00    -0.246 OA
BRANCH  30  32
ATOM     32  C   UNL A   1      44.212  22.854  25.333  1.00  0.00     0.060 A 
ATOM     33  C   UNL A   1      44.361  24.101  24.684  1.00  0.00     0.016 A 
ATOM     34  C   UNL A   1      43.277  22.639  26.335  1.00  0.00     0.016 A 
ATOM     35  C   UNL A   1      43.916  25.228  25.329  1.00  0.00     0.010 A 
ATOM     36  C   UNL A   1      42.875  23.762  27.007  1.00  0.00     0.010 A 
ATOM     37  C   UNL A   1      43.321  25.019  26.559  1.00  0.00    -0.014 A 
BRANCH  37  38
ATOM     38  C   UNL A   1      43.273  26.056  27.553  1.00  0.00     0.031 A 
ATOM     39  C   UNL A   1      42.322  27.146  27.333  1.00  0.00     0.074 A 
ATOM     40  C   UNL A   1      43.970  25.872  28.695  1.00  0.00     0.049 A 
ATOM     41  N   UNL A   1      42.322  28.258  27.974  1.00  0.00    -0.248 NA
ATOM     42  C   UNL A   1      41.328  27.100  26.256  1.00  0.00     0.031 C 
ATOM     43  C   UNL A   1      43.729  26.518  29.976  1.00  0.00     0.029 A 
ATOM     44  N   UNL A   1      45.150  25.158  28.912  1.00  0.00    -0.354 N 
ATOM     45  C   UNL A   1      41.108  28.845  27.712  1.00  0.00     0.074 A 
ATOM     46  C   UNL A   1      40.653  28.225  26.494  1.00  0.00     0.031 C 
ATOM     47  C   UNL A   1      44.841  26.409  30.727  1.00  0.00     0.029 A 
ATOM     48  C   UNL A   1      45.884  25.899  29.853  1.00  0.00     0.049 A 
ATOM     49  H   UNL A   1      45.413  24.306  28.492  1.00  0.00     0.167 HD
ATOM     50  C   UNL A   1      40.542  29.614  28.685  1.00  0.00     0.034 A 
ATOM     51  C   UNL A   1      47.026  26.591  29.541  1.00  0.00     0.034 A 
ATOM     52  C   UNL A   1      41.494  29.853  29.774  1.00  0.00     0.049 A 
ATOM     53  C   UNL A   1      46.894  28.100  29.759  1.00  0.00     0.074 A 
ATOM     54  C   UNL A   1      41.615  29.393  31.075  1.00  0.00     0.029 A 
ATOM     55  N   UNL A   1      42.711  30.442  29.470  1.00  0.00    -0.354 N 
ATOM     56  N   UNL A   1      45.755  28.706  29.961  1.00  0.00    -0.248 NA
ATOM     57  C   UNL A   1      48.004  29.049  29.659  1.00  0.00     0.031 C 
ATOM     58  C   UNL A   1      42.934  29.694  31.532  1.00  0.00     0.029 A 
ATOM     59  C   UNL A   1      43.602  30.358  30.519  1.00  0.00     0.049 A 
ATOM     60  H   UNL A   1      42.916  30.870  28.607  1.00  0.00     0.167 HD
ATOM     61  C   UNL A   1      45.953  30.053  30.079  1.00  0.00     0.074 A 
ATOM     62  C   UNL A   1      47.373  30.226  29.829  1.00  0.00     0.031 C 
ATOM     63  C   UNL A   1      44.934  30.920  30.352  1.00  0.00     0.034 A 
BRANCH  50  64
ATOM     64  C   UNL A   1      39.053  29.912  28.772  1.00  0.00     0.023 A 
ATOM     65  C   UNL A   1      38.052  29.036  28.286  1.00  0.00     0.012 A 
ATOM     66  C   UNL A   1      38.577  31.061  29.439  1.00  0.00     0.148 A 
ATOM     67  C   UNL A   1      36.682  29.245  28.483  1.00  0.00     0.002 A 
ATOM     68  C   UNL A   1      37.209  31.259  29.655  1.00  0.00     0.091 A 
ATOM     69  F   UNL A   1      39.439  31.981  29.887  1.00  0.00    -0.205 F 
ATOM     70  C   UNL A   1      36.258  30.354  29.184  1.00  0.00     0.022 A 
BRANCH  68  71
ATOM     71  S   UNL A   1      36.671  32.687  30.598  1.00  0.00     0.127 S 
ATOM     72  O   UNL A   1      37.323  32.484  31.887  1.00  0.00    -0.237 OA
ATOM     73  O   UNL A   1      37.131  33.809  29.788  1.00  0.00    -0.237 OA
ATOM     74  O   UNL A   1      35.214  32.532  30.633  1.00  0.00    -0.744 OA
ENDBRANCH  68  71
ENDBRANCH  50  64
BRANCH  51  75
ATOM     75  C   UNL A   1      47.839  25.984  28.450  1.00  0.00     0.023 A 
ATOM     76  C   UNL A   1      49.033  25.309  28.757  1.00  0.00     0.012 A 
ATOM     77  C   UNL A   1      47.608  26.395  27.118  1.00  0.00     0.148 A 
ATOM     78  C   UNL A   1      50.025  25.148  27.783  1.00  0.00     0.002 A 
ATOM     79  C   UNL A   1      48.614  26.270  26.166  1.00  0.00     0.091 A 
ATOM     80  F   UNL A   1      46.434  26.971  26.813  1.00  0.00    -0.205 F 
ATOM     81  C   UNL A   1      49.833  25.665  26.503  1.00  0.00     0.022 A 
BRANCH  79  82
ATOM     82  S   UNL A   1      48.421  27.022  24.545  1.00  0.00     0.127 S 
ATOM     83  O   UNL A   1      48.028  28.389  24.873  1.00  0.00    -0.237 OA
ATOM     84  O   UNL A   1      49.720  26.868  23.903  1.00  0.00    -0.237 OA
ATOM     85  O   UNL A   1      47.351  26.225  23.942  1.00  0.00    -0.744 OA
ENDBRANCH  79  82
ENDBRANCH  51  75
BRANCH  63  86
ATOM     86  C   UNL A   1      45.105  32.412  30.425  1.00  0.00     0.023 A 
ATOM     87  C   UNL A   1      45.587  32.994  31.623  1.00  0.00     0.012 A 
ATOM     88  C   UNL A   1      44.872  33.273  29.346  1.00  0.00     0.148 A 
ATOM     89  C   UNL A   1      45.773  34.369  31.762  1.00  0.00     0.002 A 
ATOM     90  C   UNL A   1      44.994  34.653  29.507  1.00  0.00     0.091 A 
ATOM     91  F   UNL A   1      44.556  32.764  28.145  1.00  0.00    -0.205 F 
ATOM     92  C   UNL A   1      45.451  35.207  30.707  1.00  0.00     0.022 A 
BRANCH  90  93
ATOM     93  S   UNL A   1      44.433  35.725  28.187  1.00  0.00     0.127 S 
ATOM     94  O   UNL A   1      43.109  35.205  27.868  1.00  0.00    -0.237 OA
ATOM     95  O   UNL A   1      44.484  37.045  28.810  1.00  0.00    -0.237 OA
ATOM     96  O   UNL A   1      45.433  35.523  27.137  1.00  0.00    -0.744 OA
ENDBRANCH  90  93
ENDBRANCH  63  86
ENDBRANCH  37  38
ENDBRANCH  30  32
ENDBRANCH  29  30
ENDBRANCH  28  29
ENDBRANCH  27  28
ENDBRANCH  26  27
ENDBRANCH   1  26
TORSDOF 22
ENDMDL
MODEL 2
REMARK VINA RESULT:     -10.7      3.310      5.476
REMARK SMILES Cc1cc(C(=O)N[C@H]2C=C[C@H](C(=O)OCCOCCOCCOC(=O)c3ccc(-c4c5nc(c(-c6cccc(S(=O)(=O)[O-])c6F)c6ccc([nH]6)c(-c6cccc(S(=O)(=O)[O-])c6F)c6nc(c(-c7cccc(S(=O)(=O)[O-])c7F)c7ccc4[nH]7)C=C6)C=C5)cc3)C2)ccc1F
REMARK SMILES IDX 19 1 18 2 17 3 16 4 15 5 14 6 12 7 13 8 11 9 8 10 9 11 89 12
REMARK SMILES IDX 10 13 7 14 5 15 6 16 4 18 1 19 2 20 3 21 92 22 91 23 93 24
REMARK SMILES IDX 90 25 20 26 21 27 22 28 23 29 24 30 25 31 26 32 27 33 88 34
REMARK SMILES IDX 28 35 87 36 29 37 30 38 31 39 81 40 32 41 86 42 80 43 82 44
REMARK SMILES IDX 33 45 85 46 79 47 78 48 34 50 66 51 46 52 65 53 47 54 50 55
REMARK SMILES IDX 64 56 83 57 48 58 49 59 63 61 84 62 51 63 35 64 36 65 44 66
REMARK SMILES IDX 37 67 39 68 45 69 38 70 40 71 41 72 42 73 43 74 67 75 68 76
REMARK SMILES IDX 76 77 69 78 71 79 77 80 70 81 72 82 73 83 74 84 75 85 52 86
REMARK SMILES IDX 53 87 61 88 54 89 56 90 62 91 55 92 57 93 58 94 59 95 60 96
REMARK H PARENT 7 17 82 49 50 60
REMARK Flexibility Score: inf
ROOT
ATOM      1  C   UNL A   1      39.321  20.440  25.701  1.00  0.00     0.188 C 
ENDROOT
BRANCH   1   2
ATOM      2  C   UNL A   1      38.170  21.411  25.329  1.00  0.00     0.188 C 
BRANCH   2   3
ATOM      3  O   UNL A   1      37.142  20.996  24.431  1.00  0.00    -0.376 OA
BRANCH   3   4
ATOM      4  C   UNL A   1      36.153  20.101  24.940  1.00  0.00     0.202 C 
BRANCH   4   5
ATOM      5  C   UNL A   1      34.697  20.611  24.998  1.00  0.00     0.261 C 
BRANCH   5   6
ATOM      6  O   UNL A   1      34.514  21.710  25.914  1.00  0.00    -0.463 OA
BRANCH   6   7
ATOM      7  C   UNL A   1      33.292  22.299  25.944  1.00  0.00     0.312 C 
ATOM      8  O   UNL A   1      32.239  21.694  26.109  1.00  0.00    -0.252 OA
BRANCH   7   9
ATOM      9  C   UNL A   1      33.421  23.835  25.941  1.00  0.00     0.124 C 
ATOM     10  C   UNL A   1      32.786  24.357  23.688  1.00  0.00     0.106 C 
ATOM     11  C   UNL A   1      34.220  24.724  23.918  1.00  0.00    -0.006 C 
ATOM     12  C   UNL A   1      32.261  24.429  25.123  1.00  0.00     0.048 C 
ATOM     13  C   UNL A   1      34.587  24.367  25.158  1.00  0.00    -0.014 C 
BRANCH  10  14
ATOM     14  N   UNL A   1      32.123  25.217  22.755  1.00  0.00    -0.346 N 
ATOM     15  C   UNL A   1      31.746  26.536  22.875  1.00  0.00     0.251 C 
ATOM     16  O   UNL A   1      31.015  26.984  21.987  1.00  0.00    -0.269 OA
ATOM     17  H   UNL A   1      31.900  24.799  21.892  1.00  0.00     0.164 HD
BRANCH  15  18
ATOM     18  C   UNL A   1      32.205  27.471  23.964  1.00  0.00     0.040 A 
ATOM     19  C   UNL A   1      31.540  28.587  27.558  1.00  0.00     0.047 C 
ATOM     20  C   UNL A   1      32.155  28.503  26.191  1.00  0.00    -0.015 A 
ATOM     21  C   UNL A   1      31.570  27.702  25.192  1.00  0.00     0.020 A 
ATOM     22  C   UNL A   1      33.360  29.143  25.918  1.00  0.00     0.126 A 
ATOM     23  C   UNL A   1      33.978  28.998  24.685  1.00  0.00     0.040 A 
ATOM     24  F   UNL A   1      33.937  29.914  26.851  1.00  0.00    -0.207 F 
ATOM     25  C   UNL A   1      33.409  28.159  23.720  1.00  0.00     0.017 A 
ENDBRANCH  15  18
ENDBRANCH  10  14
ENDBRANCH   7   9
ENDBRANCH   6   7
ENDBRANCH   5   6
ENDBRANCH   4   5
ENDBRANCH   3   4
ENDBRANCH   2   3
ENDBRANCH   1   2
BRANCH   1  26
ATOM     26  O   UNL A   1      40.544  21.102  25.997  1.00  0.00    -0.376 OA
BRANCH  26  27
ATOM     27  C   UNL A   1      40.886  21.129  27.384  1.00  0.00     0.202 C 
BRANCH  27  28
ATOM     28  C   UNL A   1      41.812  22.271  27.834  1.00  0.00     0.261 C 
BRANCH  28  29
ATOM     29  O   UNL A   1      41.548  23.513  27.180  1.00  0.00    -0.460 OA
BRANCH  29  30
ATOM     30  C   UNL A   1      41.346  24.522  28.047  1.00  0.00     0.338 C 
ATOM     31  O   UNL A   1      42.079  24.926  28.927  1.00  0.00    -0.246 OA
BRANCH  30  32
ATOM     32  C   UNL A   1      40.071  25.195  27.754  1.00  0.00     0.060 A 
ATOM     33  C   UNL A   1      40.203  26.160  26.730  1.00  0.00     0.016 A 
ATOM     34  C   UNL A   1      39.369  25.438  28.925  1.00  0.00     0.016 A 
ATOM     35  C   UNL A   1      40.038  27.482  27.056  1.00  0.00     0.010 A 
ATOM     36  C   UNL A   1      39.250  26.757  29.270  1.00  0.00     0.010 A 
ATOM     37  C   UNL A   1      39.716  27.739  28.376  1.00  0.00    -0.014 A 
BRANCH  37  38
ATOM     38  C   UNL A   1      40.004  29.009  28.983  1.00  0.00     0.031 A 
ATOM     39  C   UNL A   1      39.008  30.068  28.817  1.00  0.00     0.074 A 
ATOM     40  C   UNL A   1      41.073  29.091  29.804  1.00  0.00     0.049 A 
ATOM     41  N   UNL A   1      39.210  31.310  29.072  1.00  0.00    -0.248 NA
ATOM     42  C   UNL A   1      37.693  29.807  28.226  1.00  0.00     0.031 C 
ATOM     43  C   UNL A   1      41.298  30.080  30.847  1.00  0.00     0.029 A 
ATOM     44  N   UNL A   1      42.271  28.373  29.779  1.00  0.00    -0.354 N 
ATOM     45  C   UNL A   1      37.969  31.896  29.105  1.00  0.00     0.074 A 
ATOM     46  C   UNL A   1      37.119  31.004  28.359  1.00  0.00     0.031 C 
ATOM     47  C   UNL A   1      42.609  30.094  31.150  1.00  0.00     0.029 A 
ATOM     48  C   UNL A   1      43.276  29.284  30.145  1.00  0.00     0.049 A 
ATOM     49  H   UNL A   1      42.387  27.421  29.553  1.00  0.00     0.167 HD
ATOM     50  C   UNL A   1      37.774  32.944  29.955  1.00  0.00     0.034 A 
ATOM     51  C   UNL A   1      44.207  29.772  29.264  1.00  0.00     0.034 A 
ATOM     52  C   UNL A   1      39.050  33.397  30.517  1.00  0.00     0.049 A 
ATOM     53  C   UNL A   1      44.121  31.289  29.077  1.00  0.00     0.074 A 
ATOM     54  C   UNL A   1      39.649  33.303  31.763  1.00  0.00     0.029 A 
ATOM     55  N   UNL A   1      40.057  33.783  29.646  1.00  0.00    -0.354 N 
ATOM     56  N   UNL A   1      43.117  32.015  29.491  1.00  0.00    -0.248 NA
ATOM     57  C   UNL A   1      45.091  32.084  28.324  1.00  0.00     0.031 C 
ATOM     58  C   UNL A   1      41.035  33.613  31.615  1.00  0.00     0.029 A 
ATOM     59  C   UNL A   1      41.270  33.920  30.287  1.00  0.00     0.049 A 
ATOM     60  H   UNL A   1      39.921  33.941  28.683  1.00  0.00     0.167 HD
ATOM     61  C   UNL A   1      43.307  33.322  29.143  1.00  0.00     0.074 A 
ATOM     62  C   UNL A   1      44.533  33.308  28.366  1.00  0.00     0.031 C 
ATOM     63  C   UNL A   1      42.434  34.308  29.503  1.00  0.00     0.034 A 
BRANCH  50  64
ATOM     64  C   UNL A   1      36.411  33.370  30.478  1.00  0.00     0.023 A 
ATOM     65  C   UNL A   1      35.987  33.165  31.813  1.00  0.00     0.012 A 
ATOM     66  C   UNL A   1      35.511  34.092  29.665  1.00  0.00     0.148 A 
ATOM     67  C   UNL A   1      34.791  33.673  32.330  1.00  0.00     0.002 A 
ATOM     68  C   UNL A   1      34.325  34.618  30.186  1.00  0.00     0.091 A 
ATOM     69  F   UNL A   1      35.790  34.292  28.371  1.00  0.00    -0.205 F 
ATOM     70  C   UNL A   1      33.961  34.417  31.517  1.00  0.00     0.022 A 
BRANCH  68  71
ATOM     71  S   UNL A   1      33.271  35.613  29.129  1.00  0.00     0.127 S 
ATOM     72  O   UNL A   1      32.425  34.613  28.487  1.00  0.00    -0.237 OA
ATOM     73  O   UNL A   1      32.628  36.525  30.069  1.00  0.00    -0.237 OA
ATOM     74  O   UNL A   1      34.224  36.262  28.226  1.00  0.00    -0.744 OA
ENDBRANCH  68  71
ENDBRANCH  50  64
BRANCH  51  75
ATOM     75  C   UNL A   1      44.584  28.828  28.175  1.00  0.00     0.023 A 
ATOM     76  C   UNL A   1      43.897  28.861  26.948  1.00  0.00     0.012 A 
ATOM     77  C   UNL A   1      45.358  27.691  28.496  1.00  0.00     0.148 A 
ATOM     78  C   UNL A   1      43.889  27.739  26.113  1.00  0.00     0.002 A 
ATOM     79  C   UNL A   1      45.311  26.564  27.682  1.00  0.00     0.091 A 
ATOM     80  F   UNL A   1      46.074  27.694  29.632  1.00  0.00    -0.205 F 
ATOM     81  C   UNL A   1      44.559  26.579  26.499  1.00  0.00     0.022 A 
BRANCH  79  82
ATOM     82  S   UNL A   1      46.083  25.031  28.217  1.00  0.00     0.127 S 
ATOM     83  O   UNL A   1      45.475  24.808  29.525  1.00  0.00    -0.237 OA
ATOM     84  O   UNL A   1      45.748  24.061  27.182  1.00  0.00    -0.237 OA
ATOM     85  O   UNL A   1      47.503  25.385  28.274  1.00  0.00    -0.744 OA
ENDBRANCH  79  82
ENDBRANCH  51  75
BRANCH  63  86
ATOM     86  C   UNL A   1      42.578  35.745  29.085  1.00  0.00     0.023 A 
ATOM     87  C   UNL A   1      42.027  36.163  27.848  1.00  0.00     0.012 A 
ATOM     88  C   UNL A   1      43.178  36.728  29.881  1.00  0.00     0.148 A 
ATOM     89  C   UNL A   1      42.120  37.479  27.397  1.00  0.00     0.002 A 
ATOM     90  C   UNL A   1      43.329  38.028  29.399  1.00  0.00     0.091 A 
ATOM     91  F   UNL A   1      43.585  36.421  31.122  1.00  0.00    -0.205 F 
ATOM     92  C   UNL A   1      42.796  38.413  28.164  1.00  0.00     0.022 A 
BRANCH  90  93
ATOM     93  S   UNL A   1      44.333  39.179  30.335  1.00  0.00     0.127 S 
ATOM     94  O   UNL A   1      43.654  39.250  31.623  1.00  0.00    -0.237 OA
ATOM     95  O   UNL A   1      45.644  38.535  30.323  1.00  0.00    -0.237 OA
ATOM     96  O   UNL A   1      44.266  40.409  29.545  1.00  0.00    -0.744 OA
ENDBRANCH  90  93
ENDBRANCH  63  86
ENDBRANCH  37  38
ENDBRANCH  30  32
ENDBRANCH  29  30
ENDBRANCH  28  29
ENDBRANCH  27  28
ENDBRANCH  26  27
ENDBRANCH   1  26
TORSDOF 22
ENDMDL
MODEL 3
REMARK VINA RESULT:     -10.5      4.509     10.425
REMARK SMILES Cc1cc(C(=O)N[C@H]2C=C[C@H](C(=O)OCCOCCOCCOC(=O)c3ccc(-c4c5nc(c(-c6cccc(S(=O)(=O)[O-])c6F)c6ccc([nH]6)c(-c6cccc(S(=O)(=O)[O-])c6F)c6nc(c(-c7cccc(S(=O)(=O)[O-])c7F)c7ccc4[nH]7)C=C6)C=C5)cc3)C2)ccc1F
REMARK SMILES IDX 19 1 18 2 17 3 16 4 15 5 14 6 12 7 13 8 11 9 8 10 9 11 89 12
REMARK SMILES IDX 10 13 7 14 5 15 6 16 4 18 1 19 2 20 3 21 92 22 91 23 93 24
REMARK SMILES IDX 90 25 20 26 21 27 22 28 23 29 24 30 25 31 26 32 27 33 88 34
REMARK SMILES IDX 28 35 87 36 29 37 30 38 31 39 81 40 32 41 86 42 80 43 82 44
REMARK SMILES IDX 33 45 85 46 79 47 78 48 34 50 66 51 46 52 65 53 47 54 50 55
REMARK SMILES IDX 64 56 83 57 48 58 49 59 63 61 84 62 51 63 35 64 36 65 44 66
REMARK SMILES IDX 37 67 39 68 45 69 38 70 40 71 41 72 42 73 43 74 67 75 68 76
REMARK SMILES IDX 76 77 69 78 71 79 77 80 70 81 72 82 73 83 74 84 75 85 52 86
REMARK SMILES IDX 53 87 61 88 54 89 56 90 62 91 55 92 57 93 58 94 59 95 60 96
REMARK H PARENT 7 17 82 49 50 60
REMARK Flexibility Score: inf
ROOT
ATOM      1  C   UNL A   1      31.621  32.408  27.075  1.00  0.00     0.188 C 
ENDROOT
BRANCH   1   2
ATOM      2  C   UNL A   1      32.664  31.261  27.052  1.00  0.00     0.188 C 
BRANCH   2   3
ATOM      3  O   UNL A   1      32.243  29.904  27.178  1.00  0.00    -0.376 OA
BRANCH   3   4
ATOM      4  C   UNL A   1      33.244  28.894  27.044  1.00  0.00     0.202 C 
BRANCH   4   5
ATOM      5  C   UNL A   1      32.876  27.635  26.231  1.00  0.00     0.261 C 
BRANCH   5   6
ATOM      6  O   UNL A   1      31.470  27.543  25.928  1.00  0.00    -0.463 OA
BRANCH   6   7
ATOM      7  C   UNL A   1      30.915  26.304  25.911  1.00  0.00     0.312 C 
ATOM      8  O   UNL A   1      30.953  25.519  26.852  1.00  0.00    -0.252 OA
BRANCH   7   9
ATOM      9  C   UNL A   1      30.072  26.095  24.637  1.00  0.00     0.124 C 
ATOM     10  C   UNL A   1      31.752  25.417  23.066  1.00  0.00     0.106 C 
ATOM     11  C   UNL A   1      31.161  26.730  22.654  1.00  0.00    -0.006 C 
ATOM     12  C   UNL A   1      30.595  24.854  23.894  1.00  0.00     0.048 C 
ATOM     13  C   UNL A   1      30.271  27.136  23.574  1.00  0.00    -0.014 C 
BRANCH  10  14
ATOM     14  N   UNL A   1      32.157  24.605  21.958  1.00  0.00    -0.346 N 
ATOM     15  C   UNL A   1      33.174  23.683  21.856  1.00  0.00     0.251 C 
ATOM     16  O   UNL A   1      33.426  23.262  20.724  1.00  0.00    -0.269 OA
ATOM     17  H   UNL A   1      31.624  24.726  21.140  1.00  0.00     0.164 HD
BRANCH  15  18
ATOM     18  C   UNL A   1      33.948  23.117  23.019  1.00  0.00     0.040 A 
ATOM     19  C   UNL A   1      36.967  23.692  25.291  1.00  0.00     0.047 C 
ATOM     20  C   UNL A   1      35.749  23.056  24.687  1.00  0.00    -0.015 A 
ATOM     21  C   UNL A   1      35.174  23.581  23.513  1.00  0.00     0.020 A 
ATOM     22  C   UNL A   1      35.115  21.995  25.327  1.00  0.00     0.126 A 
ATOM     23  C   UNL A   1      33.939  21.460  24.822  1.00  0.00     0.040 A 
ATOM     24  F   UNL A   1      35.641  21.475  26.445  1.00  0.00    -0.207 F 
ATOM     25  C   UNL A   1      33.355  22.025  23.682  1.00  0.00     0.017 A 
ENDBRANCH  15  18
ENDBRANCH  10  14
ENDBRANCH   7   9
ENDBRANCH   6   7
ENDBRANCH   5   6
ENDBRANCH   4   5
ENDBRANCH   3   4
ENDBRANCH   2   3
ENDBRANCH   1   2
BRANCH   1  26
ATOM     26  O   UNL A   1      32.176  33.669  27.430  1.00  0.00    -0.376 OA
BRANCH  26  27
ATOM     27  C   UNL A   1      33.540  33.622  27.850  1.00  0.00     0.202 C 
BRANCH  27  28
ATOM     28  C   UNL A   1      33.834  34.134  29.270  1.00  0.00     0.261 C 
BRANCH  28  29
ATOM     29  O   UNL A   1      34.221  33.104  30.181  1.00  0.00    -0.460 OA
BRANCH  29  30
ATOM     30  C   UNL A   1      35.430  32.589  29.895  1.00  0.00     0.338 C 
ATOM     31  O   UNL A   1      35.699  31.521  29.383  1.00  0.00    -0.246 OA
BRANCH  30  32
ATOM     32  C   UNL A   1      36.485  33.561  30.219  1.00  0.00     0.060 A 
ATOM     33  C   UNL A   1      37.428  33.693  29.174  1.00  0.00     0.016 A 
ATOM     34  C   UNL A   1      36.857  33.449  31.552  1.00  0.00     0.016 A 
ATOM     35  C   UNL A   1      38.711  33.261  29.396  1.00  0.00     0.010 A 
ATOM     36  C   UNL A   1      38.121  32.971  31.766  1.00  0.00     0.010 A 
ATOM     37  C   UNL A   1      38.966  32.762  30.660  1.00  0.00    -0.014 A 
BRANCH  37  38
ATOM     38  C   UNL A   1      40.040  31.837  30.897  1.00  0.00     0.031 A 
ATOM     39  C   UNL A   1      39.878  30.480  30.373  1.00  0.00     0.074 A 
ATOM     40  C   UNL A   1      41.187  32.318  31.423  1.00  0.00     0.049 A 
ATOM     41  N   UNL A   1      40.608  29.477  30.701  1.00  0.00    -0.248 NA
ATOM     42  C   UNL A   1      38.767  30.120  29.488  1.00  0.00     0.031 C 
ATOM     43  C   UNL A   1      42.508  31.716  31.331  1.00  0.00     0.029 A 
ATOM     44  N   UNL A   1      41.385  33.398  32.286  1.00  0.00    -0.354 N 
ATOM     45  C   UNL A   1      40.353  28.503  29.767  1.00  0.00     0.074 A 
ATOM     46  C   UNL A   1      39.072  28.853  29.208  1.00  0.00     0.031 C 
ATOM     47  C   UNL A   1      43.285  32.239  32.297  1.00  0.00     0.029 A 
ATOM     48  C   UNL A   1      42.410  33.008  33.165  1.00  0.00     0.049 A 
ATOM     49  H   UNL A   1      40.906  34.259  32.279  1.00  0.00     0.167 HD
ATOM     50  C   UNL A   1      41.366  27.656  29.428  1.00  0.00     0.034 A 
ATOM     51  C   UNL A   1      42.196  32.718  34.488  1.00  0.00     0.034 A 
ATOM     52  C   UNL A   1      42.503  27.821  30.338  1.00  0.00     0.049 A 
ATOM     53  C   UNL A   1      42.533  31.269  34.848  1.00  0.00     0.074 A 
ATOM     54  C   UNL A   1      43.766  28.380  30.221  1.00  0.00     0.029 A 
ATOM     55  N   UNL A   1      42.292  27.652  31.697  1.00  0.00    -0.354 N 
ATOM     56  N   UNL A   1      42.745  30.332  33.962  1.00  0.00    -0.248 NA
ATOM     57  C   UNL A   1      42.552  30.740  36.212  1.00  0.00     0.031 C 
ATOM     58  C   UNL A   1      44.292  28.568  31.536  1.00  0.00     0.029 A 
ATOM     59  C   UNL A   1      43.362  28.098  32.445  1.00  0.00     0.049 A 
ATOM     60  H   UNL A   1      41.476  27.261  32.084  1.00  0.00     0.167 HD
ATOM     61  C   UNL A   1      42.981  29.140  34.586  1.00  0.00     0.074 A 
ATOM     62  C   UNL A   1      42.797  29.434  35.996  1.00  0.00     0.031 C 
ATOM     63  C   UNL A   1      43.289  28.003  33.895  1.00  0.00     0.034 A 
BRANCH  50  64
ATOM     64  C   UNL A   1      41.424  26.885  28.118  1.00  0.00     0.023 A 
ATOM     65  C   UNL A   1      41.275  27.491  26.848  1.00  0.00     0.012 A 
ATOM     66  C   UNL A   1      41.729  25.507  28.096  1.00  0.00     0.148 A 
ATOM     67  C   UNL A   1      41.461  26.809  25.640  1.00  0.00     0.002 A 
ATOM     68  C   UNL A   1      41.936  24.829  26.890  1.00  0.00     0.091 A 
ATOM     69  F   UNL A   1      41.835  24.825  29.244  1.00  0.00    -0.205 F 
ATOM     70  C   UNL A   1      41.807  25.474  25.660  1.00  0.00     0.022 A 
BRANCH  68  71
ATOM     71  S   UNL A   1      42.421  23.103  26.929  1.00  0.00     0.127 S 
ATOM     72  O   UNL A   1      42.480  22.754  25.514  1.00  0.00    -0.237 OA
ATOM     73  O   UNL A   1      43.682  23.131  27.661  1.00  0.00    -0.237 OA
ATOM     74  O   UNL A   1      41.321  22.465  27.658  1.00  0.00    -0.744 OA
ENDBRANCH  68  71
ENDBRANCH  50  64
BRANCH  51  75
ATOM     75  C   UNL A   1      41.088  33.487  35.120  1.00  0.00     0.023 A 
ATOM     76  C   UNL A   1      41.378  34.593  35.938  1.00  0.00     0.012 A 
ATOM     77  C   UNL A   1      39.806  32.899  35.194  1.00  0.00     0.148 A 
ATOM     78  C   UNL A   1      40.452  35.032  36.889  1.00  0.00     0.002 A 
ATOM     79  C   UNL A   1      38.906  33.312  36.171  1.00  0.00     0.091 A 
ATOM     80  F   UNL A   1      39.505  31.892  34.358  1.00  0.00    -0.205 F 
ATOM     81  C   UNL A   1      39.236  34.365  37.035  1.00  0.00     0.022 A 
BRANCH  79  82
ATOM     82  S   UNL A   1      37.380  32.398  36.437  1.00  0.00     0.127 S 
ATOM     83  O   UNL A   1      36.650  32.629  35.194  1.00  0.00    -0.237 OA
ATOM     84  O   UNL A   1      37.803  31.026  36.684  1.00  0.00    -0.237 OA
ATOM     85  O   UNL A   1      36.799  33.069  37.601  1.00  0.00    -0.744 OA
ENDBRANCH  79  82
ENDBRANCH  51  75
BRANCH  63  86
ATOM     86  C   UNL A   1      43.491  26.661  34.544  1.00  0.00     0.023 A 
ATOM     87  C   UNL A   1      42.360  25.909  34.944  1.00  0.00     0.012 A 
ATOM     88  C   UNL A   1      44.747  26.070  34.725  1.00  0.00     0.148 A 
ATOM     89  C   UNL A   1      42.471  24.657  35.547  1.00  0.00     0.002 A 
ATOM     90  C   UNL A   1      44.861  24.849  35.390  1.00  0.00     0.091 A 
ATOM     91  F   UNL A   1      45.843  26.670  34.234  1.00  0.00    -0.205 F 
ATOM     92  C   UNL A   1      43.729  24.134  35.795  1.00  0.00     0.022 A 
BRANCH  90  93
ATOM     93  S   UNL A   1      46.493  24.261  35.832  1.00  0.00     0.127 S 
ATOM     94  O   UNL A   1      46.904  25.171  36.895  1.00  0.00    -0.237 OA
ATOM     95  O   UNL A   1      46.234  22.877  36.222  1.00  0.00    -0.237 OA
ATOM     96  O   UNL A   1      47.253  24.398  34.589  1.00  0.00    -0.744 OA
ENDBRANCH  90  93
ENDBRANCH  63  86
ENDBRANCH  37  38
ENDBRANCH  30  32
ENDBRANCH  29  30
ENDBRANCH  28  29
ENDBRANCH  27  28
ENDBRANCH  26  27
ENDBRANCH   1  26
TORSDOF 22
ENDMDL
