MODEL 1
REMARK VINA RESULT:     -10.2      0.000      0.000
REMARK SMILES O=C(OCCOCCOCCOC(=O)[C@H]1C[N@H+](Cc2ccc(Cl)c(Cl)c2)CC12CCCCC2)c1ccc(-c2c3nc(c(-c4cccc(S(=O)(=O)[O-])c4F)c4ccc([nH]4)c(-c4cccc(S(=O)(=O)[O-])c4F)c4nc(c(-c5cccc(S(=O)(=O)[O-])c5F)c5ccc2[nH]5)C=C4)C=C3)cc1
REMARK SMILES IDX 7 1 6 2 5 3 4 4 3 5 2 6 1 7 34 8 35 9 96 10 36 11 95 12
REMARK SMILES IDX 37 13 38 14 39 15 89 16 40 17 94 18 88 19 90 20 41 21 93 22
REMARK SMILES IDX 87 23 86 24 42 26 74 27 54 28 73 29 55 30 58 31 72 32 91 33
REMARK SMILES IDX 56 34 57 35 71 37 92 38 59 39 43 40 44 41 52 42 45 43 47 44
REMARK SMILES IDX 53 45 46 46 48 47 49 48 50 49 51 50 75 51 76 52 84 53 77 54
REMARK SMILES IDX 79 55 85 56 78 57 80 58 81 59 82 60 83 61 60 62 61 63 69 64
REMARK SMILES IDX 62 65 64 66 70 67 63 68 65 69 66 70 67 71 68 72 8 73 9 74
REMARK SMILES IDX 10 75 11 76 12 77 13 78 14 79 15 80 16 81 28 82 17 83 27 84
REMARK SMILES IDX 29 85 33 86 30 88 32 89 31 90 18 91 19 92 20 93 26 94 21 95
REMARK SMILES IDX 24 96 22 97 25 98 23 99
REMARK H PARENT 90 25 58 36 17 87
REMARK Flexibility Score: inf
ROOT
ATOM      1  C   UNL A   1      33.501  32.813  27.958  1.00  0.00     0.188 C 
ENDROOT
BRANCH   1   2
ATOM      2  O   UNL A   1      33.342  34.203  27.654  1.00  0.00    -0.376 OA
BRANCH   2   3
ATOM      3  C   UNL A   1      34.118  35.090  28.465  1.00  0.00     0.202 C 
BRANCH   3   4
ATOM      4  C   UNL A   1      33.347  36.086  29.348  1.00  0.00     0.261 C 
BRANCH   4   5
ATOM      5  O   UNL A   1      32.517  35.482  30.352  1.00  0.00    -0.460 OA
BRANCH   5   6
ATOM      6  C   UNL A   1      32.782  35.238  31.658  1.00  0.00     0.338 C 
ATOM      7  O   UNL A   1      31.911  35.513  32.484  1.00  0.00    -0.246 OA
BRANCH   6   8
ATOM      8  C   UNL A   1      34.059  34.648  32.158  1.00  0.00     0.060 A 
ATOM      9  C   UNL A   1      35.229  35.365  32.405  1.00  0.00     0.016 A 
ATOM     10  C   UNL A   1      34.040  33.283  32.497  1.00  0.00     0.016 A 
ATOM     11  C   UNL A   1      36.373  34.735  32.891  1.00  0.00     0.010 A 
ATOM     12  C   UNL A   1      35.174  32.648  33.013  1.00  0.00     0.010 A 
ATOM     13  C   UNL A   1      36.356  33.370  33.185  1.00  0.00    -0.014 A 
BRANCH  13  14
ATOM     14  C   UNL A   1      37.623  32.735  33.598  1.00  0.00     0.031 A 
ATOM     15  C   UNL A   1      38.368  31.918  32.613  1.00  0.00     0.074 A 
ATOM     16  C   UNL A   1      38.103  32.910  34.841  1.00  0.00     0.049 A 
ATOM     17  N   UNL A   1      39.493  31.290  32.787  1.00  0.00    -0.248 NA
ATOM     18  C   UNL A   1      37.737  31.707  31.301  1.00  0.00     0.031 C 
ATOM     19  C   UNL A   1      37.322  33.499  35.907  1.00  0.00     0.029 A 
ATOM     20  N   UNL A   1      39.307  32.636  35.434  1.00  0.00    -0.354 N 
ATOM     21  C   UNL A   1      39.621  30.471  31.682  1.00  0.00     0.074 A 
ATOM     22  C   UNL A   1      38.531  30.781  30.781  1.00  0.00     0.031 C 
ATOM     23  C   UNL A   1      38.095  33.662  36.991  1.00  0.00     0.029 A 
ATOM     24  C   UNL A   1      39.413  33.142  36.716  1.00  0.00     0.049 A 
ATOM     25  H   UNL A   1      40.027  32.130  34.992  1.00  0.00     0.167 HD
ATOM     26  C   UNL A   1      40.520  29.480  31.513  1.00  0.00     0.034 A 
ATOM     27  C   UNL A   1      40.441  33.160  37.586  1.00  0.00     0.034 A 
ATOM     28  C   UNL A   1      41.563  29.193  32.460  1.00  0.00     0.049 A 
ATOM     29  C   UNL A   1      41.590  32.279  37.230  1.00  0.00     0.074 A 
ATOM     30  C   UNL A   1      42.553  28.236  32.377  1.00  0.00     0.029 A 
ATOM     31  N   UNL A   1      41.730  29.842  33.679  1.00  0.00    -0.354 N 
ATOM     32  N   UNL A   1      41.753  31.580  36.134  1.00  0.00    -0.248 NA
ATOM     33  C   UNL A   1      42.633  32.095  38.243  1.00  0.00     0.031 C 
ATOM     34  C   UNL A   1      43.300  28.283  33.558  1.00  0.00     0.029 A 
ATOM     35  C   UNL A   1      42.809  29.305  34.357  1.00  0.00     0.049 A 
ATOM     36  H   UNL A   1      41.163  30.576  34.010  1.00  0.00     0.167 HD
ATOM     37  C   UNL A   1      42.849  30.777  36.372  1.00  0.00     0.074 A 
ATOM     38  C   UNL A   1      43.392  31.178  37.658  1.00  0.00     0.031 C 
ATOM     39  C   UNL A   1      43.308  29.741  35.635  1.00  0.00     0.034 A 
BRANCH  26  40
ATOM     40  C   UNL A   1      40.330  28.582  30.330  1.00  0.00     0.023 A 
ATOM     41  C   UNL A   1      39.292  27.630  30.306  1.00  0.00     0.012 A 
ATOM     42  C   UNL A   1      41.203  28.691  29.229  1.00  0.00     0.148 A 
ATOM     43  C   UNL A   1      39.143  26.781  29.211  1.00  0.00     0.002 A 
ATOM     44  C   UNL A   1      41.016  27.877  28.122  1.00  0.00     0.091 A 
ATOM     45  F   UNL A   1      42.207  29.576  29.295  1.00  0.00    -0.205 F 
ATOM     46  C   UNL A   1      39.995  26.912  28.117  1.00  0.00     0.022 A 
BRANCH  44  47
ATOM     47  S   UNL A   1      42.015  28.014  26.638  1.00  0.00     0.127 S 
ATOM     48  O   UNL A   1      43.242  27.326  27.042  1.00  0.00    -0.237 OA
ATOM     49  O   UNL A   1      41.202  27.290  25.662  1.00  0.00    -0.237 OA
ATOM     50  O   UNL A   1      42.168  29.439  26.380  1.00  0.00    -0.744 OA
ENDBRANCH  44  47
ENDBRANCH  26  40
BRANCH  27  51
ATOM     51  C   UNL A   1      40.399  33.887  38.891  1.00  0.00     0.023 A 
ATOM     52  C   UNL A   1      40.172  33.171  40.087  1.00  0.00     0.012 A 
ATOM     53  C   UNL A   1      40.543  35.282  38.967  1.00  0.00     0.148 A 
ATOM     54  C   UNL A   1      40.075  33.837  41.316  1.00  0.00     0.002 A 
ATOM     55  C   UNL A   1      40.497  35.933  40.197  1.00  0.00     0.091 A 
ATOM     56  F   UNL A   1      40.725  35.970  37.830  1.00  0.00    -0.205 F 
ATOM     57  C   UNL A   1      40.247  35.219  41.373  1.00  0.00     0.022 A 
BRANCH  55  58
ATOM     58  S   UNL A   1      40.835  37.696  40.276  1.00  0.00     0.127 S 
ATOM     59  O   UNL A   1      40.802  37.949  41.712  1.00  0.00    -0.237 OA
ATOM     60  O   UNL A   1      42.159  37.815  39.668  1.00  0.00    -0.237 OA
ATOM     61  O   UNL A   1      39.760  38.280  39.480  1.00  0.00    -0.744 OA
ENDBRANCH  55  58
ENDBRANCH  27  51
BRANCH  39  62
ATOM     62  C   UNL A   1      44.446  28.977  36.230  1.00  0.00     0.023 A 
ATOM     63  C   UNL A   1      45.769  29.413  36.026  1.00  0.00     0.012 A 
ATOM     64  C   UNL A   1      44.184  27.853  37.026  1.00  0.00     0.148 A 
ATOM     65  C   UNL A   1      46.828  28.717  36.601  1.00  0.00     0.002 A 
ATOM     66  C   UNL A   1      45.238  27.198  37.638  1.00  0.00     0.091 A 
ATOM     67  F   UNL A   1      42.911  27.455  37.169  1.00  0.00    -0.205 F 
ATOM     68  C   UNL A   1      46.561  27.619  37.417  1.00  0.00     0.022 A 
BRANCH  66  69
ATOM     69  S   UNL A   1      44.979  25.835  38.771  1.00  0.00     0.127 S 
ATOM     70  O   UNL A   1      44.174  26.466  39.815  1.00  0.00    -0.237 OA
ATOM     71  O   UNL A   1      44.259  24.877  37.933  1.00  0.00    -0.237 OA
ATOM     72  O   UNL A   1      46.304  25.399  39.193  1.00  0.00    -0.744 OA
ENDBRANCH  66  69
ENDBRANCH  39  62
ENDBRANCH  13  14
ENDBRANCH   6   8
ENDBRANCH   5   6
ENDBRANCH   4   5
ENDBRANCH   3   4
ENDBRANCH   2   3
ENDBRANCH   1   2
BRANCH   1  73
ATOM     73  C   UNL A   1      34.755  32.527  28.787  1.00  0.00     0.188 C 
BRANCH  73  74
ATOM     74  O   UNL A   1      35.029  31.156  29.074  1.00  0.00    -0.376 OA
BRANCH  74  75
ATOM     75  C   UNL A   1      35.842  30.451  28.146  1.00  0.00     0.202 C 
BRANCH  75  76
ATOM     76  C   UNL A   1      35.147  29.777  26.960  1.00  0.00     0.261 C 
BRANCH  76  77
ATOM     77  O   UNL A   1      34.410  28.598  27.291  1.00  0.00    -0.463 OA
BRANCH  77  78
ATOM     78  C   UNL A   1      33.063  28.681  27.114  1.00  0.00     0.315 C 
ATOM     79  O   UNL A   1      32.364  29.602  27.506  1.00  0.00    -0.252 OA
BRANCH  78  80
ATOM     80  C   UNL A   1      32.501  27.480  26.396  1.00  0.00     0.166 C 
ATOM     81  C   UNL A   1      31.089  27.115  26.832  1.00  0.00     0.278 C 
ATOM     82  C   UNL A   1      32.475  27.527  24.847  1.00  0.00     0.038 C 
ATOM     83  N   UNL A   1      30.593  26.241  25.781  1.00  0.00    -0.330 N 
ATOM     84  C   UNL A   1      31.180  26.742  24.530  1.00  0.00     0.270 C 
ATOM     85  C   UNL A   1      32.443  28.946  24.220  1.00  0.00     0.014 C 
ATOM     86  C   UNL A   1      33.722  26.811  24.285  1.00  0.00     0.014 C 
ATOM     87  H   UNL A   1      29.577  26.301  25.726  1.00  0.00     0.348 HD
ATOM     88  C   UNL A   1      32.572  28.962  22.692  1.00  0.00     0.001 C 
ATOM     89  C   UNL A   1      33.783  26.773  22.762  1.00  0.00     0.001 C 
ATOM     90  C   UNL A   1      33.792  28.187  22.209  1.00  0.00     0.000 C 
BRANCH  83  91
ATOM     91  C   UNL A   1      30.625  24.785  26.032  1.00  0.00     0.299 C 
BRANCH  91  92
ATOM     92  C   UNL A   1      31.824  24.021  25.531  1.00  0.00     0.008 A 
ATOM     93  C   UNL A   1      32.928  23.840  26.370  1.00  0.00     0.011 A 
ATOM     94  C   UNL A   1      31.894  23.562  24.205  1.00  0.00     0.031 A 
ATOM     95  C   UNL A   1      34.130  23.360  25.854  1.00  0.00     0.022 A 
ATOM     96  C   UNL A   1      33.113  23.127  23.672  1.00  0.00     0.060 A 
ATOM     97  C   UNL A   1      34.238  23.048  24.497  1.00  0.00     0.059 A 
ATOM     98  Cl  UNL A   1      33.232  22.931  21.959  1.00  0.00    -0.083 Cl
ATOM     99  Cl  UNL A   1      35.812  22.666  23.894  1.00  0.00    -0.083 Cl
ENDBRANCH  91  92
ENDBRANCH  83  91
ENDBRANCH  78  80
ENDBRANCH  77  78
ENDBRANCH  76  77
ENDBRANCH  75  76
ENDBRANCH  74  75
ENDBRANCH  73  74
ENDBRANCH   1  73
TORSDOF 22
ENDMDL
MODEL 2
REMARK VINA RESULT:     -10.2      1.623      7.513
REMARK SMILES O=C(OCCOCCOCCOC(=O)[C@H]1C[N@H+](Cc2ccc(Cl)c(Cl)c2)CC12CCCCC2)c1ccc(-c2c3nc(c(-c4cccc(S(=O)(=O)[O-])c4F)c4ccc([nH]4)c(-c4cccc(S(=O)(=O)[O-])c4F)c4nc(c(-c5cccc(S(=O)(=O)[O-])c5F)c5ccc2[nH]5)C=C4)C=C3)cc1
REMARK SMILES IDX 7 1 6 2 5 3 4 4 3 5 2 6 1 7 34 8 35 9 96 10 36 11 95 12
REMARK SMILES IDX 37 13 38 14 39 15 89 16 40 17 94 18 88 19 90 20 41 21 93 22
REMARK SMILES IDX 87 23 86 24 42 26 74 27 54 28 73 29 55 30 58 31 72 32 91 33
REMARK SMILES IDX 56 34 57 35 71 37 92 38 59 39 43 40 44 41 52 42 45 43 47 44
REMARK SMILES IDX 53 45 46 46 48 47 49 48 50 49 51 50 75 51 76 52 84 53 77 54
REMARK SMILES IDX 79 55 85 56 78 57 80 58 81 59 82 60 83 61 60 62 61 63 69 64
REMARK SMILES IDX 62 65 64 66 70 67 63 68 65 69 66 70 67 71 68 72 8 73 9 74
REMARK SMILES IDX 10 75 11 76 12 77 13 78 14 79 15 80 16 81 28 82 17 83 27 84
REMARK SMILES IDX 29 85 33 86 30 88 32 89 31 90 18 91 19 92 20 93 26 94 21 95
REMARK SMILES IDX 24 96 22 97 25 98 23 99
REMARK H PARENT 90 25 58 36 17 87
REMARK Flexibility Score: inf
ROOT
ATOM      1  C   UNL A   1      35.170  33.006  28.002  1.00  0.00     0.188 C 
ENDROOT
BRANCH   1   2
ATOM      2  O   UNL A   1      34.199  33.978  27.596  1.00  0.00    -0.376 OA
BRANCH   2   3
ATOM      3  C   UNL A   1      34.415  35.295  28.110  1.00  0.00     0.202 C 
BRANCH   3   4
ATOM      4  C   UNL A   1      33.269  35.927  28.920  1.00  0.00     0.261 C 
BRANCH   4   5
ATOM      5  O   UNL A   1      32.757  35.104  29.978  1.00  0.00    -0.460 OA
BRANCH   5   6
ATOM      6  C   UNL A   1      33.224  34.929  31.238  1.00  0.00     0.338 C 
ATOM      7  O   UNL A   1      32.615  35.473  32.160  1.00  0.00    -0.246 OA
BRANCH   6   8
ATOM      8  C   UNL A   1      34.424  34.110  31.580  1.00  0.00     0.060 A 
ATOM      9  C   UNL A   1      34.398  32.762  31.939  1.00  0.00     0.016 A 
ATOM     10  C   UNL A   1      35.680  34.725  31.426  1.00  0.00     0.016 A 
ATOM     11  C   UNL A   1      35.572  32.067  32.222  1.00  0.00     0.010 A 
ATOM     12  C   UNL A   1      36.866  34.027  31.680  1.00  0.00     0.010 A 
ATOM     13  C   UNL A   1      36.811  32.700  32.108  1.00  0.00    -0.014 A 
BRANCH  13  14
ATOM     14  C   UNL A   1      38.013  31.947  32.520  1.00  0.00     0.031 A 
ATOM     15  C   UNL A   1      38.509  32.097  33.907  1.00  0.00     0.074 A 
ATOM     16  C   UNL A   1      38.636  31.126  31.657  1.00  0.00     0.049 A 
ATOM     17  N   UNL A   1      39.539  31.519  34.451  1.00  0.00    -0.248 NA
ATOM     18  C   UNL A   1      37.823  33.076  34.765  1.00  0.00     0.031 C 
ATOM     19  C   UNL A   1      38.342  31.109  30.241  1.00  0.00     0.029 A 
ATOM     20  N   UNL A   1      39.607  30.171  31.799  1.00  0.00    -0.354 N 
ATOM     21  C   UNL A   1      39.734  32.185  35.645  1.00  0.00     0.074 A 
ATOM     22  C   UNL A   1      38.639  33.116  35.809  1.00  0.00     0.031 C 
ATOM     23  C   UNL A   1      39.019  30.110  29.655  1.00  0.00     0.029 A 
ATOM     24  C   UNL A   1      39.835  29.447  30.644  1.00  0.00     0.049 A 
ATOM     25  H   UNL A   1      40.096  30.015  32.639  1.00  0.00     0.167 HD
ATOM     26  C   UNL A   1      40.805  32.082  36.459  1.00  0.00     0.034 A 
ATOM     27  C   UNL A   1      40.631  28.390  30.395  1.00  0.00     0.034 A 
ATOM     28  C   UNL A   1      41.884  31.161  36.229  1.00  0.00     0.049 A 
ATOM     29  C   UNL A   1      41.629  28.082  31.461  1.00  0.00     0.074 A 
ATOM     30  C   UNL A   1      43.004  30.944  37.006  1.00  0.00     0.029 A 
ATOM     31  N   UNL A   1      41.994  30.327  35.121  1.00  0.00    -0.354 N 
ATOM     32  N   UNL A   1      41.748  28.652  32.634  1.00  0.00    -0.248 NA
ATOM     33  C   UNL A   1      42.658  27.086  31.149  1.00  0.00     0.031 C 
ATOM     34  C   UNL A   1      43.806  30.002  36.354  1.00  0.00     0.029 A 
ATOM     35  C   UNL A   1      43.163  29.593  35.196  1.00  0.00     0.049 A 
ATOM     36  H   UNL A   1      41.336  30.269  34.391  1.00  0.00     0.167 HD
ATOM     37  C   UNL A   1      42.933  28.176  33.153  1.00  0.00     0.074 A 
ATOM     38  C   UNL A   1      43.422  27.167  32.230  1.00  0.00     0.031 C 
ATOM     39  C   UNL A   1      43.602  28.601  34.248  1.00  0.00     0.034 A 
BRANCH  26  40
ATOM     40  C   UNL A   1      40.899  33.063  37.587  1.00  0.00     0.023 A 
ATOM     41  C   UNL A   1      40.152  32.880  38.767  1.00  0.00     0.012 A 
ATOM     42  C   UNL A   1      41.744  34.184  37.462  1.00  0.00     0.148 A 
ATOM     43  C   UNL A   1      40.227  33.814  39.798  1.00  0.00     0.002 A 
ATOM     44  C   UNL A   1      41.852  35.082  38.514  1.00  0.00     0.091 A 
ATOM     45  F   UNL A   1      42.412  34.356  36.313  1.00  0.00    -0.205 F 
ATOM     46  C   UNL A   1      41.083  34.907  39.676  1.00  0.00     0.022 A 
BRANCH  44  47
ATOM     47  S   UNL A   1      42.975  36.480  38.483  1.00  0.00     0.127 S 
ATOM     48  O   UNL A   1      42.642  37.156  39.737  1.00  0.00    -0.237 OA
ATOM     49  O   UNL A   1      44.278  35.816  38.474  1.00  0.00    -0.237 OA
ATOM     50  O   UNL A   1      42.657  37.232  37.277  1.00  0.00    -0.744 OA
ENDBRANCH  44  47
ENDBRANCH  26  40
BRANCH  27  51
ATOM     51  C   UNL A   1      40.635  27.652  29.096  1.00  0.00     0.023 A 
ATOM     52  C   UNL A   1      39.740  26.580  28.894  1.00  0.00     0.012 A 
ATOM     53  C   UNL A   1      41.537  27.970  28.067  1.00  0.00     0.148 A 
ATOM     54  C   UNL A   1      39.762  25.839  27.705  1.00  0.00     0.002 A 
ATOM     55  C   UNL A   1      41.520  27.263  26.867  1.00  0.00     0.091 A 
ATOM     56  F   UNL A   1      42.412  28.966  28.267  1.00  0.00    -0.205 F 
ATOM     57  C   UNL A   1      40.646  26.186  26.686  1.00  0.00     0.022 A 
BRANCH  55  58
ATOM     58  S   UNL A   1      42.580  27.791  25.517  1.00  0.00     0.127 S 
ATOM     59  O   UNL A   1      42.543  26.635  24.628  1.00  0.00    -0.237 OA
ATOM     60  O   UNL A   1      41.904  28.979  24.998  1.00  0.00    -0.237 OA
ATOM     61  O   UNL A   1      43.851  28.071  26.177  1.00  0.00    -0.744 OA
ENDBRANCH  55  58
ENDBRANCH  27  51
BRANCH  39  62
ATOM     62  C   UNL A   1      44.938  27.971  34.477  1.00  0.00     0.023 A 
ATOM     63  C   UNL A   1      46.101  28.587  33.980  1.00  0.00     0.012 A 
ATOM     64  C   UNL A   1      45.027  26.790  35.227  1.00  0.00     0.148 A 
ATOM     65  C   UNL A   1      47.348  28.016  34.214  1.00  0.00     0.002 A 
ATOM     66  C   UNL A   1      46.273  26.256  35.502  1.00  0.00     0.091 A 
ATOM     67  F   UNL A   1      43.891  26.220  35.657  1.00  0.00    -0.205 F 
ATOM     68  C   UNL A   1      47.434  26.858  34.987  1.00  0.00     0.022 A 
BRANCH  66  69
ATOM     69  S   UNL A   1      46.480  24.824  36.559  1.00  0.00     0.127 S 
ATOM     70  O   UNL A   1      45.875  23.768  35.749  1.00  0.00    -0.237 OA
ATOM     71  O   UNL A   1      47.934  24.747  36.685  1.00  0.00    -0.237 OA
ATOM     72  O   UNL A   1      45.777  25.129  37.798  1.00  0.00    -0.744 OA
ENDBRANCH  66  69
ENDBRANCH  39  62
ENDBRANCH  13  14
ENDBRANCH   6   8
ENDBRANCH   5   6
ENDBRANCH   4   5
ENDBRANCH   3   4
ENDBRANCH   2   3
ENDBRANCH   1   2
BRANCH   1  73
ATOM     73  C   UNL A   1      34.536  31.694  28.468  1.00  0.00     0.188 C 
BRANCH  73  74
ATOM     74  O   UNL A   1      34.163  30.769  27.446  1.00  0.00    -0.376 OA
BRANCH  74  75
ATOM     75  C   UNL A   1      32.773  30.590  27.212  1.00  0.00     0.202 C 
BRANCH  75  76
ATOM     76  C   UNL A   1      32.345  30.065  25.838  1.00  0.00     0.261 C 
BRANCH  76  77
ATOM     77  O   UNL A   1      31.853  28.723  25.839  1.00  0.00    -0.463 OA
BRANCH  77  78
ATOM     78  C   UNL A   1      32.755  27.769  25.480  1.00  0.00     0.315 C 
ATOM     79  O   UNL A   1      33.922  27.986  25.193  1.00  0.00    -0.252 OA
BRANCH  78  80
ATOM     80  C   UNL A   1      32.150  26.389  25.441  1.00  0.00     0.166 C 
ATOM     81  C   UNL A   1      30.807  26.292  26.151  1.00  0.00     0.278 C 
ATOM     82  C   UNL A   1      31.947  25.742  24.047  1.00  0.00     0.038 C 
ATOM     83  N   UNL A   1      30.220  25.054  25.662  1.00  0.00    -0.330 N 
ATOM     84  C   UNL A   1      30.648  24.930  24.262  1.00  0.00     0.270 C 
ATOM     85  C   UNL A   1      31.805  26.734  22.862  1.00  0.00     0.014 C 
ATOM     86  C   UNL A   1      33.143  24.819  23.725  1.00  0.00     0.014 C 
ATOM     87  H   UNL A   1      29.203  25.109  25.703  1.00  0.00     0.348 HD
ATOM     88  C   UNL A   1      31.760  26.064  21.483  1.00  0.00     0.001 C 
ATOM     89  C   UNL A   1      33.033  24.106  22.382  1.00  0.00     0.001 C 
ATOM     90  C   UNL A   1      32.940  25.125  21.261  1.00  0.00     0.000 C 
BRANCH  83  91
ATOM     91  C   UNL A   1      30.321  23.862  26.530  1.00  0.00     0.299 C 
BRANCH  91  92
ATOM     92  C   UNL A   1      31.484  22.931  26.297  1.00  0.00     0.008 A 
ATOM     93  C   UNL A   1      32.695  23.158  26.958  1.00  0.00     0.011 A 
ATOM     94  C   UNL A   1      31.406  21.889  25.358  1.00  0.00     0.031 A 
ATOM     95  C   UNL A   1      33.843  22.469  26.575  1.00  0.00     0.022 A 
ATOM     96  C   UNL A   1      32.567  21.231  24.936  1.00  0.00     0.060 A 
ATOM     97  C   UNL A   1      33.792  21.540  25.534  1.00  0.00     0.059 A 
ATOM     98  Cl  UNL A   1      32.474  20.231  23.529  1.00  0.00    -0.083 Cl
ATOM     99  Cl  UNL A   1      35.293  20.888  24.977  1.00  0.00    -0.083 Cl
ENDBRANCH  91  92
ENDBRANCH  83  91
ENDBRANCH  78  80
ENDBRANCH  77  78
ENDBRANCH  76  77
ENDBRANCH  75  76
ENDBRANCH  74  75
ENDBRANCH  73  74
ENDBRANCH   1  73
TORSDOF 22
ENDMDL
MODEL 3
REMARK VINA RESULT:      -9.9      3.091      4.516
REMARK SMILES O=C(OCCOCCOCCOC(=O)[C@H]1C[N@H+](Cc2ccc(Cl)c(Cl)c2)CC12CCCCC2)c1ccc(-c2c3nc(c(-c4cccc(S(=O)(=O)[O-])c4F)c4ccc([nH]4)c(-c4cccc(S(=O)(=O)[O-])c4F)c4nc(c(-c5cccc(S(=O)(=O)[O-])c5F)c5ccc2[nH]5)C=C4)C=C3)cc1
REMARK SMILES IDX 7 1 6 2 5 3 4 4 3 5 2 6 1 7 34 8 35 9 96 10 36 11 95 12
REMARK SMILES IDX 37 13 38 14 39 15 89 16 40 17 94 18 88 19 90 20 41 21 93 22
REMARK SMILES IDX 87 23 86 24 42 26 74 27 54 28 73 29 55 30 58 31 72 32 91 33
REMARK SMILES IDX 56 34 57 35 71 37 92 38 59 39 43 40 44 41 52 42 45 43 47 44
REMARK SMILES IDX 53 45 46 46 48 47 49 48 50 49 51 50 75 51 76 52 84 53 77 54
REMARK SMILES IDX 79 55 85 56 78 57 80 58 81 59 82 60 83 61 60 62 61 63 69 64
REMARK SMILES IDX 62 65 64 66 70 67 63 68 65 69 66 70 67 71 68 72 8 73 9 74
REMARK SMILES IDX 10 75 11 76 12 77 13 78 14 79 15 80 16 81 28 82 17 83 27 84
REMARK SMILES IDX 29 85 33 86 30 88 32 89 31 90 18 91 19 92 20 93 26 94 21 95
REMARK SMILES IDX 24 96 22 97 25 98 23 99
REMARK H PARENT 90 25 58 36 17 87
REMARK Flexibility Score: inf
ROOT
ATOM      1  C   UNL A   1      31.928  28.605  23.779  1.00  0.00     0.188 C 
ENDROOT
BRANCH   1   2
ATOM      2  O   UNL A   1      31.003  29.117  24.745  1.00  0.00    -0.376 OA
BRANCH   2   3
ATOM      3  C   UNL A   1      30.681  30.503  24.594  1.00  0.00     0.202 C 
BRANCH   3   4
ATOM      4  C   UNL A   1      31.036  31.436  25.764  1.00  0.00     0.261 C 
BRANCH   4   5
ATOM      5  O   UNL A   1      32.284  31.143  26.409  1.00  0.00    -0.460 OA
BRANCH   5   6
ATOM      6  C   UNL A   1      33.072  31.941  27.170  1.00  0.00     0.338 C 
ATOM      7  O   UNL A   1      32.736  33.117  27.309  1.00  0.00    -0.246 OA
BRANCH   6   8
ATOM      8  C   UNL A   1      34.314  31.481  27.857  1.00  0.00     0.060 A 
ATOM      9  C   UNL A   1      34.605  30.157  28.184  1.00  0.00     0.016 A 
ATOM     10  C   UNL A   1      35.304  32.451  28.099  1.00  0.00     0.016 A 
ATOM     11  C   UNL A   1      35.803  29.813  28.809  1.00  0.00     0.010 A 
ATOM     12  C   UNL A   1      36.521  32.111  28.700  1.00  0.00     0.010 A 
ATOM     13  C   UNL A   1      36.761  30.791  29.083  1.00  0.00    -0.014 A 
BRANCH  13  14
ATOM     14  C   UNL A   1      37.964  30.388  29.839  1.00  0.00     0.031 A 
ATOM     15  C   UNL A   1      39.061  29.699  29.121  1.00  0.00     0.074 A 
ATOM     16  C   UNL A   1      38.071  30.659  31.151  1.00  0.00     0.049 A 
ATOM     17  N   UNL A   1      40.189  29.275  29.609  1.00  0.00    -0.248 NA
ATOM     18  C   UNL A   1      38.833  29.365  27.707  1.00  0.00     0.031 C 
ATOM     19  C   UNL A   1      36.956  31.119  31.949  1.00  0.00     0.029 A 
ATOM     20  N   UNL A   1      39.109  30.605  32.043  1.00  0.00    -0.354 N 
ATOM     21  C   UNL A   1      40.730  28.477  28.621  1.00  0.00     0.074 A 
ATOM     22  C   UNL A   1      39.875  28.583  27.458  1.00  0.00     0.031 C 
ATOM     23  C   UNL A   1      37.385  31.427  33.182  1.00  0.00     0.029 A 
ATOM     24  C   UNL A   1      38.796  31.137  33.279  1.00  0.00     0.049 A 
ATOM     25  H   UNL A   1      39.991  30.224  31.827  1.00  0.00     0.167 HD
ATOM     26  C   UNL A   1      41.791  27.653  28.742  1.00  0.00     0.034 A 
ATOM     27  C   UNL A   1      39.546  31.344  34.378  1.00  0.00     0.034 A 
ATOM     28  C   UNL A   1      42.586  27.562  29.936  1.00  0.00     0.049 A 
ATOM     29  C   UNL A   1      40.877  30.669  34.375  1.00  0.00     0.074 A 
ATOM     30  C   UNL A   1      43.706  26.788  30.160  1.00  0.00     0.029 A 
ATOM     31  N   UNL A   1      42.324  28.246  31.118  1.00  0.00    -0.354 N 
ATOM     32  N   UNL A   1      41.428  29.994  33.397  1.00  0.00    -0.248 NA
ATOM     33  C   UNL A   1      41.638  30.679  35.627  1.00  0.00     0.031 C 
ATOM     34  C   UNL A   1      44.104  26.979  31.487  1.00  0.00     0.029 A 
ATOM     35  C   UNL A   1      43.264  27.911  32.076  1.00  0.00     0.049 A 
ATOM     36  H   UNL A   1      41.579  28.875  31.253  1.00  0.00     0.167 HD
ATOM     37  C   UNL A   1      42.541  29.394  33.949  1.00  0.00     0.074 A 
ATOM     38  C   UNL A   1      42.661  29.899  35.306  1.00  0.00     0.031 C 
ATOM     39  C   UNL A   1      43.337  28.443  33.412  1.00  0.00     0.034 A 
BRANCH  26  40
ATOM     40  C   UNL A   1      42.062  26.720  27.601  1.00  0.00     0.023 A 
ATOM     41  C   UNL A   1      42.698  27.178  26.431  1.00  0.00     0.012 A 
ATOM     42  C   UNL A   1      41.670  25.370  27.701  1.00  0.00     0.148 A 
ATOM     43  C   UNL A   1      42.920  26.307  25.366  1.00  0.00     0.002 A 
ATOM     44  C   UNL A   1      41.940  24.498  26.657  1.00  0.00     0.091 A 
ATOM     45  F   UNL A   1      41.029  24.971  28.808  1.00  0.00    -0.205 F 
ATOM     46  C   UNL A   1      42.552  24.968  25.483  1.00  0.00     0.022 A 
BRANCH  44  47
ATOM     47  S   UNL A   1      41.569  22.745  26.737  1.00  0.00     0.127 S 
ATOM     48  O   UNL A   1      40.111  22.745  26.617  1.00  0.00    -0.237 OA
ATOM     49  O   UNL A   1      42.278  22.236  25.564  1.00  0.00    -0.237 OA
ATOM     50  O   UNL A   1      42.080  22.279  28.019  1.00  0.00    -0.744 OA
ENDBRANCH  44  47
ENDBRANCH  26  40
BRANCH  27  51
ATOM     51  C   UNL A   1      39.051  32.069  35.587  1.00  0.00     0.023 A 
ATOM     52  C   UNL A   1      39.287  33.454  35.721  1.00  0.00     0.012 A 
ATOM     53  C   UNL A   1      38.380  31.404  36.626  1.00  0.00     0.148 A 
ATOM     54  C   UNL A   1      38.879  34.144  36.870  1.00  0.00     0.002 A 
ATOM     55  C   UNL A   1      37.931  32.105  37.742  1.00  0.00     0.091 A 
ATOM     56  F   UNL A   1      38.182  30.081  36.518  1.00  0.00    -0.205 F 
ATOM     57  C   UNL A   1      38.192  33.472  37.878  1.00  0.00     0.022 A 
BRANCH  55  58
ATOM     58  S   UNL A   1      36.945  31.255  38.981  1.00  0.00     0.127 S 
ATOM     59  O   UNL A   1      35.718  32.043  38.989  1.00  0.00    -0.237 OA
ATOM     60  O   UNL A   1      36.798  29.908  38.433  1.00  0.00    -0.237 OA
ATOM     61  O   UNL A   1      37.777  31.323  40.177  1.00  0.00    -0.744 OA
ENDBRANCH  55  58
ENDBRANCH  27  51
BRANCH  39  62
ATOM     62  C   UNL A   1      44.391  27.894  34.317  1.00  0.00     0.023 A 
ATOM     63  C   UNL A   1      45.672  28.478  34.342  1.00  0.00     0.012 A 
ATOM     64  C   UNL A   1      44.083  26.825  35.171  1.00  0.00     0.148 A 
ATOM     65  C   UNL A   1      46.647  27.984  35.203  1.00  0.00     0.002 A 
ATOM     66  C   UNL A   1      45.041  26.374  36.062  1.00  0.00     0.091 A 
ATOM     67  F   UNL A   1      42.860  26.280  35.094  1.00  0.00    -0.205 F 
ATOM     68  C   UNL A   1      46.327  26.942  36.072  1.00  0.00     0.022 A 
BRANCH  66  69
ATOM     69  S   UNL A   1      44.685  25.102  37.272  1.00  0.00     0.127 S 
ATOM     70  O   UNL A   1      43.589  25.706  38.026  1.00  0.00    -0.237 OA
ATOM     71  O   UNL A   1      44.302  23.975  36.424  1.00  0.00    -0.237 OA
ATOM     72  O   UNL A   1      45.916  24.903  38.027  1.00  0.00    -0.744 OA
ENDBRANCH  66  69
ENDBRANCH  39  62
ENDBRANCH  13  14
ENDBRANCH   6   8
ENDBRANCH   5   6
ENDBRANCH   4   5
ENDBRANCH   3   4
ENDBRANCH   2   3
ENDBRANCH   1   2
BRANCH   1  73
ATOM     73  C   UNL A   1      33.157  27.958  24.420  1.00  0.00     0.188 C 
BRANCH  73  74
ATOM     74  O   UNL A   1      33.459  28.353  25.759  1.00  0.00    -0.376 OA
BRANCH  74  75
ATOM     75  C   UNL A   1      32.797  27.654  26.804  1.00  0.00     0.202 C 
BRANCH  75  76
ATOM     76  C   UNL A   1      32.386  26.203  26.540  1.00  0.00     0.261 C 
BRANCH  76  77
ATOM     77  O   UNL A   1      31.037  26.036  26.096  1.00  0.00    -0.463 OA
BRANCH  77  78
ATOM     78  C   UNL A   1      30.508  24.797  26.287  1.00  0.00     0.315 C 
ATOM     79  O   UNL A   1      29.464  24.568  26.877  1.00  0.00    -0.252 OA
BRANCH  78  80
ATOM     80  C   UNL A   1      31.376  23.706  25.712  1.00  0.00     0.166 C 
ATOM     81  C   UNL A   1      30.771  22.315  25.841  1.00  0.00     0.278 C 
ATOM     82  C   UNL A   1      31.809  23.851  24.230  1.00  0.00     0.038 C 
ATOM     83  N   UNL A   1      31.521  21.498  24.900  1.00  0.00    -0.330 N 
ATOM     84  C   UNL A   1      31.833  22.376  23.763  1.00  0.00     0.270 C 
ATOM     85  C   UNL A   1      30.873  24.711  23.340  1.00  0.00     0.014 C 
ATOM     86  C   UNL A   1      33.213  24.488  24.161  1.00  0.00     0.014 C 
ATOM     87  H   UNL A   1      30.948  20.718  24.580  1.00  0.00     0.348 HD
ATOM     88  C   UNL A   1      31.407  24.960  21.924  1.00  0.00     0.001 C 
ATOM     89  C   UNL A   1      33.752  24.652  22.744  1.00  0.00     0.001 C 
ATOM     90  C   UNL A   1      32.819  25.535  21.935  1.00  0.00     0.000 C 
BRANCH  83  91
ATOM     91  C   UNL A   1      32.603  20.650  25.443  1.00  0.00     0.299 C 
BRANCH  91  92
ATOM     92  C   UNL A   1      33.943  21.300  25.676  1.00  0.00     0.008 A 
ATOM     93  C   UNL A   1      34.178  21.995  26.866  1.00  0.00     0.011 A 
ATOM     94  C   UNL A   1      34.935  21.300  24.681  1.00  0.00     0.031 A 
ATOM     95  C   UNL A   1      35.304  22.804  26.997  1.00  0.00     0.022 A 
ATOM     96  C   UNL A   1      36.042  22.150  24.788  1.00  0.00     0.060 A 
ATOM     97  C   UNL A   1      36.212  22.919  25.942  1.00  0.00     0.059 A 
ATOM     98  Cl  UNL A   1      37.027  22.389  23.388  1.00  0.00    -0.083 Cl
ATOM     99  Cl  UNL A   1      37.464  24.102  26.098  1.00  0.00    -0.083 Cl
ENDBRANCH  91  92
ENDBRANCH  83  91
ENDBRANCH  78  80
ENDBRANCH  77  78
ENDBRANCH  76  77
ENDBRANCH  75  76
ENDBRANCH  74  75
ENDBRANCH  73  74
ENDBRANCH   1  73
TORSDOF 22
ENDMDL
