MODEL 1
REMARK VINA RESULT:      -8.8      0.000      0.000
REMARK SMILES C[C@@H](C(=O)OCCOCCOCCOC(=O)c1ccc(-c2c3nc(c(-c4cccc(S(=O)(=O)[O-])c4F)c4ccc([nH]4)c(-c4cccc(S(=O)(=O)[O-])c4F)c4nc(c(-c5cccc(S(=O)(=O)[O-])c5F)c5ccc2[nH]5)C=C4)C=C3)cc1)c1ccc(=O)n(C(F)F)c1
REMARK SMILES IDX 10 1 9 2 8 3 7 4 6 5 5 6 3 7 4 8 2 9 1 10 80 11 81 12 89 13
REMARK SMILES IDX 82 14 85 15 83 16 84 17 86 18 87 19 88 20 11 21 12 22 13 23
REMARK SMILES IDX 14 24 15 25 16 26 17 27 18 28 79 29 19 30 78 31 20 32 21 33
REMARK SMILES IDX 22 34 72 35 23 36 77 37 71 38 73 39 24 40 76 41 70 42 69 43
REMARK SMILES IDX 25 45 57 46 37 47 56 48 38 49 41 50 55 51 74 52 39 53 40 54
REMARK SMILES IDX 54 56 75 57 42 58 26 59 27 60 35 61 28 62 30 63 36 64 29 65
REMARK SMILES IDX 31 66 32 67 33 68 34 69 58 70 59 71 67 72 60 73 62 74 68 75
REMARK SMILES IDX 61 76 63 77 64 78 65 79 66 80 43 81 44 82 52 83 45 84 47 85
REMARK SMILES IDX 53 86 46 87 48 88 49 89 50 90 51 91
REMARK H PARENT 73 44 41 55
REMARK Flexibility Score: inf
ROOT
ATOM      1  C   UNL A   1      33.151  27.055  25.792  1.00  0.00     0.188 C 
ENDROOT
BRANCH   1   2
ATOM      2  C   UNL A   1      32.383  25.727  25.755  1.00  0.00     0.188 C 
BRANCH   2   3
ATOM      3  O   UNL A   1      32.065  25.154  24.499  1.00  0.00    -0.376 OA
BRANCH   3   4
ATOM      4  C   UNL A   1      33.121  24.809  23.612  1.00  0.00     0.202 C 
BRANCH   4   5
ATOM      5  C   UNL A   1      34.545  24.562  24.145  1.00  0.00     0.261 C 
BRANCH   5   6
ATOM      6  O   UNL A   1      34.783  23.240  24.669  1.00  0.00    -0.463 OA
BRANCH   6   7
ATOM      7  C   UNL A   1      36.063  22.953  25.030  1.00  0.00     0.313 C 
ATOM      8  O   UNL A   1      36.946  23.798  25.131  1.00  0.00    -0.252 OA
BRANCH   7   9
ATOM      9  C   UNL A   1      36.317  21.464  25.353  1.00  0.00     0.127 C 
ATOM     10  C   UNL A   1      37.578  20.834  24.737  1.00  0.00     0.025 C 
BRANCH   9  11
ATOM     11  C   UNL A   1      35.087  20.558  25.219  1.00  0.00    -0.017 A 
ATOM     12  C   UNL A   1      33.782  20.944  25.731  1.00  0.00     0.012 A 
ATOM     13  C   UNL A   1      35.193  19.330  24.673  1.00  0.00     0.099 A 
ATOM     14  C   UNL A   1      32.724  20.125  25.655  1.00  0.00     0.072 A 
ATOM     15  N   UNL A   1      34.120  18.457  24.590  1.00  0.00    -0.258 N 
ATOM     16  C   UNL A   1      32.859  18.770  25.068  1.00  0.00     0.254 A 
ATOM     17  O   UNL A   1      31.888  18.024  25.057  1.00  0.00    -0.269 OA
BRANCH  15  18
ATOM     18  C   UNL A   1      34.307  17.111  24.115  1.00  0.00     0.451 C 
ATOM     19  F   UNL A   1      34.779  17.113  22.844  1.00  0.00    -0.185 F 
ATOM     20  F   UNL A   1      35.166  16.410  24.889  1.00  0.00    -0.185 F 
ENDBRANCH  15  18
ENDBRANCH   9  11
ENDBRANCH   7   9
ENDBRANCH   6   7
ENDBRANCH   5   6
ENDBRANCH   4   5
ENDBRANCH   3   4
ENDBRANCH   2   3
ENDBRANCH   1   2
BRANCH   1  21
ATOM     21  O   UNL A   1      32.934  27.896  26.895  1.00  0.00    -0.376 OA
BRANCH  21  22
ATOM     22  C   UNL A   1      31.856  28.814  26.886  1.00  0.00     0.202 C 
BRANCH  22  23
ATOM     23  C   UNL A   1      31.961  30.339  26.661  1.00  0.00     0.261 C 
BRANCH  23  24
ATOM     24  O   UNL A   1      33.245  30.925  26.442  1.00  0.00    -0.460 OA
BRANCH  24  25
ATOM     25  C   UNL A   1      33.724  31.723  27.426  1.00  0.00     0.338 C 
ATOM     26  O   UNL A   1      33.126  32.628  27.991  1.00  0.00    -0.246 OA
BRANCH  25  27
ATOM     27  C   UNL A   1      35.023  31.173  27.870  1.00  0.00     0.060 A 
ATOM     28  C   UNL A   1      35.144  29.790  28.073  1.00  0.00     0.016 A 
ATOM     29  C   UNL A   1      36.113  32.017  28.086  1.00  0.00     0.016 A 
ATOM     30  C   UNL A   1      36.352  29.251  28.518  1.00  0.00     0.010 A 
ATOM     31  C   UNL A   1      37.312  31.478  28.556  1.00  0.00     0.010 A 
ATOM     32  C   UNL A   1      37.430  30.098  28.805  1.00  0.00    -0.014 A 
BRANCH  32  33
ATOM     33  C   UNL A   1      38.616  29.576  29.527  1.00  0.00     0.031 A 
ATOM     34  C   UNL A   1      38.933  30.134  30.887  1.00  0.00     0.074 A 
ATOM     35  C   UNL A   1      39.413  28.641  28.982  1.00  0.00     0.049 A 
ATOM     36  N   UNL A   1      39.950  29.887  31.669  1.00  0.00    -0.248 NA
ATOM     37  C   UNL A   1      37.979  31.116  31.429  1.00  0.00     0.031 C 
ATOM     38  C   UNL A   1      39.210  28.016  27.679  1.00  0.00     0.029 A 
ATOM     39  N   UNL A   1      40.570  28.071  29.454  1.00  0.00    -0.354 N 
ATOM     40  C   UNL A   1      39.785  30.711  32.775  1.00  0.00     0.074 A 
ATOM     41  C   UNL A   1      38.570  31.468  32.562  1.00  0.00     0.031 C 
ATOM     42  C   UNL A   1      40.212  27.149  27.451  1.00  0.00     0.029 A 
ATOM     43  C   UNL A   1      41.151  27.192  28.570  1.00  0.00     0.049 A 
ATOM     44  H   UNL A   1      40.947  28.271  30.342  1.00  0.00     0.167 HD
ATOM     45  C   UNL A   1      40.573  30.828  33.869  1.00  0.00     0.034 A 
ATOM     46  C   UNL A   1      42.319  26.523  28.644  1.00  0.00     0.034 A 
ATOM     47  C   UNL A   1      41.773  30.066  34.086  1.00  0.00     0.049 A 
ATOM     48  C   UNL A   1      43.188  26.687  29.866  1.00  0.00     0.074 A 
ATOM     49  C   UNL A   1      42.612  30.083  35.186  1.00  0.00     0.029 A 
ATOM     50  N   UNL A   1      42.314  29.166  33.183  1.00  0.00    -0.354 N 
ATOM     51  N   UNL A   1      42.974  27.398  30.947  1.00  0.00    -0.248 NA
ATOM     52  C   UNL A   1      44.456  25.939  29.887  1.00  0.00     0.031 C 
ATOM     53  C   UNL A   1      43.687  29.225  34.928  1.00  0.00     0.029 A 
ATOM     54  C   UNL A   1      43.489  28.635  33.691  1.00  0.00     0.049 A 
ATOM     55  H   UNL A   1      41.923  28.935  32.310  1.00  0.00     0.167 HD
ATOM     56  C   UNL A   1      44.056  27.154  31.789  1.00  0.00     0.074 A 
ATOM     57  C   UNL A   1      44.916  26.216  31.099  1.00  0.00     0.031 C 
ATOM     58  C   UNL A   1      44.317  27.667  33.017  1.00  0.00     0.034 A 
BRANCH  45  59
ATOM     59  C   UNL A   1      40.162  31.827  34.920  1.00  0.00     0.023 A 
ATOM     60  C   UNL A   1      40.610  33.160  34.840  1.00  0.00     0.012 A 
ATOM     61  C   UNL A   1      39.294  31.449  35.962  1.00  0.00     0.148 A 
ATOM     62  C   UNL A   1      40.231  34.094  35.803  1.00  0.00     0.002 A 
ATOM     63  C   UNL A   1      38.880  32.397  36.891  1.00  0.00     0.091 A 
ATOM     64  F   UNL A   1      38.897  30.170  36.034  1.00  0.00    -0.205 F 
ATOM     65  C   UNL A   1      39.358  33.715  36.820  1.00  0.00     0.022 A 
BRANCH  63  66
ATOM     66  S   UNL A   1      37.695  32.028  38.188  1.00  0.00     0.127 S 
ATOM     67  O   UNL A   1      38.482  32.296  39.391  1.00  0.00    -0.237 OA
ATOM     68  O   UNL A   1      36.636  33.003  37.923  1.00  0.00    -0.237 OA
ATOM     69  O   UNL A   1      37.304  30.639  37.996  1.00  0.00    -0.744 OA
ENDBRANCH  63  66
ENDBRANCH  45  59
BRANCH  46  70
ATOM     70  C   UNL A   1      42.740  25.622  27.532  1.00  0.00     0.023 A 
ATOM     71  C   UNL A   1      43.627  26.100  26.549  1.00  0.00     0.012 A 
ATOM     72  C   UNL A   1      42.263  24.300  27.441  1.00  0.00     0.148 A 
ATOM     73  C   UNL A   1      44.006  25.289  25.476  1.00  0.00     0.002 A 
ATOM     74  C   UNL A   1      42.691  23.478  26.404  1.00  0.00     0.091 A 
ATOM     75  F   UNL A   1      41.404  23.869  28.376  1.00  0.00    -0.205 F 
ATOM     76  C   UNL A   1      43.546  23.977  25.410  1.00  0.00     0.022 A 
BRANCH  74  77
ATOM     77  S   UNL A   1      42.252  21.740  26.308  1.00  0.00     0.127 S 
ATOM     78  O   UNL A   1      40.818  21.805  26.035  1.00  0.00    -0.237 OA
ATOM     79  O   UNL A   1      43.072  21.284  25.185  1.00  0.00    -0.237 OA
ATOM     80  O   UNL A   1      42.623  21.164  27.594  1.00  0.00    -0.744 OA
ENDBRANCH  74  77
ENDBRANCH  46  70
BRANCH  58  81
ATOM     81  C   UNL A   1      45.563  27.200  33.728  1.00  0.00     0.023 A 
ATOM     82  C   UNL A   1      46.761  27.930  33.613  1.00  0.00     0.012 A 
ATOM     83  C   UNL A   1      45.521  26.074  34.577  1.00  0.00     0.148 A 
ATOM     84  C   UNL A   1      47.907  27.529  34.300  1.00  0.00     0.002 A 
ATOM     85  C   UNL A   1      46.651  25.711  35.300  1.00  0.00     0.091 A 
ATOM     86  F   UNL A   1      44.376  25.382  34.665  1.00  0.00    -0.205 F 
ATOM     87  C   UNL A   1      47.849  26.429  35.153  1.00  0.00     0.022 A 
BRANCH  85  88
ATOM     88  S   UNL A   1      46.644  24.372  36.499  1.00  0.00     0.127 S 
ATOM     89  O   UNL A   1      45.583  24.796  37.412  1.00  0.00    -0.237 OA
ATOM     90  O   UNL A   1      46.306  23.216  35.669  1.00  0.00    -0.237 OA
ATOM     91  O   UNL A   1      47.982  24.335  37.072  1.00  0.00    -0.744 OA
ENDBRANCH  85  88
ENDBRANCH  58  81
ENDBRANCH  32  33
ENDBRANCH  25  27
ENDBRANCH  24  25
ENDBRANCH  23  24
ENDBRANCH  22  23
ENDBRANCH  21  22
ENDBRANCH   1  21
TORSDOF 22
ENDMDL
MODEL 2
REMARK VINA RESULT:      -8.8      4.427      8.847
REMARK SMILES C[C@@H](C(=O)OCCOCCOCCOC(=O)c1ccc(-c2c3nc(c(-c4cccc(S(=O)(=O)[O-])c4F)c4ccc([nH]4)c(-c4cccc(S(=O)(=O)[O-])c4F)c4nc(c(-c5cccc(S(=O)(=O)[O-])c5F)c5ccc2[nH]5)C=C4)C=C3)cc1)c1ccc(=O)n(C(F)F)c1
REMARK SMILES IDX 10 1 9 2 8 3 7 4 6 5 5 6 3 7 4 8 2 9 1 10 80 11 81 12 89 13
REMARK SMILES IDX 82 14 85 15 83 16 84 17 86 18 87 19 88 20 11 21 12 22 13 23
REMARK SMILES IDX 14 24 15 25 16 26 17 27 18 28 79 29 19 30 78 31 20 32 21 33
REMARK SMILES IDX 22 34 72 35 23 36 77 37 71 38 73 39 24 40 76 41 70 42 69 43
REMARK SMILES IDX 25 45 57 46 37 47 56 48 38 49 41 50 55 51 74 52 39 53 40 54
REMARK SMILES IDX 54 56 75 57 42 58 26 59 27 60 35 61 28 62 30 63 36 64 29 65
REMARK SMILES IDX 31 66 32 67 33 68 34 69 58 70 59 71 67 72 60 73 62 74 68 75
REMARK SMILES IDX 61 76 63 77 64 78 65 79 66 80 43 81 44 82 52 83 45 84 47 85
REMARK SMILES IDX 53 86 46 87 48 88 49 89 50 90 51 91
REMARK H PARENT 73 44 41 55
REMARK Flexibility Score: inf
ROOT
ATOM      1  C   UNL A   1      32.774  35.714  31.567  1.00  0.00     0.188 C 
ENDROOT
BRANCH   1   2
ATOM      2  C   UNL A   1      33.895  34.978  32.315  1.00  0.00     0.188 C 
BRANCH   2   3
ATOM      3  O   UNL A   1      33.741  33.598  32.594  1.00  0.00    -0.376 OA
BRANCH   3   4
ATOM      4  C   UNL A   1      34.896  32.770  32.629  1.00  0.00     0.202 C 
BRANCH   4   5
ATOM      5  C   UNL A   1      35.963  32.956  33.724  1.00  0.00     0.261 C 
BRANCH   5   6
ATOM      6  O   UNL A   1      36.855  31.838  33.908  1.00  0.00    -0.463 OA
BRANCH   6   7
ATOM      7  C   UNL A   1      37.742  31.934  34.935  1.00  0.00     0.313 C 
ATOM      8  O   UNL A   1      38.342  30.973  35.406  1.00  0.00    -0.252 OA
BRANCH   7   9
ATOM      9  C   UNL A   1      37.977  33.373  35.444  1.00  0.00     0.127 C 
ATOM     10  C   UNL A   1      39.076  34.181  34.733  1.00  0.00     0.025 C 
BRANCH   9  11
ATOM     11  C   UNL A   1      38.044  33.512  36.970  1.00  0.00    -0.017 A 
ATOM     12  C   UNL A   1      38.901  34.490  37.621  1.00  0.00     0.012 A 
ATOM     13  C   UNL A   1      37.349  32.677  37.768  1.00  0.00     0.099 A 
ATOM     14  C   UNL A   1      38.991  34.570  38.955  1.00  0.00     0.072 A 
ATOM     15  N   UNL A   1      37.430  32.729  39.150  1.00  0.00    -0.258 N 
ATOM     16  C   UNL A   1      38.234  33.634  39.821  1.00  0.00     0.254 A 
ATOM     17  O   UNL A   1      38.375  33.697  41.035  1.00  0.00    -0.269 OA
BRANCH  15  18
ATOM     18  C   UNL A   1      36.768  31.738  39.960  1.00  0.00     0.451 C 
ATOM     19  F   UNL A   1      35.740  32.292  40.647  1.00  0.00    -0.185 F 
ATOM     20  F   UNL A   1      36.287  30.713  39.221  1.00  0.00    -0.185 F 
ENDBRANCH  15  18
ENDBRANCH   9  11
ENDBRANCH   7   9
ENDBRANCH   6   7
ENDBRANCH   5   6
ENDBRANCH   4   5
ENDBRANCH   3   4
ENDBRANCH   2   3
ENDBRANCH   1   2
BRANCH   1  21
ATOM     21  O   UNL A   1      32.763  35.618  30.166  1.00  0.00    -0.376 OA
BRANCH  21  22
ATOM     22  C   UNL A   1      33.870  35.059  29.485  1.00  0.00     0.202 C 
BRANCH  22  23
ATOM     23  C   UNL A   1      33.865  33.758  28.651  1.00  0.00     0.261 C 
BRANCH  23  24
ATOM     24  O   UNL A   1      34.633  32.640  29.097  1.00  0.00    -0.460 OA
BRANCH  24  25
ATOM     25  C   UNL A   1      34.610  31.535  28.314  1.00  0.00     0.338 C 
ATOM     26  O   UNL A   1      33.847  31.313  27.385  1.00  0.00    -0.246 OA
BRANCH  25  27
ATOM     27  C   UNL A   1      35.811  30.730  28.621  1.00  0.00     0.060 A 
ATOM     28  C   UNL A   1      35.795  29.880  29.737  1.00  0.00     0.016 A 
ATOM     29  C   UNL A   1      36.946  30.816  27.814  1.00  0.00     0.016 A 
ATOM     30  C   UNL A   1      36.927  29.130  30.063  1.00  0.00     0.010 A 
ATOM     31  C   UNL A   1      38.086  30.084  28.158  1.00  0.00     0.010 A 
ATOM     32  C   UNL A   1      38.094  29.263  29.300  1.00  0.00    -0.014 A 
BRANCH  32  33
ATOM     33  C   UNL A   1      39.371  28.687  29.787  1.00  0.00     0.031 A 
ATOM     34  C   UNL A   1      40.025  29.304  30.993  1.00  0.00     0.074 A 
ATOM     35  C   UNL A   1      39.957  27.651  29.162  1.00  0.00     0.049 A 
ATOM     36  N   UNL A   1      41.170  29.020  31.553  1.00  0.00    -0.248 NA
ATOM     37  C   UNL A   1      39.289  30.399  31.647  1.00  0.00     0.031 C 
ATOM     38  C   UNL A   1      39.422  26.962  27.992  1.00  0.00     0.029 A 
ATOM     39  N   UNL A   1      41.146  27.013  29.416  1.00  0.00    -0.354 N 
ATOM     40  C   UNL A   1      41.317  29.927  32.594  1.00  0.00     0.074 A 
ATOM     41  C   UNL A   1      40.143  30.772  32.589  1.00  0.00     0.031 C 
ATOM     42  C   UNL A   1      40.283  25.997  27.625  1.00  0.00     0.029 A 
ATOM     43  C   UNL A   1      41.450  26.031  28.504  1.00  0.00     0.049 A 
ATOM     44  H   UNL A   1      41.726  27.238  30.180  1.00  0.00     0.167 HD
ATOM     45  C   UNL A   1      42.337  30.045  33.477  1.00  0.00     0.034 A 
ATOM     46  C   UNL A   1      42.554  25.267  28.377  1.00  0.00     0.034 A 
ATOM     47  C   UNL A   1      43.497  29.196  33.490  1.00  0.00     0.049 A 
ATOM     48  C   UNL A   1      43.684  25.434  29.362  1.00  0.00     0.074 A 
ATOM     49  C   UNL A   1      44.561  29.211  34.375  1.00  0.00     0.029 A 
ATOM     50  N   UNL A   1      43.757  28.194  32.569  1.00  0.00    -0.354 N 
ATOM     51  N   UNL A   1      43.770  26.231  30.400  1.00  0.00    -0.248 NA
ATOM     52  C   UNL A   1      44.867  24.580  29.168  1.00  0.00     0.031 C 
ATOM     53  C   UNL A   1      45.486  28.247  33.962  1.00  0.00     0.029 A 
ATOM     54  C   UNL A   1      44.975  27.596  32.851  1.00  0.00     0.049 A 
ATOM     55  H   UNL A   1      43.163  27.941  31.825  1.00  0.00     0.167 HD
ATOM     56  C   UNL A   1      44.992  25.948  31.002  1.00  0.00     0.074 A 
ATOM     57  C   UNL A   1      45.607  24.894  30.223  1.00  0.00     0.031 C 
ATOM     58  C   UNL A   1      45.559  26.516  32.097  1.00  0.00     0.034 A 
BRANCH  45  59
ATOM     59  C   UNL A   1      42.244  31.143  34.504  1.00  0.00     0.023 A 
ATOM     60  C   UNL A   1      41.711  30.873  35.780  1.00  0.00     0.012 A 
ATOM     61  C   UNL A   1      42.727  32.434  34.214  1.00  0.00     0.148 A 
ATOM     62  C   UNL A   1      41.626  31.881  36.740  1.00  0.00     0.002 A 
ATOM     63  C   UNL A   1      42.685  33.420  35.192  1.00  0.00     0.091 A 
ATOM     64  F   UNL A   1      43.210  32.677  32.987  1.00  0.00    -0.205 F 
ATOM     65  C   UNL A   1      42.123  33.149  36.450  1.00  0.00     0.022 A 
BRANCH  63  66
ATOM     66  S   UNL A   1      43.374  35.059  34.944  1.00  0.00     0.127 S 
ATOM     67  O   UNL A   1      43.090  35.696  36.230  1.00  0.00    -0.237 OA
ATOM     68  O   UNL A   1      44.788  34.766  34.710  1.00  0.00    -0.237 OA
ATOM     69  O   UNL A   1      42.672  35.624  33.801  1.00  0.00    -0.744 OA
ENDBRANCH  63  66
ENDBRANCH  45  59
BRANCH  46  70
ATOM     70  C   UNL A   1      42.649  24.261  27.280  1.00  0.00     0.023 A 
ATOM     71  C   UNL A   1      43.351  24.581  26.102  1.00  0.00     0.012 A 
ATOM     72  C   UNL A   1      42.045  22.994  27.394  1.00  0.00     0.148 A 
ATOM     73  C   UNL A   1      43.422  23.671  25.045  1.00  0.00     0.002 A 
ATOM     74  C   UNL A   1      42.169  22.070  26.363  1.00  0.00     0.091 A 
ATOM     75  F   UNL A   1      41.364  22.714  28.515  1.00  0.00    -0.205 F 
ATOM     76  C   UNL A   1      42.840  22.414  25.179  1.00  0.00     0.022 A 
BRANCH  74  77
ATOM     77  S   UNL A   1      41.564  20.385  26.498  1.00  0.00     0.127 S 
ATOM     78  O   UNL A   1      42.082  19.983  27.805  1.00  0.00    -0.237 OA
ATOM     79  O   UNL A   1      40.115  20.581  26.445  1.00  0.00    -0.237 OA
ATOM     80  O   UNL A   1      42.116  19.670  25.356  1.00  0.00    -0.744 OA
ENDBRANCH  74  77
ENDBRANCH  46  70
BRANCH  58  81
ATOM     81  C   UNL A   1      46.895  25.989  32.555  1.00  0.00     0.023 A 
ATOM     82  C   UNL A   1      46.961  24.985  33.541  1.00  0.00     0.012 A 
ATOM     83  C   UNL A   1      48.087  26.436  31.948  1.00  0.00     0.148 A 
ATOM     84  C   UNL A   1      48.191  24.461  33.941  1.00  0.00     0.002 A 
ATOM     85  C   UNL A   1      49.304  25.872  32.313  1.00  0.00     0.091 A 
ATOM     86  F   UNL A   1      48.008  27.402  31.020  1.00  0.00    -0.205 F 
ATOM     87  C   UNL A   1      49.359  24.894  33.319  1.00  0.00     0.022 A 
BRANCH  85  88
ATOM     88  S   UNL A   1      50.849  26.293  31.496  1.00  0.00     0.127 S 
ATOM     89  O   UNL A   1      51.801  25.440  32.206  1.00  0.00    -0.237 OA
ATOM     90  O   UNL A   1      50.586  25.895  30.113  1.00  0.00    -0.237 OA
ATOM     91  O   UNL A   1      51.030  27.726  31.689  1.00  0.00    -0.744 OA
ENDBRANCH  85  88
ENDBRANCH  58  81
ENDBRANCH  32  33
ENDBRANCH  25  27
ENDBRANCH  24  25
ENDBRANCH  23  24
ENDBRANCH  22  23
ENDBRANCH  21  22
ENDBRANCH   1  21
TORSDOF 22
ENDMDL
MODEL 3
REMARK VINA RESULT:      -8.8      1.655      2.381
REMARK SMILES C[C@@H](C(=O)OCCOCCOCCOC(=O)c1ccc(-c2c3nc(c(-c4cccc(S(=O)(=O)[O-])c4F)c4ccc([nH]4)c(-c4cccc(S(=O)(=O)[O-])c4F)c4nc(c(-c5cccc(S(=O)(=O)[O-])c5F)c5ccc2[nH]5)C=C4)C=C3)cc1)c1ccc(=O)n(C(F)F)c1
REMARK SMILES IDX 10 1 9 2 8 3 7 4 6 5 5 6 3 7 4 8 2 9 1 10 80 11 81 12 89 13
REMARK SMILES IDX 82 14 85 15 83 16 84 17 86 18 87 19 88 20 11 21 12 22 13 23
REMARK SMILES IDX 14 24 15 25 16 26 17 27 18 28 79 29 19 30 78 31 20 32 21 33
REMARK SMILES IDX 22 34 72 35 23 36 77 37 71 38 73 39 24 40 76 41 70 42 69 43
REMARK SMILES IDX 25 45 57 46 37 47 56 48 38 49 41 50 55 51 74 52 39 53 40 54
REMARK SMILES IDX 54 56 75 57 42 58 26 59 27 60 35 61 28 62 30 63 36 64 29 65
REMARK SMILES IDX 31 66 32 67 33 68 34 69 58 70 59 71 67 72 60 73 62 74 68 75
REMARK SMILES IDX 61 76 63 77 64 78 65 79 66 80 43 81 44 82 52 83 45 84 47 85
REMARK SMILES IDX 53 86 46 87 48 88 49 89 50 90 51 91
REMARK H PARENT 73 44 41 55
REMARK Flexibility Score: inf
ROOT
ATOM      1  C   UNL A   1      31.975  29.593  26.898  1.00  0.00     0.188 C 
ENDROOT
BRANCH   1   2
ATOM      2  C   UNL A   1      31.958  28.194  26.267  1.00  0.00     0.188 C 
BRANCH   2   3
ATOM      3  O   UNL A   1      32.576  28.003  25.007  1.00  0.00    -0.376 OA
BRANCH   3   4
ATOM      4  C   UNL A   1      32.309  26.809  24.283  1.00  0.00     0.202 C 
BRANCH   4   5
ATOM      5  C   UNL A   1      33.382  26.187  23.371  1.00  0.00     0.261 C 
BRANCH   5   6
ATOM      6  O   UNL A   1      33.088  24.857  22.896  1.00  0.00    -0.463 OA
BRANCH   6   7
ATOM      7  C   UNL A   1      33.888  23.858  23.358  1.00  0.00     0.313 C 
ATOM      8  O   UNL A   1      35.042  23.682  22.981  1.00  0.00    -0.252 OA
BRANCH   7   9
ATOM      9  C   UNL A   1      33.239  22.972  24.445  1.00  0.00     0.127 C 
ATOM     10  C   UNL A   1      33.007  23.629  25.817  1.00  0.00     0.025 C 
BRANCH   9  11
ATOM     11  C   UNL A   1      33.833  21.564  24.565  1.00  0.00    -0.017 A 
ATOM     12  C   UNL A   1      35.214  21.337  24.959  1.00  0.00     0.012 A 
ATOM     13  C   UNL A   1      33.101  20.479  24.241  1.00  0.00     0.099 A 
ATOM     14  C   UNL A   1      35.739  20.105  25.012  1.00  0.00     0.072 A 
ATOM     15  N   UNL A   1      33.619  19.195  24.275  1.00  0.00    -0.258 N 
ATOM     16  C   UNL A   1      34.928  18.922  24.635  1.00  0.00     0.254 A 
ATOM     17  O   UNL A   1      35.448  17.814  24.645  1.00  0.00    -0.269 OA
BRANCH  15  18
ATOM     18  C   UNL A   1      32.841  18.078  23.801  1.00  0.00     0.451 C 
ATOM     19  F   UNL A   1      31.783  17.852  24.618  1.00  0.00    -0.185 F 
ATOM     20  F   UNL A   1      32.380  18.274  22.545  1.00  0.00    -0.185 F 
ENDBRANCH  15  18
ENDBRANCH   9  11
ENDBRANCH   7   9
ENDBRANCH   6   7
ENDBRANCH   5   6
ENDBRANCH   4   5
ENDBRANCH   3   4
ENDBRANCH   2   3
ENDBRANCH   1   2
BRANCH   1  21
ATOM     21  O   UNL A   1      31.372  30.635  26.174  1.00  0.00    -0.376 OA
BRANCH  21  22
ATOM     22  C   UNL A   1      31.415  31.960  26.669  1.00  0.00     0.202 C 
BRANCH  22  23
ATOM     23  C   UNL A   1      32.591  32.610  27.432  1.00  0.00     0.261 C 
BRANCH  23  24
ATOM     24  O   UNL A   1      32.685  34.034  27.487  1.00  0.00    -0.460 OA
BRANCH  24  25
ATOM     25  C   UNL A   1      33.284  34.562  28.581  1.00  0.00     0.338 C 
ATOM     26  O   UNL A   1      32.875  35.493  29.260  1.00  0.00    -0.246 OA
BRANCH  25  27
ATOM     27  C   UNL A   1      34.408  33.680  28.959  1.00  0.00     0.060 A 
ATOM     28  C   UNL A   1      34.133  32.467  29.609  1.00  0.00     0.016 A 
ATOM     29  C   UNL A   1      35.724  34.048  28.677  1.00  0.00     0.016 A 
ATOM     30  C   UNL A   1      35.179  31.630  30.001  1.00  0.00     0.010 A 
ATOM     31  C   UNL A   1      36.769  33.221  29.094  1.00  0.00     0.010 A 
ATOM     32  C   UNL A   1      36.505  32.024  29.785  1.00  0.00    -0.014 A 
BRANCH  32  33
ATOM     33  C   UNL A   1      37.617  31.283  30.429  1.00  0.00     0.031 A 
ATOM     34  C   UNL A   1      37.946  31.586  31.865  1.00  0.00     0.074 A 
ATOM     35  C   UNL A   1      38.339  30.373  29.752  1.00  0.00     0.049 A 
ATOM     36  N   UNL A   1      38.913  31.121  32.611  1.00  0.00    -0.248 NA
ATOM     37  C   UNL A   1      37.073  32.556  32.545  1.00  0.00     0.031 C 
ATOM     38  C   UNL A   1      38.115  29.985  28.363  1.00  0.00     0.029 A 
ATOM     39  N   UNL A   1      39.424  29.627  30.141  1.00  0.00    -0.354 N 
ATOM     40  C   UNL A   1      38.794  31.772  33.832  1.00  0.00     0.074 A 
ATOM     41  C   UNL A   1      37.662  32.666  33.727  1.00  0.00     0.031 C 
ATOM     42  C   UNL A   1      39.039  29.072  28.012  1.00  0.00     0.029 A 
ATOM     43  C   UNL A   1      39.946  28.848  29.136  1.00  0.00     0.049 A 
ATOM     44  H   UNL A   1      39.793  29.647  31.055  1.00  0.00     0.167 HD
ATOM     45  C   UNL A   1      39.559  31.637  34.941  1.00  0.00     0.034 A 
ATOM     46  C   UNL A   1      41.044  28.066  29.117  1.00  0.00     0.034 A 
ATOM     47  C   UNL A   1      40.676  30.739  35.049  1.00  0.00     0.049 A 
ATOM     48  C   UNL A   1      41.890  27.950  30.361  1.00  0.00     0.074 A 
ATOM     49  C   UNL A   1      41.482  30.501  36.148  1.00  0.00     0.029 A 
ATOM     50  N   UNL A   1      41.157  29.945  34.020  1.00  0.00    -0.354 N 
ATOM     51  N   UNL A   1      41.712  28.498  31.539  1.00  0.00    -0.248 NA
ATOM     52  C   UNL A   1      43.081  27.090  30.278  1.00  0.00     0.031 C 
ATOM     53  C   UNL A   1      42.479  29.595  35.770  1.00  0.00     0.029 A 
ATOM     54  C   UNL A   1      42.263  29.230  34.452  1.00  0.00     0.049 A 
ATOM     55  H   UNL A   1      40.770  29.894  33.116  1.00  0.00     0.167 HD
ATOM     56  C   UNL A   1      42.743  28.021  32.344  1.00  0.00     0.074 A 
ATOM     57  C   UNL A   1      43.531  27.125  31.524  1.00  0.00     0.031 C 
ATOM     58  C   UNL A   1      43.015  28.306  33.643  1.00  0.00     0.034 A 
BRANCH  45  59
ATOM     59  C   UNL A   1      39.213  32.492  36.132  1.00  0.00     0.023 A 
ATOM     60  C   UNL A   1      39.723  33.802  36.234  1.00  0.00     0.012 A 
ATOM     61  C   UNL A   1      38.344  32.008  37.130  1.00  0.00     0.148 A 
ATOM     62  C   UNL A   1      39.404  34.603  37.330  1.00  0.00     0.002 A 
ATOM     63  C   UNL A   1      37.991  32.830  38.193  1.00  0.00     0.091 A 
ATOM     64  F   UNL A   1      37.887  30.751  37.027  1.00  0.00    -0.205 F 
ATOM     65  C   UNL A   1      38.531  34.122  38.301  1.00  0.00     0.022 A 
BRANCH  63  66
ATOM     66  S   UNL A   1      36.810  32.333  39.450  1.00  0.00     0.127 S 
ATOM     67  O   UNL A   1      37.185  33.200  40.567  1.00  0.00    -0.237 OA
ATOM     68  O   UNL A   1      35.532  32.669  38.821  1.00  0.00    -0.237 OA
ATOM     69  O   UNL A   1      37.025  30.909  39.667  1.00  0.00    -0.744 OA
ENDBRANCH  63  66
ENDBRANCH  45  59
BRANCH  46  70
ATOM     70  C   UNL A   1      41.410  27.316  27.881  1.00  0.00     0.023 A 
ATOM     71  C   UNL A   1      41.946  28.011  26.779  1.00  0.00     0.012 A 
ATOM     72  C   UNL A   1      41.228  25.922  27.788  1.00  0.00     0.148 A 
ATOM     73  C   UNL A   1      42.261  27.338  25.597  1.00  0.00     0.002 A 
ATOM     74  C   UNL A   1      41.599  25.250  26.630  1.00  0.00     0.091 A 
ATOM     75  F   UNL A   1      40.699  25.280  28.840  1.00  0.00    -0.205 F 
ATOM     76  C   UNL A   1      42.097  25.958  25.526  1.00  0.00     0.022 A 
BRANCH  74  77
ATOM     77  S   UNL A   1      41.544  23.460  26.495  1.00  0.00     0.127 S 
ATOM     78  O   UNL A   1      42.387  23.220  25.326  1.00  0.00    -0.237 OA
ATOM     79  O   UNL A   1      42.127  23.043  27.770  1.00  0.00    -0.237 OA
ATOM     80  O   UNL A   1      40.137  23.116  26.336  1.00  0.00    -0.744 OA
ENDBRANCH  74  77
ENDBRANCH  46  70
BRANCH  58  81
ATOM     81  C   UNL A   1      44.192  27.614  34.286  1.00  0.00     0.023 A 
ATOM     82  C   UNL A   1      45.465  28.217  34.269  1.00  0.00     0.012 A 
ATOM     83  C   UNL A   1      44.015  26.398  34.977  1.00  0.00     0.148 A 
ATOM     84  C   UNL A   1      46.550  27.604  34.897  1.00  0.00     0.002 A 
ATOM     85  C   UNL A   1      45.087  25.820  35.647  1.00  0.00     0.091 A 
ATOM     86  F   UNL A   1      42.799  25.831  34.973  1.00  0.00    -0.205 F 
ATOM     87  C   UNL A   1      46.359  26.414  35.596  1.00  0.00     0.022 A 
BRANCH  85  88
ATOM     88  S   UNL A   1      44.915  24.344  36.657  1.00  0.00     0.127 S 
ATOM     89  O   UNL A   1      46.306  24.062  37.010  1.00  0.00    -0.237 OA
ATOM     90  O   UNL A   1      44.090  24.822  37.766  1.00  0.00    -0.237 OA
ATOM     91  O   UNL A   1      44.273  23.348  35.810  1.00  0.00    -0.744 OA
ENDBRANCH  85  88
ENDBRANCH  58  81
ENDBRANCH  32  33
ENDBRANCH  25  27
ENDBRANCH  24  25
ENDBRANCH  23  24
ENDBRANCH  22  23
ENDBRANCH  21  22
ENDBRANCH   1  21
TORSDOF 22
ENDMDL
