MODEL 1
REMARK VINA RESULT:     -10.7      0.000      0.000
REMARK SMILES O=C(OCCOCCOCCOC(=O)[C@@H]1[C@@H](C(=O)Nc2cccc([N+](=O)[O-])c2)[C@@H]2C=C[C@H]1O2)c1ccc(-c2c3nc(c(-c4cccc(S(=O)(=O)[O-])c4F)c4ccc([nH]4)c(-c4cccc(S(=O)(=O)[O-])c4F)c4nc(c(-c5cccc(S(=O)(=O)[O-])c5F)c5ccc2[nH]5)C=C4)C=C3)cc1
REMARK SMILES IDX 7 1 6 2 5 3 4 4 3 5 2 6 1 7 34 8 35 9 96 10 36 11 95 12
REMARK SMILES IDX 37 13 38 14 39 15 89 16 40 17 94 18 88 19 90 20 41 21 93 22
REMARK SMILES IDX 87 23 86 24 42 26 74 27 54 28 73 29 55 30 58 31 72 32 91 33
REMARK SMILES IDX 56 34 57 35 71 37 92 38 59 39 43 40 44 41 52 42 45 43 47 44
REMARK SMILES IDX 53 45 46 46 48 47 49 48 50 49 51 50 75 51 76 52 84 53 77 54
REMARK SMILES IDX 79 55 85 56 78 57 80 58 81 59 82 60 83 61 60 62 61 63 69 64
REMARK SMILES IDX 62 65 64 66 70 67 63 68 65 69 66 70 67 71 68 72 8 73 9 74
REMARK SMILES IDX 10 75 11 76 12 77 13 78 14 79 15 80 16 81 32 82 29 83 31 84
REMARK SMILES IDX 33 85 30 86 17 87 18 88 19 89 20 91 21 92 28 93 22 94 24 95
REMARK SMILES IDX 23 96 25 97 26 98 27 99
REMARK H PARENT 90 25 58 36 19 90
REMARK Flexibility Score: inf
ROOT
ATOM      1  C   UNL A   1      34.650  34.488  27.764  1.00  0.00     0.188 C 
ENDROOT
BRANCH   1   2
ATOM      2  O   UNL A   1      34.696  35.798  28.328  1.00  0.00    -0.376 OA
BRANCH   2   3
ATOM      3  C   UNL A   1      33.416  36.434  28.386  1.00  0.00     0.202 C 
BRANCH   3   4
ATOM      4  C   UNL A   1      33.121  37.229  29.673  1.00  0.00     0.261 C 
BRANCH   4   5
ATOM      5  O   UNL A   1      32.390  36.502  30.674  1.00  0.00    -0.460 OA
BRANCH   5   6
ATOM      6  C   UNL A   1      32.757  36.134  31.926  1.00  0.00     0.338 C 
ATOM      7  O   UNL A   1      32.253  36.746  32.868  1.00  0.00    -0.246 OA
BRANCH   6   8
ATOM      8  C   UNL A   1      33.762  35.067  32.244  1.00  0.00     0.060 A 
ATOM      9  C   UNL A   1      33.585  34.019  33.149  1.00  0.00     0.016 A 
ATOM     10  C   UNL A   1      34.969  35.099  31.522  1.00  0.00     0.016 A 
ATOM     11  C   UNL A   1      34.579  33.075  33.393  1.00  0.00     0.010 A 
ATOM     12  C   UNL A   1      35.962  34.136  31.729  1.00  0.00     0.010 A 
ATOM     13  C   UNL A   1      35.785  33.154  32.713  1.00  0.00    -0.014 A 
BRANCH  13  14
ATOM     14  C   UNL A   1      36.947  32.410  33.230  1.00  0.00     0.031 A 
ATOM     15  C   UNL A   1      37.651  32.994  34.415  1.00  0.00     0.074 A 
ATOM     16  C   UNL A   1      37.326  31.220  32.736  1.00  0.00     0.049 A 
ATOM     17  N   UNL A   1      38.744  32.596  34.999  1.00  0.00    -0.248 NA
ATOM     18  C   UNL A   1      36.996  34.144  35.067  1.00  0.00     0.031 C 
ATOM     19  C   UNL A   1      36.585  30.427  31.765  1.00  0.00     0.029 A 
ATOM     20  N   UNL A   1      38.478  30.503  32.941  1.00  0.00    -0.354 N 
ATOM     21  C   UNL A   1      38.902  33.434  36.091  1.00  0.00     0.074 A 
ATOM     22  C   UNL A   1      37.823  34.392  36.069  1.00  0.00     0.031 C 
ATOM     23  C   UNL A   1      37.372  29.432  31.322  1.00  0.00     0.029 A 
ATOM     24  C   UNL A   1      38.664  29.539  31.976  1.00  0.00     0.049 A 
ATOM     25  H   UNL A   1      39.098  30.660  33.689  1.00  0.00     0.167 HD
ATOM     26  C   UNL A   1      39.853  33.377  37.047  1.00  0.00     0.034 A 
ATOM     27  C   UNL A   1      39.778  28.874  31.622  1.00  0.00     0.034 A 
ATOM     28  C   UNL A   1      40.931  32.434  37.015  1.00  0.00     0.049 A 
ATOM     29  C   UNL A   1      40.964  28.992  32.531  1.00  0.00     0.074 A 
ATOM     30  C   UNL A   1      41.967  32.275  37.914  1.00  0.00     0.029 A 
ATOM     31  N   UNL A   1      41.131  31.512  35.996  1.00  0.00    -0.354 N 
ATOM     32  N   UNL A   1      41.097  29.744  33.597  1.00  0.00    -0.248 NA
ATOM     33  C   UNL A   1      42.098  28.100  32.271  1.00  0.00     0.031 C 
ATOM     34  C   UNL A   1      42.825  31.294  37.405  1.00  0.00     0.029 A 
ATOM     35  C   UNL A   1      42.292  30.800  36.222  1.00  0.00     0.049 A 
ATOM     36  H   UNL A   1      40.533  31.385  35.224  1.00  0.00     0.167 HD
ATOM     37  C   UNL A   1      42.278  29.343  34.199  1.00  0.00     0.074 A 
ATOM     38  C   UNL A   1      42.847  28.315  33.347  1.00  0.00     0.031 C 
ATOM     39  C   UNL A   1      42.812  29.755  35.375  1.00  0.00     0.034 A 
BRANCH  26  40
ATOM     40  C   UNL A   1      39.762  34.394  38.148  1.00  0.00     0.023 A 
ATOM     41  C   UNL A   1      40.372  35.659  38.003  1.00  0.00     0.012 A 
ATOM     42  C   UNL A   1      39.124  34.069  39.358  1.00  0.00     0.148 A 
ATOM     43  C   UNL A   1      40.396  36.561  39.065  1.00  0.00     0.002 A 
ATOM     44  C   UNL A   1      39.110  34.990  40.395  1.00  0.00     0.091 A 
ATOM     45  F   UNL A   1      38.583  32.849  39.486  1.00  0.00    -0.205 F 
ATOM     46  C   UNL A   1      39.761  36.228  40.259  1.00  0.00     0.022 A 
BRANCH  44  47
ATOM     47  S   UNL A   1      38.266  34.677  41.947  1.00  0.00     0.127 S 
ATOM     48  O   UNL A   1      38.479  35.936  42.658  1.00  0.00    -0.237 OA
ATOM     49  O   UNL A   1      36.892  34.450  41.503  1.00  0.00    -0.237 OA
ATOM     50  O   UNL A   1      38.917  33.512  42.531  1.00  0.00    -0.744 OA
ENDBRANCH  44  47
ENDBRANCH  26  40
BRANCH  27  51
ATOM     51  C   UNL A   1      39.786  28.019  30.404  1.00  0.00     0.023 A 
ATOM     52  C   UNL A   1      39.013  26.846  30.364  1.00  0.00     0.012 A 
ATOM     53  C   UNL A   1      40.527  28.395  29.263  1.00  0.00     0.148 A 
ATOM     54  C   UNL A   1      38.996  26.045  29.221  1.00  0.00     0.002 A 
ATOM     55  C   UNL A   1      40.479  27.610  28.116  1.00  0.00     0.091 A 
ATOM     56  F   UNL A   1      41.244  29.525  29.313  1.00  0.00    -0.205 F 
ATOM     57  C   UNL A   1      39.724  26.427  28.097  1.00  0.00     0.022 A 
BRANCH  55  58
ATOM     58  S   UNL A   1      41.297  28.055  26.578  1.00  0.00     0.127 S 
ATOM     59  O   UNL A   1      42.673  28.260  27.014  1.00  0.00    -0.237 OA
ATOM     60  O   UNL A   1      41.067  26.855  25.777  1.00  0.00    -0.237 OA
ATOM     61  O   UNL A   1      40.611  29.250  26.096  1.00  0.00    -0.744 OA
ENDBRANCH  55  58
ENDBRANCH  27  51
BRANCH  39  62
ATOM     62  C   UNL A   1      44.032  29.034  35.869  1.00  0.00     0.023 A 
ATOM     63  C   UNL A   1      45.318  29.521  35.574  1.00  0.00     0.012 A 
ATOM     64  C   UNL A   1      43.878  27.929  36.729  1.00  0.00     0.148 A 
ATOM     65  C   UNL A   1      46.440  28.901  36.119  1.00  0.00     0.002 A 
ATOM     66  C   UNL A   1      44.996  27.358  37.316  1.00  0.00     0.091 A 
ATOM     67  F   UNL A   1      42.640  27.474  36.971  1.00  0.00    -0.205 F 
ATOM     68  C   UNL A   1      46.279  27.834  37.002  1.00  0.00     0.022 A 
BRANCH  66  69
ATOM     69  S   UNL A   1      44.873  26.064  38.553  1.00  0.00     0.127 S 
ATOM     70  O   UNL A   1      43.719  26.508  39.333  1.00  0.00    -0.237 OA
ATOM     71  O   UNL A   1      44.636  24.877  37.732  1.00  0.00    -0.237 OA
ATOM     72  O   UNL A   1      46.142  26.063  39.268  1.00  0.00    -0.744 OA
ENDBRANCH  66  69
ENDBRANCH  39  62
ENDBRANCH  13  14
ENDBRANCH   6   8
ENDBRANCH   5   6
ENDBRANCH   4   5
ENDBRANCH   3   4
ENDBRANCH   2   3
ENDBRANCH   1   2
BRANCH   1  73
ATOM     73  C   UNL A   1      33.750  33.475  28.474  1.00  0.00     0.188 C 
BRANCH  73  74
ATOM     74  O   UNL A   1      34.247  32.170  28.706  1.00  0.00    -0.376 OA
BRANCH  74  75
ATOM     75  C   UNL A   1      34.248  31.268  27.609  1.00  0.00     0.202 C 
BRANCH  75  76
ATOM     76  C   UNL A   1      33.007  30.404  27.279  1.00  0.00     0.261 C 
BRANCH  76  77
ATOM     77  O   UNL A   1      32.829  29.926  25.920  1.00  0.00    -0.463 OA
BRANCH  77  78
ATOM     78  C   UNL A   1      32.940  28.579  25.785  1.00  0.00     0.312 C 
ATOM     79  O   UNL A   1      33.951  27.958  26.112  1.00  0.00    -0.252 OA
BRANCH  78  80
ATOM     80  C   UNL A   1      31.761  27.834  25.213  1.00  0.00     0.147 C 
ATOM     81  C   UNL A   1      31.684  26.323  24.943  1.00  0.00     0.129 C 
ATOM     82  C   UNL A   1      31.186  28.471  23.950  1.00  0.00     0.157 C 
ATOM     83  C   UNL A   1      31.060  26.343  23.514  1.00  0.00     0.155 C 
ATOM     84  C   UNL A   1      32.024  28.253  22.739  1.00  0.00     0.004 C 
ATOM     85  O   UNL A   1      30.158  27.487  23.662  1.00  0.00    -0.365 OA
ATOM     86  C   UNL A   1      31.964  26.943  22.480  1.00  0.00     0.004 C 
BRANCH  81  87
ATOM     87  C   UNL A   1      30.687  25.460  25.760  1.00  0.00     0.231 C 
ATOM     88  O   UNL A   1      29.861  26.041  26.476  1.00  0.00    -0.274 OA
ATOM     89  N   UNL A   1      30.506  24.109  25.630  1.00  0.00    -0.325 N 
ATOM     90  H   UNL A   1      29.635  23.775  25.942  1.00  0.00     0.169 HD
BRANCH  89  91
ATOM     91  C   UNL A   1      31.361  23.130  25.125  1.00  0.00     0.048 A 
ATOM     92  C   UNL A   1      31.385  22.883  23.754  1.00  0.00     0.026 A 
ATOM     93  C   UNL A   1      32.232  22.463  25.984  1.00  0.00     0.111 A 
ATOM     94  C   UNL A   1      32.403  22.092  23.215  1.00  0.00     0.009 A 
ATOM     95  C   UNL A   1      33.325  21.793  25.430  1.00  0.00     0.271 A 
ATOM     96  C   UNL A   1      33.410  21.593  24.045  1.00  0.00     0.086 A 
BRANCH  95  97
ATOM     97  N   UNL A   1      34.493  21.509  26.276  1.00  0.00     0.062 N 
ATOM     98  O   UNL A   1      34.314  21.444  27.503  1.00  0.00    -0.258 OA
ATOM     99  O   UNL A   1      35.579  21.297  25.717  1.00  0.00    -0.258 OA
ENDBRANCH  95  97
ENDBRANCH  89  91
ENDBRANCH  81  87
ENDBRANCH  78  80
ENDBRANCH  77  78
ENDBRANCH  76  77
ENDBRANCH  75  76
ENDBRANCH  74  75
ENDBRANCH  73  74
ENDBRANCH   1  73
TORSDOF 23
ENDMDL
MODEL 2
REMARK VINA RESULT:     -10.3      3.113      5.251
REMARK SMILES O=C(OCCOCCOCCOC(=O)[C@@H]1[C@@H](C(=O)Nc2cccc([N+](=O)[O-])c2)[C@@H]2C=C[C@H]1O2)c1ccc(-c2c3nc(c(-c4cccc(S(=O)(=O)[O-])c4F)c4ccc([nH]4)c(-c4cccc(S(=O)(=O)[O-])c4F)c4nc(c(-c5cccc(S(=O)(=O)[O-])c5F)c5ccc2[nH]5)C=C4)C=C3)cc1
REMARK SMILES IDX 7 1 6 2 5 3 4 4 3 5 2 6 1 7 34 8 35 9 96 10 36 11 95 12
REMARK SMILES IDX 37 13 38 14 39 15 89 16 40 17 94 18 88 19 90 20 41 21 93 22
REMARK SMILES IDX 87 23 86 24 42 26 74 27 54 28 73 29 55 30 58 31 72 32 91 33
REMARK SMILES IDX 56 34 57 35 71 37 92 38 59 39 43 40 44 41 52 42 45 43 47 44
REMARK SMILES IDX 53 45 46 46 48 47 49 48 50 49 51 50 75 51 76 52 84 53 77 54
REMARK SMILES IDX 79 55 85 56 78 57 80 58 81 59 82 60 83 61 60 62 61 63 69 64
REMARK SMILES IDX 62 65 64 66 70 67 63 68 65 69 66 70 67 71 68 72 8 73 9 74
REMARK SMILES IDX 10 75 11 76 12 77 13 78 14 79 15 80 16 81 32 82 29 83 31 84
REMARK SMILES IDX 33 85 30 86 17 87 18 88 19 89 20 91 21 92 28 93 22 94 24 95
REMARK SMILES IDX 23 96 25 97 26 98 27 99
REMARK H PARENT 90 25 58 36 19 90
REMARK Flexibility Score: inf
ROOT
ATOM      1  C   UNL A   1      31.886  29.358  24.210  1.00  0.00     0.188 C 
ENDROOT
BRANCH   1   2
ATOM      2  O   UNL A   1      30.732  30.066  24.661  1.00  0.00    -0.376 OA
BRANCH   2   3
ATOM      3  C   UNL A   1      31.031  31.081  25.623  1.00  0.00     0.202 C 
BRANCH   3   4
ATOM      4  C   UNL A   1      32.455  31.045  26.212  1.00  0.00     0.261 C 
BRANCH   4   5
ATOM      5  O   UNL A   1      32.703  32.012  27.245  1.00  0.00    -0.460 OA
BRANCH   5   6
ATOM      6  C   UNL A   1      33.873  32.534  27.688  1.00  0.00     0.338 C 
ATOM      7  O   UNL A   1      33.972  33.760  27.720  1.00  0.00    -0.246 OA
BRANCH   6   8
ATOM      8  C   UNL A   1      35.067  31.725  28.103  1.00  0.00     0.060 A 
ATOM      9  C   UNL A   1      35.105  30.337  28.249  1.00  0.00     0.016 A 
ATOM     10  C   UNL A   1      36.268  32.429  28.309  1.00  0.00     0.016 A 
ATOM     11  C   UNL A   1      36.257  29.666  28.651  1.00  0.00     0.010 A 
ATOM     12  C   UNL A   1      37.442  31.765  28.677  1.00  0.00     0.010 A 
ATOM     13  C   UNL A   1      37.417  30.382  28.904  1.00  0.00    -0.014 A 
BRANCH  13  14
ATOM     14  C   UNL A   1      38.498  29.743  29.676  1.00  0.00     0.031 A 
ATOM     15  C   UNL A   1      38.830  30.349  31.003  1.00  0.00     0.074 A 
ATOM     16  C   UNL A   1      39.112  28.619  29.271  1.00  0.00     0.049 A 
ATOM     17  N   UNL A   1      39.789  30.043  31.828  1.00  0.00    -0.248 NA
ATOM     18  C   UNL A   1      37.916  31.398  31.493  1.00  0.00     0.031 C 
ATOM     19  C   UNL A   1      38.716  27.793  28.139  1.00  0.00     0.029 A 
ATOM     20  N   UNL A   1      40.254  28.018  29.739  1.00  0.00    -0.354 N 
ATOM     21  C   UNL A   1      39.589  30.848  32.938  1.00  0.00     0.074 A 
ATOM     22  C   UNL A   1      38.448  31.690  32.669  1.00  0.00     0.031 C 
ATOM     23  C   UNL A   1      39.691  26.903  27.886  1.00  0.00     0.029 A 
ATOM     24  C   UNL A   1      40.770  27.118  28.834  1.00  0.00     0.049 A 
ATOM     25  H   UNL A   1      40.657  28.208  30.616  1.00  0.00     0.167 HD
ATOM     26  C   UNL A   1      40.285  30.853  34.094  1.00  0.00     0.034 A 
ATOM     27  C   UNL A   1      42.002  26.586  28.750  1.00  0.00     0.034 A 
ATOM     28  C   UNL A   1      41.437  30.029  34.310  1.00  0.00     0.049 A 
ATOM     29  C   UNL A   1      42.917  26.790  29.919  1.00  0.00     0.074 A 
ATOM     30  C   UNL A   1      42.240  29.942  35.430  1.00  0.00     0.029 A 
ATOM     31  N   UNL A   1      41.975  29.174  33.357  1.00  0.00    -0.354 N 
ATOM     32  N   UNL A   1      42.709  27.509  30.996  1.00  0.00    -0.248 NA
ATOM     33  C   UNL A   1      44.172  26.032  29.928  1.00  0.00     0.031 C 
ATOM     34  C   UNL A   1      43.298  29.076  35.130  1.00  0.00     0.029 A 
ATOM     35  C   UNL A   1      43.119  28.577  33.847  1.00  0.00     0.049 A 
ATOM     36  H   UNL A   1      41.595  29.017  32.462  1.00  0.00     0.167 HD
ATOM     37  C   UNL A   1      43.749  27.209  31.860  1.00  0.00     0.074 A 
ATOM     38  C   UNL A   1      44.614  26.280  31.156  1.00  0.00     0.031 C 
ATOM     39  C   UNL A   1      43.939  27.626  33.135  1.00  0.00     0.034 A 
BRANCH  26  40
ATOM     40  C   UNL A   1      39.823  31.810  35.154  1.00  0.00     0.023 A 
ATOM     41  C   UNL A   1      38.741  31.473  35.997  1.00  0.00     0.012 A 
ATOM     42  C   UNL A   1      40.422  33.076  35.271  1.00  0.00     0.148 A 
ATOM     43  C   UNL A   1      38.229  32.403  36.900  1.00  0.00     0.002 A 
ATOM     44  C   UNL A   1      39.938  33.980  36.207  1.00  0.00     0.091 A 
ATOM     45  F   UNL A   1      41.424  33.388  34.437  1.00  0.00    -0.205 F 
ATOM     46  C   UNL A   1      38.831  33.654  37.008  1.00  0.00     0.022 A 
BRANCH  44  47
ATOM     47  S   UNL A   1      40.685  35.592  36.461  1.00  0.00     0.127 S 
ATOM     48  O   UNL A   1      39.552  36.365  36.965  1.00  0.00    -0.237 OA
ATOM     49  O   UNL A   1      41.714  35.294  37.457  1.00  0.00    -0.237 OA
ATOM     50  O   UNL A   1      41.197  36.007  35.163  1.00  0.00    -0.744 OA
ENDBRANCH  44  47
ENDBRANCH  26  40
BRANCH  27  51
ATOM     51  C   UNL A   1      42.395  25.786  27.558  1.00  0.00     0.023 A 
ATOM     52  C   UNL A   1      43.151  26.379  26.532  1.00  0.00     0.012 A 
ATOM     53  C   UNL A   1      42.060  24.418  27.463  1.00  0.00     0.148 A 
ATOM     54  C   UNL A   1      43.544  25.635  25.418  1.00  0.00     0.002 A 
ATOM     55  C   UNL A   1      42.483  23.675  26.366  1.00  0.00     0.091 A 
ATOM     56  F   UNL A   1      41.354  23.865  28.459  1.00  0.00    -0.205 F 
ATOM     57  C   UNL A   1      43.214  24.285  25.336  1.00  0.00     0.022 A 
BRANCH  55  58
ATOM     58  S   UNL A   1      42.202  21.907  26.202  1.00  0.00     0.127 S 
ATOM     59  O   UNL A   1      42.557  21.418  27.528  1.00  0.00    -0.237 OA
ATOM     60  O   UNL A   1      40.776  21.875  25.884  1.00  0.00    -0.237 OA
ATOM     61  O   UNL A   1      43.077  21.466  25.120  1.00  0.00    -0.744 OA
ENDBRANCH  55  58
ENDBRANCH  27  51
BRANCH  39  62
ATOM     62  C   UNL A   1      45.077  27.017  33.899  1.00  0.00     0.023 A 
ATOM     63  C   UNL A   1      46.351  27.613  33.880  1.00  0.00     0.012 A 
ATOM     64  C   UNL A   1      44.833  25.906  34.731  1.00  0.00     0.148 A 
ATOM     65  C   UNL A   1      47.375  27.096  34.670  1.00  0.00     0.002 A 
ATOM     66  C   UNL A   1      45.839  25.437  35.559  1.00  0.00     0.091 A 
ATOM     67  F   UNL A   1      43.615  25.346  34.708  1.00  0.00    -0.205 F 
ATOM     68  C   UNL A   1      47.115  26.022  35.521  1.00  0.00     0.022 A 
BRANCH  66  69
ATOM     69  S   UNL A   1      45.558  24.142  36.769  1.00  0.00     0.127 S 
ATOM     70  O   UNL A   1      44.627  23.268  36.059  1.00  0.00    -0.237 OA
ATOM     71  O   UNL A   1      46.902  23.591  36.944  1.00  0.00    -0.237 OA
ATOM     72  O   UNL A   1      45.015  24.800  37.950  1.00  0.00    -0.744 OA
ENDBRANCH  66  69
ENDBRANCH  39  62
ENDBRANCH  13  14
ENDBRANCH   6   8
ENDBRANCH   5   6
ENDBRANCH   4   5
ENDBRANCH   3   4
ENDBRANCH   2   3
ENDBRANCH   1   2
BRANCH   1  73
ATOM     73  C   UNL A   1      31.812  28.765  22.802  1.00  0.00     0.188 C 
BRANCH  73  74
ATOM     74  O   UNL A   1      31.754  27.358  22.660  1.00  0.00    -0.376 OA
BRANCH  74  75
ATOM     75  C   UNL A   1      32.965  26.684  22.352  1.00  0.00     0.202 C 
BRANCH  75  76
ATOM     76  C   UNL A   1      33.096  25.151  22.522  1.00  0.00     0.261 C 
BRANCH  76  77
ATOM     77  O   UNL A   1      34.415  24.578  22.716  1.00  0.00    -0.463 OA
BRANCH  77  78
ATOM     78  C   UNL A   1      34.763  24.407  24.018  1.00  0.00     0.312 C 
ATOM     79  O   UNL A   1      35.155  25.332  24.729  1.00  0.00    -0.252 OA
BRANCH  78  80
ATOM     80  C   UNL A   1      34.650  23.020  24.595  1.00  0.00     0.147 C 
ATOM     81  C   UNL A   1      34.739  22.644  26.083  1.00  0.00     0.129 C 
ATOM     82  C   UNL A   1      35.531  21.989  23.894  1.00  0.00     0.157 C 
ATOM     83  C   UNL A   1      35.697  21.417  25.987  1.00  0.00     0.155 C 
ATOM     84  C   UNL A   1      36.975  22.108  24.236  1.00  0.00     0.004 C 
ATOM     85  O   UNL A   1      35.222  20.840  24.727  1.00  0.00    -0.365 OA
ATOM     86  C   UNL A   1      37.077  21.777  25.527  1.00  0.00     0.004 C 
BRANCH  81  87
ATOM     87  C   UNL A   1      33.485  22.068  26.792  1.00  0.00     0.231 C 
ATOM     88  O   UNL A   1      33.567  20.944  27.303  1.00  0.00    -0.274 OA
ATOM     89  N   UNL A   1      32.338  22.760  27.074  1.00  0.00    -0.325 N 
ATOM     90  H   UNL A   1      31.797  22.388  27.807  1.00  0.00     0.169 HD
BRANCH  89  91
ATOM     91  C   UNL A   1      31.811  23.910  26.486  1.00  0.00     0.048 A 
ATOM     92  C   UNL A   1      30.690  23.808  25.665  1.00  0.00     0.026 A 
ATOM     93  C   UNL A   1      32.365  25.154  26.783  1.00  0.00     0.111 A 
ATOM     94  C   UNL A   1      30.013  24.966  25.278  1.00  0.00     0.009 A 
ATOM     95  C   UNL A   1      31.608  26.297  26.514  1.00  0.00     0.271 A 
ATOM     96  C   UNL A   1      30.436  26.212  25.750  1.00  0.00     0.086 A 
BRANCH  95  97
ATOM     97  N   UNL A   1      31.918  27.543  27.229  1.00  0.00     0.062 N 
ATOM     98  O   UNL A   1      30.994  28.098  27.847  1.00  0.00    -0.258 OA
ATOM     99  O   UNL A   1      33.091  27.943  27.222  1.00  0.00    -0.258 OA
ENDBRANCH  95  97
ENDBRANCH  89  91
ENDBRANCH  81  87
ENDBRANCH  78  80
ENDBRANCH  77  78
ENDBRANCH  76  77
ENDBRANCH  75  76
ENDBRANCH  74  75
ENDBRANCH  73  74
ENDBRANCH   1  73
TORSDOF 23
ENDMDL
MODEL 3
REMARK VINA RESULT:     -10.1      4.890     11.071
REMARK SMILES O=C(OCCOCCOCCOC(=O)[C@@H]1[C@@H](C(=O)Nc2cccc([N+](=O)[O-])c2)[C@@H]2C=C[C@H]1O2)c1ccc(-c2c3nc(c(-c4cccc(S(=O)(=O)[O-])c4F)c4ccc([nH]4)c(-c4cccc(S(=O)(=O)[O-])c4F)c4nc(c(-c5cccc(S(=O)(=O)[O-])c5F)c5ccc2[nH]5)C=C4)C=C3)cc1
REMARK SMILES IDX 7 1 6 2 5 3 4 4 3 5 2 6 1 7 34 8 35 9 96 10 36 11 95 12
REMARK SMILES IDX 37 13 38 14 39 15 89 16 40 17 94 18 88 19 90 20 41 21 93 22
REMARK SMILES IDX 87 23 86 24 42 26 74 27 54 28 73 29 55 30 58 31 72 32 91 33
REMARK SMILES IDX 56 34 57 35 71 37 92 38 59 39 43 40 44 41 52 42 45 43 47 44
REMARK SMILES IDX 53 45 46 46 48 47 49 48 50 49 51 50 75 51 76 52 84 53 77 54
REMARK SMILES IDX 79 55 85 56 78 57 80 58 81 59 82 60 83 61 60 62 61 63 69 64
REMARK SMILES IDX 62 65 64 66 70 67 63 68 65 69 66 70 67 71 68 72 8 73 9 74
REMARK SMILES IDX 10 75 11 76 12 77 13 78 14 79 15 80 16 81 32 82 29 83 31 84
REMARK SMILES IDX 33 85 30 86 17 87 18 88 19 89 20 91 21 92 28 93 22 94 24 95
REMARK SMILES IDX 23 96 25 97 26 98 27 99
REMARK H PARENT 90 25 58 36 19 90
REMARK Flexibility Score: inf
ROOT
ATOM      1  C   UNL A   1      41.525  21.745  26.429  1.00  0.00     0.188 C 
ENDROOT
BRANCH   1   2
ATOM      2  O   UNL A   1      42.427  21.936  25.340  1.00  0.00    -0.376 OA
BRANCH   2   3
ATOM      3  C   UNL A   1      43.027  23.234  25.325  1.00  0.00     0.202 C 
BRANCH   3   4
ATOM      4  C   UNL A   1      44.563  23.260  25.193  1.00  0.00     0.261 C 
BRANCH   4   5
ATOM      5  O   UNL A   1      45.094  24.441  24.571  1.00  0.00    -0.460 OA
BRANCH   5   6
ATOM      6  C   UNL A   1      46.012  25.328  25.026  1.00  0.00     0.338 C 
ATOM      7  O   UNL A   1      47.140  25.280  24.535  1.00  0.00    -0.246 OA
BRANCH   6   8
ATOM      8  C   UNL A   1      45.766  26.332  26.113  1.00  0.00     0.060 A 
ATOM      9  C   UNL A   1      46.723  26.831  26.999  1.00  0.00     0.016 A 
ATOM     10  C   UNL A   1      44.463  26.855  26.208  1.00  0.00     0.016 A 
ATOM     11  C   UNL A   1      46.404  27.756  27.990  1.00  0.00     0.010 A 
ATOM     12  C   UNL A   1      44.137  27.813  27.174  1.00  0.00     0.010 A 
ATOM     13  C   UNL A   1      45.102  28.220  28.105  1.00  0.00    -0.014 A 
BRANCH  13  14
ATOM     14  C   UNL A   1      44.688  28.885  29.353  1.00  0.00     0.031 A 
ATOM     15  C   UNL A   1      44.442  28.005  30.538  1.00  0.00     0.074 A 
ATOM     16  C   UNL A   1      44.611  30.220  29.473  1.00  0.00     0.049 A 
ATOM     17  N   UNL A   1      43.983  28.322  31.714  1.00  0.00    -0.248 NA
ATOM     18  C   UNL A   1      44.828  26.589  30.397  1.00  0.00     0.031 C 
ATOM     19  C   UNL A   1      45.064  31.192  28.486  1.00  0.00     0.029 A 
ATOM     20  N   UNL A   1      44.053  30.989  30.463  1.00  0.00    -0.354 N 
ATOM     21  C   UNL A   1      44.036  27.153  32.456  1.00  0.00     0.074 A 
ATOM     22  C   UNL A   1      44.528  26.107  31.591  1.00  0.00     0.031 C 
ATOM     23  C   UNL A   1      44.609  32.408  28.829  1.00  0.00     0.029 A 
ATOM     24  C   UNL A   1      43.829  32.283  30.048  1.00  0.00     0.049 A 
ATOM     25  H   UNL A   1      43.837  30.656  31.364  1.00  0.00     0.167 HD
ATOM     26  C   UNL A   1      43.731  26.985  33.760  1.00  0.00     0.034 A 
ATOM     27  C   UNL A   1      43.026  33.230  30.563  1.00  0.00     0.034 A 
ATOM     28  C   UNL A   1      43.209  28.039  34.578  1.00  0.00     0.049 A 
ATOM     29  C   UNL A   1      42.444  32.969  31.920  1.00  0.00     0.074 A 
ATOM     30  C   UNL A   1      42.849  28.002  35.910  1.00  0.00     0.029 A 
ATOM     31  N   UNL A   1      42.934  29.320  34.117  1.00  0.00    -0.354 N 
ATOM     32  N   UNL A   1      42.537  31.883  32.648  1.00  0.00    -0.248 NA
ATOM     33  C   UNL A   1      41.753  34.084  32.577  1.00  0.00     0.031 C 
ATOM     34  C   UNL A   1      42.300  29.247  36.238  1.00  0.00     0.029 A 
ATOM     35  C   UNL A   1      42.376  30.078  35.128  1.00  0.00     0.049 A 
ATOM     36  H   UNL A   1      43.110  29.641  33.203  1.00  0.00     0.167 HD
ATOM     37  C   UNL A   1      42.017  32.211  33.888  1.00  0.00     0.074 A 
ATOM     38  C   UNL A   1      41.562  33.586  33.793  1.00  0.00     0.031 C 
ATOM     39  C   UNL A   1      41.968  31.457  35.013  1.00  0.00     0.034 A 
BRANCH  26  40
ATOM     40  C   UNL A   1      43.920  25.606  34.323  1.00  0.00     0.023 A 
ATOM     41  C   UNL A   1      42.835  24.704  34.382  1.00  0.00     0.012 A 
ATOM     42  C   UNL A   1      45.164  25.227  34.857  1.00  0.00     0.148 A 
ATOM     43  C   UNL A   1      42.973  23.469  35.013  1.00  0.00     0.002 A 
ATOM     44  C   UNL A   1      45.307  23.976  35.441  1.00  0.00     0.091 A 
ATOM     45  F   UNL A   1      46.170  26.112  34.822  1.00  0.00    -0.205 F 
ATOM     46  C   UNL A   1      44.210  23.104  35.538  1.00  0.00     0.022 A 
BRANCH  44  47
ATOM     47  S   UNL A   1      46.875  23.392  36.090  1.00  0.00     0.127 S 
ATOM     48  O   UNL A   1      47.712  23.406  34.891  1.00  0.00    -0.237 OA
ATOM     49  O   UNL A   1      47.198  24.425  37.073  1.00  0.00    -0.237 OA
ATOM     50  O   UNL A   1      46.612  22.077  36.654  1.00  0.00    -0.744 OA
ENDBRANCH  44  47
ENDBRANCH  26  40
BRANCH  27  51
ATOM     51  C   UNL A   1      42.788  34.498  29.821  1.00  0.00     0.023 A 
ATOM     52  C   UNL A   1      41.670  34.618  28.977  1.00  0.00     0.012 A 
ATOM     53  C   UNL A   1      43.645  35.606  29.990  1.00  0.00     0.148 A 
ATOM     54  C   UNL A   1      41.423  35.808  28.291  1.00  0.00     0.002 A 
ATOM     55  C   UNL A   1      43.374  36.799  29.329  1.00  0.00     0.091 A 
ATOM     56  F   UNL A   1      44.695  35.479  30.812  1.00  0.00    -0.205 F 
ATOM     57  C   UNL A   1      42.271  36.898  28.468  1.00  0.00     0.022 A 
BRANCH  55  58
ATOM     58  S   UNL A   1      44.340  38.298  29.558  1.00  0.00     0.127 S 
ATOM     59  O   UNL A   1      43.689  39.223  28.638  1.00  0.00    -0.237 OA
ATOM     60  O   UNL A   1      44.116  38.565  30.977  1.00  0.00    -0.237 OA
ATOM     61  O   UNL A   1      45.713  37.940  29.214  1.00  0.00    -0.744 OA
ENDBRANCH  55  58
ENDBRANCH  27  51
BRANCH  39  62
ATOM     62  C   UNL A   1      41.489  32.122  36.270  1.00  0.00     0.023 A 
ATOM     63  C   UNL A   1      42.359  32.924  37.030  1.00  0.00     0.012 A 
ATOM     64  C   UNL A   1      40.128  32.030  36.622  1.00  0.00     0.148 A 
ATOM     65  C   UNL A   1      41.878  33.616  38.140  1.00  0.00     0.002 A 
ATOM     66  C   UNL A   1      39.646  32.770  37.690  1.00  0.00     0.091 A 
ATOM     67  F   UNL A   1      39.330  31.237  35.892  1.00  0.00    -0.205 F 
ATOM     68  C   UNL A   1      40.522  33.553  38.459  1.00  0.00     0.022 A 
BRANCH  66  69
ATOM     69  S   UNL A   1      37.900  32.843  38.095  1.00  0.00     0.127 S 
ATOM     70  O   UNL A   1      37.930  33.415  39.440  1.00  0.00    -0.237 OA
ATOM     71  O   UNL A   1      37.384  33.739  37.060  1.00  0.00    -0.237 OA
ATOM     72  O   UNL A   1      37.406  31.475  38.014  1.00  0.00    -0.744 OA
ENDBRANCH  66  69
ENDBRANCH  39  62
ENDBRANCH  13  14
ENDBRANCH   6   8
ENDBRANCH   5   6
ENDBRANCH   4   5
ENDBRANCH   3   4
ENDBRANCH   2   3
ENDBRANCH   1   2
BRANCH   1  73
ATOM     73  C   UNL A   1      41.682  22.696  27.616  1.00  0.00     0.188 C 
BRANCH  73  74
ATOM     74  O   UNL A   1      40.524  23.301  28.160  1.00  0.00    -0.376 OA
BRANCH  74  75
ATOM     75  C   UNL A   1      39.814  24.211  27.332  1.00  0.00     0.202 C 
BRANCH  75  76
ATOM     76  C   UNL A   1      39.824  25.732  27.619  1.00  0.00     0.261 C 
BRANCH  76  77
ATOM     77  O   UNL A   1      39.637  26.186  28.985  1.00  0.00    -0.463 OA
BRANCH  77  78
ATOM     78  C   UNL A   1      39.123  27.439  29.090  1.00  0.00     0.312 C 
ATOM     79  O   UNL A   1      38.471  27.969  28.190  1.00  0.00    -0.252 OA
BRANCH  78  80
ATOM     80  C   UNL A   1      39.368  28.191  30.373  1.00  0.00     0.147 C 
ATOM     81  C   UNL A   1      38.450  29.256  30.993  1.00  0.00     0.129 C 
ATOM     82  C   UNL A   1      40.766  28.797  30.472  1.00  0.00     0.157 C 
ATOM     83  C   UNL A   1      39.511  30.340  31.354  1.00  0.00     0.155 C 
ATOM     84  C   UNL A   1      40.952  30.007  29.625  1.00  0.00     0.004 C 
ATOM     85  O   UNL A   1      40.619  29.468  31.751  1.00  0.00    -0.365 OA
ATOM     86  C   UNL A   1      40.167  30.951  30.152  1.00  0.00     0.004 C 
BRANCH  81  87
ATOM     87  C   UNL A   1      37.760  28.960  32.351  1.00  0.00     0.231 C 
ATOM     88  O   UNL A   1      37.855  27.818  32.818  1.00  0.00    -0.274 OA
ATOM     89  N   UNL A   1      37.203  29.893  33.184  1.00  0.00    -0.325 N 
ATOM     90  H   UNL A   1      37.127  29.616  34.125  1.00  0.00     0.169 HD
BRANCH  89  91
ATOM     91  C   UNL A   1      36.724  31.174  32.911  1.00  0.00     0.048 A 
ATOM     92  C   UNL A   1      37.337  32.275  33.504  1.00  0.00     0.026 A 
ATOM     93  C   UNL A   1      35.689  31.344  31.993  1.00  0.00     0.111 A 
ATOM     94  C   UNL A   1      37.033  33.560  33.049  1.00  0.00     0.009 A 
ATOM     95  C   UNL A   1      35.492  32.613  31.445  1.00  0.00     0.271 A 
ATOM     96  C   UNL A   1      36.152  33.730  31.978  1.00  0.00     0.086 A 
BRANCH  95  97
ATOM     97  N   UNL A   1      34.777  32.737  30.167  1.00  0.00     0.062 N 
ATOM     98  O   UNL A   1      34.966  31.856  29.313  1.00  0.00    -0.258 OA
ATOM     99  O   UNL A   1      33.986  33.682  30.031  1.00  0.00    -0.258 OA
ENDBRANCH  95  97
ENDBRANCH  89  91
ENDBRANCH  81  87
ENDBRANCH  78  80
ENDBRANCH  77  78
ENDBRANCH  76  77
ENDBRANCH  75  76
ENDBRANCH  74  75
ENDBRANCH  73  74
ENDBRANCH   1  73
TORSDOF 23
ENDMDL
