MODEL 1
REMARK VINA RESULT:      -8.5      0.000      0.000
REMARK SMILES COc1ccc(-c2ccc(CCC(=O)OCCOCCOCCOC(=O)c3ccc(-c4c5nc(c(-c6cccc(S(=O)(=O)[O-])c6F)c6ccc([nH]6)c(-c6cccc(S(=O)(=O)[O-])c6F)c6nc(c(-c7cccc(S(=O)(=O)[O-])c7F)c7ccc4[nH]7)C=C6)C=C5)cc3)n2-c2ccc(C(C)=O)cc2)cc1
REMARK SMILES IDX 19 1 18 2 17 3 16 4 15 5 13 6 14 7 12 8 11 9 10 10 7 11 8 12
REMARK SMILES IDX 90 13 9 14 6 15 3 16 4 17 101 18 5 19 100 20 2 21 1 22 91 23
REMARK SMILES IDX 92 24 99 25 93 26 98 27 94 28 95 29 96 30 97 31 20 32 21 33
REMARK SMILES IDX 22 34 23 35 24 36 25 37 26 38 27 39 28 40 89 41 29 42 88 43
REMARK SMILES IDX 30 44 31 45 32 46 82 47 33 48 87 49 81 50 83 51 34 52 86 53
REMARK SMILES IDX 80 54 79 55 35 57 67 58 47 59 66 60 48 61 51 62 65 63 84 64
REMARK SMILES IDX 49 65 50 66 64 68 85 69 52 70 36 71 37 72 45 73 38 74 40 75
REMARK SMILES IDX 46 76 39 77 41 78 42 79 43 80 44 81 68 82 69 83 77 84 70 85
REMARK SMILES IDX 72 86 78 87 71 88 73 89 74 90 75 91 76 92 53 93 54 94 62 95
REMARK SMILES IDX 55 96 57 97 63 98 56 99 58 100 59 101 60 102 61 103
REMARK H PARENT 83 56 51 67
REMARK Flexibility Score: inf
ROOT
ATOM      1  C   UNL A   1      36.061  21.117  25.015  1.00  0.00     0.188 C 
ENDROOT
BRANCH   1   2
ATOM      2  O   UNL A   1      37.004  20.049  25.112  1.00  0.00    -0.376 OA
BRANCH   2   3
ATOM      3  C   UNL A   1      38.381  20.410  25.007  1.00  0.00     0.202 C 
BRANCH   3   4
ATOM      4  C   UNL A   1      39.315  19.619  25.927  1.00  0.00     0.261 C 
BRANCH   4   5
ATOM      5  O   UNL A   1      40.697  19.991  25.760  1.00  0.00    -0.463 OA
BRANCH   5   6
ATOM      6  C   UNL A   1      41.260  20.813  26.669  1.00  0.00     0.306 C 
ATOM      7  O   UNL A   1      40.706  21.197  27.695  1.00  0.00    -0.252 OA
BRANCH   6   8
ATOM      8  C   UNL A   1      42.670  21.257  26.315  1.00  0.00     0.129 C 
BRANCH   8   9
ATOM      9  C   UNL A   1      43.392  22.301  27.176  1.00  0.00     0.066 C 
BRANCH   9  10
ATOM     10  C   UNL A   1      43.683  23.600  26.475  1.00  0.00     0.024 A 
ATOM     11  C   UNL A   1      44.158  25.781  26.124  1.00  0.00     0.053 A 
ATOM     12  C   UNL A   1      43.828  25.225  24.906  1.00  0.00     0.029 A 
ATOM     13  N   UNL A   1      44.165  24.762  27.075  1.00  0.00    -0.314 N 
ATOM     14  C   UNL A   1      43.508  23.888  25.135  1.00  0.00     0.024 A 
BRANCH  11  15
ATOM     15  C   UNL A   1      44.465  27.185  26.344  1.00  0.00    -0.001 A 
ATOM     16  C   UNL A   1      44.912  29.915  26.713  1.00  0.00     0.118 A 
ATOM     17  C   UNL A   1      45.939  29.094  26.240  1.00  0.00     0.047 A 
ATOM     18  C   UNL A   1      43.648  29.382  26.954  1.00  0.00     0.047 A 
ATOM     19  C   UNL A   1      45.720  27.726  26.060  1.00  0.00     0.014 A 
ATOM     20  C   UNL A   1      43.428  28.021  26.772  1.00  0.00     0.014 A 
BRANCH  16  21
ATOM     21  O   UNL A   1      45.224  31.239  26.868  1.00  0.00    -0.497 OA
ATOM     22  C   UNL A   1      44.213  31.992  27.531  1.00  0.00     0.278 C 
ENDBRANCH  16  21
ENDBRANCH  11  15
BRANCH  13  23
ATOM     23  C   UNL A   1      44.534  24.904  28.434  1.00  0.00     0.046 A 
ATOM     24  C   UNL A   1      43.568  24.768  29.435  1.00  0.00     0.027 A 
ATOM     25  C   UNL A   1      45.867  25.148  28.761  1.00  0.00     0.027 A 
ATOM     26  C   UNL A   1      43.941  24.877  30.781  1.00  0.00     0.014 A 
ATOM     27  C   UNL A   1      46.228  25.282  30.103  1.00  0.00     0.014 A 
ATOM     28  C   UNL A   1      45.275  25.145  31.126  1.00  0.00     0.017 A 
BRANCH  28  29
ATOM     29  C   UNL A   1      45.756  25.302  32.535  1.00  0.00     0.159 C 
ATOM     30  C   UNL A   1      45.609  24.193  33.544  1.00  0.00     0.093 C 
ATOM     31  O   UNL A   1      46.298  26.358  32.869  1.00  0.00    -0.295 OA
ENDBRANCH  28  29
ENDBRANCH  13  23
ENDBRANCH   9  10
ENDBRANCH   8   9
ENDBRANCH   6   8
ENDBRANCH   5   6
ENDBRANCH   4   5
ENDBRANCH   3   4
ENDBRANCH   2   3
ENDBRANCH   1   2
BRANCH   1  32
ATOM     32  C   UNL A   1      36.539  22.317  24.191  1.00  0.00     0.188 C 
BRANCH  32  33
ATOM     33  O   UNL A   1      36.580  23.498  24.980  1.00  0.00    -0.376 OA
BRANCH  33  34
ATOM     34  C   UNL A   1      37.154  23.564  26.287  1.00  0.00     0.202 C 
BRANCH  34  35
ATOM     35  C   UNL A   1      38.639  23.379  26.559  1.00  0.00     0.261 C 
BRANCH  35  36
ATOM     36  O   UNL A   1      39.048  23.924  27.785  1.00  0.00    -0.460 OA
BRANCH  36  37
ATOM     37  C   UNL A   1      40.013  24.856  27.766  1.00  0.00     0.338 C 
ATOM     38  O   UNL A   1      41.222  24.699  27.689  1.00  0.00    -0.246 OA
BRANCH  37  39
ATOM     39  C   UNL A   1      39.318  26.144  27.831  1.00  0.00     0.060 A 
ATOM     40  C   UNL A   1      39.803  27.136  26.982  1.00  0.00     0.016 A 
ATOM     41  C   UNL A   1      38.655  26.410  29.029  1.00  0.00     0.016 A 
ATOM     42  C   UNL A   1      39.981  28.375  27.532  1.00  0.00     0.010 A 
ATOM     43  C   UNL A   1      39.003  27.567  29.639  1.00  0.00     0.010 A 
ATOM     44  C   UNL A   1      39.683  28.523  28.890  1.00  0.00    -0.014 A 
BRANCH  44  45
ATOM     45  C   UNL A   1      39.931  29.796  29.530  1.00  0.00     0.031 A 
ATOM     46  C   UNL A   1      38.734  30.718  29.208  1.00  0.00     0.074 A 
ATOM     47  C   UNL A   1      41.124  29.848  30.206  1.00  0.00     0.049 A 
ATOM     48  N   UNL A   1      38.707  31.995  29.003  1.00  0.00    -0.248 NA
ATOM     49  C   UNL A   1      37.385  30.126  28.915  1.00  0.00     0.031 C 
ATOM     50  C   UNL A   1      42.085  28.719  30.386  1.00  0.00     0.029 A 
ATOM     51  N   UNL A   1      41.780  30.840  30.889  1.00  0.00    -0.354 N 
ATOM     52  C   UNL A   1      37.342  32.359  28.897  1.00  0.00     0.074 A 
ATOM     53  C   UNL A   1      36.611  31.171  28.631  1.00  0.00     0.031 C 
ATOM     54  C   UNL A   1      43.211  29.126  31.022  1.00  0.00     0.029 A 
ATOM     55  C   UNL A   1      43.085  30.530  31.362  1.00  0.00     0.049 A 
ATOM     56  H   UNL A   1      41.370  31.720  31.044  1.00  0.00     0.167 HD
ATOM     57  C   UNL A   1      36.883  33.582  29.286  1.00  0.00     0.034 A 
ATOM     58  C   UNL A   1      43.990  31.378  31.951  1.00  0.00     0.034 A 
ATOM     59  C   UNL A   1      37.985  34.344  29.775  1.00  0.00     0.049 A 
ATOM     60  C   UNL A   1      43.217  32.601  32.202  1.00  0.00     0.074 A 
ATOM     61  C   UNL A   1      39.075  34.881  29.141  1.00  0.00     0.029 A 
ATOM     62  N   UNL A   1      38.252  34.175  31.117  1.00  0.00    -0.354 N 
ATOM     63  N   UNL A   1      42.282  32.700  33.101  1.00  0.00    -0.248 NA
ATOM     64  C   UNL A   1      43.376  33.737  31.288  1.00  0.00     0.031 C 
ATOM     65  C   UNL A   1      40.125  34.557  30.020  1.00  0.00     0.029 A 
ATOM     66  C   UNL A   1      39.613  34.130  31.254  1.00  0.00     0.049 A 
ATOM     67  H   UNL A   1      37.589  34.100  31.840  1.00  0.00     0.167 HD
ATOM     68  C   UNL A   1      41.517  33.719  32.594  1.00  0.00     0.074 A 
ATOM     69  C   UNL A   1      42.390  34.503  31.744  1.00  0.00     0.031 C 
ATOM     70  C   UNL A   1      40.175  33.542  32.445  1.00  0.00     0.034 A 
BRANCH  57  71
ATOM     71  C   UNL A   1      35.515  34.124  29.596  1.00  0.00     0.023 A 
ATOM     72  C   UNL A   1      34.842  34.689  28.477  1.00  0.00     0.012 A 
ATOM     73  C   UNL A   1      35.012  34.421  30.875  1.00  0.00     0.148 A 
ATOM     74  C   UNL A   1      33.830  35.631  28.617  1.00  0.00     0.002 A 
ATOM     75  C   UNL A   1      33.951  35.321  31.007  1.00  0.00     0.091 A 
ATOM     76  F   UNL A   1      35.607  33.911  31.958  1.00  0.00    -0.205 F 
ATOM     77  C   UNL A   1      33.397  35.960  29.887  1.00  0.00     0.022 A 
BRANCH  75  78
ATOM     78  S   UNL A   1      33.228  35.754  32.592  1.00  0.00     0.127 S 
ATOM     79  O   UNL A   1      34.334  36.441  33.253  1.00  0.00    -0.237 OA
ATOM     80  O   UNL A   1      32.126  36.632  32.186  1.00  0.00    -0.237 OA
ATOM     81  O   UNL A   1      32.793  34.498  33.184  1.00  0.00    -0.744 OA
ENDBRANCH  75  78
ENDBRANCH  57  71
BRANCH  58  82
ATOM     82  C   UNL A   1      45.466  31.438  32.289  1.00  0.00     0.023 A 
ATOM     83  C   UNL A   1      45.995  31.884  33.506  1.00  0.00     0.012 A 
ATOM     84  C   UNL A   1      46.415  30.889  31.366  1.00  0.00     0.148 A 
ATOM     85  C   UNL A   1      47.364  31.700  33.816  1.00  0.00     0.002 A 
ATOM     86  C   UNL A   1      47.720  30.577  31.727  1.00  0.00     0.091 A 
ATOM     87  F   UNL A   1      46.066  30.691  30.092  1.00  0.00    -0.205 F 
ATOM     88  C   UNL A   1      48.211  31.000  32.954  1.00  0.00     0.022 A 
BRANCH  86  89
ATOM     89  S   UNL A   1      48.748  29.488  30.716  1.00  0.00     0.127 S 
ATOM     90  O   UNL A   1      47.870  28.339  30.501  1.00  0.00    -0.237 OA
ATOM     91  O   UNL A   1      48.975  30.318  29.533  1.00  0.00    -0.237 OA
ATOM     92  O   UNL A   1      49.948  29.213  31.497  1.00  0.00    -0.744 OA
ENDBRANCH  86  89
ENDBRANCH  58  82
BRANCH  70  93
ATOM     93  C   UNL A   1      39.531  32.519  33.395  1.00  0.00     0.023 A 
ATOM     94  C   UNL A   1      39.136  31.293  32.816  1.00  0.00     0.012 A 
ATOM     95  C   UNL A   1      39.203  32.704  34.764  1.00  0.00     0.148 A 
ATOM     96  C   UNL A   1      38.426  30.321  33.526  1.00  0.00     0.002 A 
ATOM     97  C   UNL A   1      38.476  31.732  35.475  1.00  0.00     0.091 A 
ATOM     98  F   UNL A   1      39.592  33.823  35.371  1.00  0.00    -0.205 F 
ATOM     99  C   UNL A   1      38.091  30.540  34.854  1.00  0.00     0.022 A 
BRANCH  97 100
ATOM    100  S   UNL A   1      37.933  31.904  37.192  1.00  0.00     0.127 S 
ATOM    101  O   UNL A   1      37.466  30.552  37.511  1.00  0.00    -0.237 OA
ATOM    102  O   UNL A   1      39.166  32.284  37.877  1.00  0.00    -0.237 OA
ATOM    103  O   UNL A   1      36.888  32.917  37.189  1.00  0.00    -0.744 OA
ENDBRANCH  97 100
ENDBRANCH  70  93
ENDBRANCH  44  45
ENDBRANCH  37  39
ENDBRANCH  36  37
ENDBRANCH  35  36
ENDBRANCH  34  35
ENDBRANCH  33  34
ENDBRANCH  32  33
ENDBRANCH   1  32
TORSDOF 26
ENDMDL
MODEL 2
REMARK VINA RESULT:      -8.4      1.712      2.664
REMARK SMILES COc1ccc(-c2ccc(CCC(=O)OCCOCCOCCOC(=O)c3ccc(-c4c5nc(c(-c6cccc(S(=O)(=O)[O-])c6F)c6ccc([nH]6)c(-c6cccc(S(=O)(=O)[O-])c6F)c6nc(c(-c7cccc(S(=O)(=O)[O-])c7F)c7ccc4[nH]7)C=C6)C=C5)cc3)n2-c2ccc(C(C)=O)cc2)cc1
REMARK SMILES IDX 19 1 18 2 17 3 16 4 15 5 13 6 14 7 12 8 11 9 10 10 7 11 8 12
REMARK SMILES IDX 90 13 9 14 6 15 3 16 4 17 101 18 5 19 100 20 2 21 1 22 91 23
REMARK SMILES IDX 92 24 99 25 93 26 98 27 94 28 95 29 96 30 97 31 20 32 21 33
REMARK SMILES IDX 22 34 23 35 24 36 25 37 26 38 27 39 28 40 89 41 29 42 88 43
REMARK SMILES IDX 30 44 31 45 32 46 82 47 33 48 87 49 81 50 83 51 34 52 86 53
REMARK SMILES IDX 80 54 79 55 35 57 67 58 47 59 66 60 48 61 51 62 65 63 84 64
REMARK SMILES IDX 49 65 50 66 64 68 85 69 52 70 36 71 37 72 45 73 38 74 40 75
REMARK SMILES IDX 46 76 39 77 41 78 42 79 43 80 44 81 68 82 69 83 77 84 70 85
REMARK SMILES IDX 72 86 78 87 71 88 73 89 74 90 75 91 76 92 53 93 54 94 62 95
REMARK SMILES IDX 55 96 57 97 63 98 56 99 58 100 59 101 60 102 61 103
REMARK H PARENT 83 56 51 67
REMARK Flexibility Score: inf
ROOT
ATOM      1  C   UNL A   1      36.548  21.321  25.175  1.00  0.00     0.188 C 
ENDROOT
BRANCH   1   2
ATOM      2  O   UNL A   1      37.542  20.319  25.393  1.00  0.00    -0.376 OA
BRANCH   2   3
ATOM      3  C   UNL A   1      38.882  20.671  25.050  1.00  0.00     0.202 C 
BRANCH   3   4
ATOM      4  C   UNL A   1      39.925  20.306  26.110  1.00  0.00     0.261 C 
BRANCH   4   5
ATOM      5  O   UNL A   1      41.266  20.631  25.698  1.00  0.00    -0.463 OA
BRANCH   5   6
ATOM      6  C   UNL A   1      41.909  21.637  26.326  1.00  0.00     0.306 C 
ATOM      7  O   UNL A   1      42.022  21.735  27.544  1.00  0.00    -0.252 OA
BRANCH   6   8
ATOM      8  C   UNL A   1      42.490  22.683  25.387  1.00  0.00     0.129 C 
BRANCH   8   9
ATOM      9  C   UNL A   1      43.354  23.823  25.940  1.00  0.00     0.066 C 
BRANCH   9  10
ATOM     10  C   UNL A   1      44.792  23.793  25.499  1.00  0.00     0.024 A 
ATOM     11  C   UNL A   1      46.875  24.471  24.948  1.00  0.00     0.053 A 
ATOM     12  C   UNL A   1      46.759  23.147  24.585  1.00  0.00     0.029 A 
ATOM     13  N   UNL A   1      45.701  24.843  25.600  1.00  0.00    -0.314 N 
ATOM     14  C   UNL A   1      45.463  22.744  24.900  1.00  0.00     0.024 A 
BRANCH  11  15
ATOM     15  C   UNL A   1      48.042  25.304  24.704  1.00  0.00    -0.001 A 
ATOM     16  C   UNL A   1      50.269  26.956  24.385  1.00  0.00     0.118 A 
ATOM     17  C   UNL A   1      49.355  26.800  23.340  1.00  0.00     0.047 A 
ATOM     18  C   UNL A   1      50.044  26.326  25.607  1.00  0.00     0.047 A 
ATOM     19  C   UNL A   1      48.243  25.970  23.495  1.00  0.00     0.014 A 
ATOM     20  C   UNL A   1      48.936  25.501  25.764  1.00  0.00     0.014 A 
BRANCH  16  21
ATOM     21  O   UNL A   1      51.333  27.781  24.137  1.00  0.00    -0.497 OA
ATOM     22  C   UNL A   1      52.590  27.224  24.510  1.00  0.00     0.278 C 
ENDBRANCH  16  21
ENDBRANCH  11  15
BRANCH  13  23
ATOM     23  C   UNL A   1      45.454  26.101  26.200  1.00  0.00     0.046 A 
ATOM     24  C   UNL A   1      44.636  27.032  25.552  1.00  0.00     0.027 A 
ATOM     25  C   UNL A   1      46.004  26.386  27.449  1.00  0.00     0.027 A 
ATOM     26  C   UNL A   1      44.366  28.264  26.164  1.00  0.00     0.014 A 
ATOM     27  C   UNL A   1      45.752  27.625  28.041  1.00  0.00     0.014 A 
ATOM     28  C   UNL A   1      44.930  28.574  27.410  1.00  0.00     0.017 A 
BRANCH  28  29
ATOM     29  C   UNL A   1      44.716  29.875  28.122  1.00  0.00     0.159 C 
ATOM     30  C   UNL A   1      43.620  30.823  27.712  1.00  0.00     0.093 C 
ATOM     31  O   UNL A   1      45.445  30.164  29.073  1.00  0.00    -0.295 OA
ENDBRANCH  28  29
ENDBRANCH  13  23
ENDBRANCH   9  10
ENDBRANCH   8   9
ENDBRANCH   6   8
ENDBRANCH   5   6
ENDBRANCH   4   5
ENDBRANCH   3   4
ENDBRANCH   2   3
ENDBRANCH   1   2
BRANCH   1  32
ATOM     32  C   UNL A   1      36.978  22.451  24.236  1.00  0.00     0.188 C 
BRANCH  32  33
ATOM     33  O   UNL A   1      37.106  23.681  24.936  1.00  0.00    -0.376 OA
BRANCH  33  34
ATOM     34  C   UNL A   1      37.680  23.800  26.240  1.00  0.00     0.202 C 
BRANCH  34  35
ATOM     35  C   UNL A   1      39.177  23.906  26.488  1.00  0.00     0.261 C 
BRANCH  35  36
ATOM     36  O   UNL A   1      39.509  23.951  27.849  1.00  0.00    -0.460 OA
BRANCH  36  37
ATOM     37  C   UNL A   1      40.370  24.896  28.255  1.00  0.00     0.338 C 
ATOM     38  O   UNL A   1      41.558  24.782  28.518  1.00  0.00    -0.246 OA
BRANCH  37  39
ATOM     39  C   UNL A   1      39.598  26.140  28.298  1.00  0.00     0.060 A 
ATOM     40  C   UNL A   1      40.022  27.146  27.434  1.00  0.00     0.016 A 
ATOM     41  C   UNL A   1      38.918  26.384  29.492  1.00  0.00     0.016 A 
ATOM     42  C   UNL A   1      40.123  28.402  27.964  1.00  0.00     0.010 A 
ATOM     43  C   UNL A   1      39.193  27.570  30.083  1.00  0.00     0.010 A 
ATOM     44  C   UNL A   1      39.815  28.553  29.319  1.00  0.00    -0.014 A 
BRANCH  44  45
ATOM     45  C   UNL A   1      39.983  29.850  29.939  1.00  0.00     0.031 A 
ATOM     46  C   UNL A   1      38.771  30.718  29.536  1.00  0.00     0.074 A 
ATOM     47  C   UNL A   1      41.139  29.963  30.671  1.00  0.00     0.049 A 
ATOM     48  N   UNL A   1      38.708  31.988  29.298  1.00  0.00    -0.248 NA
ATOM     49  C   UNL A   1      37.461  30.068  29.191  1.00  0.00     0.031 C 
ATOM     50  C   UNL A   1      42.130  28.876  30.925  1.00  0.00     0.029 A 
ATOM     51  N   UNL A   1      41.724  30.995  31.360  1.00  0.00    -0.354 N 
ATOM     52  C   UNL A   1      37.337  32.297  29.116  1.00  0.00     0.074 A 
ATOM     53  C   UNL A   1      36.665  31.076  28.844  1.00  0.00     0.031 C 
ATOM     54  C   UNL A   1      43.208  29.339  31.606  1.00  0.00     0.029 A 
ATOM     55  C   UNL A   1      43.014  30.744  31.904  1.00  0.00     0.049 A 
ATOM     56  H   UNL A   1      41.274  31.862  31.473  1.00  0.00     0.167 HD
ATOM     57  C   UNL A   1      36.814  33.510  29.452  1.00  0.00     0.034 A 
ATOM     58  C   UNL A   1      43.856  31.640  32.515  1.00  0.00     0.034 A 
ATOM     59  C   UNL A   1      37.862  34.325  29.975  1.00  0.00     0.049 A 
ATOM     60  C   UNL A   1      43.027  32.838  32.698  1.00  0.00     0.074 A 
ATOM     61  C   UNL A   1      38.962  34.888  29.382  1.00  0.00     0.029 A 
ATOM     62  N   UNL A   1      38.068  34.197  31.332  1.00  0.00    -0.354 N 
ATOM     63  N   UNL A   1      42.046  32.922  33.546  1.00  0.00    -0.248 NA
ATOM     64  C   UNL A   1      43.190  33.958  31.764  1.00  0.00     0.031 C 
ATOM     65  C   UNL A   1      39.978  34.625  30.319  1.00  0.00     0.029 A 
ATOM     66  C   UNL A   1      39.421  34.207  31.536  1.00  0.00     0.049 A 
ATOM     67  H   UNL A   1      37.373  34.113  32.023  1.00  0.00     0.167 HD
ATOM     68  C   UNL A   1      41.270  33.900  32.978  1.00  0.00     0.074 A 
ATOM     69  C   UNL A   1      42.154  34.697  32.152  1.00  0.00     0.031 C 
ATOM     70  C   UNL A   1      39.944  33.668  32.768  1.00  0.00     0.034 A 
BRANCH  57  71
ATOM     71  C   UNL A   1      35.413  34.007  29.681  1.00  0.00     0.023 A 
ATOM     72  C   UNL A   1      34.737  34.416  28.498  1.00  0.00     0.012 A 
ATOM     73  C   UNL A   1      34.868  34.407  30.914  1.00  0.00     0.148 A 
ATOM     74  C   UNL A   1      33.675  35.311  28.522  1.00  0.00     0.002 A 
ATOM     75  C   UNL A   1      33.760  35.258  30.933  1.00  0.00     0.091 A 
ATOM     76  F   UNL A   1      35.465  34.046  32.053  1.00  0.00    -0.205 F 
ATOM     77  C   UNL A   1      33.197  35.747  29.744  1.00  0.00     0.022 A 
BRANCH  75  78
ATOM     78  S   UNL A   1      32.980  35.813  32.452  1.00  0.00     0.127 S 
ATOM     79  O   UNL A   1      34.088  35.754  33.401  1.00  0.00    -0.237 OA
ATOM     80  O   UNL A   1      32.563  37.172  32.092  1.00  0.00    -0.237 OA
ATOM     81  O   UNL A   1      31.872  34.899  32.685  1.00  0.00    -0.744 OA
ENDBRANCH  75  78
ENDBRANCH  57  71
BRANCH  58  82
ATOM     82  C   UNL A   1      45.310  31.764  32.924  1.00  0.00     0.023 A 
ATOM     83  C   UNL A   1      45.774  31.812  34.243  1.00  0.00     0.012 A 
ATOM     84  C   UNL A   1      46.325  31.705  31.913  1.00  0.00     0.148 A 
ATOM     85  C   UNL A   1      47.155  31.706  34.534  1.00  0.00     0.002 A 
ATOM     86  C   UNL A   1      47.661  31.455  32.203  1.00  0.00     0.091 A 
ATOM     87  F   UNL A   1      46.006  31.930  30.636  1.00  0.00    -0.205 F 
ATOM     88  C   UNL A   1      48.090  31.472  33.523  1.00  0.00     0.022 A 
BRANCH  86  89
ATOM     89  S   UNL A   1      48.827  30.937  30.924  1.00  0.00     0.127 S 
ATOM     90  O   UNL A   1      48.612  31.936  29.880  1.00  0.00    -0.237 OA
ATOM     91  O   UNL A   1      50.103  31.050  31.631  1.00  0.00    -0.237 OA
ATOM     92  O   UNL A   1      48.460  29.573  30.561  1.00  0.00    -0.744 OA
ENDBRANCH  86  89
ENDBRANCH  58  82
BRANCH  70  93
ATOM     93  C   UNL A   1      39.292  32.643  33.711  1.00  0.00     0.023 A 
ATOM     94  C   UNL A   1      38.841  31.446  33.113  1.00  0.00     0.012 A 
ATOM     95  C   UNL A   1      39.006  32.805  35.092  1.00  0.00     0.148 A 
ATOM     96  C   UNL A   1      38.119  30.480  33.820  1.00  0.00     0.002 A 
ATOM     97  C   UNL A   1      38.266  31.841  35.799  1.00  0.00     0.091 A 
ATOM     98  F   UNL A   1      39.447  33.896  35.715  1.00  0.00    -0.205 F 
ATOM     99  C   UNL A   1      37.826  30.677  35.160  1.00  0.00     0.022 A 
BRANCH  97 100
ATOM    100  S   UNL A   1      37.774  31.988  37.533  1.00  0.00     0.127 S 
ATOM    101  O   UNL A   1      39.025  32.391  38.182  1.00  0.00    -0.237 OA
ATOM    102  O   UNL A   1      36.763  33.041  37.487  1.00  0.00    -0.237 OA
ATOM    103  O   UNL A   1      37.285  30.676  37.931  1.00  0.00    -0.744 OA
ENDBRANCH  97 100
ENDBRANCH  70  93
ENDBRANCH  44  45
ENDBRANCH  37  39
ENDBRANCH  36  37
ENDBRANCH  35  36
ENDBRANCH  34  35
ENDBRANCH  33  34
ENDBRANCH  32  33
ENDBRANCH   1  32
TORSDOF 26
ENDMDL
MODEL 3
REMARK VINA RESULT:      -8.3      8.929     15.416
REMARK SMILES COc1ccc(-c2ccc(CCC(=O)OCCOCCOCCOC(=O)c3ccc(-c4c5nc(c(-c6cccc(S(=O)(=O)[O-])c6F)c6ccc([nH]6)c(-c6cccc(S(=O)(=O)[O-])c6F)c6nc(c(-c7cccc(S(=O)(=O)[O-])c7F)c7ccc4[nH]7)C=C6)C=C5)cc3)n2-c2ccc(C(C)=O)cc2)cc1
REMARK SMILES IDX 19 1 18 2 17 3 16 4 15 5 13 6 14 7 12 8 11 9 10 10 7 11 8 12
REMARK SMILES IDX 90 13 9 14 6 15 3 16 4 17 101 18 5 19 100 20 2 21 1 22 91 23
REMARK SMILES IDX 92 24 99 25 93 26 98 27 94 28 95 29 96 30 97 31 20 32 21 33
REMARK SMILES IDX 22 34 23 35 24 36 25 37 26 38 27 39 28 40 89 41 29 42 88 43
REMARK SMILES IDX 30 44 31 45 32 46 82 47 33 48 87 49 81 50 83 51 34 52 86 53
REMARK SMILES IDX 80 54 79 55 35 57 67 58 47 59 66 60 48 61 51 62 65 63 84 64
REMARK SMILES IDX 49 65 50 66 64 68 85 69 52 70 36 71 37 72 45 73 38 74 40 75
REMARK SMILES IDX 46 76 39 77 41 78 42 79 43 80 44 81 68 82 69 83 77 84 70 85
REMARK SMILES IDX 72 86 78 87 71 88 73 89 74 90 75 91 76 92 53 93 54 94 62 95
REMARK SMILES IDX 55 96 57 97 63 98 56 99 58 100 59 101 60 102 61 103
REMARK H PARENT 83 56 51 67
REMARK Flexibility Score: inf
ROOT
ATOM      1  C   UNL A   1      45.597  41.815  25.281  1.00  0.00     0.188 C 
ENDROOT
BRANCH   1   2
ATOM      2  O   UNL A   1      46.070  41.168  24.098  1.00  0.00    -0.376 OA
BRANCH   2   3
ATOM      3  C   UNL A   1      46.200  41.988  22.938  1.00  0.00     0.202 C 
BRANCH   3   4
ATOM      4  C   UNL A   1      46.544  41.222  21.656  1.00  0.00     0.261 C 
BRANCH   4   5
ATOM      5  O   UNL A   1      47.900  41.447  21.228  1.00  0.00    -0.463 OA
BRANCH   5   6
ATOM      6  C   UNL A   1      48.189  42.587  20.567  1.00  0.00     0.306 C 
ATOM      7  O   UNL A   1      47.796  42.850  19.434  1.00  0.00    -0.252 OA
BRANCH   6   8
ATOM      8  C   UNL A   1      49.078  43.546  21.342  1.00  0.00     0.129 C 
BRANCH   8   9
ATOM      9  C   UNL A   1      48.461  44.717  22.117  1.00  0.00     0.066 C 
BRANCH   9  10
ATOM     10  C   UNL A   1      48.031  45.879  21.262  1.00  0.00     0.024 A 
ATOM     11  C   UNL A   1      46.781  47.205  19.926  1.00  0.00     0.053 A 
ATOM     12  C   UNL A   1      48.055  47.728  19.958  1.00  0.00     0.029 A 
ATOM     13  N   UNL A   1      46.738  46.124  20.806  1.00  0.00    -0.314 N 
ATOM     14  C   UNL A   1      48.828  46.889  20.759  1.00  0.00     0.024 A 
BRANCH  11  15
ATOM     15  C   UNL A   1      45.684  47.725  19.126  1.00  0.00    -0.001 A 
ATOM     16  C   UNL A   1      43.500  48.752  17.725  1.00  0.00     0.118 A 
ATOM     17  C   UNL A   1      44.190  47.642  17.233  1.00  0.00     0.047 A 
ATOM     18  C   UNL A   1      43.869  49.319  18.942  1.00  0.00     0.047 A 
ATOM     19  C   UNL A   1      45.286  47.129  17.929  1.00  0.00     0.014 A 
ATOM     20  C   UNL A   1      44.960  48.808  19.638  1.00  0.00     0.014 A 
BRANCH  16  21
ATOM     21  O   UNL A   1      42.446  49.190  16.969  1.00  0.00    -0.497 OA
ATOM     22  C   UNL A   1      41.861  48.176  16.158  1.00  0.00     0.278 C 
ENDBRANCH  16  21
ENDBRANCH  11  15
BRANCH  13  23
ATOM     23  C   UNL A   1      45.586  45.364  21.124  1.00  0.00     0.046 A 
ATOM     24  C   UNL A   1      45.056  44.478  20.182  1.00  0.00     0.027 A 
ATOM     25  C   UNL A   1      45.012  45.485  22.389  1.00  0.00     0.027 A 
ATOM     26  C   UNL A   1      43.936  43.703  20.511  1.00  0.00     0.014 A 
ATOM     27  C   UNL A   1      43.881  44.730  22.701  1.00  0.00     0.014 A 
ATOM     28  C   UNL A   1      43.333  43.830  21.771  1.00  0.00     0.017 A 
BRANCH  28  29
ATOM     29  C   UNL A   1      42.120  43.061  22.196  1.00  0.00     0.159 C 
ATOM     30  C   UNL A   1      41.952  42.579  23.614  1.00  0.00     0.093 C 
ATOM     31  O   UNL A   1      41.235  42.832  21.370  1.00  0.00    -0.295 OA
ENDBRANCH  28  29
ENDBRANCH  13  23
ENDBRANCH   9  10
ENDBRANCH   8   9
ENDBRANCH   6   8
ENDBRANCH   5   6
ENDBRANCH   4   5
ENDBRANCH   3   4
ENDBRANCH   2   3
ENDBRANCH   1   2
BRANCH   1  32
ATOM     32  C   UNL A   1      44.366  41.161  25.916  1.00  0.00     0.188 C 
BRANCH  32  33
ATOM     33  O   UNL A   1      44.677  39.874  26.430  1.00  0.00    -0.376 OA
BRANCH  33  34
ATOM     34  C   UNL A   1      45.832  39.589  27.223  1.00  0.00     0.202 C 
BRANCH  34  35
ATOM     35  C   UNL A   1      46.161  38.201  27.753  1.00  0.00     0.261 C 
BRANCH  35  36
ATOM     36  O   UNL A   1      45.719  37.993  29.067  1.00  0.00    -0.460 OA
BRANCH  36  37
ATOM     37  C   UNL A   1      44.493  37.478  29.242  1.00  0.00     0.338 C 
ATOM     38  O   UNL A   1      43.443  38.066  29.455  1.00  0.00    -0.246 OA
BRANCH  37  39
ATOM     39  C   UNL A   1      44.650  36.029  29.098  1.00  0.00     0.060 A 
ATOM     40  C   UNL A   1      44.149  35.481  27.919  1.00  0.00     0.016 A 
ATOM     41  C   UNL A   1      44.770  35.316  30.290  1.00  0.00     0.016 A 
ATOM     42  C   UNL A   1      43.397  34.347  28.046  1.00  0.00     0.010 A 
ATOM     43  C   UNL A   1      43.877  34.313  30.458  1.00  0.00     0.010 A 
ATOM     44  C   UNL A   1      43.184  33.860  29.340  1.00  0.00    -0.014 A 
BRANCH  44  45
ATOM     45  C   UNL A   1      42.330  32.707  29.526  1.00  0.00     0.031 A 
ATOM     46  C   UNL A   1      43.083  31.477  28.972  1.00  0.00     0.074 A 
ATOM     47  C   UNL A   1      41.120  33.007  30.101  1.00  0.00     0.049 A 
ATOM     48  N   UNL A   1      42.622  30.430  28.368  1.00  0.00    -0.248 NA
ATOM     49  C   UNL A   1      44.585  31.466  28.939  1.00  0.00     0.031 C 
ATOM     50  C   UNL A   1      40.688  34.348  30.595  1.00  0.00     0.029 A 
ATOM     51  N   UNL A   1      40.007  32.264  30.402  1.00  0.00    -0.354 N 
ATOM     52  C   UNL A   1      43.715  29.544  28.206  1.00  0.00     0.074 A 
ATOM     53  C   UNL A   1      44.902  30.308  28.366  1.00  0.00     0.031 C 
ATOM     54  C   UNL A   1      39.401  34.325  31.022  1.00  0.00     0.029 A 
ATOM     55  C   UNL A   1      38.881  32.978  30.897  1.00  0.00     0.049 A 
ATOM     56  H   UNL A   1      39.989  31.288  30.282  1.00  0.00     0.167 HD
ATOM     57  C   UNL A   1      43.560  28.190  28.199  1.00  0.00     0.034 A 
ATOM     58  C   UNL A   1      37.621  32.493  31.145  1.00  0.00     0.034 A 
ATOM     59  C   UNL A   1      42.175  27.893  28.372  1.00  0.00     0.049 A 
ATOM     60  C   UNL A   1      37.771  31.038  31.020  1.00  0.00     0.074 A 
ATOM     61  C   UNL A   1      41.092  28.089  27.557  1.00  0.00     0.029 A 
ATOM     62  N   UNL A   1      41.768  27.791  29.685  1.00  0.00    -0.354 N 
ATOM     63  N   UNL A   1      38.409  30.295  31.875  1.00  0.00    -0.248 NA
ATOM     64  C   UNL A   1      37.326  30.386  29.784  1.00  0.00     0.031 C 
ATOM     65  C   UNL A   1      40.128  28.591  28.450  1.00  0.00     0.029 A 
ATOM     66  C   UNL A   1      40.544  28.395  29.775  1.00  0.00     0.049 A 
ATOM     67  H   UNL A   1      42.265  27.366  30.420  1.00  0.00     0.167 HD
ATOM     68  C   UNL A   1      38.769  29.223  31.099  1.00  0.00     0.074 A 
ATOM     69  C   UNL A   1      37.817  29.170  30.007  1.00  0.00     0.031 C 
ATOM     70  C   UNL A   1      40.070  28.822  31.069  1.00  0.00     0.034 A 
BRANCH  57  71
ATOM     71  C   UNL A   1      44.510  27.037  28.373  1.00  0.00     0.023 A 
ATOM     72  C   UNL A   1      44.703  26.638  29.725  1.00  0.00     0.012 A 
ATOM     73  C   UNL A   1      45.434  26.574  27.420  1.00  0.00     0.148 A 
ATOM     74  C   UNL A   1      45.839  25.956  30.144  1.00  0.00     0.002 A 
ATOM     75  C   UNL A   1      46.543  25.833  27.839  1.00  0.00     0.091 A 
ATOM     76  F   UNL A   1      45.294  26.918  26.137  1.00  0.00    -0.205 F 
ATOM     77  C   UNL A   1      46.770  25.569  29.198  1.00  0.00     0.022 A 
BRANCH  75  78
ATOM     78  S   UNL A   1      47.770  25.183  26.700  1.00  0.00     0.127 S 
ATOM     79  O   UNL A   1      46.951  24.381  25.797  1.00  0.00    -0.237 OA
ATOM     80  O   UNL A   1      48.303  26.412  26.104  1.00  0.00    -0.237 OA
ATOM     81  O   UNL A   1      48.730  24.463  27.523  1.00  0.00    -0.744 OA
ENDBRANCH  75  78
ENDBRANCH  57  71
BRANCH  58  82
ATOM     82  C   UNL A   1      36.215  33.003  31.387  1.00  0.00     0.023 A 
ATOM     83  C   UNL A   1      35.648  33.235  32.646  1.00  0.00     0.012 A 
ATOM     84  C   UNL A   1      35.418  33.406  30.266  1.00  0.00     0.148 A 
ATOM     85  C   UNL A   1      34.414  33.916  32.775  1.00  0.00     0.002 A 
ATOM     86  C   UNL A   1      34.285  34.200  30.397  1.00  0.00     0.091 A 
ATOM     87  F   UNL A   1      35.737  32.989  29.038  1.00  0.00    -0.205 F 
ATOM     88  C   UNL A   1      33.762  34.446  31.659  1.00  0.00     0.022 A 
BRANCH  86  89
ATOM     89  S   UNL A   1      33.567  35.067  28.983  1.00  0.00     0.127 S 
ATOM     90  O   UNL A   1      34.741  35.669  28.355  1.00  0.00    -0.237 OA
ATOM     91  O   UNL A   1      32.970  33.960  28.236  1.00  0.00    -0.237 OA
ATOM     92  O   UNL A   1      32.602  36.014  29.527  1.00  0.00    -0.744 OA
ENDBRANCH  86  89
ENDBRANCH  58  82
BRANCH  70  93
ATOM     93  C   UNL A   1      40.896  29.153  32.323  1.00  0.00     0.023 A 
ATOM     94  C   UNL A   1      41.771  30.257  32.218  1.00  0.00     0.012 A 
ATOM     95  C   UNL A   1      40.950  28.418  33.536  1.00  0.00     0.148 A 
ATOM     96  C   UNL A   1      42.673  30.598  33.230  1.00  0.00     0.002 A 
ATOM     97  C   UNL A   1      41.867  28.753  34.548  1.00  0.00     0.091 A 
ATOM     98  F   UNL A   1      40.114  27.395  33.704  1.00  0.00    -0.205 F 
ATOM     99  C   UNL A   1      42.726  29.845  34.393  1.00  0.00     0.022 A 
BRANCH  97 100
ATOM    100  S   UNL A   1      42.077  27.834  36.093  1.00  0.00     0.127 S 
ATOM    101  O   UNL A   1      43.148  28.579  36.758  1.00  0.00    -0.237 OA
ATOM    102  O   UNL A   1      40.769  27.979  36.727  1.00  0.00    -0.237 OA
ATOM    103  O   UNL A   1      42.434  26.475  35.713  1.00  0.00    -0.744 OA
ENDBRANCH  97 100
ENDBRANCH  70  93
ENDBRANCH  44  45
ENDBRANCH  37  39
ENDBRANCH  36  37
ENDBRANCH  35  36
ENDBRANCH  34  35
ENDBRANCH  33  34
ENDBRANCH  32  33
ENDBRANCH   1  32
TORSDOF 26
ENDMDL
