MODEL 1
REMARK VINA RESULT:      -9.9      0.000      0.000
REMARK SMILES CCC(=O)N1c2ccc(S(=O)(=O)N3CCC(C)CC3)cc2C[C@H]1C(=O)OCCOCCOCCOC(=O)c1ccc(-c2c3nc(c(-c4cccc(S(=O)(=O)[O-])c4F)c4ccc([nH]4)c(-c4cccc(S(=O)(=O)[O-])c4F)c4nc(c(-c5cccc(S(=O)(=O)[O-])c5F)c5ccc2[nH]5)C=C4)C=C3)cc1
REMARK SMILES IDX 31 1 30 2 29 3 28 4 27 5 26 6 24 7 25 8 23 9 5 10 6 11 7 12
REMARK SMILES IDX 21 13 22 14 8 15 20 16 9 17 3 18 4 19 2 20 1 21 10 22 11 23
REMARK SMILES IDX 12 24 13 25 14 26 19 27 15 28 18 29 16 30 17 31 32 32 33 33
REMARK SMILES IDX 34 34 35 35 36 36 37 37 38 38 39 39 100 40 40 41 99 42 41 43
REMARK SMILES IDX 42 44 43 45 93 46 44 47 98 48 92 49 94 50 45 51 97 52 91 53
REMARK SMILES IDX 90 54 46 56 78 57 58 58 77 59 59 60 62 61 76 62 95 63 60 64
REMARK SMILES IDX 61 65 75 67 96 68 63 69 47 70 48 71 56 72 49 73 51 74 57 75
REMARK SMILES IDX 50 76 52 77 53 78 54 79 55 80 79 81 80 82 88 83 81 84 83 85
REMARK SMILES IDX 89 86 82 87 84 88 85 89 86 90 87 91 64 92 65 93 73 94 66 95
REMARK SMILES IDX 68 96 74 97 67 98 69 99 70 100 71 101 72 102
REMARK H PARENT 94 55 62 66
REMARK Flexibility Score: inf
ROOT
ATOM      1  C   UNL A   1      33.701  26.301  26.109  1.00  0.00     0.188 C 
ENDROOT
BRANCH   1   2
ATOM      2  C   UNL A   1      33.570  27.693  25.498  1.00  0.00     0.188 C 
BRANCH   2   3
ATOM      3  O   UNL A   1      32.895  27.879  24.258  1.00  0.00    -0.376 OA
BRANCH   3   4
ATOM      4  C   UNL A   1      32.127  29.049  24.033  1.00  0.00     0.202 C 
BRANCH   4   5
ATOM      5  C   UNL A   1      30.738  28.758  23.460  1.00  0.00     0.261 C 
BRANCH   5   6
ATOM      6  O   UNL A   1      30.671  27.537  22.694  1.00  0.00    -0.462 OA
BRANCH   6   7
ATOM      7  C   UNL A   1      30.178  26.448  23.339  1.00  0.00     0.329 C 
ATOM      8  O   UNL A   1      29.350  26.492  24.243  1.00  0.00    -0.250 OA
BRANCH   7   9
ATOM      9  C   UNL A   1      30.760  25.113  22.853  1.00  0.00     0.204 C 
ATOM     10  N   UNL A   1      32.188  25.070  22.436  1.00  0.00    -0.298 N 
ATOM     11  C   UNL A   1      32.793  23.998  23.095  1.00  0.00     0.048 A 
ATOM     12  C   UNL A   1      34.037  23.498  22.807  1.00  0.00     0.028 A 
ATOM     13  C   UNL A   1      31.937  23.377  23.999  1.00  0.00    -0.020 A 
ATOM     14  C   UNL A   1      30.629  24.106  24.036  1.00  0.00     0.075 C 
ATOM     15  C   UNL A   1      34.407  22.336  23.440  1.00  0.00     0.024 A 
ATOM     16  C   UNL A   1      32.343  22.238  24.693  1.00  0.00     0.027 A 
ATOM     17  C   UNL A   1      33.611  21.716  24.398  1.00  0.00     0.083 A 
BRANCH  10  18
ATOM     18  C   UNL A   1      32.767  25.512  21.267  1.00  0.00     0.227 C 
ATOM     19  O   UNL A   1      33.568  26.449  21.243  1.00  0.00    -0.275 OA
BRANCH  18  20
ATOM     20  C   UNL A   1      32.581  24.635  20.042  1.00  0.00     0.097 C 
ATOM     21  C   UNL A   1      32.009  25.410  18.861  1.00  0.00     0.014 C 
ENDBRANCH  18  20
ENDBRANCH  10  18
BRANCH  17  22
ATOM     22  S   UNL A   1      34.260  20.284  25.242  1.00  0.00     0.243 S 
ATOM     23  O   UNL A   1      35.699  20.399  25.167  1.00  0.00    -0.207 OA
ATOM     24  O   UNL A   1      33.570  20.211  26.515  1.00  0.00    -0.207 OA
BRANCH  22  25
ATOM     25  N   UNL A   1      33.799  18.937  24.316  1.00  0.00    -0.198 NA
ATOM     26  C   UNL A   1      32.392  18.596  24.045  1.00  0.00     0.103 C 
ATOM     27  C   UNL A   1      34.773  17.941  23.864  1.00  0.00     0.103 C 
ATOM     28  C   UNL A   1      32.007  17.179  24.512  1.00  0.00     0.020 C 
ATOM     29  C   UNL A   1      34.565  16.649  24.627  1.00  0.00     0.020 C 
ATOM     30  C   UNL A   1      33.126  16.111  24.532  1.00  0.00    -0.012 C 
ATOM     31  C   UNL A   1      32.902  15.103  25.671  1.00  0.00     0.008 C 
ENDBRANCH  22  25
ENDBRANCH  17  22
ENDBRANCH   7   9
ENDBRANCH   6   7
ENDBRANCH   5   6
ENDBRANCH   4   5
ENDBRANCH   3   4
ENDBRANCH   2   3
ENDBRANCH   1   2
BRANCH   1  32
ATOM     32  O   UNL A   1      34.620  25.485  25.394  1.00  0.00    -0.376 OA
BRANCH  32  33
ATOM     33  C   UNL A   1      35.069  24.345  26.126  1.00  0.00     0.202 C 
BRANCH  33  34
ATOM     34  C   UNL A   1      36.477  24.004  25.629  1.00  0.00     0.261 C 
BRANCH  34  35
ATOM     35  O   UNL A   1      37.188  23.162  26.557  1.00  0.00    -0.460 OA
BRANCH  35  36
ATOM     36  C   UNL A   1      38.508  23.017  26.301  1.00  0.00     0.338 C 
ATOM     37  O   UNL A   1      39.023  22.146  25.621  1.00  0.00    -0.246 OA
BRANCH  36  38
ATOM     38  C   UNL A   1      39.233  24.213  26.783  1.00  0.00     0.060 A 
ATOM     39  C   UNL A   1      39.189  24.487  28.156  1.00  0.00     0.016 A 
ATOM     40  C   UNL A   1      39.932  25.058  25.919  1.00  0.00     0.016 A 
ATOM     41  C   UNL A   1      39.816  25.617  28.670  1.00  0.00     0.010 A 
ATOM     42  C   UNL A   1      40.534  26.213  26.429  1.00  0.00     0.010 A 
ATOM     43  C   UNL A   1      40.448  26.511  27.800  1.00  0.00    -0.014 A 
BRANCH  43  44
ATOM     44  C   UNL A   1      40.814  27.851  28.307  1.00  0.00     0.031 A 
ATOM     45  C   UNL A   1      42.269  28.227  28.335  1.00  0.00     0.074 A 
ATOM     46  C   UNL A   1      39.873  28.729  28.694  1.00  0.00     0.049 A 
ATOM     47  N   UNL A   1      42.828  29.340  28.725  1.00  0.00    -0.248 NA
ATOM     48  C   UNL A   1      43.220  27.211  27.851  1.00  0.00     0.031 C 
ATOM     49  C   UNL A   1      38.432  28.484  28.691  1.00  0.00     0.029 A 
ATOM     50  N   UNL A   1      40.000  30.005  29.182  1.00  0.00    -0.354 N 
ATOM     51  C   UNL A   1      44.195  29.151  28.563  1.00  0.00     0.074 A 
ATOM     52  C   UNL A   1      44.382  27.814  28.045  1.00  0.00     0.031 C 
ATOM     53  C   UNL A   1      37.807  29.568  29.185  1.00  0.00     0.029 A 
ATOM     54  C   UNL A   1      38.805  30.572  29.553  1.00  0.00     0.049 A 
ATOM     55  H   UNL A   1      40.864  30.468  29.260  1.00  0.00     0.167 HD
ATOM     56  C   UNL A   1      45.205  30.017  28.809  1.00  0.00     0.034 A 
ATOM     57  C   UNL A   1      38.552  31.759  30.139  1.00  0.00     0.034 A 
ATOM     58  C   UNL A   1      45.019  31.351  29.307  1.00  0.00     0.049 A 
ATOM     59  C   UNL A   1      39.698  32.695  30.425  1.00  0.00     0.074 A 
ATOM     60  C   UNL A   1      45.976  32.317  29.560  1.00  0.00     0.029 A 
ATOM     61  N   UNL A   1      43.792  31.905  29.640  1.00  0.00    -0.354 N 
ATOM     62  N   UNL A   1      40.974  32.547  30.161  1.00  0.00    -0.248 NA
ATOM     63  C   UNL A   1      39.362  33.979  31.060  1.00  0.00     0.031 C 
ATOM     64  C   UNL A   1      45.327  33.452  30.061  1.00  0.00     0.029 A 
ATOM     65  C   UNL A   1      43.965  33.197  30.103  1.00  0.00     0.049 A 
ATOM     66  H   UNL A   1      42.924  31.445  29.558  1.00  0.00     0.167 HD
ATOM     67  C   UNL A   1      41.588  33.727  30.571  1.00  0.00     0.074 A 
ATOM     68  C   UNL A   1      40.539  34.590  31.075  1.00  0.00     0.031 C 
ATOM     69  C   UNL A   1      42.903  34.061  30.551  1.00  0.00     0.034 A 
BRANCH  56  70
ATOM     70  C   UNL A   1      46.603  29.545  28.520  1.00  0.00     0.023 A 
ATOM     71  C   UNL A   1      47.166  29.777  27.249  1.00  0.00     0.012 A 
ATOM     72  C   UNL A   1      47.366  28.895  29.509  1.00  0.00     0.148 A 
ATOM     73  C   UNL A   1      48.459  29.343  26.957  1.00  0.00     0.002 A 
ATOM     74  C   UNL A   1      48.668  28.502  29.223  1.00  0.00     0.091 A 
ATOM     75  F   UNL A   1      46.799  28.655  30.700  1.00  0.00    -0.205 F 
ATOM     76  C   UNL A   1      49.211  28.716  27.946  1.00  0.00     0.022 A 
BRANCH  74  77
ATOM     77  S   UNL A   1      49.736  27.746  30.452  1.00  0.00     0.127 S 
ATOM     78  O   UNL A   1      50.950  27.498  29.676  1.00  0.00    -0.237 OA
ATOM     79  O   UNL A   1      49.858  28.808  31.451  1.00  0.00    -0.237 OA
ATOM     80  O   UNL A   1      49.032  26.559  30.916  1.00  0.00    -0.744 OA
ENDBRANCH  74  77
ENDBRANCH  56  70
BRANCH  57  81
ATOM     81  C   UNL A   1      37.151  32.145  30.465  1.00  0.00     0.023 A 
ATOM     82  C   UNL A   1      36.623  31.839  31.734  1.00  0.00     0.012 A 
ATOM     83  C   UNL A   1      36.345  32.821  29.529  1.00  0.00     0.148 A 
ATOM     84  C   UNL A   1      35.307  32.176  32.055  1.00  0.00     0.002 A 
ATOM     85  C   UNL A   1      35.052  33.199  29.874  1.00  0.00     0.091 A 
ATOM     86  F   UNL A   1      36.859  33.082  28.319  1.00  0.00    -0.205 F 
ATOM     87  C   UNL A   1      34.526  32.865  31.131  1.00  0.00     0.022 A 
BRANCH  85  88
ATOM     88  S   UNL A   1      34.021  34.193  28.790  1.00  0.00     0.127 S 
ATOM     89  O   UNL A   1      33.643  33.221  27.766  1.00  0.00    -0.237 OA
ATOM     90  O   UNL A   1      32.937  34.593  29.688  1.00  0.00    -0.237 OA
ATOM     91  O   UNL A   1      34.868  35.290  28.343  1.00  0.00    -0.744 OA
ENDBRANCH  85  88
ENDBRANCH  57  81
BRANCH  69  92
ATOM     92  C   UNL A   1      43.284  35.424  31.066  1.00  0.00     0.023 A 
ATOM     93  C   UNL A   1      43.522  36.472  30.156  1.00  0.00     0.012 A 
ATOM     94  C   UNL A   1      43.340  35.685  32.450  1.00  0.00     0.148 A 
ATOM     95  C   UNL A   1      43.846  37.749  30.613  1.00  0.00     0.002 A 
ATOM     96  C   UNL A   1      43.618  36.972  32.899  1.00  0.00     0.091 A 
ATOM     97  F   UNL A   1      43.131  34.672  33.304  1.00  0.00    -0.205 F 
ATOM     98  C   UNL A   1      43.883  38.001  31.983  1.00  0.00     0.022 A 
BRANCH  96  99
ATOM     99  S   UNL A   1      43.588  37.395  34.645  1.00  0.00     0.127 S 
ATOM    100  O   UNL A   1      43.945  38.813  34.614  1.00  0.00    -0.237 OA
ATOM    101  O   UNL A   1      42.197  37.125  35.012  1.00  0.00    -0.237 OA
ATOM    102  O   UNL A   1      44.557  36.512  35.280  1.00  0.00    -0.744 OA
ENDBRANCH  96  99
ENDBRANCH  69  92
ENDBRANCH  43  44
ENDBRANCH  36  38
ENDBRANCH  35  36
ENDBRANCH  34  35
ENDBRANCH  33  34
ENDBRANCH  32  33
ENDBRANCH   1  32
TORSDOF 24
ENDMDL
MODEL 2
REMARK VINA RESULT:      -9.4      5.045      9.402
REMARK SMILES CCC(=O)N1c2ccc(S(=O)(=O)N3CCC(C)CC3)cc2C[C@H]1C(=O)OCCOCCOCCOC(=O)c1ccc(-c2c3nc(c(-c4cccc(S(=O)(=O)[O-])c4F)c4ccc([nH]4)c(-c4cccc(S(=O)(=O)[O-])c4F)c4nc(c(-c5cccc(S(=O)(=O)[O-])c5F)c5ccc2[nH]5)C=C4)C=C3)cc1
REMARK SMILES IDX 31 1 30 2 29 3 28 4 27 5 26 6 24 7 25 8 23 9 5 10 6 11 7 12
REMARK SMILES IDX 21 13 22 14 8 15 20 16 9 17 3 18 4 19 2 20 1 21 10 22 11 23
REMARK SMILES IDX 12 24 13 25 14 26 19 27 15 28 18 29 16 30 17 31 32 32 33 33
REMARK SMILES IDX 34 34 35 35 36 36 37 37 38 38 39 39 100 40 40 41 99 42 41 43
REMARK SMILES IDX 42 44 43 45 93 46 44 47 98 48 92 49 94 50 45 51 97 52 91 53
REMARK SMILES IDX 90 54 46 56 78 57 58 58 77 59 59 60 62 61 76 62 95 63 60 64
REMARK SMILES IDX 61 65 75 67 96 68 63 69 47 70 48 71 56 72 49 73 51 74 57 75
REMARK SMILES IDX 50 76 52 77 53 78 54 79 55 80 79 81 80 82 88 83 81 84 83 85
REMARK SMILES IDX 89 86 82 87 84 88 85 89 86 90 87 91 64 92 65 93 73 94 66 95
REMARK SMILES IDX 68 96 74 97 67 98 69 99 70 100 71 101 72 102
REMARK H PARENT 94 55 62 66
REMARK Flexibility Score: inf
ROOT
ATOM      1  C   UNL A   1      34.187  33.597  28.628  1.00  0.00     0.188 C 
ENDROOT
BRANCH   1   2
ATOM      2  C   UNL A   1      33.088  33.882  27.607  1.00  0.00     0.188 C 
BRANCH   2   3
ATOM      3  O   UNL A   1      32.055  32.931  27.371  1.00  0.00    -0.376 OA
BRANCH   3   4
ATOM      4  C   UNL A   1      32.377  31.569  27.147  1.00  0.00     0.202 C 
BRANCH   4   5
ATOM      5  C   UNL A   1      31.439  30.884  26.150  1.00  0.00     0.261 C 
BRANCH   5   6
ATOM      6  O   UNL A   1      31.930  29.616  25.667  1.00  0.00    -0.462 OA
BRANCH   6   7
ATOM      7  C   UNL A   1      31.541  28.516  26.362  1.00  0.00     0.329 C 
ATOM      8  O   UNL A   1      31.566  28.422  27.585  1.00  0.00    -0.250 OA
BRANCH   7   9
ATOM      9  C   UNL A   1      31.066  27.352  25.481  1.00  0.00     0.204 C 
ATOM     10  N   UNL A   1      31.835  27.035  24.247  1.00  0.00    -0.298 N 
ATOM     11  C   UNL A   1      32.103  25.664  24.251  1.00  0.00     0.048 A 
ATOM     12  C   UNL A   1      32.594  24.956  23.186  1.00  0.00     0.028 A 
ATOM     13  C   UNL A   1      31.682  25.044  25.423  1.00  0.00    -0.020 A 
ATOM     14  C   UNL A   1      31.122  26.067  26.362  1.00  0.00     0.075 C 
ATOM     15  C   UNL A   1      32.641  23.588  23.312  1.00  0.00     0.024 A 
ATOM     16  C   UNL A   1      31.796  23.662  25.575  1.00  0.00     0.027 A 
ATOM     17  C   UNL A   1      32.291  22.929  24.487  1.00  0.00     0.083 A 
BRANCH  10  18
ATOM     18  C   UNL A   1      31.837  27.683  23.032  1.00  0.00     0.227 C 
ATOM     19  O   UNL A   1      32.872  27.880  22.393  1.00  0.00    -0.275 OA
BRANCH  18  20
ATOM     20  C   UNL A   1      30.483  27.918  22.385  1.00  0.00     0.097 C 
ATOM     21  C   UNL A   1      30.200  29.400  22.165  1.00  0.00     0.014 C 
ENDBRANCH  18  20
ENDBRANCH  10  18
BRANCH  17  22
ATOM     22  S   UNL A   1      32.518  21.161  24.567  1.00  0.00     0.243 S 
ATOM     23  O   UNL A   1      31.440  20.659  25.389  1.00  0.00    -0.207 OA
ATOM     24  O   UNL A   1      32.704  20.710  23.202  1.00  0.00    -0.207 OA
BRANCH  22  25
ATOM     25  N   UNL A   1      33.972  20.906  25.407  1.00  0.00    -0.198 NA
ATOM     26  C   UNL A   1      34.200  21.396  26.777  1.00  0.00     0.103 C 
ATOM     27  C   UNL A   1      35.146  20.319  24.758  1.00  0.00     0.103 C 
ATOM     28  C   UNL A   1      35.431  22.316  26.898  1.00  0.00     0.020 C 
ATOM     29  C   UNL A   1      36.211  21.383  24.584  1.00  0.00     0.020 C 
ATOM     30  C   UNL A   1      36.590  22.086  25.900  1.00  0.00    -0.012 C 
ATOM     31  C   UNL A   1      37.296  23.409  25.564  1.00  0.00     0.008 C 
ENDBRANCH  22  25
ENDBRANCH  17  22
ENDBRANCH   7   9
ENDBRANCH   6   7
ENDBRANCH   5   6
ENDBRANCH   4   5
ENDBRANCH   3   4
ENDBRANCH   2   3
ENDBRANCH   1   2
BRANCH   1  32
ATOM     32  O   UNL A   1      34.657  34.782  29.257  1.00  0.00    -0.376 OA
BRANCH  32  33
ATOM     33  C   UNL A   1      34.040  35.974  28.775  1.00  0.00     0.202 C 
BRANCH  33  34
ATOM     34  C   UNL A   1      32.929  36.349  29.760  1.00  0.00     0.261 C 
BRANCH  34  35
ATOM     35  O   UNL A   1      32.693  35.309  30.729  1.00  0.00    -0.460 OA
BRANCH  35  36
ATOM     36  C   UNL A   1      32.787  35.699  32.020  1.00  0.00     0.338 C 
ATOM     37  O   UNL A   1      31.979  36.376  32.634  1.00  0.00    -0.246 OA
BRANCH  36  38
ATOM     38  C   UNL A   1      33.914  34.990  32.662  1.00  0.00     0.060 A 
ATOM     39  C   UNL A   1      35.165  35.619  32.653  1.00  0.00     0.016 A 
ATOM     40  C   UNL A   1      33.764  33.733  33.253  1.00  0.00     0.016 A 
ATOM     41  C   UNL A   1      36.276  34.990  33.205  1.00  0.00     0.010 A 
ATOM     42  C   UNL A   1      34.886  33.084  33.778  1.00  0.00     0.010 A 
ATOM     43  C   UNL A   1      36.149  33.698  33.724  1.00  0.00    -0.014 A 
BRANCH  43  44
ATOM     44  C   UNL A   1      37.378  32.923  33.999  1.00  0.00     0.031 A 
ATOM     45  C   UNL A   1      38.193  33.288  35.208  1.00  0.00     0.074 A 
ATOM     46  C   UNL A   1      37.740  31.893  33.216  1.00  0.00     0.049 A 
ATOM     47  N   UNL A   1      39.296  32.752  35.656  1.00  0.00    -0.248 NA
ATOM     48  C   UNL A   1      37.691  34.406  36.026  1.00  0.00     0.031 C 
ATOM     49  C   UNL A   1      37.019  31.434  32.031  1.00  0.00     0.029 A 
ATOM     50  N   UNL A   1      38.823  31.055  33.300  1.00  0.00    -0.354 N 
ATOM     51  C   UNL A   1      39.637  33.481  36.787  1.00  0.00     0.074 A 
ATOM     52  C   UNL A   1      38.628  34.503  36.956  1.00  0.00     0.031 C 
ATOM     53  C   UNL A   1      37.697  30.412  31.478  1.00  0.00     0.029 A 
ATOM     54  C   UNL A   1      38.907  30.159  32.262  1.00  0.00     0.049 A 
ATOM     55  H   UNL A   1      39.479  31.093  34.033  1.00  0.00     0.167 HD
ATOM     56  C   UNL A   1      40.688  33.309  37.622  1.00  0.00     0.034 A 
ATOM     57  C   UNL A   1      39.861  29.254  31.970  1.00  0.00     0.034 A 
ATOM     58  C   UNL A   1      41.681  32.283  37.465  1.00  0.00     0.049 A 
ATOM     59  C   UNL A   1      41.035  29.098  32.903  1.00  0.00     0.074 A 
ATOM     60  C   UNL A   1      42.767  32.005  38.274  1.00  0.00     0.029 A 
ATOM     61  N   UNL A   1      41.715  31.371  36.420  1.00  0.00    -0.354 N 
ATOM     62  N   UNL A   1      41.284  29.719  34.031  1.00  0.00    -0.248 NA
ATOM     63  C   UNL A   1      42.042  28.090  32.539  1.00  0.00     0.031 C 
ATOM     64  C   UNL A   1      43.468  30.933  37.710  1.00  0.00     0.029 A 
ATOM     65  C   UNL A   1      42.808  30.534  36.558  1.00  0.00     0.049 A 
ATOM     66  H   UNL A   1      41.058  31.327  35.688  1.00  0.00     0.167 HD
ATOM     67  C   UNL A   1      42.459  29.159  34.524  1.00  0.00     0.074 A 
ATOM     68  C   UNL A   1      42.855  28.129  33.585  1.00  0.00     0.031 C 
ATOM     69  C   UNL A   1      43.158  29.479  35.642  1.00  0.00     0.034 A 
BRANCH  56  70
ATOM     70  C   UNL A   1      40.799  34.245  38.792  1.00  0.00     0.023 A 
ATOM     71  C   UNL A   1      41.695  35.332  38.731  1.00  0.00     0.012 A 
ATOM     72  C   UNL A   1      40.004  34.066  39.940  1.00  0.00     0.148 A 
ATOM     73  C   UNL A   1      41.818  36.211  39.807  1.00  0.00     0.002 A 
ATOM     74  C   UNL A   1      40.104  34.968  40.992  1.00  0.00     0.091 A 
ATOM     75  F   UNL A   1      39.184  33.006  39.991  1.00  0.00    -0.205 F 
ATOM     76  C   UNL A   1      41.017  36.034  40.932  1.00  0.00     0.022 A 
BRANCH  74  77
ATOM     77  S   UNL A   1      39.066  34.861  42.453  1.00  0.00     0.127 S 
ATOM     78  O   UNL A   1      39.098  36.238  42.940  1.00  0.00    -0.237 OA
ATOM     79  O   UNL A   1      37.782  34.443  41.891  1.00  0.00    -0.237 OA
ATOM     80  O   UNL A   1      39.697  33.873  43.318  1.00  0.00    -0.744 OA
ENDBRANCH  74  77
ENDBRANCH  56  70
BRANCH  57  81
ATOM     81  C   UNL A   1      39.731  28.398  30.757  1.00  0.00     0.023 A 
ATOM     82  C   UNL A   1      38.922  27.247  30.802  1.00  0.00     0.012 A 
ATOM     83  C   UNL A   1      40.397  28.725  29.561  1.00  0.00     0.148 A 
ATOM     84  C   UNL A   1      38.801  26.421  29.684  1.00  0.00     0.002 A 
ATOM     85  C   UNL A   1      40.229  27.927  28.435  1.00  0.00     0.091 A 
ATOM     86  F   UNL A   1      41.180  29.814  29.546  1.00  0.00    -0.205 F 
ATOM     87  C   UNL A   1      39.444  26.767  28.498  1.00  0.00     0.022 A 
BRANCH  85  88
ATOM     88  S   UNL A   1      40.924  28.363  26.837  1.00  0.00     0.127 S 
ATOM     89  O   UNL A   1      40.896  27.080  26.140  1.00  0.00    -0.237 OA
ATOM     90  O   UNL A   1      39.962  29.350  26.348  1.00  0.00    -0.237 OA
ATOM     91  O   UNL A   1      42.247  28.903  27.121  1.00  0.00    -0.744 OA
ENDBRANCH  85  88
ENDBRANCH  57  81
BRANCH  69  92
ATOM     92  C   UNL A   1      44.412  28.694  35.928  1.00  0.00     0.023 A 
ATOM     93  C   UNL A   1      45.654  29.172  35.467  1.00  0.00     0.012 A 
ATOM     94  C   UNL A   1      44.368  27.521  36.708  1.00  0.00     0.148 A 
ATOM     95  C   UNL A   1      46.830  28.476  35.746  1.00  0.00     0.002 A 
ATOM     96  C   UNL A   1      45.550  26.858  37.021  1.00  0.00     0.091 A 
ATOM     97  F   UNL A   1      43.177  27.068  37.122  1.00  0.00    -0.205 F 
ATOM     98  C   UNL A   1      46.779  27.326  36.532  1.00  0.00     0.022 A 
BRANCH  96  99
ATOM     99  S   UNL A   1      45.576  25.427  38.108  1.00  0.00     0.127 S 
ATOM    100  O   UNL A   1      46.867  24.825  37.779  1.00  0.00    -0.237 OA
ATOM    101  O   UNL A   1      45.509  26.037  39.437  1.00  0.00    -0.237 OA
ATOM    102  O   UNL A   1      44.402  24.642  37.751  1.00  0.00    -0.744 OA
ENDBRANCH  96  99
ENDBRANCH  69  92
ENDBRANCH  43  44
ENDBRANCH  36  38
ENDBRANCH  35  36
ENDBRANCH  34  35
ENDBRANCH  33  34
ENDBRANCH  32  33
ENDBRANCH   1  32
TORSDOF 24
ENDMDL
MODEL 3
REMARK VINA RESULT:      -9.1      4.471      9.461
REMARK SMILES CCC(=O)N1c2ccc(S(=O)(=O)N3CCC(C)CC3)cc2C[C@H]1C(=O)OCCOCCOCCOC(=O)c1ccc(-c2c3nc(c(-c4cccc(S(=O)(=O)[O-])c4F)c4ccc([nH]4)c(-c4cccc(S(=O)(=O)[O-])c4F)c4nc(c(-c5cccc(S(=O)(=O)[O-])c5F)c5ccc2[nH]5)C=C4)C=C3)cc1
REMARK SMILES IDX 31 1 30 2 29 3 28 4 27 5 26 6 24 7 25 8 23 9 5 10 6 11 7 12
REMARK SMILES IDX 21 13 22 14 8 15 20 16 9 17 3 18 4 19 2 20 1 21 10 22 11 23
REMARK SMILES IDX 12 24 13 25 14 26 19 27 15 28 18 29 16 30 17 31 32 32 33 33
REMARK SMILES IDX 34 34 35 35 36 36 37 37 38 38 39 39 100 40 40 41 99 42 41 43
REMARK SMILES IDX 42 44 43 45 93 46 44 47 98 48 92 49 94 50 45 51 97 52 91 53
REMARK SMILES IDX 90 54 46 56 78 57 58 58 77 59 59 60 62 61 76 62 95 63 60 64
REMARK SMILES IDX 61 65 75 67 96 68 63 69 47 70 48 71 56 72 49 73 51 74 57 75
REMARK SMILES IDX 50 76 52 77 53 78 54 79 55 80 79 81 80 82 88 83 81 84 83 85
REMARK SMILES IDX 89 86 82 87 84 88 85 89 86 90 87 91 64 92 65 93 73 94 66 95
REMARK SMILES IDX 68 96 74 97 67 98 69 99 70 100 71 101 72 102
REMARK H PARENT 94 55 62 66
REMARK Flexibility Score: inf
ROOT
ATOM      1  C   UNL A   1      34.525  33.356  28.803  1.00  0.00     0.188 C 
ENDROOT
BRANCH   1   2
ATOM      2  C   UNL A   1      33.311  34.276  28.904  1.00  0.00     0.188 C 
BRANCH   2   3
ATOM      3  O   UNL A   1      32.220  34.138  27.999  1.00  0.00    -0.376 OA
BRANCH   3   4
ATOM      4  C   UNL A   1      32.326  33.269  26.883  1.00  0.00     0.202 C 
BRANCH   4   5
ATOM      5  C   UNL A   1      31.423  32.037  26.992  1.00  0.00     0.261 C 
BRANCH   5   6
ATOM      6  O   UNL A   1      31.439  31.200  25.817  1.00  0.00    -0.462 OA
BRANCH   6   7
ATOM      7  C   UNL A   1      32.198  30.076  25.890  1.00  0.00     0.329 C 
ATOM      8  O   UNL A   1      33.383  30.057  26.206  1.00  0.00    -0.250 OA
BRANCH   7   9
ATOM      9  C   UNL A   1      31.450  28.787  25.522  1.00  0.00     0.204 C 
ATOM     10  N   UNL A   1      31.944  27.981  24.373  1.00  0.00    -0.298 N 
ATOM     11  C   UNL A   1      32.060  26.656  24.800  1.00  0.00     0.048 A 
ATOM     12  C   UNL A   1      32.272  25.581  23.977  1.00  0.00     0.028 A 
ATOM     13  C   UNL A   1      31.793  26.509  26.157  1.00  0.00    -0.020 A 
ATOM     14  C   UNL A   1      31.524  27.850  26.767  1.00  0.00     0.075 C 
ATOM     15  C   UNL A   1      32.193  24.332  24.546  1.00  0.00     0.024 A 
ATOM     16  C   UNL A   1      31.783  25.245  26.745  1.00  0.00     0.027 A 
ATOM     17  C   UNL A   1      31.991  24.139  25.909  1.00  0.00     0.083 A 
BRANCH  10  18
ATOM     18  C   UNL A   1      31.797  28.208  23.023  1.00  0.00     0.227 C 
ATOM     19  O   UNL A   1      30.753  27.946  22.422  1.00  0.00    -0.275 OA
BRANCH  18  20
ATOM     20  C   UNL A   1      32.879  29.033  22.350  1.00  0.00     0.097 C 
ATOM     21  C   UNL A   1      34.273  28.470  22.603  1.00  0.00     0.014 C 
ENDBRANCH  18  20
ENDBRANCH  10  18
BRANCH  17  22
ATOM     22  S   UNL A   1      32.038  22.472  26.545  1.00  0.00     0.243 S 
ATOM     23  O   UNL A   1      31.823  22.585  27.970  1.00  0.00    -0.207 OA
ATOM     24  O   UNL A   1      31.154  21.688  25.704  1.00  0.00    -0.207 OA
BRANCH  22  25
ATOM     25  N   UNL A   1      33.624  21.915  26.302  1.00  0.00    -0.198 NA
ATOM     26  C   UNL A   1      34.801  22.564  26.905  1.00  0.00     0.103 C 
ATOM     27  C   UNL A   1      33.929  20.846  25.349  1.00  0.00     0.103 C 
ATOM     28  C   UNL A   1      35.845  23.017  25.866  1.00  0.00     0.020 C 
ATOM     29  C   UNL A   1      34.666  21.427  24.159  1.00  0.00     0.020 C 
ATOM     30  C   UNL A   1      35.931  22.211  24.549  1.00  0.00    -0.012 C 
ATOM     31  C   UNL A   1      36.328  23.120  23.374  1.00  0.00     0.008 C 
ENDBRANCH  22  25
ENDBRANCH  17  22
ENDBRANCH   7   9
ENDBRANCH   6   7
ENDBRANCH   5   6
ENDBRANCH   4   5
ENDBRANCH   3   4
ENDBRANCH   2   3
ENDBRANCH   1   2
BRANCH   1  32
ATOM     32  O   UNL A   1      34.952  32.890  30.076  1.00  0.00    -0.376 OA
BRANCH  32  33
ATOM     33  C   UNL A   1      34.538  33.716  31.163  1.00  0.00     0.202 C 
BRANCH  33  34
ATOM     34  C   UNL A   1      35.026  33.057  32.456  1.00  0.00     0.261 C 
BRANCH  34  35
ATOM     35  O   UNL A   1      36.446  33.217  32.640  1.00  0.00    -0.460 OA
BRANCH  35  36
ATOM     36  C   UNL A   1      36.958  32.578  33.717  1.00  0.00     0.338 C 
ATOM     37  O   UNL A   1      36.429  32.462  34.810  1.00  0.00    -0.246 OA
BRANCH  36  38
ATOM     38  C   UNL A   1      38.169  31.833  33.311  1.00  0.00     0.060 A 
ATOM     39  C   UNL A   1      38.374  30.571  33.883  1.00  0.00     0.016 A 
ATOM     40  C   UNL A   1      39.093  32.352  32.403  1.00  0.00     0.016 A 
ATOM     41  C   UNL A   1      39.512  29.833  33.575  1.00  0.00     0.010 A 
ATOM     42  C   UNL A   1      40.255  31.627  32.118  1.00  0.00     0.010 A 
ATOM     43  C   UNL A   1      40.481  30.382  32.730  1.00  0.00    -0.014 A 
BRANCH  43  44
ATOM     44  C   UNL A   1      41.814  29.745  32.676  1.00  0.00     0.031 A 
ATOM     45  C   UNL A   1      42.110  28.810  31.536  1.00  0.00     0.074 A 
ATOM     46  C   UNL A   1      42.755  30.020  33.595  1.00  0.00     0.049 A 
ATOM     47  N   UNL A   1      43.202  28.146  31.272  1.00  0.00    -0.248 NA
ATOM     48  C   UNL A   1      41.027  28.605  30.558  1.00  0.00     0.031 C 
ATOM     49  C   UNL A   1      42.591  30.924  34.732  1.00  0.00     0.029 A 
ATOM     50  N   UNL A   1      44.037  29.548  33.719  1.00  0.00    -0.354 N 
ATOM     51  C   UNL A   1      42.932  27.421  30.118  1.00  0.00     0.074 A 
ATOM     52  C   UNL A   1      41.571  27.722  29.734  1.00  0.00     0.031 C 
ATOM     53  C   UNL A   1      43.724  30.919  35.458  1.00  0.00     0.029 A 
ATOM     54  C   UNL A   1      44.681  29.998  34.846  1.00  0.00     0.049 A 
ATOM     55  H   UNL A   1      44.454  28.943  33.065  1.00  0.00     0.167 HD
ATOM     56  C   UNL A   1      43.747  26.590  29.430  1.00  0.00     0.034 A 
ATOM     57  C   UNL A   1      45.898  29.686  35.333  1.00  0.00     0.034 A 
ATOM     58  C   UNL A   1      45.105  26.303  29.801  1.00  0.00     0.049 A 
ATOM     59  C   UNL A   1      46.779  28.738  34.559  1.00  0.00     0.074 A 
ATOM     60  C   UNL A   1      46.024  25.499  29.151  1.00  0.00     0.029 A 
ATOM     61  N   UNL A   1      45.736  26.804  30.929  1.00  0.00    -0.354 N 
ATOM     62  N   UNL A   1      46.551  28.149  33.410  1.00  0.00    -0.248 NA
ATOM     63  C   UNL A   1      48.098  28.439  35.135  1.00  0.00     0.031 C 
ATOM     64  C   UNL A   1      47.208  25.502  29.897  1.00  0.00     0.029 A 
ATOM     65  C   UNL A   1      47.031  26.321  31.001  1.00  0.00     0.049 A 
ATOM     66  H   UNL A   1      45.323  27.414  31.584  1.00  0.00     0.167 HD
ATOM     67  C   UNL A   1      47.707  27.434  33.112  1.00  0.00     0.074 A 
ATOM     68  C   UNL A   1      48.643  27.687  34.189  1.00  0.00     0.031 C 
ATOM     69  C   UNL A   1      47.967  26.625  32.053  1.00  0.00     0.034 A 
BRANCH  56  70
ATOM     70  C   UNL A   1      43.189  25.948  28.190  1.00  0.00     0.023 A 
ATOM     71  C   UNL A   1      43.178  26.669  26.979  1.00  0.00     0.012 A 
ATOM     72  C   UNL A   1      42.700  24.628  28.217  1.00  0.00     0.148 A 
ATOM     73  C   UNL A   1      42.661  26.095  25.818  1.00  0.00     0.002 A 
ATOM     74  C   UNL A   1      42.222  24.050  27.047  1.00  0.00     0.091 A 
ATOM     75  F   UNL A   1      42.689  23.973  29.387  1.00  0.00    -0.205 F 
ATOM     76  C   UNL A   1      42.193  24.784  25.850  1.00  0.00     0.022 A 
BRANCH  74  77
ATOM     77  S   UNL A   1      41.661  22.345  26.976  1.00  0.00     0.127 S 
ATOM     78  O   UNL A   1      42.649  21.674  27.819  1.00  0.00    -0.237 OA
ATOM     79  O   UNL A   1      40.323  22.436  27.560  1.00  0.00    -0.237 OA
ATOM     80  O   UNL A   1      41.682  21.978  25.567  1.00  0.00    -0.744 OA
ENDBRANCH  74  77
ENDBRANCH  56  70
BRANCH  57  81
ATOM     81  C   UNL A   1      46.372  30.302  36.604  1.00  0.00     0.023 A 
ATOM     82  C   UNL A   1      47.029  31.547  36.570  1.00  0.00     0.012 A 
ATOM     83  C   UNL A   1      46.167  29.666  37.843  1.00  0.00     0.148 A 
ATOM     84  C   UNL A   1      47.498  32.134  37.746  1.00  0.00     0.002 A 
ATOM     85  C   UNL A   1      46.590  30.281  39.015  1.00  0.00     0.091 A 
ATOM     86  F   UNL A   1      45.560  28.471  37.851  1.00  0.00    -0.205 F 
ATOM     87  C   UNL A   1      47.269  31.508  38.969  1.00  0.00     0.022 A 
BRANCH  85  88
ATOM     88  S   UNL A   1      46.231  29.603  40.640  1.00  0.00     0.127 S 
ATOM     89  O   UNL A   1      46.853  30.590  41.519  1.00  0.00    -0.237 OA
ATOM     90  O   UNL A   1      44.768  29.604  40.650  1.00  0.00    -0.237 OA
ATOM     91  O   UNL A   1      46.831  28.276  40.650  1.00  0.00    -0.744 OA
ENDBRANCH  85  88
ENDBRANCH  57  81
BRANCH  69  92
ATOM     92  C   UNL A   1      49.323  25.972  31.992  1.00  0.00     0.023 A 
ATOM     93  C   UNL A   1      50.356  26.578  31.251  1.00  0.00     0.012 A 
ATOM     94  C   UNL A   1      49.592  24.795  32.719  1.00  0.00     0.148 A 
ATOM     95  C   UNL A   1      51.627  26.006  31.206  1.00  0.00     0.002 A 
ATOM     96  C   UNL A   1      50.874  24.256  32.706  1.00  0.00     0.091 A 
ATOM     97  F   UNL A   1      48.593  24.219  33.402  1.00  0.00    -0.205 F 
ATOM     98  C   UNL A   1      51.888  24.851  31.942  1.00  0.00     0.022 A 
BRANCH  96  99
ATOM     99  S   UNL A   1      51.312  22.827  33.705  1.00  0.00     0.127 S 
ATOM    100  O   UNL A   1      50.561  21.760  33.046  1.00  0.00    -0.237 OA
ATOM    101  O   UNL A   1      52.763  22.750  33.528  1.00  0.00    -0.237 OA
ATOM    102  O   UNL A   1      50.892  23.153  35.061  1.00  0.00    -0.744 OA
ENDBRANCH  96  99
ENDBRANCH  69  92
ENDBRANCH  43  44
ENDBRANCH  36  38
ENDBRANCH  35  36
ENDBRANCH  34  35
ENDBRANCH  33  34
ENDBRANCH  32  33
ENDBRANCH   1  32
TORSDOF 24
ENDMDL
