MODEL 1
REMARK VINA RESULT:      -8.4      0.000      0.000
REMARK SMILES COc1ccc(CSc2ncccc2C(=O)OCCOCCOCCOC(=O)c2ccc(-c3c4nc(c(-c5cccc(S(=O)(=O)[O-])c5F)c5ccc([nH]5)c(-c5cccc(S(=O)(=O)[O-])c5F)c5nc(c(-c6cccc(S(=O)(=O)[O-])c6F)c6ccc3[nH]6)C=C5)C=C4)cc2)cc1
REMARK SMILES IDX 21 1 20 2 19 3 18 4 17 5 15 6 16 7 14 8 9 9 10 10 11 11
REMARK SMILES IDX 13 12 12 13 8 14 7 15 6 16 3 17 4 18 93 19 5 20 92 21 2 22
REMARK SMILES IDX 1 23 22 24 23 25 24 26 25 27 26 28 27 29 28 30 29 31 30 32
REMARK SMILES IDX 91 33 31 34 90 35 32 36 33 37 34 38 84 39 35 40 89 41 83 42
REMARK SMILES IDX 85 43 36 44 88 45 82 46 81 47 37 49 69 50 49 51 68 52 50 53
REMARK SMILES IDX 53 54 67 55 86 56 51 57 52 58 66 60 87 61 54 62 38 63 39 64
REMARK SMILES IDX 47 65 40 66 42 67 48 68 41 69 43 70 44 71 45 72 46 73 70 74
REMARK SMILES IDX 71 75 79 76 72 77 74 78 80 79 73 80 75 81 76 82 77 83 78 84
REMARK SMILES IDX 55 85 56 86 64 87 57 88 59 89 65 90 58 91 60 92 61 93 62 94
REMARK SMILES IDX 63 95
REMARK H PARENT 85 48 53 59
REMARK Flexibility Score: inf
ROOT
ATOM      1  C   UNL A   1      35.522  30.834  28.974  1.00  0.00     0.188 C 
ENDROOT
BRANCH   1   2
ATOM      2  O   UNL A   1      35.715  29.490  28.552  1.00  0.00    -0.376 OA
BRANCH   2   3
ATOM      3  C   UNL A   1      35.369  29.225  27.199  1.00  0.00     0.202 C 
BRANCH   3   4
ATOM      4  C   UNL A   1      33.861  29.205  26.938  1.00  0.00     0.261 C 
BRANCH   4   5
ATOM      5  O   UNL A   1      33.507  28.998  25.560  1.00  0.00    -0.460 OA
BRANCH   5   6
ATOM      6  C   UNL A   1      32.527  28.106  25.286  1.00  0.00     0.340 C 
ATOM      7  O   UNL A   1      32.336  27.045  25.850  1.00  0.00    -0.246 OA
BRANCH   6   8
ATOM      8  C   UNL A   1      31.735  28.642  24.157  1.00  0.00     0.092 A 
ATOM      9  C   UNL A   1      32.244  28.773  22.864  1.00  0.00     0.111 A 
ATOM     10  N   UNL A   1      31.495  29.303  21.867  1.00  0.00    -0.249 NA
ATOM     11  C   UNL A   1      30.216  29.646  22.116  1.00  0.00     0.112 A 
ATOM     12  C   UNL A   1      30.398  29.005  24.391  1.00  0.00     0.020 A 
ATOM     13  C   UNL A   1      29.620  29.499  23.350  1.00  0.00     0.021 A 
BRANCH   9  14
ATOM     14  S   UNL A   1      33.788  28.036  22.346  1.00  0.00    -0.101 SA
BRANCH  14  15
ATOM     15  C   UNL A   1      33.274  26.377  21.792  1.00  0.00     0.112 C 
BRANCH  15  16
ATOM     16  C   UNL A   1      33.260  25.223  22.777  1.00  0.00    -0.037 A 
ATOM     17  C   UNL A   1      33.215  22.910  24.409  1.00  0.00     0.118 A 
ATOM     18  C   UNL A   1      34.189  23.887  24.593  1.00  0.00     0.047 A 
ATOM     19  C   UNL A   1      32.230  23.105  23.444  1.00  0.00     0.047 A 
ATOM     20  C   UNL A   1      34.209  25.032  23.785  1.00  0.00     0.008 A 
ATOM     21  C   UNL A   1      32.262  24.245  22.631  1.00  0.00     0.008 A 
BRANCH  17  22
ATOM     22  O   UNL A   1      33.300  21.825  25.239  1.00  0.00    -0.497 OA
ATOM     23  C   UNL A   1      32.210  20.911  25.154  1.00  0.00     0.278 C 
ENDBRANCH  17  22
ENDBRANCH  15  16
ENDBRANCH  14  15
ENDBRANCH   9  14
ENDBRANCH   6   8
ENDBRANCH   5   6
ENDBRANCH   4   5
ENDBRANCH   3   4
ENDBRANCH   2   3
ENDBRANCH   1   2
BRANCH   1  24
ATOM     24  C   UNL A   1      36.015  31.880  27.951  1.00  0.00     0.188 C 
BRANCH  24  25
ATOM     25  O   UNL A   1      35.130  32.894  27.489  1.00  0.00    -0.376 OA
BRANCH  25  26
ATOM     26  C   UNL A   1      33.761  32.813  27.867  1.00  0.00     0.202 C 
BRANCH  26  27
ATOM     27  C   UNL A   1      32.984  34.120  28.085  1.00  0.00     0.261 C 
BRANCH  27  28
ATOM     28  O   UNL A   1      33.654  35.082  28.919  1.00  0.00    -0.460 OA
BRANCH  28  29
ATOM     29  C   UNL A   1      33.610  34.836  30.252  1.00  0.00     0.338 C 
ATOM     30  O   UNL A   1      32.665  35.006  31.003  1.00  0.00    -0.246 OA
BRANCH  29  31
ATOM     31  C   UNL A   1      34.859  34.182  30.687  1.00  0.00     0.060 A 
ATOM     32  C   UNL A   1      34.776  33.143  31.617  1.00  0.00     0.016 A 
ATOM     33  C   UNL A   1      36.106  34.668  30.286  1.00  0.00     0.016 A 
ATOM     34  C   UNL A   1      35.939  32.586  32.140  1.00  0.00     0.010 A 
ATOM     35  C   UNL A   1      37.274  34.115  30.834  1.00  0.00     0.010 A 
ATOM     36  C   UNL A   1      37.194  33.079  31.778  1.00  0.00    -0.014 A 
BRANCH  36  37
ATOM     37  C   UNL A   1      38.372  32.599  32.544  1.00  0.00     0.031 A 
ATOM     38  C   UNL A   1      39.370  31.708  31.860  1.00  0.00     0.074 A 
ATOM     39  C   UNL A   1      38.629  33.053  33.785  1.00  0.00     0.049 A 
ATOM     40  N   UNL A   1      40.444  31.142  32.342  1.00  0.00    -0.248 NA
ATOM     41  C   UNL A   1      39.132  31.435  30.432  1.00  0.00     0.031 C 
ATOM     42  C   UNL A   1      37.814  34.022  34.516  1.00  0.00     0.029 A 
ATOM     43  N   UNL A   1      39.657  32.760  34.646  1.00  0.00    -0.354 N 
ATOM     44  C   UNL A   1      40.987  30.409  31.294  1.00  0.00     0.074 A 
ATOM     45  C   UNL A   1      40.134  30.617  30.143  1.00  0.00     0.031 C 
ATOM     46  C   UNL A   1      38.368  34.234  35.723  1.00  0.00     0.029 A 
ATOM     47  C   UNL A   1      39.545  33.379  35.868  1.00  0.00     0.049 A 
ATOM     48  H   UNL A   1      40.405  32.163  34.411  1.00  0.00     0.167 HD
ATOM     49  C   UNL A   1      42.096  29.633  31.288  1.00  0.00     0.034 A 
ATOM     50  C   UNL A   1      40.283  33.241  36.989  1.00  0.00     0.034 A 
ATOM     51  C   UNL A   1      42.963  29.449  32.419  1.00  0.00     0.049 A 
ATOM     52  C   UNL A   1      41.458  32.295  36.986  1.00  0.00     0.074 A 
ATOM     53  C   UNL A   1      44.099  28.665  32.512  1.00  0.00     0.029 A 
ATOM     54  N   UNL A   1      42.789  30.051  33.654  1.00  0.00    -0.354 N 
ATOM     55  N   UNL A   1      41.972  31.616  35.989  1.00  0.00    -0.248 NA
ATOM     56  C   UNL A   1      42.160  32.102  38.265  1.00  0.00     0.031 C 
ATOM     57  C   UNL A   1      44.598  28.773  33.815  1.00  0.00     0.029 A 
ATOM     58  C   UNL A   1      43.787  29.644  34.524  1.00  0.00     0.049 A 
ATOM     59  H   UNL A   1      42.063  30.677  33.881  1.00  0.00     0.167 HD
ATOM     60  C   UNL A   1      43.063  30.931  36.514  1.00  0.00     0.074 A 
ATOM     61  C   UNL A   1      43.157  31.303  37.910  1.00  0.00     0.031 C 
ATOM     62  C   UNL A   1      43.899  30.055  35.901  1.00  0.00     0.034 A 
BRANCH  49  63
ATOM     63  C   UNL A   1      42.415  28.900  30.015  1.00  0.00     0.023 A 
ATOM     64  C   UNL A   1      43.413  29.389  29.148  1.00  0.00     0.012 A 
ATOM     65  C   UNL A   1      41.735  27.709  29.691  1.00  0.00     0.148 A 
ATOM     66  C   UNL A   1      43.708  28.716  27.961  1.00  0.00     0.002 A 
ATOM     67  C   UNL A   1      42.065  27.024  28.527  1.00  0.00     0.091 A 
ATOM     68  F   UNL A   1      40.769  27.281  30.515  1.00  0.00    -0.205 F 
ATOM     69  C   UNL A   1      43.043  27.532  27.657  1.00  0.00     0.022 A 
BRANCH  67  70
ATOM     70  S   UNL A   1      41.307  25.456  28.090  1.00  0.00     0.127 S 
ATOM     71  O   UNL A   1      42.125  24.511  28.848  1.00  0.00    -0.237 OA
ATOM     72  O   UNL A   1      39.942  25.622  28.593  1.00  0.00    -0.237 OA
ATOM     73  O   UNL A   1      41.409  25.353  26.641  1.00  0.00    -0.744 OA
ENDBRANCH  67  70
ENDBRANCH  49  63
BRANCH  50  74
ATOM     74  C   UNL A   1      39.924  33.999  38.222  1.00  0.00     0.023 A 
ATOM     75  C   UNL A   1      40.484  35.270  38.451  1.00  0.00     0.012 A 
ATOM     76  C   UNL A   1      39.031  33.463  39.172  1.00  0.00     0.148 A 
ATOM     77  C   UNL A   1      40.180  35.984  39.612  1.00  0.00     0.002 A 
ATOM     78  C   UNL A   1      38.685  34.203  40.296  1.00  0.00     0.091 A 
ATOM     79  F   UNL A   1      38.535  32.237  38.956  1.00  0.00    -0.205 F 
ATOM     80  C   UNL A   1      39.271  35.456  40.527  1.00  0.00     0.022 A 
BRANCH  78  81
ATOM     81  S   UNL A   1      37.432  33.653  41.458  1.00  0.00     0.127 S 
ATOM     82  O   UNL A   1      36.394  33.149  40.562  1.00  0.00    -0.237 OA
ATOM     83  O   UNL A   1      38.149  32.623  42.211  1.00  0.00    -0.237 OA
ATOM     84  O   UNL A   1      37.077  34.829  42.240  1.00  0.00    -0.744 OA
ENDBRANCH  78  81
ENDBRANCH  50  74
BRANCH  62  85
ATOM     85  C   UNL A   1      45.001  29.441  36.725  1.00  0.00     0.023 A 
ATOM     86  C   UNL A   1      46.252  30.083  36.801  1.00  0.00     0.012 A 
ATOM     87  C   UNL A   1      44.774  28.277  37.487  1.00  0.00     0.148 A 
ATOM     88  C   UNL A   1      47.271  29.562  37.600  1.00  0.00     0.002 A 
ATOM     89  C   UNL A   1      45.777  27.789  38.317  1.00  0.00     0.091 A 
ATOM     90  F   UNL A   1      43.583  27.670  37.388  1.00  0.00    -0.205 F 
ATOM     91  C   UNL A   1      47.029  28.423  38.365  1.00  0.00     0.022 A 
BRANCH  89  92
ATOM     92  S   UNL A   1      45.527  26.384  39.407  1.00  0.00     0.127 S 
ATOM     93  O   UNL A   1      45.332  25.295  38.452  1.00  0.00    -0.237 OA
ATOM     94  O   UNL A   1      46.792  26.331  40.142  1.00  0.00    -0.237 OA
ATOM     95  O   UNL A   1      44.369  26.713  40.226  1.00  0.00    -0.744 OA
ENDBRANCH  89  92
ENDBRANCH  62  85
ENDBRANCH  36  37
ENDBRANCH  29  31
ENDBRANCH  28  29
ENDBRANCH  27  28
ENDBRANCH  26  27
ENDBRANCH  25  26
ENDBRANCH  24  25
ENDBRANCH   1  24
TORSDOF 24
ENDMDL
MODEL 2
REMARK VINA RESULT:      -8.3      6.121     11.875
REMARK SMILES COc1ccc(CSc2ncccc2C(=O)OCCOCCOCCOC(=O)c2ccc(-c3c4nc(c(-c5cccc(S(=O)(=O)[O-])c5F)c5ccc([nH]5)c(-c5cccc(S(=O)(=O)[O-])c5F)c5nc(c(-c6cccc(S(=O)(=O)[O-])c6F)c6ccc3[nH]6)C=C5)C=C4)cc2)cc1
REMARK SMILES IDX 21 1 20 2 19 3 18 4 17 5 15 6 16 7 14 8 9 9 10 10 11 11
REMARK SMILES IDX 13 12 12 13 8 14 7 15 6 16 3 17 4 18 93 19 5 20 92 21 2 22
REMARK SMILES IDX 1 23 22 24 23 25 24 26 25 27 26 28 27 29 28 30 29 31 30 32
REMARK SMILES IDX 91 33 31 34 90 35 32 36 33 37 34 38 84 39 35 40 89 41 83 42
REMARK SMILES IDX 85 43 36 44 88 45 82 46 81 47 37 49 69 50 49 51 68 52 50 53
REMARK SMILES IDX 53 54 67 55 86 56 51 57 52 58 66 60 87 61 54 62 38 63 39 64
REMARK SMILES IDX 47 65 40 66 42 67 48 68 41 69 43 70 44 71 45 72 46 73 70 74
REMARK SMILES IDX 71 75 79 76 72 77 74 78 80 79 73 80 75 81 76 82 77 83 78 84
REMARK SMILES IDX 55 85 56 86 64 87 57 88 59 89 65 90 58 91 60 92 61 93 62 94
REMARK SMILES IDX 63 95
REMARK H PARENT 85 48 53 59
REMARK Flexibility Score: inf
ROOT
ATOM      1  C   UNL A   1      38.526  23.938  27.061  1.00  0.00     0.188 C 
ENDROOT
BRANCH   1   2
ATOM      2  O   UNL A   1      37.715  24.027  25.896  1.00  0.00    -0.376 OA
BRANCH   2   3
ATOM      3  C   UNL A   1      36.378  23.572  26.053  1.00  0.00     0.202 C 
BRANCH   3   4
ATOM      4  C   UNL A   1      35.355  24.360  25.231  1.00  0.00     0.261 C 
BRANCH   4   5
ATOM      5  O   UNL A   1      35.304  23.987  23.843  1.00  0.00    -0.460 OA
BRANCH   5   6
ATOM      6  C   UNL A   1      34.087  23.852  23.269  1.00  0.00     0.340 C 
ATOM      7  O   UNL A   1      33.632  24.532  22.368  1.00  0.00    -0.246 OA
BRANCH   6   8
ATOM      8  C   UNL A   1      33.391  22.737  23.948  1.00  0.00     0.092 A 
ATOM      9  C   UNL A   1      32.198  22.902  24.654  1.00  0.00     0.111 A 
ATOM     10  N   UNL A   1      31.613  21.859  25.293  1.00  0.00    -0.249 NA
ATOM     11  C   UNL A   1      32.159  20.632  25.186  1.00  0.00     0.112 A 
ATOM     12  C   UNL A   1      33.939  21.448  23.851  1.00  0.00     0.020 A 
ATOM     13  C   UNL A   1      33.305  20.374  24.465  1.00  0.00     0.021 A 
BRANCH   9  14
ATOM     14  S   UNL A   1      31.213  24.391  24.570  1.00  0.00    -0.101 SA
BRANCH  14  15
ATOM     15  C   UNL A   1      31.587  25.208  26.156  1.00  0.00     0.112 C 
BRANCH  15  16
ATOM     16  C   UNL A   1      32.153  26.616  26.165  1.00  0.00    -0.037 A 
ATOM     17  C   UNL A   1      33.224  29.222  26.441  1.00  0.00     0.118 A 
ATOM     18  C   UNL A   1      33.762  28.330  25.518  1.00  0.00     0.047 A 
ATOM     19  C   UNL A   1      32.119  28.836  27.195  1.00  0.00     0.047 A 
ATOM     20  C   UNL A   1      33.229  27.041  25.381  1.00  0.00     0.008 A 
ATOM     21  C   UNL A   1      31.598  27.542  27.064  1.00  0.00     0.008 A 
BRANCH  17  22
ATOM     22  O   UNL A   1      33.832  30.447  26.505  1.00  0.00    -0.497 OA
ATOM     23  C   UNL A   1      33.631  31.159  27.724  1.00  0.00     0.278 C 
ENDBRANCH  17  22
ENDBRANCH  15  16
ENDBRANCH  14  15
ENDBRANCH   9  14
ENDBRANCH   6   8
ENDBRANCH   5   6
ENDBRANCH   4   5
ENDBRANCH   3   4
ENDBRANCH   2   3
ENDBRANCH   1   2
BRANCH   1  24
ATOM     24  C   UNL A   1      40.021  24.223  26.796  1.00  0.00     0.188 C 
BRANCH  24  25
ATOM     25  O   UNL A   1      40.963  23.156  26.818  1.00  0.00    -0.376 OA
BRANCH  25  26
ATOM     26  C   UNL A   1      40.476  21.835  27.022  1.00  0.00     0.202 C 
BRANCH  26  27
ATOM     27  C   UNL A   1      41.005  20.713  26.118  1.00  0.00     0.261 C 
BRANCH  27  28
ATOM     28  O   UNL A   1      42.305  20.214  26.481  1.00  0.00    -0.460 OA
BRANCH  28  29
ATOM     29  C   UNL A   1      43.284  20.403  25.561  1.00  0.00     0.338 C 
ATOM     30  O   UNL A   1      43.581  19.665  24.637  1.00  0.00    -0.246 OA
BRANCH  29  31
ATOM     31  C   UNL A   1      43.895  21.734  25.739  1.00  0.00     0.060 A 
ATOM     32  C   UNL A   1      44.620  21.982  26.907  1.00  0.00     0.016 A 
ATOM     33  C   UNL A   1      43.649  22.768  24.831  1.00  0.00     0.016 A 
ATOM     34  C   UNL A   1      45.105  23.261  27.164  1.00  0.00     0.010 A 
ATOM     35  C   UNL A   1      44.124  24.060  25.108  1.00  0.00     0.010 A 
ATOM     36  C   UNL A   1      44.843  24.315  26.286  1.00  0.00    -0.014 A 
BRANCH  36  37
ATOM     37  C   UNL A   1      45.188  25.688  26.734  1.00  0.00     0.031 A 
ATOM     38  C   UNL A   1      44.121  26.535  27.367  1.00  0.00     0.074 A 
ATOM     39  C   UNL A   1      46.459  26.132  26.706  1.00  0.00     0.049 A 
ATOM     40  N   UNL A   1      44.185  27.768  27.794  1.00  0.00    -0.248 NA
ATOM     41  C   UNL A   1      42.809  25.896  27.564  1.00  0.00     0.031 C 
ATOM     42  C   UNL A   1      47.612  25.364  26.239  1.00  0.00     0.029 A 
ATOM     43  N   UNL A   1      46.990  27.340  27.087  1.00  0.00    -0.354 N 
ATOM     44  C   UNL A   1      42.914  28.071  28.266  1.00  0.00     0.074 A 
ATOM     45  C   UNL A   1      42.103  26.885  28.092  1.00  0.00     0.031 C 
ATOM     46  C   UNL A   1      48.715  26.126  26.350  1.00  0.00     0.029 A 
ATOM     47  C   UNL A   1      48.338  27.449  26.845  1.00  0.00     0.049 A 
ATOM     48  H   UNL A   1      46.455  28.060  27.495  1.00  0.00     0.167 HD
ATOM     49  C   UNL A   1      42.462  29.230  28.798  1.00  0.00     0.034 A 
ATOM     50  C   UNL A   1      49.166  28.507  26.971  1.00  0.00     0.034 A 
ATOM     51  C   UNL A   1      43.272  30.399  29.003  1.00  0.00     0.049 A 
ATOM     52  C   UNL A   1      48.616  29.817  27.476  1.00  0.00     0.074 A 
ATOM     53  C   UNL A   1      42.895  31.627  29.518  1.00  0.00     0.029 A 
ATOM     54  N   UNL A   1      44.620  30.489  28.699  1.00  0.00    -0.354 N 
ATOM     55  N   UNL A   1      47.417  30.092  27.932  1.00  0.00    -0.248 NA
ATOM     56  C   UNL A   1      49.537  30.964  27.490  1.00  0.00     0.031 C 
ATOM     57  C   UNL A   1      44.012  32.469  29.500  1.00  0.00     0.029 A 
ATOM     58  C   UNL A   1      45.090  31.757  28.998  1.00  0.00     0.049 A 
ATOM     59  H   UNL A   1      45.165  29.759  28.326  1.00  0.00     0.167 HD
ATOM     60  C   UNL A   1      47.444  31.433  28.301  1.00  0.00     0.074 A 
ATOM     61  C   UNL A   1      48.789  31.907  28.047  1.00  0.00     0.031 C 
ATOM     62  C   UNL A   1      46.442  32.208  28.785  1.00  0.00     0.034 A 
BRANCH  49  63
ATOM     63  C   UNL A   1      41.007  29.293  29.172  1.00  0.00     0.023 A 
ATOM     64  C   UNL A   1      40.029  29.508  28.180  1.00  0.00     0.012 A 
ATOM     65  C   UNL A   1      40.609  29.116  30.512  1.00  0.00     0.148 A 
ATOM     66  C   UNL A   1      38.679  29.576  28.522  1.00  0.00     0.002 A 
ATOM     67  C   UNL A   1      39.259  29.144  30.838  1.00  0.00     0.091 A 
ATOM     68  F   UNL A   1      41.559  28.944  31.443  1.00  0.00    -0.205 F 
ATOM     69  C   UNL A   1      38.294  29.383  29.847  1.00  0.00     0.022 A 
BRANCH  67  70
ATOM     70  S   UNL A   1      38.668  28.839  32.506  1.00  0.00     0.127 S 
ATOM     71  O   UNL A   1      39.164  30.017  33.215  1.00  0.00    -0.237 OA
ATOM     72  O   UNL A   1      37.216  28.806  32.318  1.00  0.00    -0.237 OA
ATOM     73  O   UNL A   1      39.253  27.568  32.912  1.00  0.00    -0.744 OA
ENDBRANCH  67  70
ENDBRANCH  49  63
BRANCH  50  74
ATOM     74  C   UNL A   1      50.603  28.385  26.591  1.00  0.00     0.023 A 
ATOM     75  C   UNL A   1      50.999  28.625  25.261  1.00  0.00     0.012 A 
ATOM     76  C   UNL A   1      51.579  28.028  27.542  1.00  0.00     0.148 A 
ATOM     77  C   UNL A   1      52.335  28.491  24.881  1.00  0.00     0.002 A 
ATOM     78  C   UNL A   1      52.917  27.955  27.172  1.00  0.00     0.091 A 
ATOM     79  F   UNL A   1      51.180  27.768  28.795  1.00  0.00    -0.205 F 
ATOM     80  C   UNL A   1      53.295  28.169  25.838  1.00  0.00     0.022 A 
BRANCH  78  81
ATOM     81  S   UNL A   1      54.228  27.670  28.364  1.00  0.00     0.127 S 
ATOM     82  O   UNL A   1      55.418  27.728  27.520  1.00  0.00    -0.237 OA
ATOM     83  O   UNL A   1      54.062  28.805  29.273  1.00  0.00    -0.237 OA
ATOM     84  O   UNL A   1      53.940  26.375  28.964  1.00  0.00    -0.744 OA
ENDBRANCH  78  81
ENDBRANCH  50  74
BRANCH  62  85
ATOM     85  C   UNL A   1      46.752  33.651  29.088  1.00  0.00     0.023 A 
ATOM     86  C   UNL A   1      47.220  34.008  30.368  1.00  0.00     0.012 A 
ATOM     87  C   UNL A   1      46.660  34.638  28.086  1.00  0.00     0.148 A 
ATOM     88  C   UNL A   1      47.565  35.329  30.656  1.00  0.00     0.002 A 
ATOM     89  C   UNL A   1      47.049  35.944  28.366  1.00  0.00     0.091 A 
ATOM     90  F   UNL A   1      46.195  34.283  26.879  1.00  0.00    -0.205 F 
ATOM     91  C   UNL A   1      47.490  36.292  29.652  1.00  0.00     0.022 A 
BRANCH  89  92
ATOM     92  S   UNL A   1      47.074  37.231  27.113  1.00  0.00     0.127 S 
ATOM     93  O   UNL A   1      46.483  38.359  27.831  1.00  0.00    -0.237 OA
ATOM     94  O   UNL A   1      48.505  37.366  26.835  1.00  0.00    -0.237 OA
ATOM     95  O   UNL A   1      46.290  36.720  25.997  1.00  0.00    -0.744 OA
ENDBRANCH  89  92
ENDBRANCH  62  85
ENDBRANCH  36  37
ENDBRANCH  29  31
ENDBRANCH  28  29
ENDBRANCH  27  28
ENDBRANCH  26  27
ENDBRANCH  25  26
ENDBRANCH  24  25
ENDBRANCH   1  24
TORSDOF 24
ENDMDL
MODEL 3
REMARK VINA RESULT:      -8.0      8.315     11.990
REMARK SMILES COc1ccc(CSc2ncccc2C(=O)OCCOCCOCCOC(=O)c2ccc(-c3c4nc(c(-c5cccc(S(=O)(=O)[O-])c5F)c5ccc([nH]5)c(-c5cccc(S(=O)(=O)[O-])c5F)c5nc(c(-c6cccc(S(=O)(=O)[O-])c6F)c6ccc3[nH]6)C=C5)C=C4)cc2)cc1
REMARK SMILES IDX 21 1 20 2 19 3 18 4 17 5 15 6 16 7 14 8 9 9 10 10 11 11
REMARK SMILES IDX 13 12 12 13 8 14 7 15 6 16 3 17 4 18 93 19 5 20 92 21 2 22
REMARK SMILES IDX 1 23 22 24 23 25 24 26 25 27 26 28 27 29 28 30 29 31 30 32
REMARK SMILES IDX 91 33 31 34 90 35 32 36 33 37 34 38 84 39 35 40 89 41 83 42
REMARK SMILES IDX 85 43 36 44 88 45 82 46 81 47 37 49 69 50 49 51 68 52 50 53
REMARK SMILES IDX 53 54 67 55 86 56 51 57 52 58 66 60 87 61 54 62 38 63 39 64
REMARK SMILES IDX 47 65 40 66 42 67 48 68 41 69 43 70 44 71 45 72 46 73 70 74
REMARK SMILES IDX 71 75 79 76 72 77 74 78 80 79 73 80 75 81 76 82 77 83 78 84
REMARK SMILES IDX 55 85 56 86 64 87 57 88 59 89 65 90 58 91 60 92 61 93 62 94
REMARK SMILES IDX 63 95
REMARK H PARENT 85 48 53 59
REMARK Flexibility Score: inf
ROOT
ATOM      1  C   UNL A   1      38.831  23.868  26.693  1.00  0.00     0.188 C 
ENDROOT
BRANCH   1   2
ATOM      2  O   UNL A   1      37.623  24.269  26.058  1.00  0.00    -0.376 OA
BRANCH   2   3
ATOM      3  C   UNL A   1      36.697  23.222  25.802  1.00  0.00     0.202 C 
BRANCH   3   4
ATOM      4  C   UNL A   1      35.379  23.359  26.569  1.00  0.00     0.261 C 
BRANCH   4   5
ATOM      5  O   UNL A   1      34.495  24.362  26.042  1.00  0.00    -0.460 OA
BRANCH   5   6
ATOM      6  C   UNL A   1      33.177  24.258  26.331  1.00  0.00     0.340 C 
ATOM      7  O   UNL A   1      32.654  23.406  27.023  1.00  0.00    -0.246 OA
BRANCH   6   8
ATOM      8  C   UNL A   1      32.476  25.358  25.633  1.00  0.00     0.092 A 
ATOM      9  C   UNL A   1      31.683  25.159  24.502  1.00  0.00     0.111 A 
ATOM     10  N   UNL A   1      31.088  26.201  23.871  1.00  0.00    -0.249 NA
ATOM     11  C   UNL A   1      31.211  27.439  24.387  1.00  0.00     0.112 A 
ATOM     12  C   UNL A   1      32.588  26.658  26.152  1.00  0.00     0.020 A 
ATOM     13  C   UNL A   1      31.932  27.714  25.530  1.00  0.00     0.021 A 
BRANCH   9  14
ATOM     14  S   UNL A   1      31.171  23.540  23.943  1.00  0.00    -0.101 SA
BRANCH  14  15
ATOM     15  C   UNL A   1      32.738  22.795  23.384  1.00  0.00     0.112 C 
BRANCH  15  16
ATOM     16  C   UNL A   1      33.096  21.383  23.807  1.00  0.00    -0.037 A 
ATOM     17  C   UNL A   1      33.729  18.676  24.347  1.00  0.00     0.118 A 
ATOM     18  C   UNL A   1      34.555  19.701  24.799  1.00  0.00     0.047 A 
ATOM     19  C   UNL A   1      32.558  18.999  23.666  1.00  0.00     0.047 A 
ATOM     20  C   UNL A   1      34.240  21.039  24.533  1.00  0.00     0.008 A 
ATOM     21  C   UNL A   1      32.253  20.338  23.391  1.00  0.00     0.008 A 
BRANCH  17  22
ATOM     22  O   UNL A   1      34.141  17.406  24.647  1.00  0.00    -0.497 OA
ATOM     23  C   UNL A   1      33.754  16.406  23.707  1.00  0.00     0.278 C 
ENDBRANCH  17  22
ENDBRANCH  15  16
ENDBRANCH  14  15
ENDBRANCH   9  14
ENDBRANCH   6   8
ENDBRANCH   5   6
ENDBRANCH   4   5
ENDBRANCH   3   4
ENDBRANCH   2   3
ENDBRANCH   1   2
BRANCH   1  24
ATOM     24  C   UNL A   1      39.902  24.979  26.742  1.00  0.00     0.188 C 
BRANCH  24  25
ATOM     25  O   UNL A   1      41.278  24.635  26.850  1.00  0.00    -0.376 OA
BRANCH  25  26
ATOM     26  C   UNL A   1      41.611  23.291  27.176  1.00  0.00     0.202 C 
BRANCH  26  27
ATOM     27  C   UNL A   1      42.861  22.671  26.535  1.00  0.00     0.261 C 
BRANCH  27  28
ATOM     28  O   UNL A   1      44.027  22.667  27.379  1.00  0.00    -0.460 OA
BRANCH  28  29
ATOM     29  C   UNL A   1      45.213  22.836  26.743  1.00  0.00     0.338 C 
ATOM     30  O   UNL A   1      45.856  21.991  26.143  1.00  0.00    -0.246 OA
BRANCH  29  31
ATOM     31  C   UNL A   1      45.591  24.262  26.749  1.00  0.00     0.060 A 
ATOM     32  C   UNL A   1      45.662  24.935  25.527  1.00  0.00     0.016 A 
ATOM     33  C   UNL A   1      45.996  24.897  27.926  1.00  0.00     0.016 A 
ATOM     34  C   UNL A   1      46.133  26.245  25.483  1.00  0.00     0.010 A 
ATOM     35  C   UNL A   1      46.488  26.210  27.870  1.00  0.00     0.010 A 
ATOM     36  C   UNL A   1      46.573  26.886  26.642  1.00  0.00    -0.014 A 
BRANCH  36  37
ATOM     37  C   UNL A   1      47.273  28.186  26.488  1.00  0.00     0.031 A 
ATOM     38  C   UNL A   1      48.741  28.187  26.167  1.00  0.00     0.074 A 
ATOM     39  C   UNL A   1      46.595  29.349  26.498  1.00  0.00     0.049 A 
ATOM     40  N   UNL A   1      49.559  29.196  26.028  1.00  0.00    -0.248 NA
ATOM     41  C   UNL A   1      49.365  26.871  25.954  1.00  0.00     0.031 C 
ATOM     42  C   UNL A   1      45.149  29.482  26.668  1.00  0.00     0.029 A 
ATOM     43  N   UNL A   1      47.038  30.641  26.354  1.00  0.00    -0.354 N 
ATOM     44  C   UNL A   1      50.803  28.640  25.758  1.00  0.00     0.074 A 
ATOM     45  C   UNL A   1      50.628  27.203  25.733  1.00  0.00     0.031 C 
ATOM     46  C   UNL A   1      44.825  30.787  26.631  1.00  0.00     0.029 A 
ATOM     47  C   UNL A   1      46.044  31.581  26.487  1.00  0.00     0.049 A 
ATOM     48  H   UNL A   1      47.978  30.871  26.173  1.00  0.00     0.167 HD
ATOM     49  C   UNL A   1      51.984  29.266  25.549  1.00  0.00     0.034 A 
ATOM     50  C   UNL A   1      46.115  32.927  26.529  1.00  0.00     0.034 A 
ATOM     51  C   UNL A   1      52.156  30.693  25.541  1.00  0.00     0.049 A 
ATOM     52  C   UNL A   1      47.459  33.599  26.389  1.00  0.00     0.074 A 
ATOM     53  C   UNL A   1      53.319  31.418  25.356  1.00  0.00     0.029 A 
ATOM     54  N   UNL A   1      51.136  31.612  25.730  1.00  0.00    -0.354 N 
ATOM     55  N   UNL A   1      48.627  33.068  26.122  1.00  0.00    -0.248 NA
ATOM     56  C   UNL A   1      47.491  35.061  26.551  1.00  0.00     0.031 C 
ATOM     57  C   UNL A   1      53.007  32.778  25.461  1.00  0.00     0.029 A 
ATOM     58  C   UNL A   1      51.645  32.899  25.684  1.00  0.00     0.049 A 
ATOM     59  H   UNL A   1      50.189  31.384  25.874  1.00  0.00     0.167 HD
ATOM     60  C   UNL A   1      49.527  34.126  26.067  1.00  0.00     0.074 A 
ATOM     61  C   UNL A   1      48.764  35.335  26.296  1.00  0.00     0.031 C 
ATOM     62  C   UNL A   1      50.869  34.099  25.868  1.00  0.00     0.034 A 
BRANCH  49  63
ATOM     63  C   UNL A   1      53.194  28.399  25.337  1.00  0.00     0.023 A 
ATOM     64  C   UNL A   1      53.616  28.079  24.031  1.00  0.00     0.012 A 
ATOM     65  C   UNL A   1      53.926  27.919  26.441  1.00  0.00     0.148 A 
ATOM     66  C   UNL A   1      54.734  27.269  23.829  1.00  0.00     0.002 A 
ATOM     67  C   UNL A   1      55.062  27.147  26.230  1.00  0.00     0.091 A 
ATOM     68  F   UNL A   1      53.487  28.210  27.674  1.00  0.00    -0.205 F 
ATOM     69  C   UNL A   1      55.461  26.813  24.926  1.00  0.00     0.022 A 
BRANCH  67  70
ATOM     70  S   UNL A   1      56.096  26.573  27.580  1.00  0.00     0.127 S 
ATOM     71  O   UNL A   1      57.140  25.842  26.863  1.00  0.00    -0.237 OA
ATOM     72  O   UNL A   1      56.539  27.830  28.186  1.00  0.00    -0.237 OA
ATOM     73  O   UNL A   1      55.234  25.763  28.430  1.00  0.00    -0.744 OA
ENDBRANCH  67  70
ENDBRANCH  49  63
BRANCH  50  74
ATOM     74  C   UNL A   1      44.881  33.738  26.735  1.00  0.00     0.023 A 
ATOM     75  C   UNL A   1      44.212  34.289  25.625  1.00  0.00     0.012 A 
ATOM     76  C   UNL A   1      44.369  33.969  28.027  1.00  0.00     0.148 A 
ATOM     77  C   UNL A   1      43.069  35.072  25.799  1.00  0.00     0.002 A 
ATOM     78  C   UNL A   1      43.197  34.699  28.190  1.00  0.00     0.091 A 
ATOM     79  F   UNL A   1      45.038  33.468  29.074  1.00  0.00    -0.205 F 
ATOM     80  C   UNL A   1      42.555  35.266  27.080  1.00  0.00     0.022 A 
BRANCH  78  81
ATOM     81  S   UNL A   1      42.401  34.890  29.788  1.00  0.00     0.127 S 
ATOM     82  O   UNL A   1      43.310  35.808  30.467  1.00  0.00    -0.237 OA
ATOM     83  O   UNL A   1      41.109  35.467  29.414  1.00  0.00    -0.237 OA
ATOM     84  O   UNL A   1      42.319  33.549  30.349  1.00  0.00    -0.744 OA
ENDBRANCH  78  81
ENDBRANCH  50  74
BRANCH  62  85
ATOM     85  C   UNL A   1      51.607  35.413  25.874  1.00  0.00     0.023 A 
ATOM     86  C   UNL A   1      51.795  36.111  24.664  1.00  0.00     0.012 A 
ATOM     87  C   UNL A   1      52.042  35.996  27.081  1.00  0.00     0.148 A 
ATOM     88  C   UNL A   1      52.429  37.354  24.652  1.00  0.00     0.002 A 
ATOM     89  C   UNL A   1      52.630  37.255  27.068  1.00  0.00     0.091 A 
ATOM     90  F   UNL A   1      51.870  35.309  28.221  1.00  0.00    -0.205 F 
ATOM     91  C   UNL A   1      52.834  37.930  25.854  1.00  0.00     0.022 A 
BRANCH  89  92
ATOM     92  S   UNL A   1      53.100  38.116  28.573  1.00  0.00     0.127 S 
ATOM     93  O   UNL A   1      54.165  37.257  29.088  1.00  0.00    -0.237 OA
ATOM     94  O   UNL A   1      53.554  39.411  28.063  1.00  0.00    -0.237 OA
ATOM     95  O   UNL A   1      51.897  38.179  29.391  1.00  0.00    -0.744 OA
ENDBRANCH  89  92
ENDBRANCH  62  85
ENDBRANCH  36  37
ENDBRANCH  29  31
ENDBRANCH  28  29
ENDBRANCH  27  28
ENDBRANCH  26  27
ENDBRANCH  25  26
ENDBRANCH  24  25
ENDBRANCH   1  24
TORSDOF 24
ENDMDL
