MODEL 1
REMARK VINA RESULT:      -9.7      0.000      0.000
REMARK SMILES COc1ccc(-c2cccc(/C=C\C(=O)OCCOCCOCCOC(=O)c3ccc(-c4c5nc(c(-c6cccc(S(=O)(=O)[O-])c6F)c6ccc([nH]6)c(-c6cccc(S(=O)(=O)[O-])c6F)c6nc(c(-c7cccc(S(=O)(=O)[O-])c7F)c7ccc4[nH]7)C=C6)C=C5)cc3)c2)c(Cl)c1OC
REMARK SMILES IDX 20 1 19 2 18 3 17 4 16 5 14 6 15 7 13 8 12 9 11 10 7 11 8 12
REMARK SMILES IDX 91 13 9 14 10 15 6 16 3 17 4 18 94 19 5 20 92 21 93 22 2 23
REMARK SMILES IDX 1 24 95 25 96 26 21 27 22 28 23 29 24 30 25 31 26 32 27 33
REMARK SMILES IDX 28 34 29 35 90 36 30 37 89 38 31 39 32 40 33 41 83 42 34 43
REMARK SMILES IDX 88 44 82 45 84 46 35 47 87 48 81 49 80 50 36 52 68 53 48 54
REMARK SMILES IDX 67 55 49 56 52 57 66 58 85 59 50 60 51 61 65 63 86 64 53 65
REMARK SMILES IDX 37 66 38 67 46 68 39 69 41 70 47 71 40 72 42 73 43 74 44 75
REMARK SMILES IDX 45 76 69 77 70 78 78 79 71 80 73 81 79 82 72 83 74 84 75 85
REMARK SMILES IDX 76 86 77 87 54 88 55 89 63 90 56 91 58 92 64 93 57 94 59 95
REMARK SMILES IDX 60 96 61 97 62 98
REMARK H PARENT 84 51 52 62
REMARK Flexibility Score: inf
ROOT
ATOM      1  C   UNL A   1      34.065  32.485  28.494  1.00  0.00     0.188 C 
ENDROOT
BRANCH   1   2
ATOM      2  O   UNL A   1      35.198  31.878  27.878  1.00  0.00    -0.376 OA
BRANCH   2   3
ATOM      3  C   UNL A   1      35.123  30.454  27.813  1.00  0.00     0.202 C 
BRANCH   3   4
ATOM      4  C   UNL A   1      33.800  30.073  27.137  1.00  0.00     0.261 C 
BRANCH   4   5
ATOM      5  O   UNL A   1      33.525  28.663  27.251  1.00  0.00    -0.460 OA
BRANCH   5   6
ATOM      6  C   UNL A   1      32.233  28.313  27.331  1.00  0.00     0.330 C 
ATOM      7  O   UNL A   1      31.719  27.719  28.268  1.00  0.00    -0.247 OA
BRANCH   6   8
ATOM      8  C   UNL A   1      31.419  28.845  26.214  1.00  0.00     0.094 C 
ATOM      9  C   UNL A   1      31.439  28.680  24.879  1.00  0.00     0.015 C 
BRANCH   9  10
ATOM     10  C   UNL A   1      32.272  27.853  23.989  1.00  0.00    -0.025 A 
ATOM     11  C   UNL A   1      33.100  25.618  23.432  1.00  0.00    -0.016 A 
ATOM     12  C   UNL A   1      33.776  26.144  22.324  1.00  0.00     0.009 A 
ATOM     13  C   UNL A   1      32.361  26.481  24.261  1.00  0.00     0.017 A 
ATOM     14  C   UNL A   1      33.662  27.489  22.016  1.00  0.00     0.001 A 
ATOM     15  C   UNL A   1      32.894  28.320  22.830  1.00  0.00     0.008 A 
BRANCH  11  16
ATOM     16  C   UNL A   1      33.167  24.179  23.710  1.00  0.00     0.004 A 
ATOM     17  C   UNL A   1      33.128  21.433  24.195  1.00  0.00     0.162 A 
ATOM     18  C   UNL A   1      32.191  21.997  23.327  1.00  0.00     0.051 A 
ATOM     19  C   UNL A   1      34.091  22.222  24.868  1.00  0.00     0.180 A 
ATOM     20  C   UNL A   1      32.221  23.359  23.077  1.00  0.00     0.014 A 
ATOM     21  C   UNL A   1      34.105  23.608  24.616  1.00  0.00     0.094 A 
ATOM     22  Cl  UNL A   1      35.210  24.710  25.394  1.00  0.00    -0.079 Cl
BRANCH  17  23
ATOM     23  O   UNL A   1      33.086  20.084  24.475  1.00  0.00    -0.493 OA
ATOM     24  C   UNL A   1      32.322  19.343  23.527  1.00  0.00     0.278 C 
ENDBRANCH  17  23
BRANCH  19  25
ATOM     25  O   UNL A   1      34.888  21.472  25.694  1.00  0.00    -0.491 OA
ATOM     26  C   UNL A   1      36.240  21.190  25.388  1.00  0.00     0.278 C 
ENDBRANCH  19  25
ENDBRANCH  11  16
ENDBRANCH   9  10
ENDBRANCH   6   8
ENDBRANCH   5   6
ENDBRANCH   4   5
ENDBRANCH   3   4
ENDBRANCH   2   3
ENDBRANCH   1   2
BRANCH   1  27
ATOM     27  C   UNL A   1      33.816  33.910  27.965  1.00  0.00     0.188 C 
BRANCH  27  28
ATOM     28  O   UNL A   1      32.847  34.752  28.581  1.00  0.00    -0.376 OA
BRANCH  28  29
ATOM     29  C   UNL A   1      33.151  36.121  28.788  1.00  0.00     0.202 C 
BRANCH  29  30
ATOM     30  C   UNL A   1      32.749  36.721  30.138  1.00  0.00     0.261 C 
BRANCH  30  31
ATOM     31  O   UNL A   1      33.643  36.381  31.210  1.00  0.00    -0.460 OA
BRANCH  31  32
ATOM     32  C   UNL A   1      33.332  35.248  31.881  1.00  0.00     0.338 C 
ATOM     33  O   UNL A   1      32.236  34.928  32.329  1.00  0.00    -0.246 OA
BRANCH  32  34
ATOM     34  C   UNL A   1      34.486  34.334  31.885  1.00  0.00     0.060 A 
ATOM     35  C   UNL A   1      34.404  33.160  32.646  1.00  0.00     0.016 A 
ATOM     36  C   UNL A   1      35.670  34.669  31.224  1.00  0.00     0.016 A 
ATOM     37  C   UNL A   1      35.513  32.328  32.771  1.00  0.00     0.010 A 
ATOM     38  C   UNL A   1      36.790  33.847  31.374  1.00  0.00     0.010 A 
ATOM     39  C   UNL A   1      36.726  32.691  32.173  1.00  0.00    -0.014 A 
BRANCH  39  40
ATOM     40  C   UNL A   1      37.962  31.957  32.527  1.00  0.00     0.031 A 
ATOM     41  C   UNL A   1      38.703  32.350  33.775  1.00  0.00     0.074 A 
ATOM     42  C   UNL A   1      38.419  30.959  31.750  1.00  0.00     0.049 A 
ATOM     43  N   UNL A   1      39.820  31.876  34.257  1.00  0.00    -0.248 NA
ATOM     44  C   UNL A   1      38.102  33.422  34.588  1.00  0.00     0.031 C 
ATOM     45  C   UNL A   1      37.782  30.481  30.525  1.00  0.00     0.029 A 
ATOM     46  N   UNL A   1      39.548  30.187  31.869  1.00  0.00    -0.354 N 
ATOM     47  C   UNL A   1      40.075  32.607  35.412  1.00  0.00     0.074 A 
ATOM     48  C   UNL A   1      38.997  33.561  35.556  1.00  0.00     0.031 C 
ATOM     49  C   UNL A   1      38.551  29.521  29.982  1.00  0.00     0.029 A 
ATOM     50  C   UNL A   1      39.741  29.333  30.808  1.00  0.00     0.049 A 
ATOM     51  H   UNL A   1      40.160  30.240  32.637  1.00  0.00     0.167 HD
ATOM     52  C   UNL A   1      41.107  32.488  36.280  1.00  0.00     0.034 A 
ATOM     53  C   UNL A   1      40.774  28.514  30.529  1.00  0.00     0.034 A 
ATOM     54  C   UNL A   1      42.168  31.529  36.144  1.00  0.00     0.049 A 
ATOM     55  C   UNL A   1      41.923  28.418  31.500  1.00  0.00     0.074 A 
ATOM     56  C   UNL A   1      43.234  31.300  36.996  1.00  0.00     0.029 A 
ATOM     57  N   UNL A   1      42.307  30.646  35.084  1.00  0.00    -0.354 N 
ATOM     58  N   UNL A   1      42.088  29.028  32.649  1.00  0.00    -0.248 NA
ATOM     59  C   UNL A   1      43.016  27.496  31.151  1.00  0.00     0.031 C 
ATOM     60  C   UNL A   1      44.031  30.296  36.437  1.00  0.00     0.029 A 
ATOM     61  C   UNL A   1      43.447  29.880  35.252  1.00  0.00     0.049 A 
ATOM     62  H   UNL A   1      41.685  30.576  34.324  1.00  0.00     0.167 HD
ATOM     63  C   UNL A   1      43.279  28.538  33.176  1.00  0.00     0.074 A 
ATOM     64  C   UNL A   1      43.784  27.565  32.230  1.00  0.00     0.031 C 
ATOM     65  C   UNL A   1      43.906  28.873  34.331  1.00  0.00     0.034 A 
BRANCH  52  66
ATOM     66  C   UNL A   1      41.127  33.407  37.471  1.00  0.00     0.023 A 
ATOM     67  C   UNL A   1      41.963  34.541  37.462  1.00  0.00     0.012 A 
ATOM     68  C   UNL A   1      40.273  33.183  38.569  1.00  0.00     0.148 A 
ATOM     69  C   UNL A   1      41.970  35.425  38.540  1.00  0.00     0.002 A 
ATOM     70  C   UNL A   1      40.256  34.091  39.622  1.00  0.00     0.091 A 
ATOM     71  F   UNL A   1      39.505  32.085  38.568  1.00  0.00    -0.205 F 
ATOM     72  C   UNL A   1      41.109  35.207  39.613  1.00  0.00     0.022 A 
BRANCH  70  73
ATOM     73  S   UNL A   1      39.131  33.936  41.014  1.00  0.00     0.127 S 
ATOM     74  O   UNL A   1      39.515  35.087  41.831  1.00  0.00    -0.237 OA
ATOM     75  O   UNL A   1      37.824  34.055  40.368  1.00  0.00    -0.237 OA
ATOM     76  O   UNL A   1      39.401  32.633  41.605  1.00  0.00    -0.744 OA
ENDBRANCH  70  73
ENDBRANCH  52  66
BRANCH  53  77
ATOM     77  C   UNL A   1      40.761  27.694  29.284  1.00  0.00     0.023 A 
ATOM     78  C   UNL A   1      39.896  26.588  29.189  1.00  0.00     0.012 A 
ATOM     79  C   UNL A   1      41.599  28.007  28.196  1.00  0.00     0.148 A 
ATOM     80  C   UNL A   1      39.888  25.788  28.046  1.00  0.00     0.002 A 
ATOM     81  C   UNL A   1      41.548  27.238  27.039  1.00  0.00     0.091 A 
ATOM     82  F   UNL A   1      42.432  29.050  28.313  1.00  0.00    -0.205 F 
ATOM     83  C   UNL A   1      40.706  26.118  26.967  1.00  0.00     0.022 A 
BRANCH  81  84
ATOM     84  S   UNL A   1      42.477  27.664  25.561  1.00  0.00     0.127 S 
ATOM     85  O   UNL A   1      43.840  27.748  26.080  1.00  0.00    -0.237 OA
ATOM     86  O   UNL A   1      42.217  26.512  24.697  1.00  0.00    -0.237 OA
ATOM     87  O   UNL A   1      41.900  28.912  25.085  1.00  0.00    -0.744 OA
ENDBRANCH  81  84
ENDBRANCH  53  77
BRANCH  65  88
ATOM     88  C   UNL A   1      45.190  28.160  34.666  1.00  0.00     0.023 A 
ATOM     89  C   UNL A   1      46.426  28.743  34.323  1.00  0.00     0.012 A 
ATOM     90  C   UNL A   1      45.176  26.953  35.393  1.00  0.00     0.148 A 
ATOM     91  C   UNL A   1      47.625  28.122  34.670  1.00  0.00     0.002 A 
ATOM     92  C   UNL A   1      46.374  26.364  35.778  1.00  0.00     0.091 A 
ATOM     93  F   UNL A   1      43.990  26.403  35.696  1.00  0.00    -0.205 F 
ATOM     94  C   UNL A   1      47.599  26.940  35.407  1.00  0.00     0.022 A 
BRANCH  92  95
ATOM     95  S   UNL A   1      46.434  24.895  36.811  1.00  0.00     0.127 S 
ATOM     96  O   UNL A   1      45.697  25.331  37.995  1.00  0.00    -0.237 OA
ATOM     97  O   UNL A   1      45.735  23.905  35.989  1.00  0.00    -0.237 OA
ATOM     98  O   UNL A   1      47.847  24.612  37.021  1.00  0.00    -0.744 OA
ENDBRANCH  92  95
ENDBRANCH  65  88
ENDBRANCH  39  40
ENDBRANCH  32  34
ENDBRANCH  31  32
ENDBRANCH  30  31
ENDBRANCH  29  30
ENDBRANCH  28  29
ENDBRANCH  27  28
ENDBRANCH   1  27
TORSDOF 24
ENDMDL
MODEL 2
REMARK VINA RESULT:      -9.5      0.854      7.505
REMARK SMILES COc1ccc(-c2cccc(/C=C\C(=O)OCCOCCOCCOC(=O)c3ccc(-c4c5nc(c(-c6cccc(S(=O)(=O)[O-])c6F)c6ccc([nH]6)c(-c6cccc(S(=O)(=O)[O-])c6F)c6nc(c(-c7cccc(S(=O)(=O)[O-])c7F)c7ccc4[nH]7)C=C6)C=C5)cc3)c2)c(Cl)c1OC
REMARK SMILES IDX 20 1 19 2 18 3 17 4 16 5 14 6 15 7 13 8 12 9 11 10 7 11 8 12
REMARK SMILES IDX 91 13 9 14 10 15 6 16 3 17 4 18 94 19 5 20 92 21 93 22 2 23
REMARK SMILES IDX 1 24 95 25 96 26 21 27 22 28 23 29 24 30 25 31 26 32 27 33
REMARK SMILES IDX 28 34 29 35 90 36 30 37 89 38 31 39 32 40 33 41 83 42 34 43
REMARK SMILES IDX 88 44 82 45 84 46 35 47 87 48 81 49 80 50 36 52 68 53 48 54
REMARK SMILES IDX 67 55 49 56 52 57 66 58 85 59 50 60 51 61 65 63 86 64 53 65
REMARK SMILES IDX 37 66 38 67 46 68 39 69 41 70 47 71 40 72 42 73 43 74 44 75
REMARK SMILES IDX 45 76 69 77 70 78 78 79 71 80 73 81 79 82 72 83 74 84 75 85
REMARK SMILES IDX 76 86 77 87 54 88 55 89 63 90 56 91 58 92 64 93 57 94 59 95
REMARK SMILES IDX 60 96 61 97 62 98
REMARK H PARENT 84 51 52 62
REMARK Flexibility Score: inf
ROOT
ATOM      1  C   UNL A   1      34.247  32.602  28.658  1.00  0.00     0.188 C 
ENDROOT
BRANCH   1   2
ATOM      2  O   UNL A   1      35.475  31.995  28.266  1.00  0.00    -0.376 OA
BRANCH   2   3
ATOM      3  C   UNL A   1      35.323  30.682  27.728  1.00  0.00     0.202 C 
BRANCH   3   4
ATOM      4  C   UNL A   1      33.823  30.380  27.615  1.00  0.00     0.261 C 
BRANCH   4   5
ATOM      5  O   UNL A   1      33.568  28.970  27.471  1.00  0.00    -0.460 OA
BRANCH   5   6
ATOM      6  C   UNL A   1      32.286  28.610  27.307  1.00  0.00     0.330 C 
ATOM      7  O   UNL A   1      31.642  27.918  28.083  1.00  0.00    -0.247 OA
BRANCH   6   8
ATOM      8  C   UNL A   1      31.649  29.257  26.138  1.00  0.00     0.094 C 
ATOM      9  C   UNL A   1      31.704  29.054  24.809  1.00  0.00     0.015 C 
BRANCH   9  10
ATOM     10  C   UNL A   1      32.406  28.057  23.982  1.00  0.00    -0.025 A 
ATOM     11  C   UNL A   1      32.874  25.692  23.561  1.00  0.00    -0.016 A 
ATOM     12  C   UNL A   1      33.638  26.043  22.440  1.00  0.00     0.009 A 
ATOM     13  C   UNL A   1      32.272  26.706  24.328  1.00  0.00     0.017 A 
ATOM     14  C   UNL A   1      33.743  27.369  22.059  1.00  0.00     0.001 A 
ATOM     15  C   UNL A   1      33.107  28.355  22.812  1.00  0.00     0.008 A 
BRANCH  11  16
ATOM     16  C   UNL A   1      32.708  24.278  23.916  1.00  0.00     0.004 A 
ATOM     17  C   UNL A   1      32.226  21.606  24.552  1.00  0.00     0.162 A 
ATOM     18  C   UNL A   1      31.371  22.275  23.675  1.00  0.00     0.051 A 
ATOM     19  C   UNL A   1      33.328  22.255  25.160  1.00  0.00     0.180 A 
ATOM     20  C   UNL A   1      31.620  23.598  23.350  1.00  0.00     0.014 A 
ATOM     21  C   UNL A   1      33.565  23.605  24.832  1.00  0.00     0.094 A 
ATOM     22  Cl  UNL A   1      34.862  24.542  25.523  1.00  0.00    -0.079 Cl
BRANCH  17  23
ATOM     23  O   UNL A   1      31.968  20.299  24.907  1.00  0.00    -0.493 OA
ATOM     24  C   UNL A   1      32.603  19.355  24.050  1.00  0.00     0.278 C 
ENDBRANCH  17  23
BRANCH  19  25
ATOM     25  O   UNL A   1      34.013  21.424  26.008  1.00  0.00    -0.491 OA
ATOM     26  C   UNL A   1      34.076  21.652  27.403  1.00  0.00     0.278 C 
ENDBRANCH  19  25
ENDBRANCH  11  16
ENDBRANCH   9  10
ENDBRANCH   6   8
ENDBRANCH   5   6
ENDBRANCH   4   5
ENDBRANCH   3   4
ENDBRANCH   2   3
ENDBRANCH   1   2
BRANCH   1  27
ATOM     27  C   UNL A   1      34.188  34.091  28.267  1.00  0.00     0.188 C 
BRANCH  27  28
ATOM     28  O   UNL A   1      33.031  34.869  28.554  1.00  0.00    -0.376 OA
BRANCH  28  29
ATOM     29  C   UNL A   1      33.187  36.225  28.940  1.00  0.00     0.202 C 
BRANCH  29  30
ATOM     30  C   UNL A   1      32.541  36.645  30.262  1.00  0.00     0.261 C 
BRANCH  30  31
ATOM     31  O   UNL A   1      33.396  36.470  31.404  1.00  0.00    -0.460 OA
BRANCH  31  32
ATOM     32  C   UNL A   1      33.134  35.376  32.156  1.00  0.00     0.338 C 
ATOM     33  O   UNL A   1      32.047  35.021  32.598  1.00  0.00    -0.246 OA
BRANCH  32  34
ATOM     34  C   UNL A   1      34.343  34.542  32.266  1.00  0.00     0.060 A 
ATOM     35  C   UNL A   1      34.313  33.437  33.126  1.00  0.00     0.016 A 
ATOM     36  C   UNL A   1      35.520  34.893  31.602  1.00  0.00     0.016 A 
ATOM     37  C   UNL A   1      35.469  32.691  33.348  1.00  0.00     0.010 A 
ATOM     38  C   UNL A   1      36.685  34.162  31.848  1.00  0.00     0.010 A 
ATOM     39  C   UNL A   1      36.672  33.078  32.745  1.00  0.00    -0.014 A 
BRANCH  39  40
ATOM     40  C   UNL A   1      37.941  32.459  33.188  1.00  0.00     0.031 A 
ATOM     41  C   UNL A   1      38.530  31.348  32.364  1.00  0.00     0.074 A 
ATOM     42  C   UNL A   1      38.561  32.877  34.306  1.00  0.00     0.049 A 
ATOM     43  N   UNL A   1      39.606  30.638  32.579  1.00  0.00    -0.248 NA
ATOM     44  C   UNL A   1      37.808  30.989  31.131  1.00  0.00     0.031 C 
ATOM     45  C   UNL A   1      38.094  33.952  35.180  1.00  0.00     0.029 A 
ATOM     46  N   UNL A   1      39.706  32.422  34.911  1.00  0.00    -0.354 N 
ATOM     47  C   UNL A   1      39.677  29.730  31.529  1.00  0.00     0.074 A 
ATOM     48  C   UNL A   1      38.533  29.976  30.678  1.00  0.00     0.031 C 
ATOM     49  C   UNL A   1      38.926  34.049  36.232  1.00  0.00     0.029 A 
ATOM     50  C   UNL A   1      39.968  33.031  36.116  1.00  0.00     0.049 A 
ATOM     51  H   UNL A   1      40.283  31.727  34.521  1.00  0.00     0.167 HD
ATOM     52  C   UNL A   1      40.615  28.785  31.288  1.00  0.00     0.034 A 
ATOM     53  C   UNL A   1      40.926  32.776  37.028  1.00  0.00     0.034 A 
ATOM     54  C   UNL A   1      41.760  28.554  32.125  1.00  0.00     0.049 A 
ATOM     55  C   UNL A   1      41.945  31.701  36.747  1.00  0.00     0.074 A 
ATOM     56  C   UNL A   1      42.791  27.650  31.941  1.00  0.00     0.029 A 
ATOM     57  N   UNL A   1      42.021  29.222  33.311  1.00  0.00    -0.354 N 
ATOM     58  N   UNL A   1      42.069  30.934  35.691  1.00  0.00    -0.248 NA
ATOM     59  C   UNL A   1      42.977  31.477  37.772  1.00  0.00     0.031 C 
ATOM     60  C   UNL A   1      43.663  27.755  33.029  1.00  0.00     0.029 A 
ATOM     61  C   UNL A   1      43.189  28.743  33.877  1.00  0.00     0.049 A 
ATOM     62  H   UNL A   1      41.458  29.933  33.694  1.00  0.00     0.167 HD
ATOM     63  C   UNL A   1      43.209  30.166  35.905  1.00  0.00     0.074 A 
ATOM     64  C   UNL A   1      43.752  30.574  37.184  1.00  0.00     0.031 C 
ATOM     65  C   UNL A   1      43.750  29.200  35.122  1.00  0.00     0.034 A 
BRANCH  52  66
ATOM     66  C   UNL A   1      40.455  27.941  30.053  1.00  0.00     0.023 A 
ATOM     67  C   UNL A   1      39.491  26.914  30.032  1.00  0.00     0.012 A 
ATOM     68  C   UNL A   1      41.213  28.205  28.896  1.00  0.00     0.148 A 
ATOM     69  C   UNL A   1      39.301  26.144  28.885  1.00  0.00     0.002 A 
ATOM     70  C   UNL A   1      40.990  27.460  27.743  1.00  0.00     0.091 A 
ATOM     71  F   UNL A   1      42.142  29.170  28.946  1.00  0.00    -0.205 F 
ATOM     72  C   UNL A   1      40.041  26.424  27.739  1.00  0.00     0.022 A 
BRANCH  70  73
ATOM     73  S   UNL A   1      41.840  27.792  26.196  1.00  0.00     0.127 S 
ATOM     74  O   UNL A   1      43.240  27.625  26.588  1.00  0.00    -0.237 OA
ATOM     75  O   UNL A   1      41.321  26.736  25.327  1.00  0.00    -0.237 OA
ATOM     76  O   UNL A   1      41.456  29.141  25.808  1.00  0.00    -0.744 OA
ENDBRANCH  70  73
ENDBRANCH  52  66
BRANCH  53  77
ATOM     77  C   UNL A   1      40.988  33.571  38.288  1.00  0.00     0.023 A 
ATOM     78  C   UNL A   1      41.944  34.596  38.417  1.00  0.00     0.012 A 
ATOM     79  C   UNL A   1      40.105  33.316  39.355  1.00  0.00     0.148 A 
ATOM     80  C   UNL A   1      42.040  35.333  39.598  1.00  0.00     0.002 A 
ATOM     81  C   UNL A   1      40.171  34.089  40.509  1.00  0.00     0.091 A 
ATOM     82  F   UNL A   1      39.217  32.320  39.223  1.00  0.00    -0.205 F 
ATOM     83  C   UNL A   1      41.148  35.087  40.640  1.00  0.00     0.022 A 
BRANCH  81  84
ATOM     84  S   UNL A   1      38.984  33.919  41.847  1.00  0.00     0.127 S 
ATOM     85  O   UNL A   1      39.261  32.566  42.322  1.00  0.00    -0.237 OA
ATOM     86  O   UNL A   1      39.398  34.988  42.757  1.00  0.00    -0.237 OA
ATOM     87  O   UNL A   1      37.678  34.124  41.238  1.00  0.00    -0.744 OA
ENDBRANCH  81  84
ENDBRANCH  53  77
BRANCH  65  88
ATOM     88  C   UNL A   1      45.016  28.537  35.599  1.00  0.00     0.023 A 
ATOM     89  C   UNL A   1      46.267  29.089  35.259  1.00  0.00     0.012 A 
ATOM     90  C   UNL A   1      44.966  27.416  36.451  1.00  0.00     0.148 A 
ATOM     91  C   UNL A   1      47.447  28.518  35.733  1.00  0.00     0.002 A 
ATOM     92  C   UNL A   1      46.143  26.881  36.959  1.00  0.00     0.091 A 
ATOM     93  F   UNL A   1      43.767  26.892  36.750  1.00  0.00    -0.205 F 
ATOM     94  C   UNL A   1      47.386  27.422  36.591  1.00  0.00     0.022 A 
BRANCH  92  95
ATOM     95  S   UNL A   1      46.152  25.532  38.146  1.00  0.00     0.127 S 
ATOM     96  O   UNL A   1      45.190  26.003  39.140  1.00  0.00    -0.237 OA
ATOM     97  O   UNL A   1      45.691  24.401  37.339  1.00  0.00    -0.237 OA
ATOM     98  O   UNL A   1      47.528  25.418  38.611  1.00  0.00    -0.744 OA
ENDBRANCH  92  95
ENDBRANCH  65  88
ENDBRANCH  39  40
ENDBRANCH  32  34
ENDBRANCH  31  32
ENDBRANCH  30  31
ENDBRANCH  29  30
ENDBRANCH  28  29
ENDBRANCH  27  28
ENDBRANCH   1  27
TORSDOF 24
ENDMDL
MODEL 3
REMARK VINA RESULT:      -9.2      4.179      5.073
REMARK SMILES COc1ccc(-c2cccc(/C=C\C(=O)OCCOCCOCCOC(=O)c3ccc(-c4c5nc(c(-c6cccc(S(=O)(=O)[O-])c6F)c6ccc([nH]6)c(-c6cccc(S(=O)(=O)[O-])c6F)c6nc(c(-c7cccc(S(=O)(=O)[O-])c7F)c7ccc4[nH]7)C=C6)C=C5)cc3)c2)c(Cl)c1OC
REMARK SMILES IDX 20 1 19 2 18 3 17 4 16 5 14 6 15 7 13 8 12 9 11 10 7 11 8 12
REMARK SMILES IDX 91 13 9 14 10 15 6 16 3 17 4 18 94 19 5 20 92 21 93 22 2 23
REMARK SMILES IDX 1 24 95 25 96 26 21 27 22 28 23 29 24 30 25 31 26 32 27 33
REMARK SMILES IDX 28 34 29 35 90 36 30 37 89 38 31 39 32 40 33 41 83 42 34 43
REMARK SMILES IDX 88 44 82 45 84 46 35 47 87 48 81 49 80 50 36 52 68 53 48 54
REMARK SMILES IDX 67 55 49 56 52 57 66 58 85 59 50 60 51 61 65 63 86 64 53 65
REMARK SMILES IDX 37 66 38 67 46 68 39 69 41 70 47 71 40 72 42 73 43 74 44 75
REMARK SMILES IDX 45 76 69 77 70 78 78 79 71 80 73 81 79 82 72 83 74 84 75 85
REMARK SMILES IDX 76 86 77 87 54 88 55 89 63 90 56 91 58 92 64 93 57 94 59 95
REMARK SMILES IDX 60 96 61 97 62 98
REMARK H PARENT 84 51 52 62
REMARK Flexibility Score: inf
ROOT
ATOM      1  C   UNL A   1      34.022  32.681  28.742  1.00  0.00     0.188 C 
ENDROOT
BRANCH   1   2
ATOM      2  O   UNL A   1      34.810  32.268  27.628  1.00  0.00    -0.376 OA
BRANCH   2   3
ATOM      3  C   UNL A   1      34.828  30.855  27.429  1.00  0.00     0.202 C 
BRANCH   3   4
ATOM      4  C   UNL A   1      33.390  30.388  27.167  1.00  0.00     0.261 C 
BRANCH   4   5
ATOM      5  O   UNL A   1      33.208  28.998  27.499  1.00  0.00    -0.460 OA
BRANCH   5   6
ATOM      6  C   UNL A   1      32.023  28.459  27.174  1.00  0.00     0.330 C 
ATOM      7  O   UNL A   1      31.417  27.633  27.841  1.00  0.00    -0.247 OA
BRANCH   6   8
ATOM      8  C   UNL A   1      31.420  29.071  25.968  1.00  0.00     0.094 C 
ATOM      9  C   UNL A   1      31.536  28.846  24.647  1.00  0.00     0.015 C 
BRANCH   9  10
ATOM     10  C   UNL A   1      32.295  27.853  23.867  1.00  0.00    -0.025 A 
ATOM     11  C   UNL A   1      32.844  25.494  23.514  1.00  0.00    -0.016 A 
ATOM     12  C   UNL A   1      33.639  25.844  22.415  1.00  0.00     0.009 A 
ATOM     13  C   UNL A   1      32.186  26.506  24.237  1.00  0.00     0.017 A 
ATOM     14  C   UNL A   1      33.722  27.165  22.010  1.00  0.00     0.001 A 
ATOM     15  C   UNL A   1      33.031  28.148  22.718  1.00  0.00     0.008 A 
BRANCH  11  16
ATOM     16  C   UNL A   1      32.704  24.084  23.893  1.00  0.00     0.004 A 
ATOM     17  C   UNL A   1      32.291  21.399  24.523  1.00  0.00     0.162 A 
ATOM     18  C   UNL A   1      31.696  21.943  23.384  1.00  0.00     0.051 A 
ATOM     19  C   UNL A   1      33.085  22.182  25.396  1.00  0.00     0.180 A 
ATOM     20  C   UNL A   1      31.913  23.273  23.066  1.00  0.00     0.014 A 
ATOM     21  C   UNL A   1      33.290  23.537  25.069  1.00  0.00     0.094 A 
ATOM     22  Cl  UNL A   1      34.215  24.629  26.063  1.00  0.00    -0.079 Cl
BRANCH  17  23
ATOM     23  O   UNL A   1      32.055  20.085  24.866  1.00  0.00    -0.493 OA
ATOM     24  C   UNL A   1      32.566  19.160  23.911  1.00  0.00     0.278 C 
ENDBRANCH  17  23
BRANCH  19  25
ATOM     25  O   UNL A   1      33.544  21.458  26.466  1.00  0.00    -0.491 OA
ATOM     26  C   UNL A   1      33.928  22.068  27.684  1.00  0.00     0.278 C 
ENDBRANCH  19  25
ENDBRANCH  11  16
ENDBRANCH   9  10
ENDBRANCH   6   8
ENDBRANCH   5   6
ENDBRANCH   4   5
ENDBRANCH   3   4
ENDBRANCH   2   3
ENDBRANCH   1   2
BRANCH   1  27
ATOM     27  C   UNL A   1      33.566  34.147  28.614  1.00  0.00     0.188 C 
BRANCH  27  28
ATOM     28  O   UNL A   1      32.614  34.691  29.523  1.00  0.00    -0.376 OA
BRANCH  28  29
ATOM     29  C   UNL A   1      32.999  35.763  30.367  1.00  0.00     0.202 C 
BRANCH  29  30
ATOM     30  C   UNL A   1      32.868  35.536  31.875  1.00  0.00     0.261 C 
BRANCH  30  31
ATOM     31  O   UNL A   1      34.101  35.163  32.512  1.00  0.00    -0.460 OA
BRANCH  31  32
ATOM     32  C   UNL A   1      34.241  33.842  32.766  1.00  0.00     0.338 C 
ATOM     33  O   UNL A   1      33.390  33.076  33.206  1.00  0.00    -0.246 OA
BRANCH  32  34
ATOM     34  C   UNL A   1      35.555  33.377  32.293  1.00  0.00     0.060 A 
ATOM     35  C   UNL A   1      36.223  32.396  33.039  1.00  0.00     0.016 A 
ATOM     36  C   UNL A   1      36.166  33.960  31.180  1.00  0.00     0.016 A 
ATOM     37  C   UNL A   1      37.516  32.013  32.693  1.00  0.00     0.010 A 
ATOM     38  C   UNL A   1      37.474  33.594  30.852  1.00  0.00     0.010 A 
ATOM     39  C   UNL A   1      38.165  32.643  31.625  1.00  0.00    -0.014 A 
BRANCH  39  40
ATOM     40  C   UNL A   1      39.617  32.434  31.428  1.00  0.00     0.031 A 
ATOM     41  C   UNL A   1      40.582  33.336  32.149  1.00  0.00     0.074 A 
ATOM     42  C   UNL A   1      40.072  31.459  30.621  1.00  0.00     0.049 A 
ATOM     43  N   UNL A   1      41.886  33.362  32.098  1.00  0.00    -0.248 NA
ATOM     44  C   UNL A   1      39.993  34.344  33.048  1.00  0.00     0.031 C 
ATOM     45  C   UNL A   1      39.237  30.516  29.881  1.00  0.00     0.029 A 
ATOM     46  N   UNL A   1      41.356  31.122  30.271  1.00  0.00    -0.354 N 
ATOM     47  C   UNL A   1      42.277  34.403  32.931  1.00  0.00     0.074 A 
ATOM     48  C   UNL A   1      41.071  34.988  33.473  1.00  0.00     0.031 C 
ATOM     49  C   UNL A   1      40.029  29.730  29.131  1.00  0.00     0.029 A 
ATOM     50  C   UNL A   1      41.422  30.128  29.324  1.00  0.00     0.049 A 
ATOM     51  H   UNL A   1      42.152  31.551  30.659  1.00  0.00     0.167 HD
ATOM     52  C   UNL A   1      43.528  34.827  33.227  1.00  0.00     0.034 A 
ATOM     53  C   UNL A   1      42.486  29.619  28.671  1.00  0.00     0.034 A 
ATOM     54  C   UNL A   1      44.727  34.233  32.701  1.00  0.00     0.049 A 
ATOM     55  C   UNL A   1      43.866  30.125  29.002  1.00  0.00     0.074 A 
ATOM     56  C   UNL A   1      46.042  34.562  32.977  1.00  0.00     0.029 A 
ATOM     57  N   UNL A   1      44.758  33.196  31.783  1.00  0.00    -0.354 N 
ATOM     58  N   UNL A   1      44.228  31.027  29.883  1.00  0.00    -0.248 NA
ATOM     59  C   UNL A   1      44.991  29.521  28.270  1.00  0.00     0.031 C 
ATOM     60  C   UNL A   1      46.868  33.740  32.206  1.00  0.00     0.029 A 
ATOM     61  C   UNL A   1      46.069  32.881  31.470  1.00  0.00     0.049 A 
ATOM     62  H   UNL A   1      43.965  32.750  31.408  1.00  0.00     0.167 HD
ATOM     63  C   UNL A   1      45.617  31.071  29.839  1.00  0.00     0.074 A 
ATOM     64  C   UNL A   1      46.035  30.091  28.858  1.00  0.00     0.031 C 
ATOM     65  C   UNL A   1      46.471  31.862  30.535  1.00  0.00     0.034 A 
BRANCH  52  66
ATOM     66  C   UNL A   1      43.667  35.979  34.186  1.00  0.00     0.023 A 
ATOM     67  C   UNL A   1      43.828  35.724  35.562  1.00  0.00     0.012 A 
ATOM     68  C   UNL A   1      43.700  37.307  33.717  1.00  0.00     0.148 A 
ATOM     69  C   UNL A   1      43.994  36.775  36.462  1.00  0.00     0.002 A 
ATOM     70  C   UNL A   1      43.907  38.347  34.615  1.00  0.00     0.091 A 
ATOM     71  F   UNL A   1      43.519  37.527  32.407  1.00  0.00    -0.205 F 
ATOM     72  C   UNL A   1      44.045  38.084  35.989  1.00  0.00     0.022 A 
BRANCH  70  73
ATOM     73  S   UNL A   1      44.060  40.059  34.094  1.00  0.00     0.127 S 
ATOM     74  O   UNL A   1      45.096  39.963  33.066  1.00  0.00    -0.237 OA
ATOM     75  O   UNL A   1      42.720  40.347  33.585  1.00  0.00    -0.237 OA
ATOM     76  O   UNL A   1      44.431  40.810  35.286  1.00  0.00    -0.744 OA
ENDBRANCH  70  73
ENDBRANCH  52  66
BRANCH  53  77
ATOM     77  C   UNL A   1      42.293  28.546  27.654  1.00  0.00     0.023 A 
ATOM     78  C   UNL A   1      42.112  28.895  26.302  1.00  0.00     0.012 A 
ATOM     79  C   UNL A   1      42.291  27.186  28.019  1.00  0.00     0.148 A 
ATOM     80  C   UNL A   1      41.900  27.910  25.336  1.00  0.00     0.002 A 
ATOM     81  C   UNL A   1      42.131  26.207  27.045  1.00  0.00     0.091 A 
ATOM     82  F   UNL A   1      42.441  26.874  29.314  1.00  0.00    -0.205 F 
ATOM     83  C   UNL A   1      41.920  26.567  25.705  1.00  0.00     0.022 A 
BRANCH  81  84
ATOM     84  S   UNL A   1      42.265  24.454  27.415  1.00  0.00     0.127 S 
ATOM     85  O   UNL A   1      42.167  23.860  26.083  1.00  0.00    -0.237 OA
ATOM     86  O   UNL A   1      43.591  24.374  28.029  1.00  0.00    -0.237 OA
ATOM     87  O   UNL A   1      41.166  24.162  28.324  1.00  0.00    -0.744 OA
ENDBRANCH  81  84
ENDBRANCH  53  77
BRANCH  65  88
ATOM     88  C   UNL A   1      47.948  31.681  30.298  1.00  0.00     0.023 A 
ATOM     89  C   UNL A   1      48.693  30.827  31.135  1.00  0.00     0.012 A 
ATOM     90  C   UNL A   1      48.581  32.291  29.197  1.00  0.00     0.148 A 
ATOM     91  C   UNL A   1      50.049  30.609  30.900  1.00  0.00     0.002 A 
ATOM     92  C   UNL A   1      49.922  32.031  28.940  1.00  0.00     0.091 A 
ATOM     93  F   UNL A   1      47.861  33.115  28.421  1.00  0.00    -0.205 F 
ATOM     94  C   UNL A   1      50.661  31.200  29.797  1.00  0.00     0.022 A 
BRANCH  92  95
ATOM     95  S   UNL A   1      50.763  32.673  27.487  1.00  0.00     0.127 S 
ATOM     96  O   UNL A   1      52.041  31.965  27.546  1.00  0.00    -0.237 OA
ATOM     97  O   UNL A   1      49.880  32.247  26.400  1.00  0.00    -0.237 OA
ATOM     98  O   UNL A   1      50.837  34.116  27.673  1.00  0.00    -0.744 OA
ENDBRANCH  92  95
ENDBRANCH  65  88
ENDBRANCH  39  40
ENDBRANCH  32  34
ENDBRANCH  31  32
ENDBRANCH  30  31
ENDBRANCH  29  30
ENDBRANCH  28  29
ENDBRANCH  27  28
ENDBRANCH   1  27
TORSDOF 24
ENDMDL
