MODEL 1
REMARK VINA RESULT:     -10.0      0.000      0.000
REMARK SMILES CCc1ccsc1CNC(=O)N1[C@H]2CC[C@@H]1[C@H](C(=O)OCCOCCOCCOC(=O)c1ccc(-c3c4nc(c(-c5cccc(S(=O)(=O)[O-])c5F)c5ccc([nH]5)c(-c5cccc(S(=O)(=O)[O-])c5F)c5nc(c(-c6cccc(S(=O)(=O)[O-])c6F)c6ccc3[nH]6)C=C5)C=C4)cc1)C2
REMARK SMILES IDX 24 1 23 2 22 3 21 4 20 5 18 6 19 7 17 8 12 9 13 10 16 11
REMARK SMILES IDX 14 12 95 13 15 14 10 15 9 16 11 18 8 19 7 20 3 21 4 22 5 23
REMARK SMILES IDX 6 24 2 25 1 26 25 27 26 28 27 29 28 30 29 31 30 32 31 33
REMARK SMILES IDX 32 34 33 35 94 36 34 37 93 38 35 39 36 40 37 41 87 42 38 43
REMARK SMILES IDX 92 44 86 45 88 46 39 47 91 48 85 49 84 50 40 52 72 53 52 54
REMARK SMILES IDX 71 55 53 56 56 57 70 58 89 59 54 60 55 61 69 63 90 64 57 65
REMARK SMILES IDX 41 66 42 67 50 68 43 69 45 70 51 71 44 72 46 73 47 74 48 75
REMARK SMILES IDX 49 76 73 77 74 78 82 79 75 80 77 81 83 82 76 83 78 84 79 85
REMARK SMILES IDX 80 86 81 87 58 88 59 89 67 90 60 91 62 92 68 93 61 94 63 95
REMARK SMILES IDX 64 96 65 97 66 98
REMARK H PARENT 9 17 88 51 56 62
REMARK Flexibility Score: inf
ROOT
ATOM      1  C   UNL A   1      30.631  25.776  24.372  1.00  0.00     0.188 C 
ENDROOT
BRANCH   1   2
ATOM      2  O   UNL A   1      30.425  26.653  23.272  1.00  0.00    -0.376 OA
BRANCH   2   3
ATOM      3  C   UNL A   1      31.430  27.605  22.942  1.00  0.00     0.202 C 
BRANCH   3   4
ATOM      4  C   UNL A   1      32.764  27.127  22.341  1.00  0.00     0.261 C 
BRANCH   4   5
ATOM      5  O   UNL A   1      33.344  25.964  22.974  1.00  0.00    -0.463 OA
BRANCH   5   6
ATOM      6  C   UNL A   1      33.936  26.177  24.169  1.00  0.00     0.311 C 
ATOM      7  O   UNL A   1      34.308  27.281  24.560  1.00  0.00    -0.252 OA
BRANCH   6   8
ATOM      8  C   UNL A   1      34.165  24.952  25.027  1.00  0.00     0.124 C 
ATOM      9  N   UNL A   1      34.786  22.859  25.651  1.00  0.00    -0.318 N 
ATOM     10  C   UNL A   1      36.053  23.508  25.411  1.00  0.00     0.088 C 
ATOM     11  C   UNL A   1      33.988  23.472  24.605  1.00  0.00     0.101 C 
ATOM     12  C   UNL A   1      36.259  23.188  23.914  1.00  0.00     0.027 C 
ATOM     13  C   UNL A   1      35.637  24.980  25.526  1.00  0.00     0.042 C 
ATOM     14  C   UNL A   1      34.815  23.084  23.380  1.00  0.00     0.028 C 
BRANCH   9  15
ATOM     15  C   UNL A   1      34.352  21.914  26.508  1.00  0.00     0.318 C 
ATOM     16  N   UNL A   1      34.256  20.629  26.098  1.00  0.00    -0.333 N 
ATOM     17  H   UNL A   1      33.631  20.065  26.609  1.00  0.00     0.165 HD
ATOM     18  O   UNL A   1      34.078  22.174  27.679  1.00  0.00    -0.249 OA
BRANCH  16  19
ATOM     19  C   UNL A   1      34.945  19.973  25.012  1.00  0.00     0.165 C 
BRANCH  19  20
ATOM     20  C   UNL A   1      34.142  18.843  24.423  1.00  0.00     0.027 A 
ATOM     21  C   UNL A   1      32.951  18.926  23.707  1.00  0.00    -0.033 A 
ATOM     22  C   UNL A   1      32.534  17.631  23.242  1.00  0.00     0.016 A 
ATOM     23  C   UNL A   1      33.416  16.632  23.579  1.00  0.00     0.065 A 
ATOM     24  S   UNL A   1      34.745  17.231  24.458  1.00  0.00    -0.147 S 
BRANCH  21  25
ATOM     25  C   UNL A   1      32.189  20.186  23.407  1.00  0.00     0.033 C 
ATOM     26  C   UNL A   1      31.933  20.366  21.917  1.00  0.00     0.009 C 
ENDBRANCH  21  25
ENDBRANCH  19  20
ENDBRANCH  16  19
ENDBRANCH   9  15
ENDBRANCH   6   8
ENDBRANCH   5   6
ENDBRANCH   4   5
ENDBRANCH   3   4
ENDBRANCH   2   3
ENDBRANCH   1   2
BRANCH   1  27
ATOM     27  C   UNL A   1      29.895  26.070  25.687  1.00  0.00     0.188 C 
BRANCH  27  28
ATOM     28  O   UNL A   1      30.719  26.387  26.783  1.00  0.00    -0.376 OA
BRANCH  28  29
ATOM     29  C   UNL A   1      31.827  27.244  26.586  1.00  0.00     0.202 C 
BRANCH  29  30
ATOM     30  C   UNL A   1      31.661  28.769  26.461  1.00  0.00     0.261 C 
BRANCH  30  31
ATOM     31  O   UNL A   1      32.213  29.583  27.504  1.00  0.00    -0.460 OA
BRANCH  31  32
ATOM     32  C   UNL A   1      32.859  30.715  27.136  1.00  0.00     0.338 C 
ATOM     33  O   UNL A   1      32.358  31.710  26.633  1.00  0.00    -0.246 OA
BRANCH  32  34
ATOM     34  C   UNL A   1      34.237  30.628  27.668  1.00  0.00     0.060 A 
ATOM     35  C   UNL A   1      34.907  29.394  27.642  1.00  0.00     0.016 A 
ATOM     36  C   UNL A   1      34.880  31.768  28.153  1.00  0.00     0.016 A 
ATOM     37  C   UNL A   1      36.213  29.294  28.126  1.00  0.00     0.010 A 
ATOM     38  C   UNL A   1      36.178  31.661  28.659  1.00  0.00     0.010 A 
ATOM     39  C   UNL A   1      36.839  30.419  28.677  1.00  0.00    -0.014 A 
BRANCH  39  40
ATOM     40  C   UNL A   1      38.093  30.273  29.455  1.00  0.00     0.031 A 
ATOM     41  C   UNL A   1      39.185  29.408  28.889  1.00  0.00     0.074 A 
ATOM     42  C   UNL A   1      38.256  30.863  30.653  1.00  0.00     0.049 A 
ATOM     43  N   UNL A   1      40.332  29.064  29.411  1.00  0.00    -0.248 NA
ATOM     44  C   UNL A   1      38.938  28.846  27.551  1.00  0.00     0.031 C 
ATOM     45  C   UNL A   1      37.286  31.739  31.303  1.00  0.00     0.029 A 
ATOM     46  N   UNL A   1      39.295  30.784  31.546  1.00  0.00    -0.354 N 
ATOM     47  C   UNL A   1      40.928  28.215  28.486  1.00  0.00     0.074 A 
ATOM     48  C   UNL A   1      40.008  28.085  27.377  1.00  0.00     0.031 C 
ATOM     49  C   UNL A   1      37.766  32.100  32.507  1.00  0.00     0.029 A 
ATOM     50  C   UNL A   1      39.061  31.455  32.722  1.00  0.00     0.049 A 
ATOM     51  H   UNL A   1      40.129  30.293  31.362  1.00  0.00     0.167 HD
ATOM     52  C   UNL A   1      42.137  27.608  28.545  1.00  0.00     0.034 A 
ATOM     53  C   UNL A   1      39.797  31.520  33.851  1.00  0.00     0.034 A 
ATOM     54  C   UNL A   1      43.051  27.741  29.646  1.00  0.00     0.049 A 
ATOM     55  C   UNL A   1      41.117  30.793  33.918  1.00  0.00     0.074 A 
ATOM     56  C   UNL A   1      44.319  27.204  29.783  1.00  0.00     0.029 A 
ATOM     57  N   UNL A   1      42.788  28.444  30.812  1.00  0.00    -0.354 N 
ATOM     58  N   UNL A   1      41.719  30.082  32.995  1.00  0.00    -0.248 NA
ATOM     59  C   UNL A   1      41.873  30.905  35.175  1.00  0.00     0.031 C 
ATOM     60  C   UNL A   1      44.803  27.544  31.051  1.00  0.00     0.029 A 
ATOM     61  C   UNL A   1      43.858  28.336  31.685  1.00  0.00     0.049 A 
ATOM     62  H   UNL A   1      41.961  28.946  30.994  1.00  0.00     0.167 HD
ATOM     63  C   UNL A   1      42.940  29.697  33.543  1.00  0.00     0.074 A 
ATOM     64  C   UNL A   1      42.995  30.265  34.874  1.00  0.00     0.031 C 
ATOM     65  C   UNL A   1      43.923  28.940  32.993  1.00  0.00     0.034 A 
BRANCH  52  66
ATOM     66  C   UNL A   1      42.527  26.737  27.377  1.00  0.00     0.023 A 
ATOM     67  C   UNL A   1      43.214  27.295  26.279  1.00  0.00     0.012 A 
ATOM     68  C   UNL A   1      42.213  25.363  27.367  1.00  0.00     0.148 A 
ATOM     69  C   UNL A   1      43.532  26.516  25.167  1.00  0.00     0.002 A 
ATOM     70  C   UNL A   1      42.581  24.581  26.278  1.00  0.00     0.091 A 
ATOM     71  F   UNL A   1      41.540  24.852  28.407  1.00  0.00    -0.205 F 
ATOM     72  C   UNL A   1      43.223  25.158  25.171  1.00  0.00     0.022 A 
BRANCH  70  73
ATOM     73  S   UNL A   1      42.302  22.808  26.228  1.00  0.00     0.127 S 
ATOM     74  O   UNL A   1      42.874  22.454  24.930  1.00  0.00    -0.237 OA
ATOM     75  O   UNL A   1      43.074  22.342  27.381  1.00  0.00    -0.237 OA
ATOM     76  O   UNL A   1      40.862  22.626  26.352  1.00  0.00    -0.744 OA
ENDBRANCH  70  73
ENDBRANCH  52  66
BRANCH  53  77
ATOM     77  C   UNL A   1      39.325  32.347  34.997  1.00  0.00     0.023 A 
ATOM     78  C   UNL A   1      38.398  31.797  35.905  1.00  0.00     0.012 A 
ATOM     79  C   UNL A   1      39.804  33.654  35.210  1.00  0.00     0.148 A 
ATOM     80  C   UNL A   1      37.941  32.542  36.992  1.00  0.00     0.002 A 
ATOM     81  C   UNL A   1      39.383  34.371  36.323  1.00  0.00     0.091 A 
ATOM     82  F   UNL A   1      40.676  34.160  34.326  1.00  0.00    -0.205 F 
ATOM     83  C   UNL A   1      38.441  33.824  37.207  1.00  0.00     0.022 A 
BRANCH  81  84
ATOM     84  S   UNL A   1      40.049  35.985  36.748  1.00  0.00     0.127 S 
ATOM     85  O   UNL A   1      39.194  36.377  37.866  1.00  0.00    -0.237 OA
ATOM     86  O   UNL A   1      41.426  35.651  37.114  1.00  0.00    -0.237 OA
ATOM     87  O   UNL A   1      39.919  36.799  35.547  1.00  0.00    -0.744 OA
ENDBRANCH  81  84
ENDBRANCH  53  77
BRANCH  65  88
ATOM     88  C   UNL A   1      45.175  28.711  33.804  1.00  0.00     0.023 A 
ATOM     89  C   UNL A   1      45.258  27.617  34.689  1.00  0.00     0.012 A 
ATOM     90  C   UNL A   1      46.300  29.543  33.632  1.00  0.00     0.148 A 
ATOM     91  C   UNL A   1      46.426  27.377  35.414  1.00  0.00     0.002 A 
ATOM     92  C   UNL A   1      47.479  29.266  34.316  1.00  0.00     0.091 A 
ATOM     93  F   UNL A   1      46.200  30.589  32.797  1.00  0.00    -0.205 F 
ATOM     94  C   UNL A   1      47.538  28.193  35.218  1.00  0.00     0.022 A 
BRANCH  92  95
ATOM     95  S   UNL A   1      48.991  30.200  34.053  1.00  0.00     0.127 S 
ATOM     96  O   UNL A   1      48.567  31.557  34.397  1.00  0.00    -0.237 OA
ATOM     97  O   UNL A   1      49.904  29.584  35.015  1.00  0.00    -0.237 OA
ATOM     98  O   UNL A   1      49.355  29.996  32.657  1.00  0.00    -0.744 OA
ENDBRANCH  92  95
ENDBRANCH  65  88
ENDBRANCH  39  40
ENDBRANCH  32  34
ENDBRANCH  31  32
ENDBRANCH  30  31
ENDBRANCH  29  30
ENDBRANCH  28  29
ENDBRANCH  27  28
ENDBRANCH   1  27
TORSDOF 24
ENDMDL
MODEL 2
REMARK VINA RESULT:      -9.8      3.634      9.139
REMARK SMILES CCc1ccsc1CNC(=O)N1[C@H]2CC[C@@H]1[C@H](C(=O)OCCOCCOCCOC(=O)c1ccc(-c3c4nc(c(-c5cccc(S(=O)(=O)[O-])c5F)c5ccc([nH]5)c(-c5cccc(S(=O)(=O)[O-])c5F)c5nc(c(-c6cccc(S(=O)(=O)[O-])c6F)c6ccc3[nH]6)C=C5)C=C4)cc1)C2
REMARK SMILES IDX 24 1 23 2 22 3 21 4 20 5 18 6 19 7 17 8 12 9 13 10 16 11
REMARK SMILES IDX 14 12 95 13 15 14 10 15 9 16 11 18 8 19 7 20 3 21 4 22 5 23
REMARK SMILES IDX 6 24 2 25 1 26 25 27 26 28 27 29 28 30 29 31 30 32 31 33
REMARK SMILES IDX 32 34 33 35 94 36 34 37 93 38 35 39 36 40 37 41 87 42 38 43
REMARK SMILES IDX 92 44 86 45 88 46 39 47 91 48 85 49 84 50 40 52 72 53 52 54
REMARK SMILES IDX 71 55 53 56 56 57 70 58 89 59 54 60 55 61 69 63 90 64 57 65
REMARK SMILES IDX 41 66 42 67 50 68 43 69 45 70 51 71 44 72 46 73 47 74 48 75
REMARK SMILES IDX 49 76 73 77 74 78 82 79 75 80 77 81 83 82 76 83 78 84 79 85
REMARK SMILES IDX 80 86 81 87 58 88 59 89 67 90 60 91 62 92 68 93 61 94 63 95
REMARK SMILES IDX 64 96 65 97 66 98
REMARK H PARENT 9 17 88 51 56 62
REMARK Flexibility Score: inf
ROOT
ATOM      1  C   UNL A   1      40.109  22.791  26.886  1.00  0.00     0.188 C 
ENDROOT
BRANCH   1   2
ATOM      2  O   UNL A   1      38.756  22.863  26.454  1.00  0.00    -0.376 OA
BRANCH   2   3
ATOM      3  C   UNL A   1      38.255  21.873  25.563  1.00  0.00     0.202 C 
BRANCH   3   4
ATOM      4  C   UNL A   1      36.885  22.075  24.891  1.00  0.00     0.261 C 
BRANCH   4   5
ATOM      5  O   UNL A   1      36.471  23.452  24.737  1.00  0.00    -0.463 OA
BRANCH   5   6
ATOM      6  C   UNL A   1      35.188  23.721  25.060  1.00  0.00     0.311 C 
ATOM      7  O   UNL A   1      34.676  23.418  26.136  1.00  0.00    -0.252 OA
BRANCH   6   8
ATOM      8  C   UNL A   1      34.362  24.406  23.994  1.00  0.00     0.124 C 
ATOM      9  N   UNL A   1      32.857  24.723  22.323  1.00  0.00    -0.318 N 
ATOM     10  C   UNL A   1      32.015  24.436  23.459  1.00  0.00     0.088 C 
ATOM     11  C   UNL A   1      33.971  23.837  22.608  1.00  0.00     0.101 C 
ATOM     12  C   UNL A   1      31.902  22.899  23.352  1.00  0.00     0.027 C 
ATOM     13  C   UNL A   1      32.978  24.760  24.608  1.00  0.00     0.042 C 
ATOM     14  C   UNL A   1      33.234  22.501  22.683  1.00  0.00     0.028 C 
BRANCH   9  15
ATOM     15  C   UNL A   1      32.744  25.504  21.230  1.00  0.00     0.318 C 
ATOM     16  N   UNL A   1      32.150  26.714  21.329  1.00  0.00    -0.333 N 
ATOM     17  H   UNL A   1      31.784  27.078  20.490  1.00  0.00     0.165 HD
ATOM     18  O   UNL A   1      33.208  25.169  20.141  1.00  0.00    -0.249 OA
BRANCH  16  19
ATOM     19  C   UNL A   1      31.978  27.544  22.498  1.00  0.00     0.165 C 
BRANCH  19  20
ATOM     20  C   UNL A   1      30.575  28.081  22.618  1.00  0.00     0.027 A 
ATOM     21  C   UNL A   1      29.478  27.474  23.223  1.00  0.00    -0.033 A 
ATOM     22  C   UNL A   1      28.330  28.338  23.203  1.00  0.00     0.016 A 
ATOM     23  C   UNL A   1      28.591  29.561  22.632  1.00  0.00     0.065 A 
ATOM     24  S   UNL A   1      30.206  29.683  22.108  1.00  0.00    -0.147 S 
BRANCH  21  25
ATOM     25  C   UNL A   1      29.463  26.110  23.855  1.00  0.00     0.033 C 
ATOM     26  C   UNL A   1      29.544  26.176  25.374  1.00  0.00     0.009 C 
ENDBRANCH  21  25
ENDBRANCH  19  20
ENDBRANCH  16  19
ENDBRANCH   9  15
ENDBRANCH   6   8
ENDBRANCH   5   6
ENDBRANCH   4   5
ENDBRANCH   3   4
ENDBRANCH   2   3
ENDBRANCH   1   2
BRANCH   1  27
ATOM     27  C   UNL A   1      40.841  21.447  26.772  1.00  0.00     0.188 C 
BRANCH  27  28
ATOM     28  O   UNL A   1      42.244  21.514  26.849  1.00  0.00    -0.376 OA
BRANCH  28  29
ATOM     29  C   UNL A   1      43.006  21.370  25.667  1.00  0.00     0.202 C 
BRANCH  29  30
ATOM     30  C   UNL A   1      44.120  22.363  25.291  1.00  0.00     0.261 C 
BRANCH  30  31
ATOM     31  O   UNL A   1      44.402  23.423  26.214  1.00  0.00    -0.460 OA
BRANCH  31  32
ATOM     32  C   UNL A   1      44.274  24.693  25.762  1.00  0.00     0.338 C 
ATOM     33  O   UNL A   1      44.514  25.093  24.633  1.00  0.00    -0.246 OA
BRANCH  32  34
ATOM     34  C   UNL A   1      43.564  25.463  26.809  1.00  0.00     0.060 A 
ATOM     35  C   UNL A   1      43.837  26.832  26.959  1.00  0.00     0.016 A 
ATOM     36  C   UNL A   1      42.604  24.843  27.611  1.00  0.00     0.016 A 
ATOM     37  C   UNL A   1      43.167  27.578  27.932  1.00  0.00     0.010 A 
ATOM     38  C   UNL A   1      41.953  25.586  28.599  1.00  0.00     0.010 A 
ATOM     39  C   UNL A   1      42.252  26.948  28.786  1.00  0.00    -0.014 A 
BRANCH  39  40
ATOM     40  C   UNL A   1      41.758  27.643  29.999  1.00  0.00     0.031 A 
ATOM     41  C   UNL A   1      40.442  28.366  29.917  1.00  0.00     0.074 A 
ATOM     42  C   UNL A   1      42.469  27.667  31.140  1.00  0.00     0.049 A 
ATOM     43  N   UNL A   1      39.841  29.107  30.810  1.00  0.00    -0.248 NA
ATOM     44  C   UNL A   1      39.712  28.242  28.645  1.00  0.00     0.031 C 
ATOM     45  C   UNL A   1      43.746  26.993  31.356  1.00  0.00     0.029 A 
ATOM     46  N   UNL A   1      42.220  28.313  32.326  1.00  0.00    -0.354 N 
ATOM     47  C   UNL A   1      38.682  29.569  30.198  1.00  0.00     0.074 A 
ATOM     48  C   UNL A   1      38.674  29.038  28.852  1.00  0.00     0.031 C 
ATOM     49  C   UNL A   1      44.184  27.280  32.595  1.00  0.00     0.029 A 
ATOM     50  C   UNL A   1      43.234  28.182  33.245  1.00  0.00     0.049 A 
ATOM     51  H   UNL A   1      41.395  28.822  32.501  1.00  0.00     0.167 HD
ATOM     52  C   UNL A   1      37.705  30.355  30.709  1.00  0.00     0.034 A 
ATOM     53  C   UNL A   1      43.386  28.746  34.461  1.00  0.00     0.034 A 
ATOM     54  C   UNL A   1      37.713  30.880  32.048  1.00  0.00     0.049 A 
ATOM     55  C   UNL A   1      42.311  29.661  34.993  1.00  0.00     0.074 A 
ATOM     56  C   UNL A   1      36.750  31.647  32.678  1.00  0.00     0.029 A 
ATOM     57  N   UNL A   1      38.747  30.711  32.957  1.00  0.00    -0.354 N 
ATOM     58  N   UNL A   1      41.169  30.004  34.447  1.00  0.00    -0.248 NA
ATOM     59  C   UNL A   1      42.535  30.243  36.326  1.00  0.00     0.031 C 
ATOM     60  C   UNL A   1      37.223  31.981  33.952  1.00  0.00     0.029 A 
ATOM     61  C   UNL A   1      38.458  31.380  34.134  1.00  0.00     0.049 A 
ATOM     62  H   UNL A   1      39.567  30.193  32.789  1.00  0.00     0.167 HD
ATOM     63  C   UNL A   1      40.522  30.806  35.384  1.00  0.00     0.074 A 
ATOM     64  C   UNL A   1      41.395  30.886  36.537  1.00  0.00     0.031 C 
ATOM     65  C   UNL A   1      39.314  31.420  35.294  1.00  0.00     0.034 A 
BRANCH  52  66
ATOM     66  C   UNL A   1      36.549  30.694  29.802  1.00  0.00     0.023 A 
ATOM     67  C   UNL A   1      35.905  29.676  29.069  1.00  0.00     0.012 A 
ATOM     68  C   UNL A   1      36.099  32.024  29.676  1.00  0.00     0.148 A 
ATOM     69  C   UNL A   1      34.871  29.982  28.184  1.00  0.00     0.002 A 
ATOM     70  C   UNL A   1      35.033  32.313  28.833  1.00  0.00     0.091 A 
ATOM     71  F   UNL A   1      36.736  32.984  30.363  1.00  0.00    -0.205 F 
ATOM     72  C   UNL A   1      34.431  31.298  28.073  1.00  0.00     0.022 A 
BRANCH  70  73
ATOM     73  S   UNL A   1      34.340  33.963  28.687  1.00  0.00     0.127 S 
ATOM     74  O   UNL A   1      35.546  34.787  28.624  1.00  0.00    -0.237 OA
ATOM     75  O   UNL A   1      33.597  33.874  27.429  1.00  0.00    -0.237 OA
ATOM     76  O   UNL A   1      33.508  34.154  29.867  1.00  0.00    -0.744 OA
ENDBRANCH  70  73
ENDBRANCH  52  66
BRANCH  53  77
ATOM     77  C   UNL A   1      44.584  28.421  35.284  1.00  0.00     0.023 A 
ATOM     78  C   UNL A   1      45.699  29.283  35.246  1.00  0.00     0.012 A 
ATOM     79  C   UNL A   1      44.619  27.288  36.120  1.00  0.00     0.148 A 
ATOM     80  C   UNL A   1      46.834  29.011  36.009  1.00  0.00     0.002 A 
ATOM     81  C   UNL A   1      45.734  27.051  36.916  1.00  0.00     0.091 A 
ATOM     82  F   UNL A   1      43.553  26.476  36.131  1.00  0.00    -0.205 F 
ATOM     83  C   UNL A   1      46.848  27.902  36.851  1.00  0.00     0.022 A 
BRANCH  81  84
ATOM     84  S   UNL A   1      45.806  25.713  38.113  1.00  0.00     0.127 S 
ATOM     85  O   UNL A   1      46.242  24.592  37.284  1.00  0.00    -0.237 OA
ATOM     86  O   UNL A   1      46.811  26.211  39.053  1.00  0.00    -0.237 OA
ATOM     87  O   UNL A   1      44.463  25.598  38.663  1.00  0.00    -0.744 OA
ENDBRANCH  81  84
ENDBRANCH  53  77
BRANCH  65  88
ATOM     88  C   UNL A   1      38.831  32.202  36.491  1.00  0.00     0.023 A 
ATOM     89  C   UNL A   1      39.028  33.596  36.555  1.00  0.00     0.012 A 
ATOM     90  C   UNL A   1      38.112  31.561  37.521  1.00  0.00     0.148 A 
ATOM     91  C   UNL A   1      38.549  34.332  37.641  1.00  0.00     0.002 A 
ATOM     92  C   UNL A   1      37.590  32.308  38.571  1.00  0.00     0.091 A 
ATOM     93  F   UNL A   1      37.946  30.232  37.452  1.00  0.00    -0.205 F 
ATOM     94  C   UNL A   1      37.821  33.691  38.640  1.00  0.00     0.022 A 
BRANCH  92  95
ATOM     95  S   UNL A   1      36.556  31.586  39.851  1.00  0.00     0.127 S 
ATOM     96  O   UNL A   1      35.534  30.904  39.059  1.00  0.00    -0.237 OA
ATOM     97  O   UNL A   1      37.491  30.696  40.537  1.00  0.00    -0.237 OA
ATOM     98  O   UNL A   1      36.077  32.699  40.659  1.00  0.00    -0.744 OA
ENDBRANCH  92  95
ENDBRANCH  65  88
ENDBRANCH  39  40
ENDBRANCH  32  34
ENDBRANCH  31  32
ENDBRANCH  30  31
ENDBRANCH  29  30
ENDBRANCH  28  29
ENDBRANCH  27  28
ENDBRANCH   1  27
TORSDOF 24
ENDMDL
MODEL 3
REMARK VINA RESULT:      -9.4      1.564      7.706
REMARK SMILES CCc1ccsc1CNC(=O)N1[C@H]2CC[C@@H]1[C@H](C(=O)OCCOCCOCCOC(=O)c1ccc(-c3c4nc(c(-c5cccc(S(=O)(=O)[O-])c5F)c5ccc([nH]5)c(-c5cccc(S(=O)(=O)[O-])c5F)c5nc(c(-c6cccc(S(=O)(=O)[O-])c6F)c6ccc3[nH]6)C=C5)C=C4)cc1)C2
REMARK SMILES IDX 24 1 23 2 22 3 21 4 20 5 18 6 19 7 17 8 12 9 13 10 16 11
REMARK SMILES IDX 14 12 95 13 15 14 10 15 9 16 11 18 8 19 7 20 3 21 4 22 5 23
REMARK SMILES IDX 6 24 2 25 1 26 25 27 26 28 27 29 28 30 29 31 30 32 31 33
REMARK SMILES IDX 32 34 33 35 94 36 34 37 93 38 35 39 36 40 37 41 87 42 38 43
REMARK SMILES IDX 92 44 86 45 88 46 39 47 91 48 85 49 84 50 40 52 72 53 52 54
REMARK SMILES IDX 71 55 53 56 56 57 70 58 89 59 54 60 55 61 69 63 90 64 57 65
REMARK SMILES IDX 41 66 42 67 50 68 43 69 45 70 51 71 44 72 46 73 47 74 48 75
REMARK SMILES IDX 49 76 73 77 74 78 82 79 75 80 77 81 83 82 76 83 78 84 79 85
REMARK SMILES IDX 80 86 81 87 58 88 59 89 67 90 60 91 62 92 68 93 61 94 63 95
REMARK SMILES IDX 64 96 65 97 66 98
REMARK H PARENT 9 17 88 51 56 62
REMARK Flexibility Score: inf
ROOT
ATOM      1  C   UNL A   1      30.674  25.926  24.417  1.00  0.00     0.188 C 
ENDROOT
BRANCH   1   2
ATOM      2  O   UNL A   1      30.530  26.636  23.193  1.00  0.00    -0.376 OA
BRANCH   2   3
ATOM      3  C   UNL A   1      31.571  27.505  22.765  1.00  0.00     0.202 C 
BRANCH   3   4
ATOM      4  C   UNL A   1      32.853  26.914  22.151  1.00  0.00     0.261 C 
BRANCH   4   5
ATOM      5  O   UNL A   1      33.391  25.761  22.838  1.00  0.00    -0.463 OA
BRANCH   5   6
ATOM      6  C   UNL A   1      33.979  26.006  24.028  1.00  0.00     0.311 C 
ATOM      7  O   UNL A   1      34.431  27.102  24.355  1.00  0.00    -0.252 OA
BRANCH   6   8
ATOM      8  C   UNL A   1      34.095  24.828  24.969  1.00  0.00     0.124 C 
ATOM      9  N   UNL A   1      34.609  22.764  25.765  1.00  0.00    -0.318 N 
ATOM     10  C   UNL A   1      35.906  23.381  25.621  1.00  0.00     0.088 C 
ATOM     11  C   UNL A   1      33.934  23.329  24.611  1.00  0.00     0.101 C 
ATOM     12  C   UNL A   1      36.257  22.976  24.172  1.00  0.00     0.027 C 
ATOM     13  C   UNL A   1      35.509  24.862  25.615  1.00  0.00     0.042 C 
ATOM     14  C   UNL A   1      34.872  22.863  23.500  1.00  0.00     0.028 C 
BRANCH   9  15
ATOM     15  C   UNL A   1      34.072  21.873  26.622  1.00  0.00     0.318 C 
ATOM     16  N   UNL A   1      33.991  20.570  26.273  1.00  0.00    -0.333 N 
ATOM     17  H   UNL A   1      33.306  20.044  26.746  1.00  0.00     0.165 HD
ATOM     18  O   UNL A   1      33.688  22.201  27.744  1.00  0.00    -0.249 OA
BRANCH  16  19
ATOM     19  C   UNL A   1      34.772  19.845  25.298  1.00  0.00     0.165 C 
BRANCH  19  20
ATOM     20  C   UNL A   1      33.909  19.121  24.296  1.00  0.00     0.027 A 
ATOM     21  C   UNL A   1      33.969  17.780  23.931  1.00  0.00    -0.033 A 
ATOM     22  C   UNL A   1      32.926  17.448  23.000  1.00  0.00     0.016 A 
ATOM     23  C   UNL A   1      32.101  18.511  22.721  1.00  0.00     0.065 A 
ATOM     24  S   UNL A   1      32.570  19.915  23.561  1.00  0.00    -0.147 S 
BRANCH  21  25
ATOM     25  C   UNL A   1      34.958  16.770  24.444  1.00  0.00     0.033 C 
ATOM     26  C   UNL A   1      34.349  15.845  25.489  1.00  0.00     0.009 C 
ENDBRANCH  21  25
ENDBRANCH  19  20
ENDBRANCH  16  19
ENDBRANCH   9  15
ENDBRANCH   6   8
ENDBRANCH   5   6
ENDBRANCH   4   5
ENDBRANCH   3   4
ENDBRANCH   2   3
ENDBRANCH   1   2
BRANCH   1  27
ATOM     27  C   UNL A   1      29.930  26.446  25.655  1.00  0.00     0.188 C 
BRANCH  27  28
ATOM     28  O   UNL A   1      30.746  26.794  26.748  1.00  0.00    -0.376 OA
BRANCH  28  29
ATOM     29  C   UNL A   1      31.894  27.590  26.523  1.00  0.00     0.202 C 
BRANCH  29  30
ATOM     30  C   UNL A   1      31.834  29.127  26.549  1.00  0.00     0.261 C 
BRANCH  30  31
ATOM     31  O   UNL A   1      32.503  29.799  27.624  1.00  0.00    -0.460 OA
BRANCH  31  32
ATOM     32  C   UNL A   1      33.312  30.837  27.303  1.00  0.00     0.338 C 
ATOM     33  O   UNL A   1      32.962  31.934  26.892  1.00  0.00    -0.246 OA
BRANCH  32  34
ATOM     34  C   UNL A   1      34.675  30.491  27.764  1.00  0.00     0.060 A 
ATOM     35  C   UNL A   1      35.076  29.146  27.774  1.00  0.00     0.016 A 
ATOM     36  C   UNL A   1      35.567  31.495  28.144  1.00  0.00     0.016 A 
ATOM     37  C   UNL A   1      36.363  28.800  28.192  1.00  0.00     0.010 A 
ATOM     38  C   UNL A   1      36.847  31.145  28.584  1.00  0.00     0.010 A 
ATOM     39  C   UNL A   1      37.241  29.795  28.639  1.00  0.00    -0.014 A 
BRANCH  39  40
ATOM     40  C   UNL A   1      38.487  29.429  29.355  1.00  0.00     0.031 A 
ATOM     41  C   UNL A   1      38.672  29.928  30.762  1.00  0.00     0.074 A 
ATOM     42  C   UNL A   1      39.453  28.701  28.767  1.00  0.00     0.049 A 
ATOM     43  N   UNL A   1      39.699  29.809  31.560  1.00  0.00    -0.248 NA
ATOM     44  C   UNL A   1      37.541  30.673  31.340  1.00  0.00     0.031 C 
ATOM     45  C   UNL A   1      39.390  28.144  27.419  1.00  0.00     0.029 A 
ATOM     46  N   UNL A   1      40.692  28.334  29.230  1.00  0.00    -0.354 N 
ATOM     47  C   UNL A   1      39.357  30.495  32.719  1.00  0.00     0.074 A 
ATOM     48  C   UNL A   1      38.033  31.041  32.512  1.00  0.00     0.031 C 
ATOM     49  C   UNL A   1      40.553  27.521  27.152  1.00  0.00     0.029 A 
ATOM     50  C   UNL A   1      41.451  27.666  28.298  1.00  0.00     0.049 A 
ATOM     51  H   UNL A   1      41.008  28.530  30.142  1.00  0.00     0.167 HD
ATOM     52  C   UNL A   1      40.073  30.650  33.858  1.00  0.00     0.034 A 
ATOM     53  C   UNL A   1      42.730  27.242  28.357  1.00  0.00     0.034 A 
ATOM     54  C   UNL A   1      41.387  30.104  34.063  1.00  0.00     0.049 A 
ATOM     55  C   UNL A   1      43.529  27.470  29.616  1.00  0.00     0.074 A 
ATOM     56  C   UNL A   1      42.177  30.165  35.197  1.00  0.00     0.029 A 
ATOM     57  N   UNL A   1      42.116  29.418  33.104  1.00  0.00    -0.354 N 
ATOM     58  N   UNL A   1      43.157  28.025  30.745  1.00  0.00    -0.248 NA
ATOM     59  C   UNL A   1      44.917  26.983  29.619  1.00  0.00     0.031 C 
ATOM     60  C   UNL A   1      43.403  29.555  34.908  1.00  0.00     0.029 A 
ATOM     61  C   UNL A   1      43.357  29.069  33.610  1.00  0.00     0.049 A 
ATOM     62  H   UNL A   1      41.799  29.209  32.196  1.00  0.00     0.167 HD
ATOM     63  C   UNL A   1      44.248  27.918  31.603  1.00  0.00     0.074 A 
ATOM     64  C   UNL A   1      45.290  27.232  30.866  1.00  0.00     0.031 C 
ATOM     65  C   UNL A   1      44.374  28.349  32.884  1.00  0.00     0.034 A 
BRANCH  52  66
ATOM     66  C   UNL A   1      39.437  31.451  34.967  1.00  0.00     0.023 A 
ATOM     67  C   UNL A   1      38.455  30.861  35.790  1.00  0.00     0.012 A 
ATOM     68  C   UNL A   1      39.812  32.790  35.194  1.00  0.00     0.148 A 
ATOM     69  C   UNL A   1      37.818  31.606  36.783  1.00  0.00     0.002 A 
ATOM     70  C   UNL A   1      39.212  33.509  36.221  1.00  0.00     0.091 A 
ATOM     71  F   UNL A   1      40.731  33.343  34.389  1.00  0.00    -0.205 F 
ATOM     72  C   UNL A   1      38.202  32.925  37.002  1.00  0.00     0.022 A 
BRANCH  70  73
ATOM     73  S   UNL A   1      39.699  35.187  36.635  1.00  0.00     0.127 S 
ATOM     74  O   UNL A   1      38.898  35.442  37.830  1.00  0.00    -0.237 OA
ATOM     75  O   UNL A   1      41.134  35.038  36.883  1.00  0.00    -0.237 OA
ATOM     76  O   UNL A   1      39.369  35.998  35.471  1.00  0.00    -0.744 OA
ENDBRANCH  70  73
ENDBRANCH  52  66
BRANCH  53  77
ATOM     77  C   UNL A   1      43.323  26.512  27.202  1.00  0.00     0.023 A 
ATOM     78  C   UNL A   1      44.044  27.234  26.230  1.00  0.00     0.012 A 
ATOM     79  C   UNL A   1      43.204  25.115  27.073  1.00  0.00     0.148 A 
ATOM     80  C   UNL A   1      44.617  26.580  25.139  1.00  0.00     0.002 A 
ATOM     81  C   UNL A   1      43.820  24.464  26.011  1.00  0.00     0.091 A 
ATOM     82  F   UNL A   1      42.503  24.451  28.003  1.00  0.00    -0.205 F 
ATOM     83  C   UNL A   1      44.514  25.195  25.035  1.00  0.00     0.022 A 
BRANCH  81  84
ATOM     84  S   UNL A   1      43.839  22.675  25.848  1.00  0.00     0.127 S 
ATOM     85  O   UNL A   1      42.902  22.464  24.747  1.00  0.00    -0.237 OA
ATOM     86  O   UNL A   1      45.243  22.422  25.518  1.00  0.00    -0.237 OA
ATOM     87  O   UNL A   1      43.414  22.152  27.138  1.00  0.00    -0.744 OA
ENDBRANCH  81  84
ENDBRANCH  53  77
BRANCH  65  88
ATOM     88  C   UNL A   1      45.670  28.058  33.602  1.00  0.00     0.023 A 
ATOM     89  C   UNL A   1      46.726  28.990  33.567  1.00  0.00     0.012 A 
ATOM     90  C   UNL A   1      45.810  26.888  34.376  1.00  0.00     0.148 A 
ATOM     91  C   UNL A   1      47.912  28.745  34.261  1.00  0.00     0.002 A 
ATOM     92  C   UNL A   1      46.972  26.677  35.109  1.00  0.00     0.091 A 
ATOM     93  F   UNL A   1      44.800  26.004  34.387  1.00  0.00    -0.205 F 
ATOM     94  C   UNL A   1      48.030  27.597  35.040  1.00  0.00     0.022 A 
BRANCH  92  95
ATOM     95  S   UNL A   1      47.175  25.278  36.218  1.00  0.00     0.127 S 
ATOM     96  O   UNL A   1      48.463  25.577  36.843  1.00  0.00    -0.237 OA
ATOM     97  O   UNL A   1      46.021  25.416  37.104  1.00  0.00    -0.237 OA
ATOM     98  O   UNL A   1      47.154  24.089  35.377  1.00  0.00    -0.744 OA
ENDBRANCH  92  95
ENDBRANCH  65  88
ENDBRANCH  39  40
ENDBRANCH  32  34
ENDBRANCH  31  32
ENDBRANCH  30  31
ENDBRANCH  29  30
ENDBRANCH  28  29
ENDBRANCH  27  28
ENDBRANCH   1  27
TORSDOF 24
ENDMDL
