MODEL 1
REMARK VINA RESULT:     -11.4      0.000      0.000
REMARK SMILES Cc1ccc([C@@]23C[C@@H]4C[C@@H](C[C@@](C(=O)N5CCC(C(=O)OCCOCCOCCOC(=O)c6ccc(-c7c8nc(c(-c9cccc(S(=O)(=O)[O-])c9F)c9ccc([nH]9)c(-c9cccc(S(=O)(=O)[O-])c9F)c9nc(c(-c%10cccc(S(=O)(=O)[O-])c%10F)c%10ccc7[nH]%10)C=C9)C=C8)cc6)CC5)(C4)C2)C3)cc1
REMARK SMILES IDX 26 1 25 2 24 3 23 4 22 5 21 6 19 7 20 8 18 9 13 10 14 11
REMARK SMILES IDX 15 12 16 13 97 14 17 15 96 16 12 17 6 18 7 19 99 20 100 21
REMARK SMILES IDX 8 22 10 23 9 24 98 25 11 26 5 27 1 28 2 29 3 30 102 31 4 32
REMARK SMILES IDX 101 33 27 34 28 35 29 36 30 37 31 38 32 39 33 40 34 41 95 42
REMARK SMILES IDX 35 43 94 44 36 45 37 46 38 47 88 48 39 49 93 50 87 51 89 52
REMARK SMILES IDX 40 53 92 54 86 55 85 56 41 58 73 59 53 60 72 61 54 62 57 63
REMARK SMILES IDX 71 64 90 65 55 66 56 67 70 69 91 70 58 71 42 72 43 73 51 74
REMARK SMILES IDX 44 75 46 76 52 77 45 78 47 79 48 80 49 81 50 82 74 83 75 84
REMARK SMILES IDX 83 85 76 86 78 87 84 88 77 89 79 90 80 91 81 92 82 93 59 94
REMARK SMILES IDX 60 95 68 96 61 97 63 98 69 99 62 100 64 101 65 102 66 103
REMARK SMILES IDX 67 104
REMARK H PARENT 89 57 57 68
REMARK Flexibility Score: inf
ROOT
ATOM      1  C   UNL A   1      39.495  27.713  28.337  1.00  0.00     0.188 C 
ENDROOT
BRANCH   1   2
ATOM      2  C   UNL A   1      39.526  26.599  27.296  1.00  0.00     0.188 C 
BRANCH   2   3
ATOM      3  O   UNL A   1      39.147  25.260  27.644  1.00  0.00    -0.376 OA
BRANCH   3   4
ATOM      4  C   UNL A   1      39.871  24.087  27.241  1.00  0.00     0.202 C 
BRANCH   4   5
ATOM      5  C   UNL A   1      39.394  22.649  26.504  1.00  0.00     0.261 C 
BRANCH   5   6
ATOM      6  O   UNL A   1      37.923  22.030  25.629  1.00  0.00    -0.463 OA
BRANCH   6   7
ATOM      7  C   UNL A   1      36.921  22.403  24.620  1.00  0.00     0.309 C 
ATOM      8  O   UNL A   1      37.028  22.499  23.389  1.00  0.00    -0.252 OA
BRANCH   7   9
ATOM      9  C   UNL A   1      35.509  22.658  24.900  1.00  0.00     0.103 C 
ATOM     10  C   UNL A   1      33.147  25.280  23.968  1.00  0.00     0.228 C 
ATOM     11  O   UNL A   1      33.155  25.404  22.745  1.00  0.00    -0.274 OA
ATOM     12  N   UNL A   1      33.178  24.029  24.595  1.00  0.00    -0.342 N 
ATOM     13  C   UNL A   1      33.260  22.858  23.745  1.00  0.00     0.120 C 
ATOM     14  C   UNL A   1      33.700  23.778  25.945  1.00  0.00     0.120 C 
ATOM     15  C   UNL A   1      34.731  22.572  23.552  1.00  0.00     0.037 C 
ATOM     16  C   UNL A   1      35.211  23.771  25.830  1.00  0.00     0.037 C 
BRANCH  10  17
ATOM     17  C   UNL A   1      32.941  26.493  24.875  1.00  0.00     0.051 C 
ATOM     18  C   UNL A   1      31.633  28.688  24.723  1.00  0.00    -0.003 C 
ATOM     19  C   UNL A   1      30.961  28.264  26.063  1.00  0.00     0.015 C 
ATOM     20  C   UNL A   1      32.100  27.430  24.006  1.00  0.00     0.028 C 
ATOM     21  C   UNL A   1      32.936  29.463  25.051  1.00  0.00     0.015 C 
ATOM     22  C   UNL A   1      31.931  27.472  26.966  1.00  0.00    -0.009 C 
ATOM     23  C   UNL A   1      33.901  28.590  25.901  1.00  0.00    -0.009 C 
ATOM     24  C   UNL A   1      33.209  28.265  27.234  1.00  0.00     0.007 C 
ATOM     25  C   UNL A   1      32.322  26.183  26.254  1.00  0.00     0.020 C 
ATOM     26  C   UNL A   1      34.245  27.268  25.168  1.00  0.00     0.020 C 
BRANCH  18  27
ATOM     27  C   UNL A   1      30.637  29.436  23.813  1.00  0.00    -0.042 A 
ATOM     28  C   UNL A   1      28.032  31.729  21.199  1.00  0.00     0.044 C 
ATOM     29  C   UNL A   1      28.927  30.919  22.083  1.00  0.00    -0.051 A 
ATOM     30  C   UNL A   1      29.075  31.299  23.410  1.00  0.00     0.004 A 
ATOM     31  C   UNL A   1      29.628  29.799  21.623  1.00  0.00     0.004 A 
ATOM     32  C   UNL A   1      29.901  30.562  24.255  1.00  0.00     0.004 A 
ATOM     33  C   UNL A   1      30.473  29.069  22.474  1.00  0.00     0.004 A 
ENDBRANCH  18  27
ENDBRANCH  10  17
ENDBRANCH   7   9
ENDBRANCH   6   7
ENDBRANCH   5   6
ENDBRANCH   4   5
ENDBRANCH   3   4
ENDBRANCH   2   3
ENDBRANCH   1   2
BRANCH   1  34
ATOM     34  O   UNL A   1      38.177  28.195  28.476  1.00  0.00    -0.376 OA
BRANCH  34  35
ATOM     35  C   UNL A   1      37.918  29.492  27.988  1.00  0.00     0.202 C 
BRANCH  35  36
ATOM     36  C   UNL A   1      36.461  29.908  28.222  1.00  0.00     0.261 C 
BRANCH  36  37
ATOM     37  O   UNL A   1      36.310  31.346  28.148  1.00  0.00    -0.460 OA
BRANCH  37  38
ATOM     38  C   UNL A   1      36.077  32.011  29.343  1.00  0.00     0.338 C 
ATOM     39  O   UNL A   1      34.992  32.427  29.675  1.00  0.00    -0.246 OA
BRANCH  38  40
ATOM     40  C   UNL A   1      37.397  32.353  29.988  1.00  0.00     0.060 A 
ATOM     41  C   UNL A   1      38.459  33.066  29.405  1.00  0.00     0.016 A 
ATOM     42  C   UNL A   1      37.721  31.594  31.051  1.00  0.00     0.016 A 
ATOM     43  C   UNL A   1      39.865  32.771  29.704  1.00  0.00     0.010 A 
ATOM     44  C   UNL A   1      39.041  31.167  31.100  1.00  0.00     0.010 A 
ATOM     45  C   UNL A   1      40.257  31.653  30.458  1.00  0.00    -0.014 A 
BRANCH  45  46
ATOM     46  C   UNL A   1      41.944  30.994  30.578  1.00  0.00     0.031 A 
ATOM     47  C   UNL A   1      42.788  29.621  29.679  1.00  0.00     0.074 A 
ATOM     48  C   UNL A   1      42.625  31.295  31.702  1.00  0.00     0.049 A 
ATOM     49  N   UNL A   1      43.401  28.595  30.251  1.00  0.00    -0.248 NA
ATOM     50  C   UNL A   1      42.698  29.211  28.189  1.00  0.00     0.031 C 
ATOM     51  C   UNL A   1      43.988  30.906  32.031  1.00  0.00     0.029 A 
ATOM     52  N   UNL A   1      42.146  31.908  32.862  1.00  0.00    -0.354 N 
ATOM     53  C   UNL A   1      43.688  27.609  29.262  1.00  0.00     0.074 A 
ATOM     54  C   UNL A   1      43.010  27.946  28.092  1.00  0.00     0.031 C 
ATOM     55  C   UNL A   1      44.154  31.030  33.357  1.00  0.00     0.029 A 
ATOM     56  C   UNL A   1      42.853  31.342  33.925  1.00  0.00     0.049 A 
ATOM     57  H   UNL A   1      41.449  32.601  32.918  1.00  0.00     0.167 HD
ATOM     58  C   UNL A   1      44.665  26.666  29.311  1.00  0.00     0.034 A 
ATOM     59  C   UNL A   1      42.223  30.663  34.924  1.00  0.00     0.034 A 
ATOM     60  C   UNL A   1      45.316  26.793  30.579  1.00  0.00     0.049 A 
ATOM     61  C   UNL A   1      42.815  29.292  35.165  1.00  0.00     0.074 A 
ATOM     62  C   UNL A   1      46.254  27.704  31.032  1.00  0.00     0.029 A 
ATOM     63  N   UNL A   1      44.666  26.281  31.677  1.00  0.00    -0.354 N 
ATOM     64  N   UNL A   1      43.562  28.645  34.308  1.00  0.00    -0.248 NA
ATOM     65  C   UNL A   1      42.666  28.565  36.421  1.00  0.00     0.031 C 
ATOM     66  C   UNL A   1      46.089  27.807  32.437  1.00  0.00     0.029 A 
ATOM     67  C   UNL A   1      45.114  26.903  32.824  1.00  0.00     0.049 A 
ATOM     68  H   UNL A   1      43.981  25.574  31.648  1.00  0.00     0.167 HD
ATOM     69  C   UNL A   1      43.914  27.424  34.826  1.00  0.00     0.074 A 
ATOM     70  C   UNL A   1      43.385  27.457  36.177  1.00  0.00     0.031 C 
ATOM     71  C   UNL A   1      44.572  26.470  34.096  1.00  0.00     0.034 A 
BRANCH  58  72
ATOM     72  C   UNL A   1      45.255  26.023  28.037  1.00  0.00     0.023 A 
ATOM     73  C   UNL A   1      46.202  26.796  27.338  1.00  0.00     0.012 A 
ATOM     74  C   UNL A   1      44.862  24.808  27.395  1.00  0.00     0.148 A 
ATOM     75  C   UNL A   1      46.635  26.470  26.046  1.00  0.00     0.002 A 
ATOM     76  C   UNL A   1      45.209  24.538  26.060  1.00  0.00     0.091 A 
ATOM     77  F   UNL A   1      44.184  23.879  28.086  1.00  0.00    -0.205 F 
ATOM     78  C   UNL A   1      46.102  25.373  25.386  1.00  0.00     0.022 A 
BRANCH  76  79
ATOM     79  S   UNL A   1      44.419  23.245  25.067  1.00  0.00     0.127 S 
ATOM     80  O   UNL A   1      43.027  23.702  25.000  1.00  0.00    -0.237 OA
ATOM     81  O   UNL A   1      45.134  23.328  23.796  1.00  0.00    -0.237 OA
ATOM     82  O   UNL A   1      44.585  22.009  25.821  1.00  0.00    -0.744 OA
ENDBRANCH  76  79
ENDBRANCH  58  72
BRANCH  59  83
ATOM     83  C   UNL A   1      40.826  31.132  35.230  1.00  0.00     0.023 A 
ATOM     84  C   UNL A   1      39.770  30.414  34.604  1.00  0.00     0.012 A 
ATOM     85  C   UNL A   1      40.489  32.014  36.276  1.00  0.00     0.148 A 
ATOM     86  C   UNL A   1      38.456  30.467  35.073  1.00  0.00     0.002 A 
ATOM     87  C   UNL A   1      39.162  32.073  36.737  1.00  0.00     0.091 A 
ATOM     88  F   UNL A   1      41.453  32.753  36.840  1.00  0.00    -0.205 F 
ATOM     89  C   UNL A   1      38.156  31.282  36.153  1.00  0.00     0.022 A 
BRANCH  87  90
ATOM     90  S   UNL A   1      38.691  33.022  38.200  1.00  0.00     0.127 S 
ATOM     91  O   UNL A   1      39.147  34.362  37.839  1.00  0.00    -0.237 OA
ATOM     92  O   UNL A   1      37.233  32.867  38.230  1.00  0.00    -0.237 OA
ATOM     93  O   UNL A   1      39.376  32.382  39.313  1.00  0.00    -0.744 OA
ENDBRANCH  87  90
ENDBRANCH  59  83
BRANCH  71  94
ATOM     94  C   UNL A   1      44.721  24.996  34.451  1.00  0.00     0.023 A 
ATOM     95  C   UNL A   1      43.751  24.043  34.103  1.00  0.00     0.012 A 
ATOM     96  C   UNL A   1      45.955  24.487  34.951  1.00  0.00     0.148 A 
ATOM     97  C   UNL A   1      43.968  22.672  34.271  1.00  0.00     0.002 A 
ATOM     98  C   UNL A   1      46.217  23.121  34.973  1.00  0.00     0.091 A 
ATOM     99  F   UNL A   1      46.897  25.322  35.417  1.00  0.00    -0.205 F 
ATOM    100  C   UNL A   1      45.213  22.206  34.669  1.00  0.00     0.022 A 
BRANCH  98 101
ATOM    101  S   UNL A   1      47.907  22.531  35.178  1.00  0.00     0.127 S 
ATOM    102  O   UNL A   1      48.211  22.921  36.552  1.00  0.00    -0.237 OA
ATOM    103  O   UNL A   1      47.769  21.086  34.975  1.00  0.00    -0.237 OA
ATOM    104  O   UNL A   1      48.654  23.209  34.127  1.00  0.00    -0.744 OA
ENDBRANCH  98 101
ENDBRANCH  71  94
ENDBRANCH  45  46
ENDBRANCH  38  40
ENDBRANCH  37  38
ENDBRANCH  36  37
ENDBRANCH  35  36
ENDBRANCH  34  35
ENDBRANCH   1  34
TORSDOF 22
ENDMDL
MODEL 2
REMARK VINA RESULT:     -11.2      2.441      4.764
REMARK SMILES Cc1ccc([C@@]23C[C@@H]4C[C@@H](C[C@@](C(=O)N5CCC(C(=O)OCCOCCOCCOC(=O)c6ccc(-c7c8nc(c(-c9cccc(S(=O)(=O)[O-])c9F)c9ccc([nH]9)c(-c9cccc(S(=O)(=O)[O-])c9F)c9nc(c(-c%10cccc(S(=O)(=O)[O-])c%10F)c%10ccc7[nH]%10)C=C9)C=C8)cc6)CC5)(C4)C2)C3)cc1
REMARK SMILES IDX 26 1 25 2 24 3 23 4 22 5 21 6 19 7 20 8 18 9 13 10 14 11
REMARK SMILES IDX 15 12 16 13 97 14 17 15 96 16 12 17 6 18 7 19 99 20 100 21
REMARK SMILES IDX 8 22 10 23 9 24 98 25 11 26 5 27 1 28 2 29 3 30 102 31 4 32
REMARK SMILES IDX 101 33 27 34 28 35 29 36 30 37 31 38 32 39 33 40 34 41 95 42
REMARK SMILES IDX 35 43 94 44 36 45 37 46 38 47 88 48 39 49 93 50 87 51 89 52
REMARK SMILES IDX 40 53 92 54 86 55 85 56 41 58 73 59 53 60 72 61 54 62 57 63
REMARK SMILES IDX 71 64 90 65 55 66 56 67 70 69 91 70 58 71 42 72 43 73 51 74
REMARK SMILES IDX 44 75 46 76 52 77 45 78 47 79 48 80 49 81 50 82 74 83 75 84
REMARK SMILES IDX 83 85 76 86 78 87 84 88 77 89 79 90 80 91 81 92 82 93 59 94
REMARK SMILES IDX 60 95 68 96 61 97 63 98 69 99 62 100 64 101 65 102 66 103
REMARK SMILES IDX 67 104
REMARK H PARENT 89 57 57 68
REMARK Flexibility Score: inf
ROOT
ATOM      1  C   UNL A   1      38.087  30.047  31.212  1.00  0.00     0.188 C 
ENDROOT
BRANCH   1   2
ATOM      2  C   UNL A   1      38.509  29.213  30.008  1.00  0.00     0.188 C 
BRANCH   2   3
ATOM      3  O   UNL A   1      38.635  29.811  28.710  1.00  0.00    -0.376 OA
BRANCH   3   4
ATOM      4  C   UNL A   1      37.788  29.500  27.593  1.00  0.00     0.202 C 
BRANCH   4   5
ATOM      5  C   UNL A   1      36.153  29.776  27.290  1.00  0.00     0.261 C 
BRANCH   5   6
ATOM      6  O   UNL A   1      34.748  28.830  26.623  1.00  0.00    -0.463 OA
BRANCH   6   7
ATOM      7  C   UNL A   1      33.401  28.348  26.959  1.00  0.00     0.309 C 
ATOM      8  O   UNL A   1      32.742  28.486  28.001  1.00  0.00    -0.252 OA
BRANCH   7   9
ATOM      9  C   UNL A   1      32.507  27.653  26.035  1.00  0.00     0.103 C 
ATOM     10  C   UNL A   1      31.285  24.225  25.745  1.00  0.00     0.228 C 
ATOM     11  O   UNL A   1      30.796  23.887  26.821  1.00  0.00    -0.274 OA
ATOM     12  N   UNL A   1      31.079  25.495  25.193  1.00  0.00    -0.342 N 
ATOM     13  C   UNL A   1      30.284  26.434  25.959  1.00  0.00     0.120 C 
ATOM     14  C   UNL A   1      31.995  26.166  24.261  1.00  0.00     0.120 C 
ATOM     15  C   UNL A   1      31.251  27.196  26.836  1.00  0.00     0.037 C 
ATOM     16  C   UNL A   1      33.142  26.702  25.094  1.00  0.00     0.037 C 
BRANCH  10  17
ATOM     17  C   UNL A   1      32.024  23.213  24.870  1.00  0.00     0.051 C 
ATOM     18  C   UNL A   1      34.451  22.443  24.617  1.00  0.00    -0.003 C 
ATOM     19  C   UNL A   1      33.916  21.001  24.872  1.00  0.00     0.015 C 
ATOM     20  C   UNL A   1      33.487  23.429  25.259  1.00  0.00     0.028 C 
ATOM     21  C   UNL A   1      34.365  22.737  23.097  1.00  0.00     0.015 C 
ATOM     22  C   UNL A   1      32.499  20.806  24.293  1.00  0.00    -0.009 C 
ATOM     23  C   UNL A   1      32.904  22.591  22.587  1.00  0.00    -0.009 C 
ATOM     24  C   UNL A   1      32.460  21.136  22.802  1.00  0.00     0.007 C 
ATOM     25  C   UNL A   1      31.542  21.753  25.006  1.00  0.00     0.020 C 
ATOM     26  C   UNL A   1      31.949  23.537  23.361  1.00  0.00     0.020 C 
BRANCH  18  27
ATOM     27  C   UNL A   1      35.848  22.636  25.244  1.00  0.00    -0.042 A 
ATOM     28  C   UNL A   1      39.879  23.229  26.752  1.00  0.00     0.044 C 
ATOM     29  C   UNL A   1      38.483  23.045  26.247  1.00  0.00    -0.051 A 
ATOM     30  C   UNL A   1      38.112  21.804  25.749  1.00  0.00     0.004 A 
ATOM     31  C   UNL A   1      37.539  24.078  26.248  1.00  0.00     0.004 A 
ATOM     32  C   UNL A   1      36.818  21.605  25.273  1.00  0.00     0.004 A 
ATOM     33  C   UNL A   1      36.241  23.879  25.751  1.00  0.00     0.004 A 
ENDBRANCH  18  27
ENDBRANCH  10  17
ENDBRANCH   7   9
ENDBRANCH   6   7
ENDBRANCH   5   6
ENDBRANCH   4   5
ENDBRANCH   3   4
ENDBRANCH   2   3
ENDBRANCH   1   2
BRANCH   1  34
ATOM     34  O   UNL A   1      36.823  29.617  31.667  1.00  0.00    -0.376 OA
BRANCH  34  35
ATOM     35  C   UNL A   1      35.903  30.619  32.035  1.00  0.00     0.202 C 
BRANCH  35  36
ATOM     36  C   UNL A   1      35.730  31.668  30.930  1.00  0.00     0.261 C 
BRANCH  36  37
ATOM     37  O   UNL A   1      35.835  33.010  31.463  1.00  0.00    -0.460 OA
BRANCH  37  38
ATOM     38  C   UNL A   1      36.173  34.013  30.566  1.00  0.00     0.338 C 
ATOM     39  O   UNL A   1      35.397  34.485  29.768  1.00  0.00    -0.246 OA
BRANCH  38  40
ATOM     40  C   UNL A   1      37.670  34.200  30.570  1.00  0.00     0.060 A 
ATOM     41  C   UNL A   1      38.521  34.203  29.451  1.00  0.00     0.016 A 
ATOM     42  C   UNL A   1      38.267  33.963  31.753  1.00  0.00     0.016 A 
ATOM     43  C   UNL A   1      39.888  33.672  29.499  1.00  0.00     0.010 A 
ATOM     44  C   UNL A   1      39.446  33.233  31.692  1.00  0.00     0.010 A 
ATOM     45  C   UNL A   1      40.387  32.974  30.609  1.00  0.00    -0.014 A 
BRANCH  45  46
ATOM     46  C   UNL A   1      41.902  31.973  30.638  1.00  0.00     0.031 A 
ATOM     47  C   UNL A   1      42.298  30.333  29.891  1.00  0.00     0.074 A 
ATOM     48  C   UNL A   1      42.794  32.265  31.606  1.00  0.00     0.049 A 
ATOM     49  N   UNL A   1      42.768  29.284  30.551  1.00  0.00    -0.248 NA
ATOM     50  C   UNL A   1      41.900  29.751  28.513  1.00  0.00     0.031 C 
ATOM     51  C   UNL A   1      44.081  31.626  31.832  1.00  0.00     0.029 A 
ATOM     52  N   UNL A   1      42.632  33.125  32.694  1.00  0.00    -0.354 N 
ATOM     53  C   UNL A   1      42.692  28.131  29.716  1.00  0.00     0.074 A 
ATOM     54  C   UNL A   1      41.927  28.447  28.595  1.00  0.00     0.031 C 
ATOM     55  C   UNL A   1      44.469  31.893  33.089  1.00  0.00     0.029 A 
ATOM     56  C   UNL A   1      43.362  32.568  33.746  1.00  0.00     0.049 A 
ATOM     57  H   UNL A   1      42.110  33.959  32.714  1.00  0.00     0.167 HD
ATOM     58  C   UNL A   1      43.450  27.007  29.808  1.00  0.00     0.034 A 
ATOM     59  C   UNL A   1      42.766  32.195  34.914  1.00  0.00     0.034 A 
ATOM     60  C   UNL A   1      44.299  27.159  30.950  1.00  0.00     0.049 A 
ATOM     61  C   UNL A   1      43.093  30.772  35.311  1.00  0.00     0.074 A 
ATOM     62  C   UNL A   1      45.462  27.887  31.128  1.00  0.00     0.029 A 
ATOM     63  N   UNL A   1      43.733  26.965  32.188  1.00  0.00    -0.354 N 
ATOM     64  N   UNL A   1      43.552  29.860  34.494  1.00  0.00    -0.248 NA
ATOM     65  C   UNL A   1      42.993  30.281  36.681  1.00  0.00     0.031 C 
ATOM     66  C   UNL A   1      45.537  28.219  32.505  1.00  0.00     0.029 A 
ATOM     67  C   UNL A   1      44.468  27.623  33.152  1.00  0.00     0.049 A 
ATOM     68  H   UNL A   1      42.921  26.435  32.360  1.00  0.00     0.167 HD
ATOM     69  C   UNL A   1      43.721  28.675  35.165  1.00  0.00     0.074 A 
ATOM     70  C   UNL A   1      43.422  29.015  36.544  1.00  0.00     0.031 C 
ATOM     71  C   UNL A   1      44.050  27.505  34.534  1.00  0.00     0.034 A 
BRANCH  58  72
ATOM     72  C   UNL A   1      43.694  26.076  28.600  1.00  0.00     0.023 A 
ATOM     73  C   UNL A   1      42.916  24.904  28.558  1.00  0.00     0.012 A 
ATOM     74  C   UNL A   1      44.705  26.178  27.595  1.00  0.00     0.148 A 
ATOM     75  C   UNL A   1      43.192  23.848  27.679  1.00  0.00     0.002 A 
ATOM     76  C   UNL A   1      45.051  25.079  26.790  1.00  0.00     0.091 A 
ATOM     77  F   UNL A   1      45.312  27.354  27.377  1.00  0.00    -0.205 F 
ATOM     78  C   UNL A   1      44.289  23.911  26.832  1.00  0.00     0.022 A 
BRANCH  76  79
ATOM     79  S   UNL A   1      46.570  25.006  25.803  1.00  0.00     0.127 S 
ATOM     80  O   UNL A   1      46.222  25.810  24.627  1.00  0.00    -0.237 OA
ATOM     81  O   UNL A   1      47.558  25.630  26.680  1.00  0.00    -0.237 OA
ATOM     82  O   UNL A   1      46.777  23.596  25.498  1.00  0.00    -0.744 OA
ENDBRANCH  76  79
ENDBRANCH  58  72
BRANCH  59  83
ATOM     83  C   UNL A   1      41.559  33.006  35.299  1.00  0.00     0.023 A 
ATOM     84  C   UNL A   1      41.703  34.420  35.232  1.00  0.00     0.012 A 
ATOM     85  C   UNL A   1      40.256  32.486  35.440  1.00  0.00     0.148 A 
ATOM     86  C   UNL A   1      40.602  35.276  35.177  1.00  0.00     0.002 A 
ATOM     87  C   UNL A   1      39.152  33.354  35.397  1.00  0.00     0.091 A 
ATOM     88  F   UNL A   1      40.097  31.163  35.573  1.00  0.00    -0.205 F 
ATOM     89  C   UNL A   1      39.325  34.741  35.240  1.00  0.00     0.022 A 
BRANCH  87  90
ATOM     90  S   UNL A   1      37.451  32.748  35.367  1.00  0.00     0.127 S 
ATOM     91  O   UNL A   1      37.219  32.454  36.779  1.00  0.00    -0.237 OA
ATOM     92  O   UNL A   1      36.704  33.903  34.860  1.00  0.00    -0.237 OA
ATOM     93  O   UNL A   1      37.463  31.608  34.462  1.00  0.00    -0.744 OA
ENDBRANCH  87  90
ENDBRANCH  59  83
BRANCH  71  94
ATOM     94  C   UNL A   1      43.946  26.100  35.112  1.00  0.00     0.023 A 
ATOM     95  C   UNL A   1      42.734  25.392  35.139  1.00  0.00     0.012 A 
ATOM     96  C   UNL A   1      45.116  25.359  35.446  1.00  0.00     0.148 A 
ATOM     97  C   UNL A   1      42.673  24.043  35.505  1.00  0.00     0.002 A 
ATOM     98  C   UNL A   1      45.066  23.986  35.663  1.00  0.00     0.091 A 
ATOM     99  F   UNL A   1      46.302  25.976  35.561  1.00  0.00    -0.205 F 
ATOM    100  C   UNL A   1      43.841  23.329  35.730  1.00  0.00     0.022 A 
BRANCH  98 101
ATOM    101  S   UNL A   1      46.582  23.013  35.637  1.00  0.00     0.127 S 
ATOM    102  O   UNL A   1      46.075  21.644  35.650  1.00  0.00    -0.237 OA
ATOM    103  O   UNL A   1      47.202  23.418  34.373  1.00  0.00    -0.237 OA
ATOM    104  O   UNL A   1      47.309  23.450  36.821  1.00  0.00    -0.744 OA
ENDBRANCH  98 101
ENDBRANCH  71  94
ENDBRANCH  45  46
ENDBRANCH  38  40
ENDBRANCH  37  38
ENDBRANCH  36  37
ENDBRANCH  35  36
ENDBRANCH  34  35
ENDBRANCH   1  34
TORSDOF 22
ENDMDL
MODEL 3
REMARK VINA RESULT:     -11.2      6.776     12.294
REMARK SMILES Cc1ccc([C@@]23C[C@@H]4C[C@@H](C[C@@](C(=O)N5CCC(C(=O)OCCOCCOCCOC(=O)c6ccc(-c7c8nc(c(-c9cccc(S(=O)(=O)[O-])c9F)c9ccc([nH]9)c(-c9cccc(S(=O)(=O)[O-])c9F)c9nc(c(-c%10cccc(S(=O)(=O)[O-])c%10F)c%10ccc7[nH]%10)C=C9)C=C8)cc6)CC5)(C4)C2)C3)cc1
REMARK SMILES IDX 26 1 25 2 24 3 23 4 22 5 21 6 19 7 20 8 18 9 13 10 14 11
REMARK SMILES IDX 15 12 16 13 97 14 17 15 96 16 12 17 6 18 7 19 99 20 100 21
REMARK SMILES IDX 8 22 10 23 9 24 98 25 11 26 5 27 1 28 2 29 3 30 102 31 4 32
REMARK SMILES IDX 101 33 27 34 28 35 29 36 30 37 31 38 32 39 33 40 34 41 95 42
REMARK SMILES IDX 35 43 94 44 36 45 37 46 38 47 88 48 39 49 93 50 87 51 89 52
REMARK SMILES IDX 40 53 92 54 86 55 85 56 41 58 73 59 53 60 72 61 54 62 57 63
REMARK SMILES IDX 71 64 90 65 55 66 56 67 70 69 91 70 58 71 42 72 43 73 51 74
REMARK SMILES IDX 44 75 46 76 52 77 45 78 47 79 48 80 49 81 50 82 74 83 75 84
REMARK SMILES IDX 83 85 76 86 78 87 84 88 77 89 79 90 80 91 81 92 82 93 59 94
REMARK SMILES IDX 60 95 68 96 61 97 63 98 69 99 62 100 64 101 65 102 66 103
REMARK SMILES IDX 67 104
REMARK H PARENT 89 57 57 68
REMARK Flexibility Score: inf
ROOT
ATOM      1  C   UNL A   1      37.353  29.658  31.884  1.00  0.00     0.188 C 
ENDROOT
BRANCH   1   2
ATOM      2  C   UNL A   1      37.246  30.621  30.706  1.00  0.00     0.188 C 
BRANCH   2   3
ATOM      3  O   UNL A   1      36.101  30.596  29.842  1.00  0.00    -0.376 OA
BRANCH   3   4
ATOM      4  C   UNL A   1      35.969  29.732  28.703  1.00  0.00     0.202 C 
BRANCH   4   5
ATOM      5  C   UNL A   1      35.071  29.847  27.282  1.00  0.00     0.261 C 
BRANCH   5   6
ATOM      6  O   UNL A   1      33.915  28.793  26.352  1.00  0.00    -0.463 OA
BRANCH   6   7
ATOM      7  C   UNL A   1      33.159  28.716  25.094  1.00  0.00     0.309 C 
ATOM      8  O   UNL A   1      33.234  29.420  24.076  1.00  0.00    -0.252 OA
BRANCH   7   9
ATOM      9  C   UNL A   1      32.187  27.675  24.765  1.00  0.00     0.103 C 
ATOM     10  C   UNL A   1      31.548  24.292  25.976  1.00  0.00     0.228 C 
ATOM     11  O   UNL A   1      31.430  24.325  27.199  1.00  0.00    -0.274 OA
ATOM     12  N   UNL A   1      30.984  25.264  25.141  1.00  0.00    -0.342 N 
ATOM     13  C   UNL A   1      30.272  26.355  25.775  1.00  0.00     0.120 C 
ATOM     14  C   UNL A   1      31.487  25.622  23.809  1.00  0.00     0.120 C 
ATOM     15  C   UNL A   1      31.289  27.446  26.018  1.00  0.00     0.037 C 
ATOM     16  C   UNL A   1      32.703  26.500  24.027  1.00  0.00     0.037 C 
BRANCH  10  17
ATOM     17  C   UNL A   1      32.191  23.089  25.286  1.00  0.00     0.051 C 
ATOM     18  C   UNL A   1      34.572  22.187  25.028  1.00  0.00    -0.003 C 
ATOM     19  C   UNL A   1      34.025  20.854  25.622  1.00  0.00     0.015 C 
ATOM     20  C   UNL A   1      33.685  23.324  25.512  1.00  0.00     0.028 C 
ATOM     21  C   UNL A   1      34.373  22.158  23.490  1.00  0.00     0.015 C 
ATOM     22  C   UNL A   1      32.562  20.598  25.201  1.00  0.00    -0.009 C 
ATOM     23  C   UNL A   1      32.873  21.967  23.129  1.00  0.00    -0.009 C 
ATOM     24  C   UNL A   1      32.413  20.608  23.681  1.00  0.00     0.007 C 
ATOM     25  C   UNL A   1      31.687  21.711  25.764  1.00  0.00     0.020 C 
ATOM     26  C   UNL A   1      32.005  23.091  23.752  1.00  0.00     0.020 C 
BRANCH  18  27
ATOM     27  C   UNL A   1      36.019  22.453  25.496  1.00  0.00    -0.042 A 
ATOM     28  C   UNL A   1      40.159  23.241  26.548  1.00  0.00     0.044 C 
ATOM     29  C   UNL A   1      38.726  22.990  26.200  1.00  0.00    -0.051 A 
ATOM     30  C   UNL A   1      38.353  21.719  25.784  1.00  0.00     0.004 A 
ATOM     31  C   UNL A   1      37.748  23.989  26.268  1.00  0.00     0.004 A 
ATOM     32  C   UNL A   1      37.026  21.458  25.454  1.00  0.00     0.004 A 
ATOM     33  C   UNL A   1      36.413  23.725  25.919  1.00  0.00     0.004 A 
ENDBRANCH  18  27
ENDBRANCH  10  17
ENDBRANCH   7   9
ENDBRANCH   6   7
ENDBRANCH   5   6
ENDBRANCH   4   5
ENDBRANCH   3   4
ENDBRANCH   2   3
ENDBRANCH   1   2
BRANCH   1  34
ATOM     34  O   UNL A   1      38.390  28.732  31.647  1.00  0.00    -0.376 OA
BRANCH  34  35
ATOM     35  C   UNL A   1      39.449  28.709  32.577  1.00  0.00     0.202 C 
BRANCH  35  36
ATOM     36  C   UNL A   1      39.686  30.088  33.205  1.00  0.00     0.261 C 
BRANCH  36  37
ATOM     37  O   UNL A   1      40.953  30.132  33.906  1.00  0.00    -0.460 OA
BRANCH  37  38
ATOM     38  C   UNL A   1      40.915  30.512  35.239  1.00  0.00     0.338 C 
ATOM     39  O   UNL A   1      40.464  29.817  36.119  1.00  0.00    -0.246 OA
BRANCH  38  40
ATOM     40  C   UNL A   1      41.257  31.977  35.349  1.00  0.00     0.060 A 
ATOM     41  C   UNL A   1      40.666  33.035  34.637  1.00  0.00     0.016 A 
ATOM     42  C   UNL A   1      42.467  32.237  35.878  1.00  0.00     0.016 A 
ATOM     43  C   UNL A   1      41.421  34.220  34.213  1.00  0.00     0.010 A 
ATOM     44  C   UNL A   1      43.200  33.225  35.235  1.00  0.00     0.010 A 
ATOM     45  C   UNL A   1      42.816  34.309  34.337  1.00  0.00    -0.014 A 
BRANCH  45  46
ATOM     46  C   UNL A   1      43.876  35.541  33.528  1.00  0.00     0.031 A 
ATOM     47  C   UNL A   1      43.809  37.385  33.505  1.00  0.00     0.074 A 
ATOM     48  C   UNL A   1      44.646  35.096  32.515  1.00  0.00     0.049 A 
ATOM     49  N   UNL A   1      43.784  38.136  32.413  1.00  0.00    -0.248 NA
ATOM     50  C   UNL A   1      43.465  38.377  34.642  1.00  0.00     0.031 C 
ATOM     51  C   UNL A   1      45.588  35.873  31.724  1.00  0.00     0.029 A 
ATOM     52  N   UNL A   1      44.613  33.845  31.894  1.00  0.00    -0.354 N 
ATOM     53  C   UNL A   1      43.457  39.476  32.773  1.00  0.00     0.074 A 
ATOM     54  C   UNL A   1      43.036  39.487  34.101  1.00  0.00     0.031 C 
ATOM     55  C   UNL A   1      45.835  35.204  30.587  1.00  0.00     0.029 A 
ATOM     56  C   UNL A   1      44.932  34.066  30.553  1.00  0.00     0.049 A 
ATOM     57  H   UNL A   1      44.408  32.982  32.318  1.00  0.00     0.167 HD
ATOM     58  C   UNL A   1      43.764  40.604  32.080  1.00  0.00     0.034 A 
ATOM     59  C   UNL A   1      44.065  33.752  29.549  1.00  0.00     0.034 A 
ATOM     60  C   UNL A   1      44.419  40.197  30.875  1.00  0.00     0.049 A 
ATOM     61  C   UNL A   1      43.823  34.906  28.600  1.00  0.00     0.074 A 
ATOM     62  C   UNL A   1      45.715  39.772  30.643  1.00  0.00     0.029 A 
ATOM     63  N   UNL A   1      43.629  39.705  29.863  1.00  0.00    -0.354 N 
ATOM     64  N   UNL A   1      44.071  36.159  28.878  1.00  0.00    -0.248 NA
ATOM     65  C   UNL A   1      43.343  34.731  27.234  1.00  0.00     0.031 C 
ATOM     66  C   UNL A   1      45.676  38.918  29.511  1.00  0.00     0.029 A 
ATOM     67  C   UNL A   1      44.379  38.903  29.026  1.00  0.00     0.049 A 
ATOM     68  H   UNL A   1      42.670  39.895  29.753  1.00  0.00     0.167 HD
ATOM     69  C   UNL A   1      43.719  36.951  27.814  1.00  0.00     0.074 A 
ATOM     70  C   UNL A   1      43.334  35.998  26.789  1.00  0.00     0.031 C 
ATOM     71  C   UNL A   1      43.729  38.319  27.871  1.00  0.00     0.034 A 
BRANCH  58  72
ATOM     72  C   UNL A   1      43.870  41.986  32.761  1.00  0.00     0.023 A 
ATOM     73  C   UNL A   1      43.095  43.015  32.192  1.00  0.00     0.012 A 
ATOM     74  C   UNL A   1      44.759  42.394  33.803  1.00  0.00     0.148 A 
ATOM     75  C   UNL A   1      43.270  44.364  32.527  1.00  0.00     0.002 A 
ATOM     76  C   UNL A   1      45.013  43.752  34.061  1.00  0.00     0.091 A 
ATOM     77  F   UNL A   1      45.335  41.470  34.587  1.00  0.00    -0.205 F 
ATOM     78  C   UNL A   1      44.263  44.739  33.421  1.00  0.00     0.022 A 
BRANCH  76  79
ATOM     79  S   UNL A   1      46.408  44.332  35.061  1.00  0.00     0.127 S 
ATOM     80  O   UNL A   1      47.553  43.674  34.422  1.00  0.00    -0.237 OA
ATOM     81  O   UNL A   1      46.369  45.779  34.868  1.00  0.00    -0.237 OA
ATOM     82  O   UNL A   1      46.151  43.855  36.415  1.00  0.00    -0.744 OA
ENDBRANCH  76  79
ENDBRANCH  58  72
BRANCH  59  83
ATOM     83  C   UNL A   1      43.159  32.585  29.833  1.00  0.00     0.023 A 
ATOM     84  C   UNL A   1      41.893  32.896  30.402  1.00  0.00     0.012 A 
ATOM     85  C   UNL A   1      43.349  31.282  29.331  1.00  0.00     0.148 A 
ATOM     86  C   UNL A   1      40.821  32.002  30.362  1.00  0.00     0.002 A 
ATOM     87  C   UNL A   1      42.270  30.381  29.304  1.00  0.00     0.091 A 
ATOM     88  F   UNL A   1      44.552  30.941  28.851  1.00  0.00    -0.205 F 
ATOM     89  C   UNL A   1      41.005  30.751  29.795  1.00  0.00     0.022 A 
BRANCH  87  90
ATOM     90  S   UNL A   1      42.380  28.771  28.496  1.00  0.00     0.127 S 
ATOM     91  O   UNL A   1      42.676  29.153  27.117  1.00  0.00    -0.237 OA
ATOM     92  O   UNL A   1      43.496  28.131  29.198  1.00  0.00    -0.237 OA
ATOM     93  O   UNL A   1      41.092  28.133  28.727  1.00  0.00    -0.744 OA
ENDBRANCH  87  90
ENDBRANCH  59  83
BRANCH  71  94
ATOM     94  C   UNL A   1      43.063  39.275  26.889  1.00  0.00     0.023 A 
ATOM     95  C   UNL A   1      41.675  39.479  26.872  1.00  0.00     0.012 A 
ATOM     96  C   UNL A   1      43.842  40.170  26.100  1.00  0.00     0.148 A 
ATOM     97  C   UNL A   1      41.084  40.482  26.095  1.00  0.00     0.002 A 
ATOM     98  C   UNL A   1      43.262  41.255  25.452  1.00  0.00     0.091 A 
ATOM     99  F   UNL A   1      45.164  39.982  25.963  1.00  0.00    -0.205 F 
ATOM    100  C   UNL A   1      41.877  41.395  25.415  1.00  0.00     0.022 A 
BRANCH  98 101
ATOM    101  S   UNL A   1      44.294  42.601  24.846  1.00  0.00     0.127 S 
ATOM    102  O   UNL A   1      43.312  43.516  24.272  1.00  0.00    -0.237 OA
ATOM    103  O   UNL A   1      44.934  43.091  26.070  1.00  0.00    -0.237 OA
ATOM    104  O   UNL A   1      45.211  41.960  23.913  1.00  0.00    -0.744 OA
ENDBRANCH  98 101
ENDBRANCH  71  94
ENDBRANCH  45  46
ENDBRANCH  38  40
ENDBRANCH  37  38
ENDBRANCH  36  37
ENDBRANCH  35  36
ENDBRANCH  34  35
ENDBRANCH   1  34
TORSDOF 22
ENDMDL
