MODEL 1
REMARK VINA RESULT:     -10.8      0.000      0.000
REMARK SMILES Cc1onc(-c2cccc(Br)c2)c1C(=O)OCCOCCOCCOC(=O)c1ccc(-c2c3nc(c(-c4cccc(S(=O)(=O)[O-])c4F)c4ccc([nH]4)c(-c4cccc(S(=O)(=O)[O-])c4F)c4nc(c(-c5cccc(S(=O)(=O)[O-])c5F)c5ccc2[nH]5)C=C4)C=C3)cc1
REMARK SMILES IDX 21 1 20 2 19 3 18 4 17 5 16 6 14 7 15 8 13 9 1 10 2 11 3 12
REMARK SMILES IDX 4 13 5 14 6 15 7 16 12 17 8 18 10 19 9 20 11 21 22 22 23 23
REMARK SMILES IDX 24 24 25 25 26 26 27 27 28 28 29 29 90 30 30 31 89 32 31 33
REMARK SMILES IDX 32 34 33 35 83 36 34 37 88 38 82 39 84 40 35 41 87 42 81 43
REMARK SMILES IDX 80 44 36 46 68 47 48 48 67 49 49 50 52 51 66 52 85 53 50 54
REMARK SMILES IDX 51 55 65 57 86 58 53 59 37 60 38 61 46 62 39 63 41 64 47 65
REMARK SMILES IDX 40 66 42 67 43 68 44 69 45 70 69 71 70 72 78 73 71 74 73 75
REMARK SMILES IDX 79 76 72 77 74 78 75 79 76 80 77 81 54 82 55 83 63 84 56 85
REMARK SMILES IDX 58 86 64 87 57 88 59 89 60 90 61 91 62 92
REMARK H PARENT 84 45 52 56
REMARK Flexibility Score: inf
ROOT
ATOM      1  C   UNL A   1      33.465  20.263  24.920  1.00  0.00     0.188 C 
ENDROOT
BRANCH   1   2
ATOM      2  C   UNL A   1      32.818  21.381  25.755  1.00  0.00     0.188 C 
BRANCH   2   3
ATOM      3  O   UNL A   1      31.393  21.364  25.686  1.00  0.00    -0.376 OA
BRANCH   3   4
ATOM      4  C   UNL A   1      30.768  22.627  25.892  1.00  0.00     0.202 C 
BRANCH   4   5
ATOM      5  C   UNL A   1      30.959  23.518  24.664  1.00  0.00     0.261 C 
BRANCH   5   6
ATOM      6  O   UNL A   1      30.967  24.923  24.971  1.00  0.00    -0.459 OA
BRANCH   6   7
ATOM      7  C   UNL A   1      32.187  25.522  25.037  1.00  0.00     0.344 C 
ATOM      8  O   UNL A   1      32.751  25.790  26.089  1.00  0.00    -0.246 OA
BRANCH   7   9
ATOM      9  C   UNL A   1      32.771  25.749  23.732  1.00  0.00     0.130 A 
ATOM     10  C   UNL A   1      34.545  23.819  23.388  1.00  0.00     0.092 C 
ATOM     11  C   UNL A   1      33.740  25.016  23.078  1.00  0.00     0.148 A 
ATOM     12  O   UNL A   1      33.971  25.571  21.857  1.00  0.00    -0.360 OA
ATOM     13  N   UNL A   1      33.207  26.712  21.707  1.00  0.00    -0.079 NA
ATOM     14  C   UNL A   1      32.521  26.842  22.848  1.00  0.00     0.128 A 
BRANCH  14  15
ATOM     15  C   UNL A   1      31.746  28.032  23.154  1.00  0.00     0.006 A 
ATOM     16  C   UNL A   1      32.114  28.786  24.274  1.00  0.00     0.010 A 
ATOM     17  C   UNL A   1      30.595  28.365  22.439  1.00  0.00     0.026 A 
ATOM     18  C   UNL A   1      31.270  29.773  24.762  1.00  0.00     0.002 A 
ATOM     19  C   UNL A   1      29.785  29.404  22.901  1.00  0.00     0.018 A 
ATOM     20  C   UNL A   1      30.100  30.085  24.077  1.00  0.00     0.016 A 
ATOM     21  Br  UNL A   1      28.219  29.871  21.951  1.00  0.00    -0.051 Br
ENDBRANCH  14  15
ENDBRANCH   7   9
ENDBRANCH   6   7
ENDBRANCH   5   6
ENDBRANCH   4   5
ENDBRANCH   3   4
ENDBRANCH   2   3
ENDBRANCH   1   2
BRANCH   1  22
ATOM     22  O   UNL A   1      34.768  19.791  25.256  1.00  0.00    -0.376 OA
BRANCH  22  23
ATOM     23  C   UNL A   1      35.893  20.404  24.646  1.00  0.00     0.202 C 
BRANCH  23  24
ATOM     24  C   UNL A   1      36.769  21.277  25.547  1.00  0.00     0.261 C 
BRANCH  24  25
ATOM     25  O   UNL A   1      38.094  21.490  25.041  1.00  0.00    -0.460 OA
BRANCH  25  26
ATOM     26  C   UNL A   1      39.091  21.207  25.916  1.00  0.00     0.338 C 
ATOM     27  O   UNL A   1      39.638  20.129  26.078  1.00  0.00    -0.246 OA
BRANCH  26  28
ATOM     28  C   UNL A   1      39.537  22.441  26.600  1.00  0.00     0.060 A 
ATOM     29  C   UNL A   1      38.952  23.652  26.209  1.00  0.00     0.016 A 
ATOM     30  C   UNL A   1      40.563  22.431  27.549  1.00  0.00     0.016 A 
ATOM     31  C   UNL A   1      39.421  24.857  26.734  1.00  0.00     0.010 A 
ATOM     32  C   UNL A   1      41.047  23.642  28.057  1.00  0.00     0.010 A 
ATOM     33  C   UNL A   1      40.502  24.863  27.627  1.00  0.00    -0.014 A 
BRANCH  33  34
ATOM     34  C   UNL A   1      41.143  26.153  27.985  1.00  0.00     0.031 A 
ATOM     35  C   UNL A   1      42.511  26.459  27.452  1.00  0.00     0.074 A 
ATOM     36  C   UNL A   1      40.525  27.047  28.776  1.00  0.00     0.049 A 
ATOM     37  N   UNL A   1      43.225  27.544  27.596  1.00  0.00    -0.248 NA
ATOM     38  C   UNL A   1      43.171  25.395  26.680  1.00  0.00     0.031 C 
ATOM     39  C   UNL A   1      39.241  26.826  29.419  1.00  0.00     0.029 A 
ATOM     40  N   UNL A   1      40.887  28.308  29.178  1.00  0.00    -0.354 N 
ATOM     41  C   UNL A   1      44.436  27.281  26.973  1.00  0.00     0.074 A 
ATOM     42  C   UNL A   1      44.353  25.939  26.432  1.00  0.00     0.031 C 
ATOM     43  C   UNL A   1      38.884  27.933  30.089  1.00  0.00     0.029 A 
ATOM     44  C   UNL A   1      39.939  28.932  29.958  1.00  0.00     0.049 A 
ATOM     45  H   UNL A   1      41.742  28.729  28.931  1.00  0.00     0.167 HD
ATOM     46  C   UNL A   1      45.522  28.080  26.868  1.00  0.00     0.034 A 
ATOM     47  C   UNL A   1      39.922  30.163  30.507  1.00  0.00     0.034 A 
ATOM     48  C   UNL A   1      45.606  29.410  27.406  1.00  0.00     0.049 A 
ATOM     49  C   UNL A   1      41.115  31.060  30.311  1.00  0.00     0.074 A 
ATOM     50  C   UNL A   1      46.661  30.302  27.330  1.00  0.00     0.029 A 
ATOM     51  N   UNL A   1      44.604  30.037  28.132  1.00  0.00    -0.354 N 
ATOM     52  N   UNL A   1      42.203  30.842  29.614  1.00  0.00    -0.248 NA
ATOM     53  C   UNL A   1      41.079  32.371  30.976  1.00  0.00     0.031 C 
ATOM     54  C   UNL A   1      46.302  31.464  28.022  1.00  0.00     0.029 A 
ATOM     55  C   UNL A   1      45.017  31.301  28.514  1.00  0.00     0.049 A 
ATOM     56  H   UNL A   1      43.729  29.641  28.343  1.00  0.00     0.167 HD
ATOM     57  C   UNL A   1      42.982  31.984  29.756  1.00  0.00     0.074 A 
ATOM     58  C   UNL A   1      42.220  32.911  30.568  1.00  0.00     0.031 C 
ATOM     59  C   UNL A   1      44.230  32.229  29.287  1.00  0.00     0.034 A 
BRANCH  46  60
ATOM     60  C   UNL A   1      46.710  27.528  26.133  1.00  0.00     0.023 A 
ATOM     61  C   UNL A   1      46.793  27.680  24.735  1.00  0.00     0.012 A 
ATOM     62  C   UNL A   1      47.750  26.880  26.826  1.00  0.00     0.148 A 
ATOM     63  C   UNL A   1      47.886  27.174  24.033  1.00  0.00     0.002 A 
ATOM     64  C   UNL A   1      48.852  26.410  26.124  1.00  0.00     0.091 A 
ATOM     65  F   UNL A   1      47.630  26.715  28.151  1.00  0.00    -0.205 F 
ATOM     66  C   UNL A   1      48.919  26.548  24.728  1.00  0.00     0.022 A 
BRANCH  64  67
ATOM     67  S   UNL A   1      50.257  25.643  26.940  1.00  0.00     0.127 S 
ATOM     68  O   UNL A   1      51.174  25.441  25.820  1.00  0.00    -0.237 OA
ATOM     69  O   UNL A   1      50.669  26.681  27.887  1.00  0.00    -0.237 OA
ATOM     70  O   UNL A   1      49.743  24.430  27.560  1.00  0.00    -0.744 OA
ENDBRANCH  64  67
ENDBRANCH  46  60
BRANCH  47  71
ATOM     71  C   UNL A   1      38.719  30.641  31.247  1.00  0.00     0.023 A 
ATOM     72  C   UNL A   1      38.689  30.540  32.652  1.00  0.00     0.012 A 
ATOM     73  C   UNL A   1      37.625  31.230  30.584  1.00  0.00     0.148 A 
ATOM     74  C   UNL A   1      37.587  30.995  33.378  1.00  0.00     0.002 A 
ATOM     75  C   UNL A   1      36.560  31.742  31.318  1.00  0.00     0.091 A 
ATOM     76  F   UNL A   1      37.649  31.295  29.246  1.00  0.00    -0.205 F 
ATOM     77  C   UNL A   1      36.529  31.610  32.715  1.00  0.00     0.022 A 
BRANCH  75  78
ATOM     78  S   UNL A   1      35.254  32.692  30.531  1.00  0.00     0.127 S 
ATOM     79  O   UNL A   1      35.937  33.942  30.215  1.00  0.00    -0.237 OA
ATOM     80  O   UNL A   1      34.915  31.863  29.373  1.00  0.00    -0.237 OA
ATOM     81  O   UNL A   1      34.195  32.769  31.530  1.00  0.00    -0.744 OA
ENDBRANCH  75  78
ENDBRANCH  47  71
BRANCH  59  82
ATOM     82  C   UNL A   1      44.860  33.549  29.644  1.00  0.00     0.023 A 
ATOM     83  C   UNL A   1      45.570  33.671  30.856  1.00  0.00     0.012 A 
ATOM     84  C   UNL A   1      44.817  34.638  28.755  1.00  0.00     0.148 A 
ATOM     85  C   UNL A   1      46.208  34.866  31.186  1.00  0.00     0.002 A 
ATOM     86  C   UNL A   1      45.489  35.814  29.072  1.00  0.00     0.091 A 
ATOM     87  F   UNL A   1      44.119  34.510  27.617  1.00  0.00    -0.205 F 
ATOM     88  C   UNL A   1      46.177  35.931  30.291  1.00  0.00     0.022 A 
BRANCH  86  89
ATOM     89  S   UNL A   1      45.574  37.205  27.939  1.00  0.00     0.127 S 
ATOM     90  O   UNL A   1      44.285  37.855  28.167  1.00  0.00    -0.237 OA
ATOM     91  O   UNL A   1      46.730  37.949  28.442  1.00  0.00    -0.237 OA
ATOM     92  O   UNL A   1      45.761  36.627  26.615  1.00  0.00    -0.744 OA
ENDBRANCH  86  89
ENDBRANCH  59  82
ENDBRANCH  33  34
ENDBRANCH  26  28
ENDBRANCH  25  26
ENDBRANCH  24  25
ENDBRANCH  23  24
ENDBRANCH  22  23
ENDBRANCH   1  22
TORSDOF 21
ENDMDL
MODEL 2
REMARK VINA RESULT:     -10.6      1.267      7.584
REMARK SMILES Cc1onc(-c2cccc(Br)c2)c1C(=O)OCCOCCOCCOC(=O)c1ccc(-c2c3nc(c(-c4cccc(S(=O)(=O)[O-])c4F)c4ccc([nH]4)c(-c4cccc(S(=O)(=O)[O-])c4F)c4nc(c(-c5cccc(S(=O)(=O)[O-])c5F)c5ccc2[nH]5)C=C4)C=C3)cc1
REMARK SMILES IDX 21 1 20 2 19 3 18 4 17 5 16 6 14 7 15 8 13 9 1 10 2 11 3 12
REMARK SMILES IDX 4 13 5 14 6 15 7 16 12 17 8 18 10 19 9 20 11 21 22 22 23 23
REMARK SMILES IDX 24 24 25 25 26 26 27 27 28 28 29 29 90 30 30 31 89 32 31 33
REMARK SMILES IDX 32 34 33 35 83 36 34 37 88 38 82 39 84 40 35 41 87 42 81 43
REMARK SMILES IDX 80 44 36 46 68 47 48 48 67 49 49 50 52 51 66 52 85 53 50 54
REMARK SMILES IDX 51 55 65 57 86 58 53 59 37 60 38 61 46 62 39 63 41 64 47 65
REMARK SMILES IDX 40 66 42 67 43 68 44 69 45 70 69 71 70 72 78 73 71 74 73 75
REMARK SMILES IDX 79 76 72 77 74 78 75 79 76 80 77 81 54 82 55 83 63 84 56 85
REMARK SMILES IDX 58 86 64 87 57 88 59 89 60 90 61 91 62 92
REMARK H PARENT 84 45 52 56
REMARK Flexibility Score: inf
ROOT
ATOM      1  C   UNL A   1      33.661  19.962  24.679  1.00  0.00     0.188 C 
ENDROOT
BRANCH   1   2
ATOM      2  C   UNL A   1      33.037  21.021  25.604  1.00  0.00     0.188 C 
BRANCH   2   3
ATOM      3  O   UNL A   1      31.630  21.158  25.412  1.00  0.00    -0.376 OA
BRANCH   3   4
ATOM      4  C   UNL A   1      31.108  22.449  25.709  1.00  0.00     0.202 C 
BRANCH   4   5
ATOM      5  C   UNL A   1      30.872  23.235  24.419  1.00  0.00     0.261 C 
BRANCH   5   6
ATOM      6  O   UNL A   1      30.778  24.656  24.622  1.00  0.00    -0.459 OA
BRANCH   6   7
ATOM      7  C   UNL A   1      31.949  25.317  24.826  1.00  0.00     0.344 C 
ATOM      8  O   UNL A   1      32.384  25.591  25.937  1.00  0.00    -0.246 OA
BRANCH   7   9
ATOM      9  C   UNL A   1      32.653  25.605  23.595  1.00  0.00     0.130 A 
ATOM     10  C   UNL A   1      34.366  23.620  23.260  1.00  0.00     0.092 C 
ATOM     11  C   UNL A   1      33.642  24.873  22.972  1.00  0.00     0.148 A 
ATOM     12  O   UNL A   1      34.002  25.499  21.818  1.00  0.00    -0.360 OA
ATOM     13  N   UNL A   1      33.302  26.683  21.689  1.00  0.00    -0.079 NA
ATOM     14  C   UNL A   1      32.527  26.767  22.775  1.00  0.00     0.128 A 
BRANCH  14  15
ATOM     15  C   UNL A   1      31.779  27.969  23.101  1.00  0.00     0.006 A 
ATOM     16  C   UNL A   1      32.207  28.733  24.194  1.00  0.00     0.010 A 
ATOM     17  C   UNL A   1      30.600  28.307  22.436  1.00  0.00     0.026 A 
ATOM     18  C   UNL A   1      31.397  29.736  24.708  1.00  0.00     0.002 A 
ATOM     19  C   UNL A   1      29.823  29.360  22.922  1.00  0.00     0.018 A 
ATOM     20  C   UNL A   1      30.200  30.052  24.073  1.00  0.00     0.016 A 
ATOM     21  Br  UNL A   1      28.220  29.833  22.041  1.00  0.00    -0.051 Br
ENDBRANCH  14  15
ENDBRANCH   7   9
ENDBRANCH   6   7
ENDBRANCH   5   6
ENDBRANCH   4   5
ENDBRANCH   3   4
ENDBRANCH   2   3
ENDBRANCH   1   2
BRANCH   1  22
ATOM     22  O   UNL A   1      34.949  19.429  24.980  1.00  0.00    -0.376 OA
BRANCH  22  23
ATOM     23  C   UNL A   1      36.098  20.147  24.560  1.00  0.00     0.202 C 
BRANCH  23  24
ATOM     24  C   UNL A   1      36.789  21.011  25.619  1.00  0.00     0.261 C 
BRANCH  24  25
ATOM     25  O   UNL A   1      38.049  21.551  25.196  1.00  0.00    -0.460 OA
BRANCH  25  26
ATOM     26  C   UNL A   1      39.093  21.267  26.015  1.00  0.00     0.338 C 
ATOM     27  O   UNL A   1      39.631  20.182  26.166  1.00  0.00    -0.246 OA
BRANCH  26  28
ATOM     28  C   UNL A   1      39.601  22.506  26.644  1.00  0.00     0.060 A 
ATOM     29  C   UNL A   1      39.045  23.723  26.231  1.00  0.00     0.016 A 
ATOM     30  C   UNL A   1      40.657  22.491  27.560  1.00  0.00     0.016 A 
ATOM     31  C   UNL A   1      39.571  24.928  26.701  1.00  0.00     0.010 A 
ATOM     32  C   UNL A   1      41.197  23.700  28.013  1.00  0.00     0.010 A 
ATOM     33  C   UNL A   1      40.680  24.925  27.561  1.00  0.00    -0.014 A 
BRANCH  33  34
ATOM     34  C   UNL A   1      41.375  26.202  27.855  1.00  0.00     0.031 A 
ATOM     35  C   UNL A   1      40.676  27.240  28.681  1.00  0.00     0.074 A 
ATOM     36  C   UNL A   1      42.615  26.447  27.395  1.00  0.00     0.049 A 
ATOM     37  N   UNL A   1      41.122  28.395  29.099  1.00  0.00    -0.248 NA
ATOM     38  C   UNL A   1      39.285  26.951  29.063  1.00  0.00     0.031 C 
ATOM     39  C   UNL A   1      43.356  25.557  26.517  1.00  0.00     0.029 A 
ATOM     40  N   UNL A   1      43.466  27.506  27.593  1.00  0.00    -0.354 N 
ATOM     41  C   UNL A   1      40.055  28.993  29.755  1.00  0.00     0.074 A 
ATOM     42  C   UNL A   1      38.945  28.064  29.696  1.00  0.00     0.031 C 
ATOM     43  C   UNL A   1      44.577  26.070  26.293  1.00  0.00     0.029 A 
ATOM     44  C   UNL A   1      44.689  27.352  26.981  1.00  0.00     0.049 A 
ATOM     45  H   UNL A   1      43.225  28.300  28.123  1.00  0.00     0.167 HD
ATOM     46  C   UNL A   1      40.002  30.209  30.344  1.00  0.00     0.034 A 
ATOM     47  C   UNL A   1      45.775  28.150  26.972  1.00  0.00     0.034 A 
ATOM     48  C   UNL A   1      41.102  31.133  30.400  1.00  0.00     0.049 A 
ATOM     49  C   UNL A   1      45.714  29.466  27.700  1.00  0.00     0.074 A 
ATOM     50  C   UNL A   1      41.145  32.381  30.996  1.00  0.00     0.029 A 
ATOM     51  N   UNL A   1      42.348  30.918  29.831  1.00  0.00    -0.354 N 
ATOM     52  N   UNL A   1      44.737  29.963  28.421  1.00  0.00    -0.248 NA
ATOM     53  C   UNL A   1      46.899  30.332  27.615  1.00  0.00     0.031 C 
ATOM     54  C   UNL A   1      42.414  32.927  30.774  1.00  0.00     0.029 A 
ATOM     55  C   UNL A   1      43.166  32.011  30.055  1.00  0.00     0.049 A 
ATOM     56  H   UNL A   1      42.611  30.107  29.340  1.00  0.00     0.167 HD
ATOM     57  C   UNL A   1      45.188  31.197  28.873  1.00  0.00     0.074 A 
ATOM     58  C   UNL A   1      46.543  31.352  28.385  1.00  0.00     0.031 C 
ATOM     59  C   UNL A   1      44.527  32.133  29.598  1.00  0.00     0.034 A 
BRANCH  46  60
ATOM     60  C   UNL A   1      38.701  30.604  30.982  1.00  0.00     0.023 A 
ATOM     61  C   UNL A   1      38.475  30.305  32.340  1.00  0.00     0.012 A 
ATOM     62  C   UNL A   1      37.715  31.288  30.246  1.00  0.00     0.148 A 
ATOM     63  C   UNL A   1      37.274  30.661  32.951  1.00  0.00     0.002 A 
ATOM     64  C   UNL A   1      36.536  31.671  30.872  1.00  0.00     0.091 A 
ATOM     65  F   UNL A   1      37.938  31.529  28.947  1.00  0.00    -0.205 F 
ATOM     66  C   UNL A   1      36.309  31.352  32.221  1.00  0.00     0.022 A 
BRANCH  64  67
ATOM     67  S   UNL A   1      35.262  32.616  30.027  1.00  0.00     0.127 S 
ATOM     68  O   UNL A   1      36.005  33.803  29.607  1.00  0.00    -0.237 OA
ATOM     69  O   UNL A   1      34.882  31.717  28.937  1.00  0.00    -0.237 OA
ATOM     70  O   UNL A   1      34.216  32.844  31.014  1.00  0.00    -0.744 OA
ENDBRANCH  64  67
ENDBRANCH  46  60
BRANCH  47  71
ATOM     71  C   UNL A   1      47.030  27.708  26.298  1.00  0.00     0.023 A 
ATOM     72  C   UNL A   1      48.001  27.008  27.042  1.00  0.00     0.012 A 
ATOM     73  C   UNL A   1      47.257  27.934  24.927  1.00  0.00     0.148 A 
ATOM     74  C   UNL A   1      49.179  26.562  26.440  1.00  0.00     0.002 A 
ATOM     75  C   UNL A   1      48.401  27.429  24.319  1.00  0.00     0.091 A 
ATOM     76  F   UNL A   1      46.342  28.627  24.235  1.00  0.00    -0.205 F 
ATOM     77  C   UNL A   1      49.373  26.758  25.076  1.00  0.00     0.022 A 
BRANCH  75  78
ATOM     78  S   UNL A   1      48.622  27.505  22.537  1.00  0.00     0.127 S 
ATOM     79  O   UNL A   1      49.906  28.188  22.419  1.00  0.00    -0.237 OA
ATOM     80  O   UNL A   1      48.639  26.090  22.161  1.00  0.00    -0.237 OA
ATOM     81  O   UNL A   1      47.457  28.231  22.047  1.00  0.00    -0.744 OA
ENDBRANCH  75  78
ENDBRANCH  47  71
BRANCH  59  82
ATOM     82  C   UNL A   1      45.253  33.416  29.903  1.00  0.00     0.023 A 
ATOM     83  C   UNL A   1      46.147  33.463  30.992  1.00  0.00     0.012 A 
ATOM     84  C   UNL A   1      45.114  34.544  29.073  1.00  0.00     0.148 A 
ATOM     85  C   UNL A   1      46.873  34.621  31.264  1.00  0.00     0.002 A 
ATOM     86  C   UNL A   1      45.870  35.683  29.326  1.00  0.00     0.091 A 
ATOM     87  F   UNL A   1      44.243  34.487  28.055  1.00  0.00    -0.205 F 
ATOM     88  C   UNL A   1      46.744  35.725  30.426  1.00  0.00     0.022 A 
BRANCH  86  89
ATOM     89  S   UNL A   1      45.831  37.119  28.248  1.00  0.00     0.127 S 
ATOM     90  O   UNL A   1      46.338  36.564  26.995  1.00  0.00    -0.237 OA
ATOM     91  O   UNL A   1      44.408  37.461  28.231  1.00  0.00    -0.237 OA
ATOM     92  O   UNL A   1      46.681  38.117  28.884  1.00  0.00    -0.744 OA
ENDBRANCH  86  89
ENDBRANCH  59  82
ENDBRANCH  33  34
ENDBRANCH  26  28
ENDBRANCH  25  26
ENDBRANCH  24  25
ENDBRANCH  23  24
ENDBRANCH  22  23
ENDBRANCH   1  22
TORSDOF 21
ENDMDL
MODEL 3
REMARK VINA RESULT:     -10.4      5.235      8.221
REMARK SMILES Cc1onc(-c2cccc(Br)c2)c1C(=O)OCCOCCOCCOC(=O)c1ccc(-c2c3nc(c(-c4cccc(S(=O)(=O)[O-])c4F)c4ccc([nH]4)c(-c4cccc(S(=O)(=O)[O-])c4F)c4nc(c(-c5cccc(S(=O)(=O)[O-])c5F)c5ccc2[nH]5)C=C4)C=C3)cc1
REMARK SMILES IDX 21 1 20 2 19 3 18 4 17 5 16 6 14 7 15 8 13 9 1 10 2 11 3 12
REMARK SMILES IDX 4 13 5 14 6 15 7 16 12 17 8 18 10 19 9 20 11 21 22 22 23 23
REMARK SMILES IDX 24 24 25 25 26 26 27 27 28 28 29 29 90 30 30 31 89 32 31 33
REMARK SMILES IDX 32 34 33 35 83 36 34 37 88 38 82 39 84 40 35 41 87 42 81 43
REMARK SMILES IDX 80 44 36 46 68 47 48 48 67 49 49 50 52 51 66 52 85 53 50 54
REMARK SMILES IDX 51 55 65 57 86 58 53 59 37 60 38 61 46 62 39 63 41 64 47 65
REMARK SMILES IDX 40 66 42 67 43 68 44 69 45 70 69 71 70 72 78 73 71 74 73 75
REMARK SMILES IDX 79 76 72 77 74 78 75 79 76 80 77 81 54 82 55 83 63 84 56 85
REMARK SMILES IDX 58 86 64 87 57 88 59 89 60 90 61 91 62 92
REMARK H PARENT 84 45 52 56
REMARK Flexibility Score: inf
ROOT
ATOM      1  C   UNL A   1      32.299  29.570  25.306  1.00  0.00     0.188 C 
ENDROOT
BRANCH   1   2
ATOM      2  C   UNL A   1      33.590  28.748  25.461  1.00  0.00     0.188 C 
BRANCH   2   3
ATOM      3  O   UNL A   1      33.871  27.945  24.316  1.00  0.00    -0.376 OA
BRANCH   3   4
ATOM      4  C   UNL A   1      34.342  28.664  23.181  1.00  0.00     0.202 C 
BRANCH   4   5
ATOM      5  C   UNL A   1      33.761  28.070  21.898  1.00  0.00     0.261 C 
BRANCH   5   6
ATOM      6  O   UNL A   1      33.767  26.631  21.879  1.00  0.00    -0.459 OA
BRANCH   6   7
ATOM      7  C   UNL A   1      32.589  26.025  21.568  1.00  0.00     0.344 C 
ATOM      8  O   UNL A   1      32.319  25.611  20.448  1.00  0.00    -0.246 OA
BRANCH   7   9
ATOM      9  C   UNL A   1      31.720  25.866  22.714  1.00  0.00     0.130 A 
ATOM     10  C   UNL A   1      30.052  27.915  22.646  1.00  0.00     0.092 C 
ATOM     11  C   UNL A   1      30.673  26.665  23.124  1.00  0.00     0.148 A 
ATOM     12  O   UNL A   1      30.111  26.127  24.240  1.00  0.00    -0.360 OA
ATOM     13  N   UNL A   1      30.812  25.000  24.623  1.00  0.00    -0.079 NA
ATOM     14  C   UNL A   1      31.802  24.869  23.733  1.00  0.00     0.128 A 
BRANCH  14  15
ATOM     15  C   UNL A   1      32.876  23.907  23.908  1.00  0.00     0.006 A 
ATOM     16  C   UNL A   1      32.625  22.573  23.567  1.00  0.00     0.010 A 
ATOM     17  C   UNL A   1      34.087  24.255  24.507  1.00  0.00     0.026 A 
ATOM     18  C   UNL A   1      33.510  21.574  23.946  1.00  0.00     0.002 A 
ATOM     19  C   UNL A   1      35.002  23.250  24.827  1.00  0.00     0.018 A 
ATOM     20  C   UNL A   1      34.703  21.910  24.580  1.00  0.00     0.016 A 
ATOM     21  Br  UNL A   1      36.647  23.697  25.642  1.00  0.00    -0.051 Br
ENDBRANCH  14  15
ENDBRANCH   7   9
ENDBRANCH   6   7
ENDBRANCH   5   6
ENDBRANCH   4   5
ENDBRANCH   3   4
ENDBRANCH   2   3
ENDBRANCH   1   2
BRANCH   1  22
ATOM     22  O   UNL A   1      31.756  30.255  26.432  1.00  0.00    -0.376 OA
BRANCH  22  23
ATOM     23  C   UNL A   1      31.082  31.486  26.220  1.00  0.00     0.202 C 
BRANCH  23  24
ATOM     24  C   UNL A   1      31.740  32.736  26.808  1.00  0.00     0.261 C 
BRANCH  24  25
ATOM     25  O   UNL A   1      33.174  32.711  26.768  1.00  0.00    -0.460 OA
BRANCH  25  26
ATOM     26  C   UNL A   1      33.783  33.414  27.756  1.00  0.00     0.338 C 
ATOM     27  O   UNL A   1      33.367  34.424  28.299  1.00  0.00    -0.246 OA
BRANCH  26  28
ATOM     28  C   UNL A   1      35.010  32.715  28.199  1.00  0.00     0.060 A 
ATOM     29  C   UNL A   1      34.884  31.391  28.638  1.00  0.00     0.016 A 
ATOM     30  C   UNL A   1      36.248  33.362  28.263  1.00  0.00     0.016 A 
ATOM     31  C   UNL A   1      35.986  30.726  29.180  1.00  0.00     0.010 A 
ATOM     32  C   UNL A   1      37.345  32.701  28.827  1.00  0.00     0.010 A 
ATOM     33  C   UNL A   1      37.212  31.393  29.320  1.00  0.00    -0.014 A 
BRANCH  33  34
ATOM     34  C   UNL A   1      38.297  30.763  30.114  1.00  0.00     0.031 A 
ATOM     35  C   UNL A   1      39.216  29.785  29.446  1.00  0.00     0.074 A 
ATOM     36  C   UNL A   1      38.467  31.049  31.416  1.00  0.00     0.049 A 
ATOM     37  N   UNL A   1      40.255  29.166  29.939  1.00  0.00    -0.248 NA
ATOM     38  C   UNL A   1      38.908  29.439  28.050  1.00  0.00     0.031 C 
ATOM     39  C   UNL A   1      37.590  31.913  32.190  1.00  0.00     0.029 A 
ATOM     40  N   UNL A   1      39.423  30.651  32.317  1.00  0.00    -0.354 N 
ATOM     41  C   UNL A   1      40.702  28.323  28.932  1.00  0.00     0.074 A 
ATOM     42  C   UNL A   1      39.831  28.524  27.792  1.00  0.00     0.031 C 
ATOM     43  C   UNL A   1      38.073  32.033  33.437  1.00  0.00     0.029 A 
ATOM     44  C   UNL A   1      39.277  31.217  33.564  1.00  0.00     0.049 A 
ATOM     45  H   UNL A   1      40.145  30.020  32.094  1.00  0.00     0.167 HD
ATOM     46  C   UNL A   1      41.737  27.453  28.957  1.00  0.00     0.034 A 
ATOM     47  C   UNL A   1      40.023  31.093  34.679  1.00  0.00     0.034 A 
ATOM     48  C   UNL A   1      42.600  27.250  30.088  1.00  0.00     0.049 A 
ATOM     49  C   UNL A   1      41.215  30.174  34.656  1.00  0.00     0.074 A 
ATOM     50  C   UNL A   1      43.689  26.404  30.196  1.00  0.00     0.029 A 
ATOM     51  N   UNL A   1      42.467  27.890  31.312  1.00  0.00    -0.354 N 
ATOM     52  N   UNL A   1      41.697  29.477  33.656  1.00  0.00    -0.248 NA
ATOM     53  C   UNL A   1      41.965  30.023  35.911  1.00  0.00     0.031 C 
ATOM     54  C   UNL A   1      44.206  26.520  31.492  1.00  0.00     0.029 A 
ATOM     55  C   UNL A   1      43.449  27.453  32.183  1.00  0.00     0.049 A 
ATOM     56  H   UNL A   1      41.776  28.556  31.528  1.00  0.00     0.167 HD
ATOM     57  C   UNL A   1      42.804  28.805  34.159  1.00  0.00     0.074 A 
ATOM     58  C   UNL A   1      42.949  29.214  35.542  1.00  0.00     0.031 C 
ATOM     59  C   UNL A   1      43.606  27.902  33.543  1.00  0.00     0.034 A 
BRANCH  46  60
ATOM     60  C   UNL A   1      41.992  26.657  27.709  1.00  0.00     0.023 A 
ATOM     61  C   UNL A   1      42.525  27.297  26.574  1.00  0.00     0.012 A 
ATOM     62  C   UNL A   1      41.726  25.275  27.669  1.00  0.00     0.148 A 
ATOM     63  C   UNL A   1      42.768  26.578  25.405  1.00  0.00     0.002 A 
ATOM     64  C   UNL A   1      42.004  24.558  26.512  1.00  0.00     0.091 A 
ATOM     65  F   UNL A   1      41.186  24.695  28.749  1.00  0.00    -0.205 F 
ATOM     66  C   UNL A   1      42.517  25.207  25.377  1.00  0.00     0.022 A 
BRANCH  64  67
ATOM     67  S   UNL A   1      41.769  22.780  26.403  1.00  0.00     0.127 S 
ATOM     68  O   UNL A   1      40.313  22.680  26.313  1.00  0.00    -0.237 OA
ATOM     69  O   UNL A   1      42.480  22.448  25.168  1.00  0.00    -0.237 OA
ATOM     70  O   UNL A   1      42.364  22.225  27.611  1.00  0.00    -0.744 OA
ENDBRANCH  64  67
ENDBRANCH  46  60
BRANCH  47  71
ATOM     71  C   UNL A   1      39.700  31.896  35.894  1.00  0.00     0.023 A 
ATOM     72  C   UNL A   1      40.364  33.121  36.106  1.00  0.00     0.012 A 
ATOM     73  C   UNL A   1      38.720  31.486  36.818  1.00  0.00     0.148 A 
ATOM     74  C   UNL A   1      40.074  33.908  37.221  1.00  0.00     0.002 A 
ATOM     75  C   UNL A   1      38.389  32.306  37.892  1.00  0.00     0.091 A 
ATOM     76  F   UNL A   1      38.116  30.305  36.625  1.00  0.00    -0.205 F 
ATOM     77  C   UNL A   1      39.076  33.509  38.107  1.00  0.00     0.022 A 
BRANCH  75  78
ATOM     78  S   UNL A   1      37.000  31.923  38.964  1.00  0.00     0.127 S 
ATOM     79  O   UNL A   1      35.930  32.721  38.372  1.00  0.00    -0.237 OA
ATOM     80  O   UNL A   1      36.857  30.477  38.793  1.00  0.00    -0.237 OA
ATOM     81  O   UNL A   1      37.438  32.319  40.297  1.00  0.00    -0.744 OA
ENDBRANCH  75  78
ENDBRANCH  47  71
BRANCH  59  82
ATOM     82  C   UNL A   1      44.712  27.285  34.358  1.00  0.00     0.023 A 
ATOM     83  C   UNL A   1      45.914  27.998  34.543  1.00  0.00     0.012 A 
ATOM     84  C   UNL A   1      44.535  26.046  35.002  1.00  0.00     0.148 A 
ATOM     85  C   UNL A   1      46.933  27.474  35.337  1.00  0.00     0.002 A 
ATOM     86  C   UNL A   1      45.540  25.549  35.825  1.00  0.00     0.091 A 
ATOM     87  F   UNL A   1      43.393  25.375  34.797  1.00  0.00    -0.205 F 
ATOM     88  C   UNL A   1      46.742  26.257  35.986  1.00  0.00     0.022 A 
BRANCH  86  89
ATOM     89  S   UNL A   1      45.342  24.032  36.767  1.00  0.00     0.127 S 
ATOM     90  O   UNL A   1      44.780  24.531  38.020  1.00  0.00    -0.237 OA
ATOM     91  O   UNL A   1      44.407  23.268  35.941  1.00  0.00    -0.237 OA
ATOM     92  O   UNL A   1      46.673  23.448  36.864  1.00  0.00    -0.744 OA
ENDBRANCH  86  89
ENDBRANCH  59  82
ENDBRANCH  33  34
ENDBRANCH  26  28
ENDBRANCH  25  26
ENDBRANCH  24  25
ENDBRANCH  23  24
ENDBRANCH  22  23
ENDBRANCH   1  22
TORSDOF 21
ENDMDL
