MODEL 1
REMARK VINA RESULT:      -7.3      0.000      0.000
REMARK SMILES O=C(OCCOCCOCCOC(=O)c1cc(NC(=O)c2ccccc2Cl)ccc1N1CCC[C@H](C[NH+]2CCCC2)C1)c1ccc(-c2c3nc(c(-c4cccc(S(=O)(=O)[O-])c4F)c4ccc([nH]4)c(-c4cccc(S(=O)(=O)[O-])c4F)c4nc(c(-c5cccc(S(=O)(=O)[O-])c5F)c5ccc2[nH]5)C=C4)C=C3)cc1
REMARK SMILES IDX 7 1 6 2 5 3 4 4 3 5 2 6 1 7 43 8 44 9 105 10 45 11 104 12
REMARK SMILES IDX 46 13 47 14 48 15 98 16 49 17 103 18 97 19 99 20 50 21
REMARK SMILES IDX 102 22 96 23 95 24 51 26 83 27 63 28 82 29 64 30 67 31 81 32
REMARK SMILES IDX 100 33 65 34 66 35 80 37 101 38 68 39 52 40 53 41 61 42
REMARK SMILES IDX 54 43 56 44 62 45 55 46 57 47 58 48 59 49 60 50 84 51 85 52
REMARK SMILES IDX 93 53 86 54 88 55 94 56 87 57 89 58 90 59 91 60 92 61 69 62
REMARK SMILES IDX 70 63 78 64 71 65 73 66 79 67 72 68 74 69 75 70 76 71 77 72
REMARK SMILES IDX 8 73 9 74 10 75 11 76 12 77 13 78 14 79 15 80 16 81 30 82
REMARK SMILES IDX 17 83 29 84 28 85 31 86 32 87 42 88 33 89 35 90 34 91 36 92
REMARK SMILES IDX 37 93 38 94 41 95 39 97 40 98 18 99 19 100 20 102 21 103
REMARK SMILES IDX 22 104 26 105 23 106 25 107 27 108 24 109
REMARK H PARENT 99 25 67 36 37 96 18 101
REMARK Flexibility Score: inf
ROOT
ATOM      1  C   UNL A   1      42.997  22.317  24.991  1.00  0.00     0.188 C 
ENDROOT
BRANCH   1   2
ATOM      2  O   UNL A   1      43.884  23.365  24.612  1.00  0.00    -0.376 OA
BRANCH   2   3
ATOM      3  C   UNL A   1      45.108  22.920  24.019  1.00  0.00     0.202 C 
BRANCH   3   4
ATOM      4  C   UNL A   1      46.408  23.449  24.656  1.00  0.00     0.261 C 
BRANCH   4   5
ATOM      5  O   UNL A   1      47.058  24.469  23.881  1.00  0.00    -0.460 OA
BRANCH   5   6
ATOM      6  C   UNL A   1      47.833  25.497  24.307  1.00  0.00     0.338 C 
ATOM      7  O   UNL A   1      48.679  25.933  23.528  1.00  0.00    -0.246 OA
BRANCH   6   8
ATOM      8  C   UNL A   1      47.759  26.103  25.679  1.00  0.00     0.060 A 
ATOM      9  C   UNL A   1      48.365  27.296  26.070  1.00  0.00     0.016 A 
ATOM     10  C   UNL A   1      46.984  25.427  26.642  1.00  0.00     0.016 A 
ATOM     11  C   UNL A   1      48.317  27.738  27.388  1.00  0.00     0.010 A 
ATOM     12  C   UNL A   1      46.884  25.894  27.960  1.00  0.00     0.010 A 
ATOM     13  C   UNL A   1      47.614  27.017  28.352  1.00  0.00    -0.014 A 
BRANCH  13  14
ATOM     14  C   UNL A   1      47.874  27.363  29.766  1.00  0.00     0.031 A 
ATOM     15  C   UNL A   1      47.034  28.433  30.398  1.00  0.00     0.074 A 
ATOM     16  C   UNL A   1      48.704  26.606  30.507  1.00  0.00     0.049 A 
ATOM     17  N   UNL A   1      46.944  28.772  31.656  1.00  0.00    -0.248 NA
ATOM     18  C   UNL A   1      46.182  29.231  29.499  1.00  0.00     0.031 C 
ATOM     19  C   UNL A   1      49.571  25.559  29.976  1.00  0.00     0.029 A 
ATOM     20  N   UNL A   1      48.917  26.564  31.863  1.00  0.00    -0.354 N 
ATOM     21  C   UNL A   1      46.083  29.859  31.689  1.00  0.00     0.074 A 
ATOM     22  C   UNL A   1      45.659  30.115  30.333  1.00  0.00     0.031 C 
ATOM     23  C   UNL A   1      50.175  24.938  31.001  1.00  0.00     0.029 A 
ATOM     24  C   UNL A   1      49.737  25.530  32.256  1.00  0.00     0.049 A 
ATOM     25  H   UNL A   1      48.522  27.210  32.492  1.00  0.00     0.167 HD
ATOM     26  C   UNL A   1      45.682  30.584  32.757  1.00  0.00     0.034 A 
ATOM     27  C   UNL A   1      50.067  25.093  33.489  1.00  0.00     0.034 A 
ATOM     28  C   UNL A   1      46.099  30.307  34.102  1.00  0.00     0.049 A 
ATOM     29  C   UNL A   1      49.519  25.849  34.670  1.00  0.00     0.074 A 
ATOM     30  C   UNL A   1      45.818  31.010  35.257  1.00  0.00     0.029 A 
ATOM     31  N   UNL A   1      46.889  29.226  34.467  1.00  0.00    -0.354 N 
ATOM     32  N   UNL A   1      48.676  26.855  34.683  1.00  0.00    -0.248 NA
ATOM     33  C   UNL A   1      49.964  25.418  36.002  1.00  0.00     0.031 C 
ATOM     34  C   UNL A   1      46.448  30.356  36.323  1.00  0.00     0.029 A 
ATOM     35  C   UNL A   1      47.097  29.233  35.833  1.00  0.00     0.049 A 
ATOM     36  H   UNL A   1      47.250  28.554  33.844  1.00  0.00     0.167 HD
ATOM     37  C   UNL A   1      48.513  27.196  36.019  1.00  0.00     0.074 A 
ATOM     38  C   UNL A   1      49.277  26.234  36.790  1.00  0.00     0.031 C 
ATOM     39  C   UNL A   1      47.843  28.240  36.563  1.00  0.00     0.034 A 
BRANCH  26  40
ATOM     40  C   UNL A   1      44.778  31.752  32.484  1.00  0.00     0.023 A 
ATOM     41  C   UNL A   1      45.328  33.008  32.159  1.00  0.00     0.012 A 
ATOM     42  C   UNL A   1      43.380  31.612  32.587  1.00  0.00     0.148 A 
ATOM     43  C   UNL A   1      44.502  34.117  31.979  1.00  0.00     0.002 A 
ATOM     44  C   UNL A   1      42.562  32.713  32.367  1.00  0.00     0.091 A 
ATOM     45  F   UNL A   1      42.882  30.414  32.925  1.00  0.00    -0.205 F 
ATOM     46  C   UNL A   1      43.121  33.969  32.077  1.00  0.00     0.022 A 
BRANCH  44  47
ATOM     47  S   UNL A   1      40.771  32.616  32.419  1.00  0.00     0.127 S 
ATOM     48  O   UNL A   1      40.514  32.660  33.859  1.00  0.00    -0.237 OA
ATOM     49  O   UNL A   1      40.381  33.825  31.693  1.00  0.00    -0.237 OA
ATOM     50  O   UNL A   1      40.412  31.366  31.764  1.00  0.00    -0.744 OA
ENDBRANCH  44  47
ENDBRANCH  26  40
BRANCH  27  51
ATOM     51  C   UNL A   1      50.902  23.866  33.676  1.00  0.00     0.023 A 
ATOM     52  C   UNL A   1      52.309  23.952  33.603  1.00  0.00     0.012 A 
ATOM     53  C   UNL A   1      50.324  22.615  33.954  1.00  0.00     0.148 A 
ATOM     54  C   UNL A   1      53.112  22.821  33.776  1.00  0.00     0.002 A 
ATOM     55  C   UNL A   1      51.132  21.511  34.211  1.00  0.00     0.091 A 
ATOM     56  F   UNL A   1      48.988  22.515  33.982  1.00  0.00    -0.205 F 
ATOM     57  C   UNL A   1      52.524  21.602  34.099  1.00  0.00     0.022 A 
BRANCH  55  58
ATOM     58  S   UNL A   1      50.409  19.994  34.845  1.00  0.00     0.127 S 
ATOM     59  O   UNL A   1      49.849  20.431  36.119  1.00  0.00    -0.237 OA
ATOM     60  O   UNL A   1      49.422  19.661  33.819  1.00  0.00    -0.237 OA
ATOM     61  O   UNL A   1      51.535  19.067  34.906  1.00  0.00    -0.744 OA
ENDBRANCH  55  58
ENDBRANCH  27  51
BRANCH  39  62
ATOM     62  C   UNL A   1      47.935  28.405  38.054  1.00  0.00     0.023 A 
ATOM     63  C   UNL A   1      49.070  29.030  38.610  1.00  0.00     0.012 A 
ATOM     64  C   UNL A   1      46.881  28.000  38.892  1.00  0.00     0.148 A 
ATOM     65  C   UNL A   1      49.168  29.218  39.986  1.00  0.00     0.002 A 
ATOM     66  C   UNL A   1      46.966  28.234  40.258  1.00  0.00     0.091 A 
ATOM     67  F   UNL A   1      45.824  27.386  38.341  1.00  0.00    -0.205 F 
ATOM     68  C   UNL A   1      48.113  28.832  40.809  1.00  0.00     0.022 A 
BRANCH  66  69
ATOM     69  S   UNL A   1      45.615  27.851  41.375  1.00  0.00     0.127 S 
ATOM     70  O   UNL A   1      46.250  28.020  42.679  1.00  0.00    -0.237 OA
ATOM     71  O   UNL A   1      44.629  28.878  41.036  1.00  0.00    -0.237 OA
ATOM     72  O   UNL A   1      45.203  26.492  41.047  1.00  0.00    -0.744 OA
ENDBRANCH  66  69
ENDBRANCH  39  62
ENDBRANCH  13  14
ENDBRANCH   6   8
ENDBRANCH   5   6
ENDBRANCH   4   5
ENDBRANCH   3   4
ENDBRANCH   2   3
ENDBRANCH   1   2
BRANCH   1  73
ATOM     73  C   UNL A   1      43.465  21.346  26.081  1.00  0.00     0.188 C 
BRANCH  73  74
ATOM     74  O   UNL A   1      42.646  21.155  27.223  1.00  0.00    -0.376 OA
BRANCH  74  75
ATOM     75  C   UNL A   1      41.496  21.982  27.349  1.00  0.00     0.202 C 
BRANCH  75  76
ATOM     76  C   UNL A   1      41.488  23.117  28.375  1.00  0.00     0.261 C 
BRANCH  76  77
ATOM     77  O   UNL A   1      42.696  23.304  29.129  1.00  0.00    -0.460 OA
BRANCH  77  78
ATOM     78  C   UNL A   1      43.473  24.338  28.705  1.00  0.00     0.340 C 
ATOM     79  O   UNL A   1      43.885  24.506  27.567  1.00  0.00    -0.246 OA
BRANCH  78  80
ATOM     80  C   UNL A   1      43.770  25.289  29.791  1.00  0.00     0.085 A 
ATOM     81  C   UNL A   1      44.601  24.805  30.824  1.00  0.00     0.044 A 
ATOM     82  C   UNL A   1      43.161  26.554  29.863  1.00  0.00     0.051 A 
ATOM     83  C   UNL A   1      44.834  25.566  31.968  1.00  0.00     0.042 A 
ATOM     84  C   UNL A   1      43.383  27.279  31.048  1.00  0.00     0.029 A 
ATOM     85  C   UNL A   1      44.188  26.793  32.086  1.00  0.00     0.028 A 
BRANCH  82  86
ATOM     86  N   UNL A   1      42.339  27.097  28.894  1.00  0.00    -0.370 N 
ATOM     87  C   UNL A   1      42.886  28.039  27.925  1.00  0.00     0.116 C 
ATOM     88  C   UNL A   1      40.969  26.667  28.674  1.00  0.00     0.126 C 
ATOM     89  C   UNL A   1      42.014  29.286  27.885  1.00  0.00     0.022 C 
ATOM     90  C   UNL A   1      40.021  27.870  28.629  1.00  0.00     0.064 C 
ATOM     91  C   UNL A   1      40.556  28.908  27.624  1.00  0.00     0.013 C 
BRANCH  90  92
ATOM     92  C   UNL A   1      39.779  28.385  30.069  1.00  0.00     0.267 C 
BRANCH  92  93
ATOM     93  N   UNL A   1      38.505  28.059  30.719  1.00  0.00    -0.335 N 
ATOM     94  C   UNL A   1      37.392  28.956  30.443  1.00  0.00     0.262 C 
ATOM     95  C   UNL A   1      38.583  27.846  32.160  1.00  0.00     0.262 C 
ATOM     96  H   UNL A   1      38.303  27.170  30.262  1.00  0.00     0.348 HD
ATOM     97  C   UNL A   1      37.284  29.839  31.669  1.00  0.00     0.067 C 
ATOM     98  C   UNL A   1      37.748  28.947  32.807  1.00  0.00     0.067 C 
ENDBRANCH  92  93
ENDBRANCH  90  92
ENDBRANCH  82  86
BRANCH  83  99
ATOM     99  N   UNL A   1      45.610  25.135  33.060  1.00  0.00    -0.322 N 
ATOM    100  C   UNL A   1      45.327  25.080  34.405  1.00  0.00     0.257 C 
ATOM    101  H   UNL A   1      46.511  24.818  32.820  1.00  0.00     0.170 HD
ATOM    102  O   UNL A   1      46.216  24.948  35.245  1.00  0.00    -0.269 OA
BRANCH 100 103
ATOM    103  C   UNL A   1      43.933  25.091  34.877  1.00  0.00     0.058 A 
ATOM    104  C   UNL A   1      43.406  26.304  35.347  1.00  0.00     0.015 A 
ATOM    105  C   UNL A   1      43.169  23.924  34.935  1.00  0.00     0.053 A 
ATOM    106  C   UNL A   1      42.090  26.361  35.807  1.00  0.00     0.001 A 
ATOM    107  C   UNL A   1      41.862  23.989  35.421  1.00  0.00     0.021 A 
ATOM    108  Cl  UNL A   1      43.779  22.377  34.476  1.00  0.00    -0.083 Cl
ATOM    109  C   UNL A   1      41.316  25.204  35.840  1.00  0.00     0.002 A 
ENDBRANCH 100 103
ENDBRANCH  83  99
ENDBRANCH  78  80
ENDBRANCH  77  78
ENDBRANCH  76  77
ENDBRANCH  75  76
ENDBRANCH  74  75
ENDBRANCH  73  74
ENDBRANCH   1  73
TORSDOF 25
ENDMDL
MODEL 2
REMARK VINA RESULT:      -6.7      4.653     12.044
REMARK SMILES O=C(OCCOCCOCCOC(=O)c1cc(NC(=O)c2ccccc2Cl)ccc1N1CCC[C@H](C[NH+]2CCCC2)C1)c1ccc(-c2c3nc(c(-c4cccc(S(=O)(=O)[O-])c4F)c4ccc([nH]4)c(-c4cccc(S(=O)(=O)[O-])c4F)c4nc(c(-c5cccc(S(=O)(=O)[O-])c5F)c5ccc2[nH]5)C=C4)C=C3)cc1
REMARK SMILES IDX 7 1 6 2 5 3 4 4 3 5 2 6 1 7 43 8 44 9 105 10 45 11 104 12
REMARK SMILES IDX 46 13 47 14 48 15 98 16 49 17 103 18 97 19 99 20 50 21
REMARK SMILES IDX 102 22 96 23 95 24 51 26 83 27 63 28 82 29 64 30 67 31 81 32
REMARK SMILES IDX 100 33 65 34 66 35 80 37 101 38 68 39 52 40 53 41 61 42
REMARK SMILES IDX 54 43 56 44 62 45 55 46 57 47 58 48 59 49 60 50 84 51 85 52
REMARK SMILES IDX 93 53 86 54 88 55 94 56 87 57 89 58 90 59 91 60 92 61 69 62
REMARK SMILES IDX 70 63 78 64 71 65 73 66 79 67 72 68 74 69 75 70 76 71 77 72
REMARK SMILES IDX 8 73 9 74 10 75 11 76 12 77 13 78 14 79 15 80 16 81 30 82
REMARK SMILES IDX 17 83 29 84 28 85 31 86 32 87 42 88 33 89 35 90 34 91 36 92
REMARK SMILES IDX 37 93 38 94 41 95 39 97 40 98 18 99 19 100 20 102 21 103
REMARK SMILES IDX 22 104 26 105 23 106 25 107 27 108 24 109
REMARK H PARENT 99 25 67 36 37 96 18 101
REMARK Flexibility Score: inf
ROOT
ATOM      1  C   UNL A   1      46.243  37.954  35.330  1.00  0.00     0.188 C 
ENDROOT
BRANCH   1   2
ATOM      2  O   UNL A   1      45.423  37.798  34.176  1.00  0.00    -0.376 OA
BRANCH   2   3
ATOM      3  C   UNL A   1      45.906  36.837  33.232  1.00  0.00     0.202 C 
BRANCH   3   4
ATOM      4  C   UNL A   1      47.410  36.507  33.301  1.00  0.00     0.261 C 
BRANCH   4   5
ATOM      5  O   UNL A   1      47.994  36.201  32.024  1.00  0.00    -0.460 OA
BRANCH   5   6
ATOM      6  C   UNL A   1      48.193  34.989  31.450  1.00  0.00     0.338 C 
ATOM      7  O   UNL A   1      49.355  34.638  31.250  1.00  0.00    -0.246 OA
BRANCH   6   8
ATOM      8  C   UNL A   1      47.092  34.073  30.999  1.00  0.00     0.060 A 
ATOM      9  C   UNL A   1      46.635  32.955  31.694  1.00  0.00     0.016 A 
ATOM     10  C   UNL A   1      46.445  34.388  29.788  1.00  0.00     0.016 A 
ATOM     11  C   UNL A   1      45.669  32.110  31.159  1.00  0.00     0.010 A 
ATOM     12  C   UNL A   1      45.432  33.573  29.265  1.00  0.00     0.010 A 
ATOM     13  C   UNL A   1      45.093  32.388  29.920  1.00  0.00    -0.014 A 
BRANCH  13  14
ATOM     14  C   UNL A   1      44.329  31.296  29.278  1.00  0.00     0.031 A 
ATOM     15  C   UNL A   1      45.093  30.234  28.544  1.00  0.00     0.074 A 
ATOM     16  C   UNL A   1      43.011  31.163  29.514  1.00  0.00     0.049 A 
ATOM     17  N   UNL A   1      44.668  29.094  28.073  1.00  0.00    -0.248 NA
ATOM     18  C   UNL A   1      46.525  30.487  28.305  1.00  0.00     0.031 C 
ATOM     19  C   UNL A   1      42.185  32.152  30.201  1.00  0.00     0.029 A 
ATOM     20  N   UNL A   1      42.147  30.128  29.251  1.00  0.00    -0.354 N 
ATOM     21  C   UNL A   1      45.758  28.527  27.427  1.00  0.00     0.074 A 
ATOM     22  C   UNL A   1      46.869  29.435  27.580  1.00  0.00     0.031 C 
ATOM     23  C   UNL A   1      40.951  31.649  30.358  1.00  0.00     0.029 A 
ATOM     24  C   UNL A   1      40.896  30.307  29.796  1.00  0.00     0.049 A 
ATOM     25  H   UNL A   1      42.399  29.335  28.724  1.00  0.00     0.167 HD
ATOM     26  C   UNL A   1      45.825  27.353  26.761  1.00  0.00     0.034 A 
ATOM     27  C   UNL A   1      39.841  29.469  29.863  1.00  0.00     0.034 A 
ATOM     28  C   UNL A   1      44.715  26.453  26.630  1.00  0.00     0.049 A 
ATOM     29  C   UNL A   1      39.976  28.120  29.210  1.00  0.00     0.074 A 
ATOM     30  C   UNL A   1      44.639  25.270  25.922  1.00  0.00     0.029 A 
ATOM     31  N   UNL A   1      43.480  26.644  27.235  1.00  0.00    -0.354 N 
ATOM     32  N   UNL A   1      41.027  27.586  28.633  1.00  0.00    -0.248 NA
ATOM     33  C   UNL A   1      38.786  27.257  29.209  1.00  0.00     0.031 C 
ATOM     34  C   UNL A   1      43.351  24.748  26.093  1.00  0.00     0.029 A 
ATOM     35  C   UNL A   1      42.636  25.593  26.928  1.00  0.00     0.049 A 
ATOM     36  H   UNL A   1      43.240  27.415  27.799  1.00  0.00     0.167 HD
ATOM     37  C   UNL A   1      40.618  26.341  28.176  1.00  0.00     0.074 A 
ATOM     38  C   UNL A   1      39.249  26.164  28.619  1.00  0.00     0.031 C 
ATOM     39  C   UNL A   1      41.288  25.444  27.412  1.00  0.00     0.034 A 
BRANCH  26  40
ATOM     40  C   UNL A   1      47.136  27.017  26.108  1.00  0.00     0.023 A 
ATOM     41  C   UNL A   1      47.328  27.281  24.737  1.00  0.00     0.012 A 
ATOM     42  C   UNL A   1      48.165  26.405  26.848  1.00  0.00     0.148 A 
ATOM     43  C   UNL A   1      48.511  26.905  24.103  1.00  0.00     0.002 A 
ATOM     44  C   UNL A   1      49.357  26.068  26.218  1.00  0.00     0.091 A 
ATOM     45  F   UNL A   1      47.947  26.138  28.143  1.00  0.00    -0.205 F 
ATOM     46  C   UNL A   1      49.526  26.304  24.844  1.00  0.00     0.022 A 
BRANCH  44  47
ATOM     47  S   UNL A   1      50.744  25.338  27.092  1.00  0.00     0.127 S 
ATOM     48  O   UNL A   1      50.103  24.215  27.777  1.00  0.00    -0.237 OA
ATOM     49  O   UNL A   1      51.629  24.957  25.992  1.00  0.00    -0.237 OA
ATOM     50  O   UNL A   1      51.267  26.380  27.965  1.00  0.00    -0.744 OA
ENDBRANCH  44  47
ENDBRANCH  26  40
BRANCH  27  51
ATOM     51  C   UNL A   1      38.601  29.846  30.611  1.00  0.00     0.023 A 
ATOM     52  C   UNL A   1      38.430  29.430  31.948  1.00  0.00     0.012 A 
ATOM     53  C   UNL A   1      37.598  30.639  30.026  1.00  0.00     0.148 A 
ATOM     54  C   UNL A   1      37.283  29.770  32.670  1.00  0.00     0.002 A 
ATOM     55  C   UNL A   1      36.500  31.048  30.777  1.00  0.00     0.091 A 
ATOM     56  F   UNL A   1      37.732  31.003  28.743  1.00  0.00    -0.205 F 
ATOM     57  C   UNL A   1      36.325  30.596  32.091  1.00  0.00     0.022 A 
BRANCH  55  58
ATOM     58  S   UNL A   1      35.374  32.286  30.127  1.00  0.00     0.127 S 
ATOM     59  O   UNL A   1      34.835  31.619  28.946  1.00  0.00    -0.237 OA
ATOM     60  O   UNL A   1      34.423  32.457  31.225  1.00  0.00    -0.237 OA
ATOM     61  O   UNL A   1      36.225  33.447  29.893  1.00  0.00    -0.744 OA
ENDBRANCH  55  58
ENDBRANCH  27  51
BRANCH  39  62
ATOM     62  C   UNL A   1      40.535  24.215  26.989  1.00  0.00     0.023 A 
ATOM     63  C   UNL A   1      39.296  24.357  26.332  1.00  0.00     0.012 A 
ATOM     64  C   UNL A   1      41.078  22.932  27.184  1.00  0.00     0.148 A 
ATOM     65  C   UNL A   1      38.590  23.235  25.906  1.00  0.00     0.002 A 
ATOM     66  C   UNL A   1      40.390  21.822  26.715  1.00  0.00     0.091 A 
ATOM     67  F   UNL A   1      42.246  22.823  27.833  1.00  0.00    -0.205 F 
ATOM     68  C   UNL A   1      39.142  21.968  26.086  1.00  0.00     0.022 A 
BRANCH  66  69
ATOM     69  S   UNL A   1      41.071  20.165  26.824  1.00  0.00     0.127 S 
ATOM     70  O   UNL A   1      40.884  19.859  28.240  1.00  0.00    -0.237 OA
ATOM     71  O   UNL A   1      40.206  19.411  25.915  1.00  0.00    -0.237 OA
ATOM     72  O   UNL A   1      42.455  20.275  26.382  1.00  0.00    -0.744 OA
ENDBRANCH  66  69
ENDBRANCH  39  62
ENDBRANCH  13  14
ENDBRANCH   6   8
ENDBRANCH   5   6
ENDBRANCH   4   5
ENDBRANCH   3   4
ENDBRANCH   2   3
ENDBRANCH   1   2
BRANCH   1  73
ATOM     73  C   UNL A   1      45.664  37.515  36.680  1.00  0.00     0.188 C 
BRANCH  73  74
ATOM     74  O   UNL A   1      45.540  36.128  36.950  1.00  0.00    -0.376 OA
BRANCH  74  75
ATOM     75  C   UNL A   1      46.709  35.435  37.369  1.00  0.00     0.202 C 
BRANCH  75  76
ATOM     76  C   UNL A   1      46.945  33.997  36.904  1.00  0.00     0.261 C 
BRANCH  76  77
ATOM     77  O   UNL A   1      45.833  33.097  37.025  1.00  0.00    -0.460 OA
BRANCH  77  78
ATOM     78  C   UNL A   1      45.214  32.800  35.849  1.00  0.00     0.340 C 
ATOM     79  O   UNL A   1      45.579  33.151  34.738  1.00  0.00    -0.246 OA
BRANCH  78  80
ATOM     80  C   UNL A   1      44.017  31.962  36.050  1.00  0.00     0.085 A 
ATOM     81  C   UNL A   1      44.251  30.577  36.187  1.00  0.00     0.044 A 
ATOM     82  C   UNL A   1      42.716  32.490  35.980  1.00  0.00     0.051 A 
ATOM     83  C   UNL A   1      43.189  29.677  36.240  1.00  0.00     0.042 A 
ATOM     84  C   UNL A   1      41.669  31.552  35.995  1.00  0.00     0.029 A 
ATOM     85  C   UNL A   1      41.895  30.174  36.107  1.00  0.00     0.028 A 
BRANCH  82  86
ATOM     86  N   UNL A   1      42.408  33.831  35.849  1.00  0.00    -0.370 N 
ATOM     87  C   UNL A   1      42.261  34.660  37.039  1.00  0.00     0.116 C 
ATOM     88  C   UNL A   1      42.370  34.522  34.571  1.00  0.00     0.126 C 
ATOM     89  C   UNL A   1      40.943  35.418  36.966  1.00  0.00     0.022 C 
ATOM     90  C   UNL A   1      41.063  35.308  34.417  1.00  0.00     0.064 C 
ATOM     91  C   UNL A   1      40.849  36.199  35.655  1.00  0.00     0.013 C 
BRANCH  90  92
ATOM     92  C   UNL A   1      39.913  34.327  34.081  1.00  0.00     0.267 C 
BRANCH  92  93
ATOM     93  N   UNL A   1      38.558  34.666  34.528  1.00  0.00    -0.335 N 
ATOM     94  C   UNL A   1      38.029  33.880  35.633  1.00  0.00     0.262 C 
ATOM     95  C   UNL A   1      37.553  34.716  33.471  1.00  0.00     0.262 C 
ATOM     96  H   UNL A   1      38.723  35.610  34.874  1.00  0.00     0.348 HD
ATOM     97  C   UNL A   1      37.091  32.878  34.993  1.00  0.00     0.067 C 
ATOM     98  C   UNL A   1      36.547  33.609  33.777  1.00  0.00     0.067 C 
ENDBRANCH  92  93
ENDBRANCH  90  92
ENDBRANCH  82  86
BRANCH  83  99
ATOM     99  N   UNL A   1      43.339  28.280  36.328  1.00  0.00    -0.322 N 
ATOM    100  C   UNL A   1      43.628  27.340  35.366  1.00  0.00     0.257 C 
ATOM    101  H   UNL A   1      43.218  27.913  37.233  1.00  0.00     0.170 HD
ATOM    102  O   UNL A   1      43.439  26.140  35.563  1.00  0.00    -0.269 OA
BRANCH 100 103
ATOM    103  C   UNL A   1      44.255  27.737  34.096  1.00  0.00     0.058 A 
ATOM    104  C   UNL A   1      43.426  27.912  32.977  1.00  0.00     0.015 A 
ATOM    105  C   UNL A   1      45.641  27.864  33.971  1.00  0.00     0.053 A 
ATOM    106  C   UNL A   1      43.978  28.285  31.751  1.00  0.00     0.001 A 
ATOM    107  C   UNL A   1      46.183  28.213  32.732  1.00  0.00     0.021 A 
ATOM    108  Cl  UNL A   1      46.734  27.562  35.271  1.00  0.00    -0.083 Cl
ATOM    109  C   UNL A   1      45.357  28.439  31.630  1.00  0.00     0.002 A 
ENDBRANCH 100 103
ENDBRANCH  83  99
ENDBRANCH  78  80
ENDBRANCH  77  78
ENDBRANCH  76  77
ENDBRANCH  75  76
ENDBRANCH  74  75
ENDBRANCH  73  74
ENDBRANCH   1  73
TORSDOF 25
ENDMDL
MODEL 3
REMARK VINA RESULT:      -6.5      5.387     10.472
REMARK SMILES O=C(OCCOCCOCCOC(=O)c1cc(NC(=O)c2ccccc2Cl)ccc1N1CCC[C@H](C[NH+]2CCCC2)C1)c1ccc(-c2c3nc(c(-c4cccc(S(=O)(=O)[O-])c4F)c4ccc([nH]4)c(-c4cccc(S(=O)(=O)[O-])c4F)c4nc(c(-c5cccc(S(=O)(=O)[O-])c5F)c5ccc2[nH]5)C=C4)C=C3)cc1
REMARK SMILES IDX 7 1 6 2 5 3 4 4 3 5 2 6 1 7 43 8 44 9 105 10 45 11 104 12
REMARK SMILES IDX 46 13 47 14 48 15 98 16 49 17 103 18 97 19 99 20 50 21
REMARK SMILES IDX 102 22 96 23 95 24 51 26 83 27 63 28 82 29 64 30 67 31 81 32
REMARK SMILES IDX 100 33 65 34 66 35 80 37 101 38 68 39 52 40 53 41 61 42
REMARK SMILES IDX 54 43 56 44 62 45 55 46 57 47 58 48 59 49 60 50 84 51 85 52
REMARK SMILES IDX 93 53 86 54 88 55 94 56 87 57 89 58 90 59 91 60 92 61 69 62
REMARK SMILES IDX 70 63 78 64 71 65 73 66 79 67 72 68 74 69 75 70 76 71 77 72
REMARK SMILES IDX 8 73 9 74 10 75 11 76 12 77 13 78 14 79 15 80 16 81 30 82
REMARK SMILES IDX 17 83 29 84 28 85 31 86 32 87 42 88 33 89 35 90 34 91 36 92
REMARK SMILES IDX 37 93 38 94 41 95 39 97 40 98 18 99 19 100 20 102 21 103
REMARK SMILES IDX 22 104 26 105 23 106 25 107 27 108 24 109
REMARK H PARENT 99 25 67 36 37 96 18 101
REMARK Flexibility Score: inf
ROOT
ATOM      1  C   UNL A   1      44.913  36.239  27.451  1.00  0.00     0.188 C 
ENDROOT
BRANCH   1   2
ATOM      2  O   UNL A   1      44.921  34.842  27.169  1.00  0.00    -0.376 OA
BRANCH   2   3
ATOM      3  C   UNL A   1      45.191  34.514  25.803  1.00  0.00     0.202 C 
BRANCH   3   4
ATOM      4  C   UNL A   1      44.476  33.268  25.245  1.00  0.00     0.261 C 
BRANCH   4   5
ATOM      5  O   UNL A   1      45.236  32.056  25.381  1.00  0.00    -0.460 OA
BRANCH   5   6
ATOM      6  C   UNL A   1      46.065  31.681  26.387  1.00  0.00     0.338 C 
ATOM      7  O   UNL A   1      47.154  31.199  26.077  1.00  0.00    -0.246 OA
BRANCH   6   8
ATOM      8  C   UNL A   1      45.723  31.770  27.846  1.00  0.00     0.060 A 
ATOM      9  C   UNL A   1      44.471  31.513  28.401  1.00  0.00     0.016 A 
ATOM     10  C   UNL A   1      46.764  32.109  28.733  1.00  0.00     0.016 A 
ATOM     11  C   UNL A   1      44.221  31.707  29.755  1.00  0.00     0.010 A 
ATOM     12  C   UNL A   1      46.536  32.253  30.109  1.00  0.00     0.010 A 
ATOM     13  C   UNL A   1      45.241  32.122  30.610  1.00  0.00    -0.014 A 
BRANCH  13  14
ATOM     14  C   UNL A   1      44.834  32.612  31.946  1.00  0.00     0.031 A 
ATOM     15  C   UNL A   1      44.757  31.622  33.070  1.00  0.00     0.074 A 
ATOM     16  C   UNL A   1      44.728  33.934  32.178  1.00  0.00     0.049 A 
ATOM     17  N   UNL A   1      44.615  31.841  34.349  1.00  0.00    -0.248 NA
ATOM     18  C   UNL A   1      44.850  30.196  32.711  1.00  0.00     0.031 C 
ATOM     19  C   UNL A   1      44.772  34.965  31.147  1.00  0.00     0.029 A 
ATOM     20  N   UNL A   1      44.615  34.637  33.352  1.00  0.00    -0.354 N 
ATOM     21  C   UNL A   1      44.534  30.586  34.935  1.00  0.00     0.074 A 
ATOM     22  C   UNL A   1      44.662  29.608  33.881  1.00  0.00     0.031 C 
ATOM     23  C   UNL A   1      44.747  36.170  31.739  1.00  0.00     0.029 A 
ATOM     24  C   UNL A   1      44.695  36.001  33.184  1.00  0.00     0.049 A 
ATOM     25  H   UNL A   1      44.487  34.207  34.229  1.00  0.00     0.167 HD
ATOM     26  C   UNL A   1      44.364  30.275  36.240  1.00  0.00     0.034 A 
ATOM     27  C   UNL A   1      44.756  36.995  34.094  1.00  0.00     0.034 A 
ATOM     28  C   UNL A   1      44.254  31.258  37.279  1.00  0.00     0.049 A 
ATOM     29  C   UNL A   1      44.677  36.617  35.549  1.00  0.00     0.074 A 
ATOM     30  C   UNL A   1      44.010  31.070  38.625  1.00  0.00     0.029 A 
ATOM     31  N   UNL A   1      44.388  32.624  37.078  1.00  0.00    -0.354 N 
ATOM     32  N   UNL A   1      44.636  35.421  36.087  1.00  0.00    -0.248 NA
ATOM     33  C   UNL A   1      44.649  37.717  36.523  1.00  0.00     0.031 C 
ATOM     34  C   UNL A   1      43.990  32.329  39.239  1.00  0.00     0.029 A 
ATOM     35  C   UNL A   1      44.246  33.295  38.278  1.00  0.00     0.049 A 
ATOM     36  H   UNL A   1      44.559  33.054  36.208  1.00  0.00     0.167 HD
ATOM     37  C   UNL A   1      44.548  35.624  37.458  1.00  0.00     0.074 A 
ATOM     38  C   UNL A   1      44.628  37.056  37.671  1.00  0.00     0.031 C 
ATOM     39  C   UNL A   1      44.360  34.720  38.450  1.00  0.00     0.034 A 
BRANCH  26  40
ATOM     40  C   UNL A   1      44.258  28.816  36.581  1.00  0.00     0.023 A 
ATOM     41  C   UNL A   1      45.398  28.108  37.013  1.00  0.00     0.012 A 
ATOM     42  C   UNL A   1      43.033  28.137  36.439  1.00  0.00     0.148 A 
ATOM     43  C   UNL A   1      45.329  26.737  37.259  1.00  0.00     0.002 A 
ATOM     44  C   UNL A   1      42.963  26.779  36.724  1.00  0.00     0.091 A 
ATOM     45  F   UNL A   1      41.969  28.825  35.999  1.00  0.00    -0.205 F 
ATOM     46  C   UNL A   1      44.112  26.075  37.120  1.00  0.00     0.022 A 
BRANCH  44  47
ATOM     47  S   UNL A   1      41.434  25.844  36.626  1.00  0.00     0.127 S 
ATOM     48  O   UNL A   1      41.882  24.505  37.009  1.00  0.00    -0.237 OA
ATOM     49  O   UNL A   1      40.603  26.517  37.624  1.00  0.00    -0.237 OA
ATOM     50  O   UNL A   1      40.967  25.972  35.253  1.00  0.00    -0.744 OA
ENDBRANCH  44  47
ENDBRANCH  26  40
BRANCH  27  51
ATOM     51  C   UNL A   1      44.952  38.417  33.673  1.00  0.00     0.023 A 
ATOM     52  C   UNL A   1      46.252  38.901  33.412  1.00  0.00     0.012 A 
ATOM     53  C   UNL A   1      43.866  39.292  33.498  1.00  0.00     0.148 A 
ATOM     54  C   UNL A   1      46.463  40.225  33.015  1.00  0.00     0.002 A 
ATOM     55  C   UNL A   1      44.075  40.582  33.019  1.00  0.00     0.091 A 
ATOM     56  F   UNL A   1      42.633  38.853  33.786  1.00  0.00    -0.205 F 
ATOM     57  C   UNL A   1      45.372  41.062  32.800  1.00  0.00     0.022 A 
BRANCH  55  58
ATOM     58  S   UNL A   1      42.679  41.597  32.525  1.00  0.00     0.127 S 
ATOM     59  O   UNL A   1      41.960  41.762  33.784  1.00  0.00    -0.237 OA
ATOM     60  O   UNL A   1      43.329  42.807  32.024  1.00  0.00    -0.237 OA
ATOM     61  O   UNL A   1      42.018  40.807  31.491  1.00  0.00    -0.744 OA
ENDBRANCH  55  58
ENDBRANCH  27  51
BRANCH  39  62
ATOM     62  C   UNL A   1      44.200  35.262  39.842  1.00  0.00     0.023 A 
ATOM     63  C   UNL A   1      42.910  35.577  40.316  1.00  0.00     0.012 A 
ATOM     64  C   UNL A   1      45.310  35.401  40.695  1.00  0.00     0.148 A 
ATOM     65  C   UNL A   1      42.732  36.056  41.612  1.00  0.00     0.002 A 
ATOM     66  C   UNL A   1      45.118  35.834  42.000  1.00  0.00     0.091 A 
ATOM     67  F   UNL A   1      46.528  35.118  40.212  1.00  0.00    -0.205 F 
ATOM     68  C   UNL A   1      43.833  36.174  42.457  1.00  0.00     0.022 A 
BRANCH  66  69
ATOM     69  S   UNL A   1      46.467  35.926  43.180  1.00  0.00     0.127 S 
ATOM     70  O   UNL A   1      45.779  36.389  44.382  1.00  0.00    -0.237 OA
ATOM     71  O   UNL A   1      46.929  34.538  43.234  1.00  0.00    -0.237 OA
ATOM     72  O   UNL A   1      47.431  36.858  42.609  1.00  0.00    -0.744 OA
ENDBRANCH  66  69
ENDBRANCH  39  62
ENDBRANCH  13  14
ENDBRANCH   6   8
ENDBRANCH   5   6
ENDBRANCH   4   5
ENDBRANCH   3   4
ENDBRANCH   2   3
ENDBRANCH   1   2
BRANCH   1  73
ATOM     73  C   UNL A   1      43.710  37.056  26.968  1.00  0.00     0.188 C 
BRANCH  73  74
ATOM     74  O   UNL A   1      42.449  36.841  27.580  1.00  0.00    -0.376 OA
BRANCH  74  75
ATOM     75  C   UNL A   1      42.438  36.197  28.848  1.00  0.00     0.202 C 
BRANCH  75  76
ATOM     76  C   UNL A   1      41.242  35.330  29.248  1.00  0.00     0.261 C 
BRANCH  76  77
ATOM     77  O   UNL A   1      41.541  34.128  29.973  1.00  0.00    -0.460 OA
BRANCH  77  78
ATOM     78  C   UNL A   1      40.472  33.565  30.601  1.00  0.00     0.340 C 
ATOM     79  O   UNL A   1      39.327  33.991  30.589  1.00  0.00    -0.246 OA
BRANCH  78  80
ATOM     80  C   UNL A   1      40.837  32.328  31.315  1.00  0.00     0.085 A 
ATOM     81  C   UNL A   1      40.869  31.153  30.533  1.00  0.00     0.044 A 
ATOM     82  C   UNL A   1      41.014  32.295  32.709  1.00  0.00     0.051 A 
ATOM     83  C   UNL A   1      41.064  29.907  31.127  1.00  0.00     0.042 A 
ATOM     84  C   UNL A   1      41.168  31.019  33.281  1.00  0.00     0.029 A 
ATOM     85  C   UNL A   1      41.176  29.847  32.513  1.00  0.00     0.028 A 
BRANCH  82  86
ATOM     86  N   UNL A   1      40.999  33.399  33.539  1.00  0.00    -0.370 N 
ATOM     87  C   UNL A   1      41.811  33.407  34.750  1.00  0.00     0.116 C 
ATOM     88  C   UNL A   1      40.331  34.645  33.201  1.00  0.00     0.126 C 
ATOM     89  C   UNL A   1      40.943  33.799  35.938  1.00  0.00     0.022 C 
ATOM     90  C   UNL A   1      39.427  35.105  34.350  1.00  0.00     0.064 C 
ATOM     91  C   UNL A   1      40.232  35.124  35.663  1.00  0.00     0.013 C 
BRANCH  90  92
ATOM     92  C   UNL A   1      38.136  34.250  34.360  1.00  0.00     0.267 C 
BRANCH  92  93
ATOM     93  N   UNL A   1      37.573  33.826  33.074  1.00  0.00    -0.335 N 
ATOM     94  C   UNL A   1      36.370  34.520  32.637  1.00  0.00     0.262 C 
ATOM     95  C   UNL A   1      37.356  32.390  32.937  1.00  0.00     0.262 C 
ATOM     96  H   UNL A   1      38.332  34.107  32.454  1.00  0.00     0.348 HD
ATOM     97  C   UNL A   1      35.231  33.569  32.947  1.00  0.00     0.067 C 
ATOM     98  C   UNL A   1      35.850  32.191  32.787  1.00  0.00     0.067 C 
ENDBRANCH  92  93
ENDBRANCH  90  92
ENDBRANCH  82  86
BRANCH  83  99
ATOM     99  N   UNL A   1      41.061  28.687  30.424  1.00  0.00    -0.322 N 
ATOM    100  C   UNL A   1      40.050  28.023  29.769  1.00  0.00     0.257 C 
ATOM    101  H   UNL A   1      41.933  28.232  30.396  1.00  0.00     0.170 HD
ATOM    102  O   UNL A   1      40.156  26.838  29.458  1.00  0.00    -0.269 OA
BRANCH 100 103
ATOM    103  C   UNL A   1      38.838  28.740  29.342  1.00  0.00     0.058 A 
ATOM    104  C   UNL A   1      37.760  28.805  30.239  1.00  0.00     0.015 A 
ATOM    105  C   UNL A   1      38.717  29.278  28.059  1.00  0.00     0.053 A 
ATOM    106  C   UNL A   1      36.589  29.471  29.876  1.00  0.00     0.001 A 
ATOM    107  C   UNL A   1      37.531  29.921  27.699  1.00  0.00     0.021 A 
ATOM    108  Cl  UNL A   1      39.955  29.147  26.865  1.00  0.00    -0.083 Cl
ATOM    109  C   UNL A   1      36.476  30.033  28.606  1.00  0.00     0.002 A 
ENDBRANCH 100 103
ENDBRANCH  83  99
ENDBRANCH  78  80
ENDBRANCH  77  78
ENDBRANCH  76  77
ENDBRANCH  75  76
ENDBRANCH  74  75
ENDBRANCH  73  74
ENDBRANCH   1  73
TORSDOF 25
ENDMDL
