MODEL 1
REMARK VINA RESULT:      -9.9      0.000      0.000
REMARK SMILES C[C@]12CC[C@@H]3[C@@H](CCC4=C/C(=N\OCC(=O)N5CCC[C@@H]5C(=O)OCCOCCOCCOC(=O)c5ccc(-c6c7nc(c(-c8cccc(S(=O)(=O)[O-])c8F)c8ccc([nH]8)c(-c8cccc(S(=O)(=O)[O-])c8F)c8nc(c(-c9cccc(S(=O)(=O)[O-])c9F)c9ccc6[nH]9)C=C8)C=C7)cc5)CC[C@@]43C)[C@@H]1CC[C@@H]2O
REMARK SMILES IDX 28 1 27 2 26 3 25 4 24 5 22 6 23 7 21 8 17 9 18 10 19 11
REMARK SMILES IDX 20 12 15 13 16 14 14 15 13 16 12 17 1 18 2 19 3 20 103 21
REMARK SMILES IDX 106 22 4 23 6 24 104 25 105 26 5 27 7 28 101 29 8 30 9 31
REMARK SMILES IDX 100 32 102 33 10 34 99 35 11 36 107 37 29 39 30 40 31 41
REMARK SMILES IDX 32 42 33 43 34 44 35 45 36 46 37 47 98 48 38 49 97 50 39 51
REMARK SMILES IDX 40 52 41 53 91 54 42 55 96 56 90 57 92 58 43 59 95 60 89 61
REMARK SMILES IDX 88 62 44 64 76 65 56 66 75 67 57 68 60 69 74 70 93 71 58 72
REMARK SMILES IDX 59 73 73 75 94 76 61 77 45 78 46 79 54 80 47 81 49 82 55 83
REMARK SMILES IDX 48 84 50 85 51 86 52 87 53 88 77 89 78 90 86 91 79 92 81 93
REMARK SMILES IDX 87 94 80 95 82 96 83 97 84 98 85 99 62 100 63 101 71 102
REMARK SMILES IDX 64 103 66 104 72 105 65 106 67 107 68 108 69 109 70 110
REMARK H PARENT 107 38 92 63 60 74
REMARK Flexibility Score: inf
ROOT
ATOM      1  C   UNL A   1      39.613  27.108  28.919  1.00  0.00     0.188 C 
ENDROOT
BRANCH   1   2
ATOM      2  O   UNL A   1      40.036  25.812  28.531  1.00  0.00    -0.376 OA
BRANCH   2   3
ATOM      3  C   UNL A   1      41.292  25.707  27.903  1.00  0.00     0.202 C 
BRANCH   3   4
ATOM      4  C   UNL A   1      42.084  24.414  28.077  1.00  0.00     0.261 C 
BRANCH   4   5
ATOM      5  O   UNL A   1      43.141  24.045  27.188  1.00  0.00    -0.462 OA
BRANCH   5   6
ATOM      6  C   UNL A   1      43.083  24.417  25.877  1.00  0.00     0.328 C 
ATOM      7  O   UNL A   1      42.980  25.558  25.449  1.00  0.00    -0.250 OA
BRANCH   6   8
ATOM      8  C   UNL A   1      43.202  23.214  24.942  1.00  0.00     0.195 C 
ATOM      9  N   UNL A   1      43.141  21.930  25.622  1.00  0.00    -0.326 N 
ATOM     10  C   UNL A   1      44.337  21.136  25.402  1.00  0.00     0.120 C 
ATOM     11  C   UNL A   1      45.366  22.071  24.793  1.00  0.00     0.024 C 
ATOM     12  C   UNL A   1      44.560  23.236  24.225  1.00  0.00     0.039 C 
BRANCH   9  13
ATOM     13  C   UNL A   1      42.062  21.430  26.317  1.00  0.00     0.264 C 
ATOM     14  O   UNL A   1      42.248  20.635  27.250  1.00  0.00    -0.271 OA
BRANCH  13  15
ATOM     15  C   UNL A   1      40.590  21.743  25.876  1.00  0.00     0.363 C 
BRANCH  15  16
ATOM     16  O   UNL A   1      39.391  21.446  26.594  1.00  0.00    -0.385 OA
BRANCH  16  17
ATOM     17  N   UNL A   1      38.618  22.615  26.665  1.00  0.00    -0.091 NA
ATOM     18  C   UNL A   1      30.710  24.787  24.044  1.00  0.00     0.014 C 
ATOM     19  C   UNL A   1      31.995  24.517  24.880  1.00  0.00    -0.003 C 
ATOM     20  C   UNL A   1      33.079  25.365  24.211  1.00  0.00     0.010 C 
ATOM     21  C   UNL A   1      32.361  23.007  25.063  1.00  0.00     0.001 C 
ATOM     22  C   UNL A   1      31.769  24.793  26.378  1.00  0.00     0.120 C 
ATOM     23  C   UNL A   1      33.682  24.635  23.002  1.00  0.00     0.005 C 
ATOM     24  C   UNL A   1      32.836  22.333  23.791  1.00  0.00    -0.003 C 
ATOM     25  C   UNL A   1      31.158  22.476  25.852  1.00  0.00     0.007 C 
ATOM     26  C   UNL A   1      30.780  23.676  26.762  1.00  0.00     0.032 C 
ATOM     27  C   UNL A   1      34.017  23.135  23.226  1.00  0.00     0.002 C 
ATOM     28  C   UNL A   1      33.252  20.852  23.876  1.00  0.00     0.008 C 
ATOM     29  C   UNL A   1      35.419  22.884  23.953  1.00  0.00    -0.008 C 
ATOM     30  C   UNL A   1      34.581  20.500  24.567  1.00  0.00     0.032 C 
ATOM     31  C   UNL A   1      35.582  21.604  24.780  1.00  0.00    -0.062 C 
ATOM     32  C   UNL A   1      35.748  24.053  24.924  1.00  0.00     0.018 C 
ATOM     33  C   UNL A   1      36.349  22.773  22.718  1.00  0.00     0.016 C 
ATOM     34  C   UNL A   1      36.583  21.429  25.685  1.00  0.00     0.027 C 
ATOM     35  C   UNL A   1      36.771  23.926  26.041  1.00  0.00     0.061 C 
ATOM     36  C   UNL A   1      37.426  22.571  26.150  1.00  0.00     0.080 C 
BRANCH  22  37
ATOM     37  O   UNL A   1      31.308  26.087  26.682  1.00  0.00    -0.393 OA
ATOM     38  H   UNL A   1      31.971  26.548  27.221  1.00  0.00     0.210 HD
ENDBRANCH  22  37
ENDBRANCH  16  17
ENDBRANCH  15  16
ENDBRANCH  13  15
ENDBRANCH   9  13
ENDBRANCH   6   8
ENDBRANCH   5   6
ENDBRANCH   4   5
ENDBRANCH   3   4
ENDBRANCH   2   3
ENDBRANCH   1   2
BRANCH   1  39
ATOM     39  C   UNL A   1      39.874  28.314  27.977  1.00  0.00     0.188 C 
BRANCH  39  40
ATOM     40  O   UNL A   1      38.833  29.272  27.894  1.00  0.00    -0.376 OA
BRANCH  40  41
ATOM     41  C   UNL A   1      37.787  29.151  28.845  1.00  0.00     0.202 C 
BRANCH  41  42
ATOM     42  C   UNL A   1      37.364  30.441  29.565  1.00  0.00     0.261 C 
BRANCH  42  43
ATOM     43  O   UNL A   1      38.027  30.724  30.808  1.00  0.00    -0.460 OA
BRANCH  43  44
ATOM     44  C   UNL A   1      37.800  29.902  31.858  1.00  0.00     0.338 C 
ATOM     45  O   UNL A   1      36.715  29.523  32.267  1.00  0.00    -0.246 OA
BRANCH  44  46
ATOM     46  C   UNL A   1      39.108  29.331  32.261  1.00  0.00     0.060 A 
ATOM     47  C   UNL A   1      40.226  30.177  32.358  1.00  0.00     0.016 A 
ATOM     48  C   UNL A   1      39.207  27.989  32.636  1.00  0.00     0.016 A 
ATOM     49  C   UNL A   1      41.449  29.677  32.811  1.00  0.00     0.010 A 
ATOM     50  C   UNL A   1      40.441  27.480  33.047  1.00  0.00     0.010 A 
ATOM     51  C   UNL A   1      41.573  28.313  33.101  1.00  0.00    -0.014 A 
BRANCH  51  52
ATOM     52  C   UNL A   1      42.918  27.694  33.164  1.00  0.00     0.031 A 
ATOM     53  C   UNL A   1      43.529  27.523  34.529  1.00  0.00     0.074 A 
ATOM     54  C   UNL A   1      43.599  27.326  32.064  1.00  0.00     0.049 A 
ATOM     55  N   UNL A   1      44.713  27.089  34.864  1.00  0.00    -0.248 NA
ATOM     56  C   UNL A   1      42.680  27.906  35.671  1.00  0.00     0.031 C 
ATOM     57  C   UNL A   1      43.111  27.416  30.692  1.00  0.00     0.029 A 
ATOM     58  N   UNL A   1      44.871  26.824  31.941  1.00  0.00    -0.354 N 
ATOM     59  C   UNL A   1      44.763  27.174  36.251  1.00  0.00     0.074 A 
ATOM     60  C   UNL A   1      43.496  27.710  36.693  1.00  0.00     0.031 C 
ATOM     61  C   UNL A   1      44.087  27.011  29.857  1.00  0.00     0.029 A 
ATOM     62  C   UNL A   1      45.275  26.664  30.636  1.00  0.00     0.049 A 
ATOM     63  H   UNL A   1      45.440  26.601  32.712  1.00  0.00     0.167 HD
ATOM     64  C   UNL A   1      45.769  26.830  37.088  1.00  0.00     0.034 A 
ATOM     65  C   UNL A   1      46.475  26.303  30.136  1.00  0.00     0.034 A 
ATOM     66  C   UNL A   1      47.031  26.309  36.648  1.00  0.00     0.049 A 
ATOM     67  C   UNL A   1      47.605  25.981  31.084  1.00  0.00     0.074 A 
ATOM     68  C   UNL A   1      48.110  25.907  37.415  1.00  0.00     0.029 A 
ATOM     69  N   UNL A   1      47.396  26.139  35.321  1.00  0.00    -0.354 N 
ATOM     70  N   UNL A   1      47.608  25.965  32.396  1.00  0.00    -0.248 NA
ATOM     71  C   UNL A   1      48.892  25.600  30.481  1.00  0.00     0.031 C 
ATOM     72  C   UNL A   1      49.140  25.525  36.548  1.00  0.00     0.029 A 
ATOM     73  C   UNL A   1      48.688  25.652  35.244  1.00  0.00     0.049 A 
ATOM     74  H   UNL A   1      46.820  26.338  34.548  1.00  0.00     0.167 HD
ATOM     75  C   UNL A   1      48.876  25.533  32.773  1.00  0.00     0.074 A 
ATOM     76  C   UNL A   1      49.612  25.287  31.551  1.00  0.00     0.031 C 
ATOM     77  C   UNL A   1      49.390  25.362  34.018  1.00  0.00     0.034 A 
BRANCH  64  78
ATOM     78  C   UNL A   1      45.526  27.014  38.562  1.00  0.00     0.023 A 
ATOM     79  C   UNL A   1      44.882  25.997  39.298  1.00  0.00     0.012 A 
ATOM     80  C   UNL A   1      45.930  28.192  39.217  1.00  0.00     0.148 A 
ATOM     81  C   UNL A   1      44.603  26.170  40.654  1.00  0.00     0.002 A 
ATOM     82  C   UNL A   1      45.693  28.336  40.579  1.00  0.00     0.091 A 
ATOM     83  F   UNL A   1      46.512  29.160  38.495  1.00  0.00    -0.205 F 
ATOM     84  C   UNL A   1      45.017  27.335  41.294  1.00  0.00     0.022 A 
BRANCH  82  85
ATOM     85  S   UNL A   1      46.257  29.765  41.509  1.00  0.00     0.127 S 
ATOM     86  O   UNL A   1      45.522  30.849  40.857  1.00  0.00    -0.237 OA
ATOM     87  O   UNL A   1      45.802  29.449  42.863  1.00  0.00    -0.237 OA
ATOM     88  O   UNL A   1      47.703  29.800  41.348  1.00  0.00    -0.744 OA
ENDBRANCH  82  85
ENDBRANCH  64  78
BRANCH  65  89
ATOM     89  C   UNL A   1      46.667  26.188  28.661  1.00  0.00     0.023 A 
ATOM     90  C   UNL A   1      46.568  24.922  28.050  1.00  0.00     0.012 A 
ATOM     91  C   UNL A   1      46.935  27.317  27.862  1.00  0.00     0.148 A 
ATOM     92  C   UNL A   1      46.756  24.779  26.674  1.00  0.00     0.002 A 
ATOM     93  C   UNL A   1      47.071  27.174  26.485  1.00  0.00     0.091 A 
ATOM     94  F   UNL A   1      47.043  28.508  28.465  1.00  0.00    -0.205 F 
ATOM     95  C   UNL A   1      46.997  25.904  25.891  1.00  0.00     0.022 A 
BRANCH  93  96
ATOM     96  S   UNL A   1      47.274  28.575  25.379  1.00  0.00     0.127 S 
ATOM     97  O   UNL A   1      48.352  29.316  26.031  1.00  0.00    -0.237 OA
ATOM     98  O   UNL A   1      47.650  27.915  24.129  1.00  0.00    -0.237 OA
ATOM     99  O   UNL A   1      45.983  29.246  25.347  1.00  0.00    -0.744 OA
ENDBRANCH  93  96
ENDBRANCH  65  89
BRANCH  77 100
ATOM    100  C   UNL A   1      50.798  24.836  34.137  1.00  0.00     0.023 A 
ATOM    101  C   UNL A   1      51.857  25.713  34.446  1.00  0.00     0.012 A 
ATOM    102  C   UNL A   1      51.055  23.454  34.030  1.00  0.00     0.148 A 
ATOM    103  C   UNL A   1      53.153  25.226  34.615  1.00  0.00     0.002 A 
ATOM    104  C   UNL A   1      52.339  22.971  34.251  1.00  0.00     0.091 A 
ATOM    105  F   UNL A   1      50.037  22.637  33.721  1.00  0.00    -0.205 F 
ATOM    106  C   UNL A   1      53.392  23.856  34.530  1.00  0.00     0.022 A 
BRANCH 104 107
ATOM    107  S   UNL A   1      52.719  21.214  34.263  1.00  0.00     0.127 S 
ATOM    108  O   UNL A   1      52.427  20.837  32.881  1.00  0.00    -0.237 OA
ATOM    109  O   UNL A   1      54.140  21.207  34.610  1.00  0.00    -0.237 OA
ATOM    110  O   UNL A   1      51.848  20.621  35.269  1.00  0.00    -0.744 OA
ENDBRANCH 104 107
ENDBRANCH  77 100
ENDBRANCH  51  52
ENDBRANCH  44  46
ENDBRANCH  43  44
ENDBRANCH  42  43
ENDBRANCH  41  42
ENDBRANCH  40  41
ENDBRANCH  39  40
ENDBRANCH   1  39
TORSDOF 25
ENDMDL
MODEL 2
REMARK VINA RESULT:      -9.5      7.437     11.283
REMARK SMILES C[C@]12CC[C@@H]3[C@@H](CCC4=C/C(=N\OCC(=O)N5CCC[C@@H]5C(=O)OCCOCCOCCOC(=O)c5ccc(-c6c7nc(c(-c8cccc(S(=O)(=O)[O-])c8F)c8ccc([nH]8)c(-c8cccc(S(=O)(=O)[O-])c8F)c8nc(c(-c9cccc(S(=O)(=O)[O-])c9F)c9ccc6[nH]9)C=C8)C=C7)cc5)CC[C@@]43C)[C@@H]1CC[C@@H]2O
REMARK SMILES IDX 28 1 27 2 26 3 25 4 24 5 22 6 23 7 21 8 17 9 18 10 19 11
REMARK SMILES IDX 20 12 15 13 16 14 14 15 13 16 12 17 1 18 2 19 3 20 103 21
REMARK SMILES IDX 106 22 4 23 6 24 104 25 105 26 5 27 7 28 101 29 8 30 9 31
REMARK SMILES IDX 100 32 102 33 10 34 99 35 11 36 107 37 29 39 30 40 31 41
REMARK SMILES IDX 32 42 33 43 34 44 35 45 36 46 37 47 98 48 38 49 97 50 39 51
REMARK SMILES IDX 40 52 41 53 91 54 42 55 96 56 90 57 92 58 43 59 95 60 89 61
REMARK SMILES IDX 88 62 44 64 76 65 56 66 75 67 57 68 60 69 74 70 93 71 58 72
REMARK SMILES IDX 59 73 73 75 94 76 61 77 45 78 46 79 54 80 47 81 49 82 55 83
REMARK SMILES IDX 48 84 50 85 51 86 52 87 53 88 77 89 78 90 86 91 79 92 81 93
REMARK SMILES IDX 87 94 80 95 82 96 83 97 84 98 85 99 62 100 63 101 71 102
REMARK SMILES IDX 64 103 66 104 72 105 65 106 67 107 68 108 69 109 70 110
REMARK H PARENT 107 38 92 63 60 74
REMARK Flexibility Score: inf
ROOT
ATOM      1  C   UNL A   1      38.155  31.294  36.718  1.00  0.00     0.188 C 
ENDROOT
BRANCH   1   2
ATOM      2  O   UNL A   1      39.328  30.704  36.185  1.00  0.00    -0.376 OA
BRANCH   2   3
ATOM      3  C   UNL A   1      39.675  31.042  34.863  1.00  0.00     0.202 C 
BRANCH   3   4
ATOM      4  C   UNL A   1      39.560  29.967  33.785  1.00  0.00     0.261 C 
BRANCH   4   5
ATOM      5  O   UNL A   1      38.717  30.125  32.641  1.00  0.00    -0.462 OA
BRANCH   5   6
ATOM      6  C   UNL A   1      38.916  29.343  31.541  1.00  0.00     0.328 C 
ATOM      7  O   UNL A   1      38.817  28.125  31.488  1.00  0.00    -0.250 OA
BRANCH   6   8
ATOM      8  C   UNL A   1      39.256  30.178  30.308  1.00  0.00     0.195 C 
ATOM      9  N   UNL A   1      38.341  29.984  29.194  1.00  0.00    -0.326 N 
ATOM     10  C   UNL A   1      39.020  29.508  28.002  1.00  0.00     0.120 C 
ATOM     11  C   UNL A   1      40.407  29.077  28.444  1.00  0.00     0.024 C 
ATOM     12  C   UNL A   1      40.642  29.788  29.773  1.00  0.00     0.039 C 
BRANCH   9  13
ATOM     13  C   UNL A   1      37.000  30.300  29.181  1.00  0.00     0.264 C 
ATOM     14  O   UNL A   1      36.320  30.129  30.203  1.00  0.00    -0.271 OA
BRANCH  13  15
ATOM     15  C   UNL A   1      36.279  30.752  27.864  1.00  0.00     0.363 C 
BRANCH  15  16
ATOM     16  O   UNL A   1      34.894  31.062  27.699  1.00  0.00    -0.385 OA
BRANCH  16  17
ATOM     17  N   UNL A   1      34.146  29.912  27.999  1.00  0.00    -0.091 NA
ATOM     18  C   UNL A   1      30.620  23.617  23.302  1.00  0.00     0.014 C 
ATOM     19  C   UNL A   1      31.440  24.441  24.338  1.00  0.00    -0.003 C 
ATOM     20  C   UNL A   1      30.391  25.234  25.121  1.00  0.00     0.010 C 
ATOM     21  C   UNL A   1      32.598  25.300  23.732  1.00  0.00     0.001 C 
ATOM     22  C   UNL A   1      32.357  23.539  25.185  1.00  0.00     0.120 C 
ATOM     23  C   UNL A   1      30.000  26.517  24.373  1.00  0.00     0.005 C 
ATOM     24  C   UNL A   1      32.120  26.481  22.910  1.00  0.00    -0.003 C 
ATOM     25  C   UNL A   1      33.520  24.229  23.138  1.00  0.00     0.007 C 
ATOM     26  C   UNL A   1      33.378  23.051  24.140  1.00  0.00     0.032 C 
ATOM     27  C   UNL A   1      31.181  27.331  23.778  1.00  0.00     0.002 C 
ATOM     28  C   UNL A   1      33.188  27.408  22.298  1.00  0.00     0.008 C 
ATOM     29  C   UNL A   1      31.910  28.286  24.834  1.00  0.00    -0.008 C 
ATOM     30  C   UNL A   1      33.956  28.361  23.232  1.00  0.00     0.032 C 
ATOM     31  C   UNL A   1      33.386  28.625  24.599  1.00  0.00    -0.062 C 
ATOM     32  C   UNL A   1      31.845  27.672  26.261  1.00  0.00     0.018 C 
ATOM     33  C   UNL A   1      31.087  29.585  24.639  1.00  0.00     0.016 C 
ATOM     34  C   UNL A   1      34.189  29.150  25.565  1.00  0.00     0.027 C 
ATOM     35  C   UNL A   1      32.772  28.109  27.384  1.00  0.00     0.061 C 
ATOM     36  C   UNL A   1      33.776  29.168  27.000  1.00  0.00     0.080 C 
BRANCH  22  37
ATOM     37  O   UNL A   1      31.703  22.498  25.868  1.00  0.00    -0.393 OA
ATOM     38  H   UNL A   1      31.144  22.005  25.247  1.00  0.00     0.210 HD
ENDBRANCH  22  37
ENDBRANCH  16  17
ENDBRANCH  15  16
ENDBRANCH  13  15
ENDBRANCH   9  13
ENDBRANCH   6   8
ENDBRANCH   5   6
ENDBRANCH   4   5
ENDBRANCH   3   4
ENDBRANCH   2   3
ENDBRANCH   1   2
BRANCH   1  39
ATOM     39  C   UNL A   1      37.898  32.810  36.511  1.00  0.00     0.188 C 
BRANCH  39  40
ATOM     40  O   UNL A   1      36.680  33.151  35.870  1.00  0.00    -0.376 OA
BRANCH  40  41
ATOM     41  C   UNL A   1      36.790  33.842  34.636  1.00  0.00     0.202 C 
BRANCH  41  42
ATOM     42  C   UNL A   1      36.888  32.974  33.372  1.00  0.00     0.261 C 
BRANCH  42  43
ATOM     43  O   UNL A   1      38.032  33.199  32.532  1.00  0.00    -0.460 OA
BRANCH  43  44
ATOM     44  C   UNL A   1      37.827  33.406  31.211  1.00  0.00     0.338 C 
ATOM     45  O   UNL A   1      36.763  33.349  30.619  1.00  0.00    -0.246 OA
BRANCH  44  46
ATOM     46  C   UNL A   1      39.080  33.976  30.657  1.00  0.00     0.060 A 
ATOM     47  C   UNL A   1      39.091  34.453  29.334  1.00  0.00     0.016 A 
ATOM     48  C   UNL A   1      40.205  34.131  31.469  1.00  0.00     0.016 A 
ATOM     49  C   UNL A   1      40.234  35.066  28.817  1.00  0.00     0.010 A 
ATOM     50  C   UNL A   1      41.363  34.704  30.938  1.00  0.00     0.010 A 
ATOM     51  C   UNL A   1      41.393  35.140  29.601  1.00  0.00    -0.014 A 
BRANCH  51  52
ATOM     52  C   UNL A   1      42.703  35.383  28.953  1.00  0.00     0.031 A 
ATOM     53  C   UNL A   1      43.571  34.181  28.695  1.00  0.00     0.074 A 
ATOM     54  C   UNL A   1      43.136  36.615  28.634  1.00  0.00     0.049 A 
ATOM     55  N   UNL A   1      44.785  34.115  28.219  1.00  0.00    -0.248 NA
ATOM     56  C   UNL A   1      42.982  32.872  29.029  1.00  0.00     0.031 C 
ATOM     57  C   UNL A   1      42.385  37.854  28.810  1.00  0.00     0.029 A 
ATOM     58  N   UNL A   1      44.342  37.019  28.114  1.00  0.00    -0.354 N 
ATOM     59  C   UNL A   1      45.116  32.765  28.226  1.00  0.00     0.074 A 
ATOM     60  C   UNL A   1      43.981  32.048  28.761  1.00  0.00     0.031 C 
ATOM     61  C   UNL A   1      43.161  38.889  28.433  1.00  0.00     0.029 A 
ATOM     62  C   UNL A   1      44.470  38.385  28.019  1.00  0.00     0.049 A 
ATOM     63  H   UNL A   1      45.048  36.392  27.837  1.00  0.00     0.167 HD
ATOM     64  C   UNL A   1      46.258  32.168  27.815  1.00  0.00     0.034 A 
ATOM     65  C   UNL A   1      45.532  39.136  27.662  1.00  0.00     0.034 A 
ATOM     66  C   UNL A   1      47.390  32.880  27.295  1.00  0.00     0.049 A 
ATOM     67  C   UNL A   1      46.820  38.454  27.266  1.00  0.00     0.074 A 
ATOM     68  C   UNL A   1      48.588  32.370  26.830  1.00  0.00     0.029 A 
ATOM     69  N   UNL A   1      47.474  34.261  27.192  1.00  0.00    -0.354 N 
ATOM     70  N   UNL A   1      47.087  37.173  27.177  1.00  0.00    -0.248 NA
ATOM     71  C   UNL A   1      47.946  39.324  26.894  1.00  0.00     0.031 C 
ATOM     72  C   UNL A   1      49.410  33.445  26.477  1.00  0.00     0.029 A 
ATOM     73  C   UNL A   1      48.708  34.623  26.684  1.00  0.00     0.049 A 
ATOM     74  H   UNL A   1      46.760  34.890  27.445  1.00  0.00     0.167 HD
ATOM     75  C   UNL A   1      48.391  37.083  26.700  1.00  0.00     0.074 A 
ATOM     76  C   UNL A   1      48.858  38.440  26.508  1.00  0.00     0.031 C 
ATOM     77  C   UNL A   1      49.139  35.979  26.450  1.00  0.00     0.034 A 
BRANCH  64  78
ATOM     78  C   UNL A   1      46.323  30.667  27.922  1.00  0.00     0.023 A 
ATOM     79  C   UNL A   1      46.594  30.065  29.169  1.00  0.00     0.012 A 
ATOM     80  C   UNL A   1      46.119  29.855  26.791  1.00  0.00     0.148 A 
ATOM     81  C   UNL A   1      46.708  28.679  29.277  1.00  0.00     0.002 A 
ATOM     82  C   UNL A   1      46.184  28.473  26.918  1.00  0.00     0.091 A 
ATOM     83  F   UNL A   1      45.892  30.446  25.609  1.00  0.00    -0.205 F 
ATOM     84  C   UNL A   1      46.494  27.885  28.155  1.00  0.00     0.022 A 
BRANCH  82  85
ATOM     85  S   UNL A   1      45.846  27.363  25.547  1.00  0.00     0.127 S 
ATOM     86  O   UNL A   1      44.506  27.789  25.146  1.00  0.00    -0.237 OA
ATOM     87  O   UNL A   1      46.905  27.714  24.600  1.00  0.00    -0.237 OA
ATOM     88  O   UNL A   1      45.941  26.017  26.091  1.00  0.00    -0.744 OA
ENDBRANCH  82  85
ENDBRANCH  64  78
BRANCH  65  89
ATOM     89  C   UNL A   1      45.420  40.624  27.626  1.00  0.00     0.023 A 
ATOM     90  C   UNL A   1      45.608  41.358  28.813  1.00  0.00     0.012 A 
ATOM     91  C   UNL A   1      45.141  41.312  26.429  1.00  0.00     0.148 A 
ATOM     92  C   UNL A   1      45.496  42.749  28.815  1.00  0.00     0.002 A 
ATOM     93  C   UNL A   1      45.082  42.702  26.428  1.00  0.00     0.091 A 
ATOM     94  F   UNL A   1      44.949  40.594  25.315  1.00  0.00    -0.205 F 
ATOM     95  C   UNL A   1      45.244  43.421  27.623  1.00  0.00     0.022 A 
BRANCH  93  96
ATOM     96  S   UNL A   1      44.871  43.664  24.925  1.00  0.00     0.127 S 
ATOM     97  O   UNL A   1      43.498  43.334  24.550  1.00  0.00    -0.237 OA
ATOM     98  O   UNL A   1      45.064  45.029  25.417  1.00  0.00    -0.237 OA
ATOM     99  O   UNL A   1      45.900  43.198  24.008  1.00  0.00    -0.744 OA
ENDBRANCH  93  96
ENDBRANCH  65  89
BRANCH  77 100
ATOM    100  C   UNL A   1      50.526  36.175  25.890  1.00  0.00     0.023 A 
ATOM    101  C   UNL A   1      50.719  36.271  24.498  1.00  0.00     0.012 A 
ATOM    102  C   UNL A   1      51.626  36.355  26.754  1.00  0.00     0.148 A 
ATOM    103  C   UNL A   1      51.990  36.511  23.974  1.00  0.00     0.002 A 
ATOM    104  C   UNL A   1      52.878  36.646  26.226  1.00  0.00     0.091 A 
ATOM    105  F   UNL A   1      51.424  36.246  28.075  1.00  0.00    -0.205 F 
ATOM    106  C   UNL A   1      53.065  36.710  24.837  1.00  0.00     0.022 A 
BRANCH 104 107
ATOM    107  S   UNL A   1      54.298  37.017  27.264  1.00  0.00     0.127 S 
ATOM    108  O   UNL A   1      53.804  38.145  28.052  1.00  0.00    -0.237 OA
ATOM    109  O   UNL A   1      54.465  35.773  28.017  1.00  0.00    -0.237 OA
ATOM    110  O   UNL A   1      55.393  37.323  26.353  1.00  0.00    -0.744 OA
ENDBRANCH 104 107
ENDBRANCH  77 100
ENDBRANCH  51  52
ENDBRANCH  44  46
ENDBRANCH  43  44
ENDBRANCH  42  43
ENDBRANCH  41  42
ENDBRANCH  40  41
ENDBRANCH  39  40
ENDBRANCH   1  39
TORSDOF 25
ENDMDL
MODEL 3
REMARK VINA RESULT:      -9.1      7.107     10.724
REMARK SMILES C[C@]12CC[C@@H]3[C@@H](CCC4=C/C(=N\OCC(=O)N5CCC[C@@H]5C(=O)OCCOCCOCCOC(=O)c5ccc(-c6c7nc(c(-c8cccc(S(=O)(=O)[O-])c8F)c8ccc([nH]8)c(-c8cccc(S(=O)(=O)[O-])c8F)c8nc(c(-c9cccc(S(=O)(=O)[O-])c9F)c9ccc6[nH]9)C=C8)C=C7)cc5)CC[C@@]43C)[C@@H]1CC[C@@H]2O
REMARK SMILES IDX 28 1 27 2 26 3 25 4 24 5 22 6 23 7 21 8 17 9 18 10 19 11
REMARK SMILES IDX 20 12 15 13 16 14 14 15 13 16 12 17 1 18 2 19 3 20 103 21
REMARK SMILES IDX 106 22 4 23 6 24 104 25 105 26 5 27 7 28 101 29 8 30 9 31
REMARK SMILES IDX 100 32 102 33 10 34 99 35 11 36 107 37 29 39 30 40 31 41
REMARK SMILES IDX 32 42 33 43 34 44 35 45 36 46 37 47 98 48 38 49 97 50 39 51
REMARK SMILES IDX 40 52 41 53 91 54 42 55 96 56 90 57 92 58 43 59 95 60 89 61
REMARK SMILES IDX 88 62 44 64 76 65 56 66 75 67 57 68 60 69 74 70 93 71 58 72
REMARK SMILES IDX 59 73 73 75 94 76 61 77 45 78 46 79 54 80 47 81 49 82 55 83
REMARK SMILES IDX 48 84 50 85 51 86 52 87 53 88 77 89 78 90 86 91 79 92 81 93
REMARK SMILES IDX 87 94 80 95 82 96 83 97 84 98 85 99 62 100 63 101 71 102
REMARK SMILES IDX 64 103 66 104 72 105 65 106 67 107 68 108 69 109 70 110
REMARK H PARENT 107 38 92 63 60 74
REMARK Flexibility Score: inf
ROOT
ATOM      1  C   UNL A   1      37.888  32.138  36.714  1.00  0.00     0.188 C 
ENDROOT
BRANCH   1   2
ATOM      2  O   UNL A   1      39.050  31.769  35.989  1.00  0.00    -0.376 OA
BRANCH   2   3
ATOM      3  C   UNL A   1      38.909  31.585  34.600  1.00  0.00     0.202 C 
BRANCH   3   4
ATOM      4  C   UNL A   1      38.376  30.246  34.096  1.00  0.00     0.261 C 
BRANCH   4   5
ATOM      5  O   UNL A   1      37.393  30.161  33.061  1.00  0.00    -0.462 OA
BRANCH   5   6
ATOM      6  C   UNL A   1      37.707  29.559  31.878  1.00  0.00     0.328 C 
ATOM      7  O   UNL A   1      37.500  28.392  31.579  1.00  0.00    -0.250 OA
BRANCH   6   8
ATOM      8  C   UNL A   1      38.343  30.542  30.896  1.00  0.00     0.195 C 
ATOM      9  N   UNL A   1      37.716  30.552  29.583  1.00  0.00    -0.326 N 
ATOM     10  C   UNL A   1      38.652  30.215  28.525  1.00  0.00     0.120 C 
ATOM     11  C   UNL A   1      39.887  29.658  29.209  1.00  0.00     0.024 C 
ATOM     12  C   UNL A   1      39.811  30.163  30.647  1.00  0.00     0.039 C 
BRANCH   9  13
ATOM     13  C   UNL A   1      36.421  30.933  29.306  1.00  0.00     0.264 C 
ATOM     14  O   UNL A   1      35.579  30.953  30.215  1.00  0.00    -0.271 OA
BRANCH  13  15
ATOM     15  C   UNL A   1      35.951  31.220  27.837  1.00  0.00     0.363 C 
BRANCH  15  16
ATOM     16  O   UNL A   1      34.606  31.308  27.362  1.00  0.00    -0.385 OA
BRANCH  16  17
ATOM     17  N   UNL A   1      33.932  30.131  27.726  1.00  0.00    -0.091 NA
ATOM     18  C   UNL A   1      30.824  23.375  23.389  1.00  0.00     0.014 C 
ATOM     19  C   UNL A   1      31.587  24.305  24.377  1.00  0.00    -0.003 C 
ATOM     20  C   UNL A   1      30.488  25.072  25.115  1.00  0.00     0.010 C 
ATOM     21  C   UNL A   1      32.689  25.201  23.723  1.00  0.00     0.001 C 
ATOM     22  C   UNL A   1      32.557  23.512  25.271  1.00  0.00     0.120 C 
ATOM     23  C   UNL A   1      30.018  26.285  24.298  1.00  0.00     0.005 C 
ATOM     24  C   UNL A   1      32.140  26.302  22.837  1.00  0.00    -0.003 C 
ATOM     25  C   UNL A   1      33.680  24.159  23.188  1.00  0.00     0.007 C 
ATOM     26  C   UNL A   1      33.609  23.032  24.254  1.00  0.00     0.032 C 
ATOM     27  C   UNL A   1      31.147  27.138  23.657  1.00  0.00     0.002 C 
ATOM     28  C   UNL A   1      33.148  27.260  22.174  1.00  0.00     0.008 C 
ATOM     29  C   UNL A   1      31.811  28.194  24.658  1.00  0.00    -0.008 C 
ATOM     30  C   UNL A   1      33.853  28.310  23.052  1.00  0.00     0.032 C 
ATOM     31  C   UNL A   1      33.264  28.612  24.404  1.00  0.00    -0.062 C 
ATOM     32  C   UNL A   1      31.782  27.657  26.117  1.00  0.00     0.018 C 
ATOM     33  C   UNL A   1      30.908  29.425  24.393  1.00  0.00     0.016 C 
ATOM     34  C   UNL A   1      34.029  29.239  25.338  1.00  0.00     0.027 C 
ATOM     35  C   UNL A   1      32.676  28.213  27.213  1.00  0.00     0.061 C 
ATOM     36  C   UNL A   1      33.612  29.311  26.770  1.00  0.00     0.080 C 
BRANCH  22  37
ATOM     37  O   UNL A   1      31.968  22.470  26.012  1.00  0.00    -0.393 OA
ATOM     38  H   UNL A   1      31.039  22.685  26.190  1.00  0.00     0.210 HD
ENDBRANCH  22  37
ENDBRANCH  16  17
ENDBRANCH  15  16
ENDBRANCH  13  15
ENDBRANCH   9  13
ENDBRANCH   6   8
ENDBRANCH   5   6
ENDBRANCH   4   5
ENDBRANCH   3   4
ENDBRANCH   2   3
ENDBRANCH   1   2
BRANCH   1  39
ATOM     39  C   UNL A   1      37.156  33.461  36.366  1.00  0.00     0.188 C 
BRANCH  39  40
ATOM     40  O   UNL A   1      36.003  33.336  35.551  1.00  0.00    -0.376 OA
BRANCH  40  41
ATOM     41  C   UNL A   1      35.979  34.120  34.369  1.00  0.00     0.202 C 
BRANCH  41  42
ATOM     42  C   UNL A   1      36.066  33.356  33.039  1.00  0.00     0.261 C 
BRANCH  42  43
ATOM     43  O   UNL A   1      37.296  33.489  32.308  1.00  0.00    -0.460 OA
BRANCH  43  44
ATOM     44  C   UNL A   1      37.238  33.912  31.025  1.00  0.00     0.338 C 
ATOM     45  O   UNL A   1      36.234  34.199  30.395  1.00  0.00    -0.246 OA
BRANCH  44  46
ATOM     46  C   UNL A   1      38.626  34.223  30.602  1.00  0.00     0.060 A 
ATOM     47  C   UNL A   1      38.891  34.466  29.243  1.00  0.00     0.016 A 
ATOM     48  C   UNL A   1      39.637  34.372  31.553  1.00  0.00     0.016 A 
ATOM     49  C   UNL A   1      40.173  34.839  28.832  1.00  0.00     0.010 A 
ATOM     50  C   UNL A   1      40.929  34.701  31.136  1.00  0.00     0.010 A 
ATOM     51  C   UNL A   1      41.209  34.900  29.773  1.00  0.00    -0.014 A 
BRANCH  51  52
ATOM     52  C   UNL A   1      42.619  34.868  29.316  1.00  0.00     0.031 A 
ATOM     53  C   UNL A   1      43.206  36.164  28.825  1.00  0.00     0.074 A 
ATOM     54  C   UNL A   1      43.349  33.740  29.297  1.00  0.00     0.049 A 
ATOM     55  N   UNL A   1      44.378  36.402  28.299  1.00  0.00    -0.248 NA
ATOM     56  C   UNL A   1      42.343  37.353  28.939  1.00  0.00     0.031 C 
ATOM     57  C   UNL A   1      42.906  32.431  29.767  1.00  0.00     0.029 A 
ATOM     58  N   UNL A   1      44.623  33.522  28.833  1.00  0.00    -0.354 N 
ATOM     59  C   UNL A   1      44.381  37.758  27.993  1.00  0.00     0.074 A 
ATOM     60  C   UNL A   1      43.093  38.287  28.381  1.00  0.00     0.031 C 
ATOM     61  C   UNL A   1      43.884  31.534  29.537  1.00  0.00     0.029 A 
ATOM     62  C   UNL A   1      45.006  32.202  28.879  1.00  0.00     0.049 A 
ATOM     63  H   UNL A   1      45.206  34.240  28.498  1.00  0.00     0.167 HD
ATOM     64  C   UNL A   1      45.368  38.503  27.445  1.00  0.00     0.034 A 
ATOM     65  C   UNL A   1      46.125  31.605  28.418  1.00  0.00     0.034 A 
ATOM     66  C   UNL A   1      46.642  37.975  27.049  1.00  0.00     0.049 A 
ATOM     67  C   UNL A   1      47.190  32.443  27.753  1.00  0.00     0.074 A 
ATOM     68  C   UNL A   1      47.720  38.648  26.504  1.00  0.00     0.029 A 
ATOM     69  N   UNL A   1      47.002  36.639  27.131  1.00  0.00    -0.354 N 
ATOM     70  N   UNL A   1      47.226  33.741  27.563  1.00  0.00    -0.248 NA
ATOM     71  C   UNL A   1      48.384  31.737  27.264  1.00  0.00     0.031 C 
ATOM     72  C   UNL A   1      48.721  37.711  26.227  1.00  0.00     0.029 A 
ATOM     73  C   UNL A   1      48.281  36.462  26.636  1.00  0.00     0.049 A 
ATOM     74  H   UNL A   1      46.430  35.921  27.489  1.00  0.00     0.167 HD
ATOM     75  C   UNL A   1      48.457  34.011  26.973  1.00  0.00     0.074 A 
ATOM     76  C   UNL A   1      49.144  32.742  26.847  1.00  0.00     0.031 C 
ATOM     77  C   UNL A   1      48.972  35.198  26.565  1.00  0.00     0.034 A 
BRANCH  64  78
ATOM     78  C   UNL A   1      45.089  39.970  27.248  1.00  0.00     0.023 A 
ATOM     79  C   UNL A   1      44.598  40.429  26.008  1.00  0.00     0.012 A 
ATOM     80  C   UNL A   1      45.316  40.892  28.287  1.00  0.00     0.148 A 
ATOM     81  C   UNL A   1      44.382  41.789  25.790  1.00  0.00     0.002 A 
ATOM     82  C   UNL A   1      45.050  42.240  28.078  1.00  0.00     0.091 A 
ATOM     83  F   UNL A   1      45.811  40.441  29.449  1.00  0.00    -0.205 F 
ATOM     84  C   UNL A   1      44.599  42.692  26.828  1.00  0.00     0.022 A 
BRANCH  82  85
ATOM     85  S   UNL A   1      45.224  43.468  29.377  1.00  0.00     0.127 S 
ATOM     86  O   UNL A   1      44.120  43.113  30.268  1.00  0.00    -0.237 OA
ATOM     87  O   UNL A   1      46.554  43.167  29.907  1.00  0.00    -0.237 OA
ATOM     88  O   UNL A   1      45.111  44.761  28.721  1.00  0.00    -0.744 OA
ENDBRANCH  82  85
ENDBRANCH  64  78
BRANCH  65  89
ATOM     89  C   UNL A   1      46.319  30.136  28.598  1.00  0.00     0.023 A 
ATOM     90  C   UNL A   1      46.988  29.666  29.745  1.00  0.00     0.012 A 
ATOM     91  C   UNL A   1      45.839  29.208  27.653  1.00  0.00     0.148 A 
ATOM     92  C   UNL A   1      47.197  28.299  29.936  1.00  0.00     0.002 A 
ATOM     93  C   UNL A   1      46.007  27.845  27.875  1.00  0.00     0.091 A 
ATOM     94  F   UNL A   1      45.222  29.678  26.561  1.00  0.00    -0.205 F 
ATOM     95  C   UNL A   1      46.699  27.390  29.008  1.00  0.00     0.022 A 
BRANCH  93  96
ATOM     96  S   UNL A   1      45.306  26.592  26.795  1.00  0.00     0.127 S 
ATOM     97  O   UNL A   1      45.873  26.963  25.500  1.00  0.00    -0.237 OA
ATOM     98  O   UNL A   1      45.848  25.363  27.375  1.00  0.00    -0.237 OA
ATOM     99  O   UNL A   1      43.862  26.732  26.909  1.00  0.00    -0.744 OA
ENDBRANCH  93  96
ENDBRANCH  65  89
BRANCH  77 100
ATOM    100  C   UNL A   1      50.367  35.205  25.990  1.00  0.00     0.023 A 
ATOM    101  C   UNL A   1      50.556  35.153  24.595  1.00  0.00     0.012 A 
ATOM    102  C   UNL A   1      51.486  35.356  26.835  1.00  0.00     0.148 A 
ATOM    103  C   UNL A   1      51.840  35.218  24.053  1.00  0.00     0.002 A 
ATOM    104  C   UNL A   1      52.756  35.472  26.283  1.00  0.00     0.091 A 
ATOM    105  F   UNL A   1      51.286  35.389  28.160  1.00  0.00    -0.205 F 
ATOM    106  C   UNL A   1      52.937  35.390  24.894  1.00  0.00     0.022 A 
BRANCH 104 107
ATOM    107  S   UNL A   1      54.214  35.797  27.283  1.00  0.00     0.127 S 
ATOM    108  O   UNL A   1      55.122  34.741  26.838  1.00  0.00    -0.237 OA
ATOM    109  O   UNL A   1      54.589  37.145  26.854  1.00  0.00    -0.237 OA
ATOM    110  O   UNL A   1      53.780  35.703  28.670  1.00  0.00    -0.744 OA
ENDBRANCH 104 107
ENDBRANCH  77 100
ENDBRANCH  51  52
ENDBRANCH  44  46
ENDBRANCH  43  44
ENDBRANCH  42  43
ENDBRANCH  41  42
ENDBRANCH  40  41
ENDBRANCH  39  40
ENDBRANCH   1  39
TORSDOF 25
ENDMDL
