MODEL 1
REMARK VINA RESULT:     -11.5      0.000      0.000
REMARK SMILES Cc1ccc(C(=O)Nc2cccc(F)c2C(=O)OCCOCCOCCOC(=O)c2ccc(-c3c4nc(c(-c5cccc(S(=O)(=O)[O-])c5F)c5ccc([nH]5)c(-c5cccc(S(=O)(=O)[O-])c5F)c5nc(c(-c6cccc(S(=O)(=O)[O-])c6F)c6ccc3[nH]6)C=C5)C=C4)cc2)c(F)c1
REMARK SMILES IDX 23 1 22 2 21 3 20 4 19 5 18 6 16 7 17 8 15 9 9 10 10 11
REMARK SMILES IDX 11 12 13 13 12 14 14 15 8 16 6 17 7 18 5 20 1 21 2 22 3 23
REMARK SMILES IDX 95 24 4 25 93 26 94 27 24 28 25 29 26 30 27 31 28 32 29 33
REMARK SMILES IDX 30 34 31 35 92 36 32 37 91 38 33 39 34 40 35 41 85 42 36 43
REMARK SMILES IDX 90 44 84 45 86 46 37 47 89 48 83 49 82 50 38 52 70 53 50 54
REMARK SMILES IDX 69 55 51 56 54 57 68 58 87 59 52 60 53 61 67 63 88 64 55 65
REMARK SMILES IDX 39 66 40 67 48 68 41 69 43 70 49 71 42 72 44 73 45 74 46 75
REMARK SMILES IDX 47 76 71 77 72 78 80 79 73 80 75 81 81 82 74 83 76 84 77 85
REMARK SMILES IDX 78 86 79 87 56 88 57 89 65 90 58 91 60 92 66 93 59 94 61 95
REMARK SMILES IDX 62 96 63 97 64 98
REMARK H PARENT 8 19 86 51 54 62
REMARK Flexibility Score: inf
ROOT
ATOM      1  C   UNL A   1      28.575  31.398  23.480  1.00  0.00     0.188 C 
ENDROOT
BRANCH   1   2
ATOM      2  C   UNL A   1      29.055  30.356  22.448  1.00  0.00     0.188 C 
BRANCH   2   3
ATOM      3  O   UNL A   1      28.504  29.065  22.560  1.00  0.00    -0.376 OA
BRANCH   3   4
ATOM      4  C   UNL A   1      29.180  28.052  23.288  1.00  0.00     0.202 C 
BRANCH   4   5
ATOM      5  C   UNL A   1      28.567  26.716  23.754  1.00  0.00     0.261 C 
BRANCH   5   6
ATOM      6  O   UNL A   1      29.375  25.892  24.598  1.00  0.00    -0.460 OA
BRANCH   6   7
ATOM      7  C   UNL A   1      30.368  25.206  23.981  1.00  0.00     0.343 C 
ATOM      8  O   UNL A   1      30.250  24.415  23.056  1.00  0.00    -0.246 OA
BRANCH   7   9
ATOM      9  C   UNL A   1      31.666  25.715  24.442  1.00  0.00     0.119 A 
ATOM     10  C   UNL A   1      32.093  25.508  25.767  1.00  0.00     0.059 A 
ATOM     11  C   UNL A   1      33.348  25.991  26.166  1.00  0.00     0.027 A 
ATOM     12  C   UNL A   1      34.136  26.729  25.278  1.00  0.00     0.005 A 
ATOM     13  C   UNL A   1      32.449  26.469  23.572  1.00  0.00     0.139 A 
ATOM     14  C   UNL A   1      33.677  26.981  23.985  1.00  0.00     0.040 A 
ATOM     15  F   UNL A   1      32.024  26.743  22.330  1.00  0.00    -0.206 F 
BRANCH  10  16
ATOM     16  N   UNL A   1      31.274  24.829  26.684  1.00  0.00    -0.321 N 
ATOM     17  C   UNL A   1      30.978  23.485  26.799  1.00  0.00     0.258 C 
ATOM     18  O   UNL A   1      30.021  23.184  27.505  1.00  0.00    -0.269 OA
ATOM     19  H   UNL A   1      30.841  25.405  27.355  1.00  0.00     0.170 HD
BRANCH  17  20
ATOM     20  C   UNL A   1      31.870  22.433  26.227  1.00  0.00     0.075 A 
ATOM     21  C   UNL A   1      34.462  19.327  24.698  1.00  0.00     0.044 C 
ATOM     22  C   UNL A   1      33.576  20.417  25.218  1.00  0.00    -0.048 A 
ATOM     23  C   UNL A   1      32.377  20.711  24.573  1.00  0.00     0.004 A 
ATOM     24  C   UNL A   1      33.962  21.198  26.312  1.00  0.00     0.043 A 
ATOM     25  C   UNL A   1      31.561  21.739  25.047  1.00  0.00     0.017 A 
ATOM     26  C   UNL A   1      33.107  22.180  26.821  1.00  0.00     0.136 A 
ATOM     27  F   UNL A   1      33.523  22.867  27.894  1.00  0.00    -0.206 F 
ENDBRANCH  17  20
ENDBRANCH  10  16
ENDBRANCH   7   9
ENDBRANCH   6   7
ENDBRANCH   5   6
ENDBRANCH   4   5
ENDBRANCH   3   4
ENDBRANCH   2   3
ENDBRANCH   1   2
BRANCH   1  28
ATOM     28  O   UNL A   1      29.509  32.121  24.255  1.00  0.00    -0.376 OA
BRANCH  28  29
ATOM     29  C   UNL A   1      30.422  31.410  25.073  1.00  0.00     0.202 C 
BRANCH  29  30
ATOM     30  C   UNL A   1      30.967  31.961  26.407  1.00  0.00     0.261 C 
BRANCH  30  31
ATOM     31  O   UNL A   1      32.320  31.632  26.759  1.00  0.00    -0.460 OA
BRANCH  31  32
ATOM     32  C   UNL A   1      33.017  32.622  27.372  1.00  0.00     0.338 C 
ATOM     33  O   UNL A   1      32.602  33.729  27.678  1.00  0.00    -0.246 OA
BRANCH  32  34
ATOM     34  C   UNL A   1      34.331  32.113  27.819  1.00  0.00     0.060 A 
ATOM     35  C   UNL A   1      34.453  30.744  28.096  1.00  0.00     0.016 A 
ATOM     36  C   UNL A   1      35.407  32.974  28.039  1.00  0.00     0.016 A 
ATOM     37  C   UNL A   1      35.635  30.238  28.631  1.00  0.00     0.010 A 
ATOM     38  C   UNL A   1      36.587  32.466  28.599  1.00  0.00     0.010 A 
ATOM     39  C   UNL A   1      36.693  31.103  28.934  1.00  0.00    -0.014 A 
BRANCH  39  40
ATOM     40  C   UNL A   1      37.828  30.593  29.749  1.00  0.00     0.031 A 
ATOM     41  C   UNL A   1      38.789  29.612  29.127  1.00  0.00     0.074 A 
ATOM     42  C   UNL A   1      38.044  31.048  30.998  1.00  0.00     0.049 A 
ATOM     43  N   UNL A   1      39.874  29.085  29.633  1.00  0.00    -0.248 NA
ATOM     44  C   UNL A   1      38.499  29.171  27.751  1.00  0.00     0.031 C 
ATOM     45  C   UNL A   1      37.204  32.015  31.701  1.00  0.00     0.029 A 
ATOM     46  N   UNL A   1      39.038  30.749  31.898  1.00  0.00    -0.354 N 
ATOM     47  C   UNL A   1      40.384  28.242  28.652  1.00  0.00     0.074 A 
ATOM     48  C   UNL A   1      39.484  28.311  27.523  1.00  0.00     0.031 C 
ATOM     49  C   UNL A   1      37.712  32.223  32.929  1.00  0.00     0.029 A 
ATOM     50  C   UNL A   1      38.896  31.387  33.110  1.00  0.00     0.049 A 
ATOM     51  H   UNL A   1      39.782  30.136  31.696  1.00  0.00     0.167 HD
ATOM     52  C   UNL A   1      41.512  27.497  28.678  1.00  0.00     0.034 A 
ATOM     53  C   UNL A   1      39.632  31.299  34.238  1.00  0.00     0.034 A 
ATOM     54  C   UNL A   1      42.426  27.455  29.787  1.00  0.00     0.049 A 
ATOM     55  C   UNL A   1      40.863  30.427  34.250  1.00  0.00     0.074 A 
ATOM     56  C   UNL A   1      43.619  26.762  29.883  1.00  0.00     0.029 A 
ATOM     57  N   UNL A   1      42.249  28.120  30.989  1.00  0.00    -0.354 N 
ATOM     58  N   UNL A   1      41.391  29.728  33.274  1.00  0.00    -0.248 NA
ATOM     59  C   UNL A   1      41.624  30.354  35.509  1.00  0.00     0.031 C 
ATOM     60  C   UNL A   1      44.148  26.977  31.156  1.00  0.00     0.029 A 
ATOM     61  C   UNL A   1      43.305  27.840  31.838  1.00  0.00     0.049 A 
ATOM     62  H   UNL A   1      41.487  28.704  31.206  1.00  0.00     0.167 HD
ATOM     63  C   UNL A   1      42.560  29.171  33.786  1.00  0.00     0.074 A 
ATOM     64  C   UNL A   1      42.673  29.622  35.156  1.00  0.00     0.031 C 
ATOM     65  C   UNL A   1      43.449  28.351  33.176  1.00  0.00     0.034 A 
BRANCH  52  66
ATOM     66  C   UNL A   1      41.877  26.691  27.460  1.00  0.00     0.023 A 
ATOM     67  C   UNL A   1      42.628  27.293  26.432  1.00  0.00     0.012 A 
ATOM     68  C   UNL A   1      41.614  25.307  27.411  1.00  0.00     0.148 A 
ATOM     69  C   UNL A   1      43.112  26.530  25.371  1.00  0.00     0.002 A 
ATOM     70  C   UNL A   1      42.139  24.546  26.373  1.00  0.00     0.091 A 
ATOM     71  F   UNL A   1      40.887  24.761  28.396  1.00  0.00    -0.205 F 
ATOM     72  C   UNL A   1      42.882  25.156  25.349  1.00  0.00     0.022 A 
BRANCH  70  73
ATOM     73  S   UNL A   1      41.979  22.758  26.300  1.00  0.00     0.127 S 
ATOM     74  O   UNL A   1      42.678  22.450  25.052  1.00  0.00    -0.237 OA
ATOM     75  O   UNL A   1      42.683  22.339  27.512  1.00  0.00    -0.237 OA
ATOM     76  O   UNL A   1      40.550  22.478  26.289  1.00  0.00    -0.744 OA
ENDBRANCH  70  73
ENDBRANCH  52  66
BRANCH  53  77
ATOM     77  C   UNL A   1      39.251  32.092  35.444  1.00  0.00     0.023 A 
ATOM     78  C   UNL A   1      39.655  33.436  35.550  1.00  0.00     0.012 A 
ATOM     79  C   UNL A   1      38.494  31.521  36.487  1.00  0.00     0.148 A 
ATOM     80  C   UNL A   1      39.342  34.189  36.683  1.00  0.00     0.002 A 
ATOM     81  C   UNL A   1      38.139  32.290  37.590  1.00  0.00     0.091 A 
ATOM     82  F   UNL A   1      38.143  30.230  36.386  1.00  0.00    -0.205 F 
ATOM     83  C   UNL A   1      38.575  33.620  37.696  1.00  0.00     0.022 A 
BRANCH  81  84
ATOM     84  S   UNL A   1      37.081  31.670  38.903  1.00  0.00     0.127 S 
ATOM     85  O   UNL A   1      36.869  30.285  38.484  1.00  0.00    -0.237 OA
ATOM     86  O   UNL A   1      37.931  31.826  40.084  1.00  0.00    -0.237 OA
ATOM     87  O   UNL A   1      35.897  32.517  38.893  1.00  0.00    -0.744 OA
ENDBRANCH  81  84
ENDBRANCH  53  77
BRANCH  65  88
ATOM     88  C   UNL A   1      44.666  27.899  33.943  1.00  0.00     0.023 A 
ATOM     89  C   UNL A   1      45.836  28.680  33.922  1.00  0.00     0.012 A 
ATOM     90  C   UNL A   1      44.587  26.792  34.814  1.00  0.00     0.148 A 
ATOM     91  C   UNL A   1      46.913  28.364  34.750  1.00  0.00     0.002 A 
ATOM     92  C   UNL A   1      45.643  26.514  35.673  1.00  0.00     0.091 A 
ATOM     93  F   UNL A   1      43.465  26.058  34.813  1.00  0.00    -0.205 F 
ATOM     94  C   UNL A   1      46.811  27.293  35.635  1.00  0.00     0.022 A 
BRANCH  92  95
ATOM     95  S   UNL A   1      45.562  25.227  36.925  1.00  0.00     0.127 S 
ATOM     96  O   UNL A   1      45.795  24.022  36.129  1.00  0.00    -0.237 OA
ATOM     97  O   UNL A   1      46.665  25.592  37.814  1.00  0.00    -0.237 OA
ATOM     98  O   UNL A   1      44.238  25.323  37.524  1.00  0.00    -0.744 OA
ENDBRANCH  92  95
ENDBRANCH  65  88
ENDBRANCH  39  40
ENDBRANCH  32  34
ENDBRANCH  31  32
ENDBRANCH  30  31
ENDBRANCH  29  30
ENDBRANCH  28  29
ENDBRANCH   1  28
TORSDOF 22
ENDMDL
MODEL 2
REMARK VINA RESULT:     -11.2      2.930      8.469
REMARK SMILES Cc1ccc(C(=O)Nc2cccc(F)c2C(=O)OCCOCCOCCOC(=O)c2ccc(-c3c4nc(c(-c5cccc(S(=O)(=O)[O-])c5F)c5ccc([nH]5)c(-c5cccc(S(=O)(=O)[O-])c5F)c5nc(c(-c6cccc(S(=O)(=O)[O-])c6F)c6ccc3[nH]6)C=C5)C=C4)cc2)c(F)c1
REMARK SMILES IDX 23 1 22 2 21 3 20 4 19 5 18 6 16 7 17 8 15 9 9 10 10 11
REMARK SMILES IDX 11 12 13 13 12 14 14 15 8 16 6 17 7 18 5 20 1 21 2 22 3 23
REMARK SMILES IDX 95 24 4 25 93 26 94 27 24 28 25 29 26 30 27 31 28 32 29 33
REMARK SMILES IDX 30 34 31 35 92 36 32 37 91 38 33 39 34 40 35 41 85 42 36 43
REMARK SMILES IDX 90 44 84 45 86 46 37 47 89 48 83 49 82 50 38 52 70 53 50 54
REMARK SMILES IDX 69 55 51 56 54 57 68 58 87 59 52 60 53 61 67 63 88 64 55 65
REMARK SMILES IDX 39 66 40 67 48 68 41 69 43 70 49 71 42 72 44 73 45 74 46 75
REMARK SMILES IDX 47 76 71 77 72 78 80 79 73 80 75 81 81 82 74 83 76 84 77 85
REMARK SMILES IDX 78 86 79 87 56 88 57 89 65 90 58 91 60 92 66 93 59 94 61 95
REMARK SMILES IDX 62 96 63 97 64 98
REMARK H PARENT 8 19 86 51 54 62
REMARK Flexibility Score: inf
ROOT
ATOM      1  C   UNL A   1      35.302  33.316  28.393  1.00  0.00     0.188 C 
ENDROOT
BRANCH   1   2
ATOM      2  C   UNL A   1      34.904  31.883  28.805  1.00  0.00     0.188 C 
BRANCH   2   3
ATOM      3  O   UNL A   1      33.795  31.326  28.139  1.00  0.00    -0.376 OA
BRANCH   3   4
ATOM      4  C   UNL A   1      33.976  30.359  27.117  1.00  0.00     0.202 C 
BRANCH   4   5
ATOM      5  C   UNL A   1      34.245  28.857  27.336  1.00  0.00     0.261 C 
BRANCH   5   6
ATOM      6  O   UNL A   1      33.477  27.940  26.553  1.00  0.00    -0.460 OA
BRANCH   6   7
ATOM      7  C   UNL A   1      32.178  27.797  26.914  1.00  0.00     0.343 C 
ATOM      8  O   UNL A   1      31.682  28.069  27.998  1.00  0.00    -0.246 OA
BRANCH   7   9
ATOM      9  C   UNL A   1      31.381  27.463  25.727  1.00  0.00     0.119 A 
ATOM     10  C   UNL A   1      30.714  26.228  25.629  1.00  0.00     0.059 A 
ATOM     11  C   UNL A   1      29.945  25.952  24.488  1.00  0.00     0.027 A 
ATOM     12  C   UNL A   1      29.897  26.866  23.432  1.00  0.00     0.005 A 
ATOM     13  C   UNL A   1      31.343  28.357  24.660  1.00  0.00     0.139 A 
ATOM     14  C   UNL A   1      30.611  28.062  23.513  1.00  0.00     0.040 A 
ATOM     15  F   UNL A   1      32.036  29.505  24.702  1.00  0.00    -0.206 F 
BRANCH  10  16
ATOM     16  N   UNL A   1      30.817  25.276  26.657  1.00  0.00    -0.321 N 
ATOM     17  C   UNL A   1      31.528  24.094  26.716  1.00  0.00     0.258 C 
ATOM     18  O   UNL A   1      31.230  23.309  27.612  1.00  0.00    -0.269 OA
ATOM     19  H   UNL A   1      30.299  25.487  27.467  1.00  0.00     0.170 HD
BRANCH  17  20
ATOM     20  C   UNL A   1      32.709  23.843  25.839  1.00  0.00     0.075 A 
ATOM     21  C   UNL A   1      36.057  23.157  23.189  1.00  0.00     0.044 C 
ATOM     22  C   UNL A   1      34.901  23.376  24.115  1.00  0.00    -0.048 A 
ATOM     23  C   UNL A   1      35.070  24.119  25.280  1.00  0.00     0.004 A 
ATOM     24  C   UNL A   1      33.656  22.788  23.865  1.00  0.00     0.043 A 
ATOM     25  C   UNL A   1      33.997  24.307  26.152  1.00  0.00     0.017 A 
ATOM     26  C   UNL A   1      32.570  23.038  24.708  1.00  0.00     0.136 A 
ATOM     27  F   UNL A   1      31.397  22.474  24.389  1.00  0.00    -0.206 F 
ENDBRANCH  17  20
ENDBRANCH  10  16
ENDBRANCH   7   9
ENDBRANCH   6   7
ENDBRANCH   5   6
ENDBRANCH   4   5
ENDBRANCH   3   4
ENDBRANCH   2   3
ENDBRANCH   1   2
BRANCH   1  28
ATOM     28  O   UNL A   1      34.824  34.428  29.121  1.00  0.00    -0.376 OA
BRANCH  28  29
ATOM     29  C   UNL A   1      33.464  34.806  28.989  1.00  0.00     0.202 C 
BRANCH  29  30
ATOM     30  C   UNL A   1      32.879  36.087  29.618  1.00  0.00     0.261 C 
BRANCH  30  31
ATOM     31  O   UNL A   1      33.308  36.433  30.944  1.00  0.00    -0.460 OA
BRANCH  31  32
ATOM     32  C   UNL A   1      32.885  35.598  31.927  1.00  0.00     0.338 C 
ATOM     33  O   UNL A   1      31.736  35.258  32.154  1.00  0.00    -0.246 OA
BRANCH  32  34
ATOM     34  C   UNL A   1      34.048  34.972  32.593  1.00  0.00     0.060 A 
ATOM     35  C   UNL A   1      35.304  35.578  32.443  1.00  0.00     0.016 A 
ATOM     36  C   UNL A   1      33.925  33.769  33.287  1.00  0.00     0.016 A 
ATOM     37  C   UNL A   1      36.445  34.962  32.951  1.00  0.00     0.010 A 
ATOM     38  C   UNL A   1      35.078  33.141  33.779  1.00  0.00     0.010 A 
ATOM     39  C   UNL A   1      36.348  33.714  33.578  1.00  0.00    -0.014 A 
BRANCH  39  40
ATOM     40  C   UNL A   1      37.593  32.955  33.866  1.00  0.00     0.031 A 
ATOM     41  C   UNL A   1      38.406  33.321  35.082  1.00  0.00     0.074 A 
ATOM     42  C   UNL A   1      37.962  31.911  33.099  1.00  0.00     0.049 A 
ATOM     43  N   UNL A   1      39.489  32.758  35.553  1.00  0.00    -0.248 NA
ATOM     44  C   UNL A   1      37.934  34.464  35.884  1.00  0.00     0.031 C 
ATOM     45  C   UNL A   1      37.249  31.441  31.913  1.00  0.00     0.029 A 
ATOM     46  N   UNL A   1      39.034  31.058  33.206  1.00  0.00    -0.354 N 
ATOM     47  C   UNL A   1      39.837  33.483  36.685  1.00  0.00     0.074 A 
ATOM     48  C   UNL A   1      38.862  34.540  36.829  1.00  0.00     0.031 C 
ATOM     49  C   UNL A   1      37.908  30.391  31.394  1.00  0.00     0.029 A 
ATOM     50  C   UNL A   1      39.103  30.128  32.194  1.00  0.00     0.049 A 
ATOM     51  H   UNL A   1      39.692  31.108  33.937  1.00  0.00     0.167 HD
ATOM     52  C   UNL A   1      40.861  33.274  37.544  1.00  0.00     0.034 A 
ATOM     53  C   UNL A   1      40.028  29.180  31.936  1.00  0.00     0.034 A 
ATOM     54  C   UNL A   1      41.810  32.202  37.421  1.00  0.00     0.049 A 
ATOM     55  C   UNL A   1      41.184  28.998  32.890  1.00  0.00     0.074 A 
ATOM     56  C   UNL A   1      42.856  31.887  38.271  1.00  0.00     0.029 A 
ATOM     57  N   UNL A   1      41.840  31.280  36.388  1.00  0.00    -0.354 N 
ATOM     58  N   UNL A   1      41.430  29.620  34.018  1.00  0.00    -0.248 NA
ATOM     59  C   UNL A   1      42.173  27.958  32.557  1.00  0.00     0.031 C 
ATOM     60  C   UNL A   1      43.541  30.797  37.734  1.00  0.00     0.029 A 
ATOM     61  C   UNL A   1      42.896  30.406  36.571  1.00  0.00     0.049 A 
ATOM     62  H   UNL A   1      41.206  31.252  35.636  1.00  0.00     0.167 HD
ATOM     63  C   UNL A   1      42.572  29.023  34.546  1.00  0.00     0.074 A 
ATOM     64  C   UNL A   1      42.964  27.980  33.623  1.00  0.00     0.031 C 
ATOM     65  C   UNL A   1      43.238  29.323  35.686  1.00  0.00     0.034 A 
BRANCH  52  66
ATOM     66  C   UNL A   1      41.004  34.182  38.736  1.00  0.00     0.023 A 
ATOM     67  C   UNL A   1      41.955  35.222  38.703  1.00  0.00     0.012 A 
ATOM     68  C   UNL A   1      40.096  34.104  39.811  1.00  0.00     0.148 A 
ATOM     69  C   UNL A   1      42.000  36.170  39.723  1.00  0.00     0.002 A 
ATOM     70  C   UNL A   1      40.119  35.079  40.800  1.00  0.00     0.091 A 
ATOM     71  F   UNL A   1      39.210  33.098  39.825  1.00  0.00    -0.205 F 
ATOM     72  C   UNL A   1      41.074  36.110  40.761  1.00  0.00     0.022 A 
BRANCH  70  73
ATOM     73  S   UNL A   1      38.913  35.145  42.130  1.00  0.00     0.127 S 
ATOM     74  O   UNL A   1      39.229  33.926  42.876  1.00  0.00    -0.237 OA
ATOM     75  O   UNL A   1      39.279  36.387  42.812  1.00  0.00    -0.237 OA
ATOM     76  O   UNL A   1      37.604  35.154  41.493  1.00  0.00    -0.744 OA
ENDBRANCH  70  73
ENDBRANCH  52  66
BRANCH  53  77
ATOM     77  C   UNL A   1      39.883  28.297  30.742  1.00  0.00     0.023 A 
ATOM     78  C   UNL A   1      39.026  27.181  30.801  1.00  0.00     0.012 A 
ATOM     79  C   UNL A   1      40.591  28.552  29.550  1.00  0.00     0.148 A 
ATOM     80  C   UNL A   1      38.898  26.320  29.710  1.00  0.00     0.002 A 
ATOM     81  C   UNL A   1      40.420  27.721  28.448  1.00  0.00     0.091 A 
ATOM     82  F   UNL A   1      41.427  29.601  29.519  1.00  0.00    -0.205 F 
ATOM     83  C   UNL A   1      39.586  26.595  28.532  1.00  0.00     0.022 A 
BRANCH  81  84
ATOM     84  S   UNL A   1      41.197  28.046  26.861  1.00  0.00     0.127 S 
ATOM     85  O   UNL A   1      40.888  26.822  26.123  1.00  0.00    -0.237 OA
ATOM     86  O   UNL A   1      40.476  29.233  26.401  1.00  0.00    -0.237 OA
ATOM     87  O   UNL A   1      42.608  28.267  27.147  1.00  0.00    -0.744 OA
ENDBRANCH  81  84
ENDBRANCH  53  77
BRANCH  65  88
ATOM     88  C   UNL A   1      44.447  28.503  36.059  1.00  0.00     0.023 A 
ATOM     89  C   UNL A   1      45.731  28.934  35.677  1.00  0.00     0.012 A 
ATOM     90  C   UNL A   1      44.317  27.399  36.929  1.00  0.00     0.148 A 
ATOM     91  C   UNL A   1      46.867  28.277  36.148  1.00  0.00     0.002 A 
ATOM     92  C   UNL A   1      45.454  26.782  37.436  1.00  0.00     0.091 A 
ATOM     93  F   UNL A   1      43.083  27.002  37.275  1.00  0.00    -0.205 F 
ATOM     94  C   UNL A   1      46.730  27.214  37.038  1.00  0.00     0.022 A 
BRANCH  92  95
ATOM     95  S   UNL A   1      45.382  25.481  38.673  1.00  0.00     0.127 S 
ATOM     96  O   UNL A   1      46.800  25.275  38.972  1.00  0.00    -0.237 OA
ATOM     97  O   UNL A   1      44.619  26.118  39.746  1.00  0.00    -0.237 OA
ATOM     98  O   UNL A   1      44.717  24.352  38.038  1.00  0.00    -0.744 OA
ENDBRANCH  92  95
ENDBRANCH  65  88
ENDBRANCH  39  40
ENDBRANCH  32  34
ENDBRANCH  31  32
ENDBRANCH  30  31
ENDBRANCH  29  30
ENDBRANCH  28  29
ENDBRANCH   1  28
TORSDOF 22
ENDMDL
MODEL 3
REMARK VINA RESULT:     -11.1      1.855      2.548
REMARK SMILES Cc1ccc(C(=O)Nc2cccc(F)c2C(=O)OCCOCCOCCOC(=O)c2ccc(-c3c4nc(c(-c5cccc(S(=O)(=O)[O-])c5F)c5ccc([nH]5)c(-c5cccc(S(=O)(=O)[O-])c5F)c5nc(c(-c6cccc(S(=O)(=O)[O-])c6F)c6ccc3[nH]6)C=C5)C=C4)cc2)c(F)c1
REMARK SMILES IDX 23 1 22 2 21 3 20 4 19 5 18 6 16 7 17 8 15 9 9 10 10 11
REMARK SMILES IDX 11 12 13 13 12 14 14 15 8 16 6 17 7 18 5 20 1 21 2 22 3 23
REMARK SMILES IDX 95 24 4 25 93 26 94 27 24 28 25 29 26 30 27 31 28 32 29 33
REMARK SMILES IDX 30 34 31 35 92 36 32 37 91 38 33 39 34 40 35 41 85 42 36 43
REMARK SMILES IDX 90 44 84 45 86 46 37 47 89 48 83 49 82 50 38 52 70 53 50 54
REMARK SMILES IDX 69 55 51 56 54 57 68 58 87 59 52 60 53 61 67 63 88 64 55 65
REMARK SMILES IDX 39 66 40 67 48 68 41 69 43 70 49 71 42 72 44 73 45 74 46 75
REMARK SMILES IDX 47 76 71 77 72 78 80 79 73 80 75 81 81 82 74 83 76 84 77 85
REMARK SMILES IDX 78 86 79 87 56 88 57 89 65 90 58 91 60 92 66 93 59 94 61 95
REMARK SMILES IDX 62 96 63 97 64 98
REMARK H PARENT 8 19 86 51 54 62
REMARK Flexibility Score: inf
ROOT
ATOM      1  C   UNL A   1      31.308  28.472  23.579  1.00  0.00     0.188 C 
ENDROOT
BRANCH   1   2
ATOM      2  C   UNL A   1      30.308  27.492  22.930  1.00  0.00     0.188 C 
BRANCH   2   3
ATOM      3  O   UNL A   1      30.831  26.252  22.511  1.00  0.00    -0.376 OA
BRANCH   3   4
ATOM      4  C   UNL A   1      32.061  25.774  23.030  1.00  0.00     0.202 C 
BRANCH   4   5
ATOM      5  C   UNL A   1      33.397  25.706  22.264  1.00  0.00     0.261 C 
BRANCH   5   6
ATOM      6  O   UNL A   1      34.452  24.952  22.866  1.00  0.00    -0.460 OA
BRANCH   6   7
ATOM      7  C   UNL A   1      34.317  23.604  22.819  1.00  0.00     0.343 C 
ATOM      8  O   UNL A   1      33.736  22.952  21.964  1.00  0.00    -0.246 OA
BRANCH   7   9
ATOM      9  C   UNL A   1      35.170  22.997  23.850  1.00  0.00     0.119 A 
ATOM     10  C   UNL A   1      34.616  22.500  25.044  1.00  0.00     0.059 A 
ATOM     11  C   UNL A   1      35.460  21.909  25.997  1.00  0.00     0.027 A 
ATOM     12  C   UNL A   1      36.842  21.875  25.791  1.00  0.00     0.005 A 
ATOM     13  C   UNL A   1      36.550  22.978  23.665  1.00  0.00     0.139 A 
ATOM     14  C   UNL A   1      37.387  22.426  24.632  1.00  0.00     0.040 A 
ATOM     15  F   UNL A   1      37.103  23.518  22.569  1.00  0.00    -0.206 F 
BRANCH  10  16
ATOM     16  N   UNL A   1      33.236  22.595  25.286  1.00  0.00    -0.321 N 
ATOM     17  C   UNL A   1      32.210  21.721  24.985  1.00  0.00     0.258 C 
ATOM     18  O   UNL A   1      31.066  22.161  25.050  1.00  0.00    -0.269 OA
ATOM     19  H   UNL A   1      32.954  23.418  25.746  1.00  0.00     0.170 HD
BRANCH  17  20
ATOM     20  C   UNL A   1      32.460  20.268  24.748  1.00  0.00     0.075 A 
ATOM     21  C   UNL A   1      33.271  16.095  23.959  1.00  0.00     0.044 C 
ATOM     22  C   UNL A   1      32.970  17.536  24.232  1.00  0.00    -0.048 A 
ATOM     23  C   UNL A   1      33.049  18.032  25.530  1.00  0.00     0.004 A 
ATOM     24  C   UNL A   1      32.543  18.389  23.209  1.00  0.00     0.043 A 
ATOM     25  C   UNL A   1      32.750  19.371  25.787  1.00  0.00     0.017 A 
ATOM     26  C   UNL A   1      32.312  19.744  23.464  1.00  0.00     0.136 A 
ATOM     27  F   UNL A   1      31.941  20.513  22.431  1.00  0.00    -0.206 F 
ENDBRANCH  17  20
ENDBRANCH  10  16
ENDBRANCH   7   9
ENDBRANCH   6   7
ENDBRANCH   5   6
ENDBRANCH   4   5
ENDBRANCH   3   4
ENDBRANCH   2   3
ENDBRANCH   1   2
BRANCH   1  28
ATOM     28  O   UNL A   1      30.916  29.270  24.677  1.00  0.00    -0.376 OA
BRANCH  28  29
ATOM     29  C   UNL A   1      31.659  29.197  25.882  1.00  0.00     0.202 C 
BRANCH  29  30
ATOM     30  C   UNL A   1      32.006  30.433  26.737  1.00  0.00     0.261 C 
BRANCH  30  31
ATOM     31  O   UNL A   1      33.190  31.168  26.392  1.00  0.00    -0.460 OA
BRANCH  31  32
ATOM     32  C   UNL A   1      33.686  31.963  27.374  1.00  0.00     0.338 C 
ATOM     33  O   UNL A   1      33.097  32.855  27.962  1.00  0.00    -0.246 OA
BRANCH  32  34
ATOM     34  C   UNL A   1      35.014  31.470  27.801  1.00  0.00     0.060 A 
ATOM     35  C   UNL A   1      35.164  30.098  28.049  1.00  0.00     0.016 A 
ATOM     36  C   UNL A   1      36.074  32.346  28.031  1.00  0.00     0.016 A 
ATOM     37  C   UNL A   1      36.359  29.604  28.564  1.00  0.00     0.010 A 
ATOM     38  C   UNL A   1      37.269  31.850  28.571  1.00  0.00     0.010 A 
ATOM     39  C   UNL A   1      37.403  30.483  28.878  1.00  0.00    -0.014 A 
BRANCH  39  40
ATOM     40  C   UNL A   1      38.554  29.979  29.673  1.00  0.00     0.031 A 
ATOM     41  C   UNL A   1      39.458  28.935  29.067  1.00  0.00     0.074 A 
ATOM     42  C   UNL A   1      38.834  30.489  30.888  1.00  0.00     0.049 A 
ATOM     43  N   UNL A   1      40.546  28.399  29.557  1.00  0.00    -0.248 NA
ATOM     44  C   UNL A   1      39.099  28.433  27.729  1.00  0.00     0.031 C 
ATOM     45  C   UNL A   1      38.054  31.519  31.571  1.00  0.00     0.029 A 
ATOM     46  N   UNL A   1      39.855  30.204  31.762  1.00  0.00    -0.354 N 
ATOM     47  C   UNL A   1      40.989  27.491  28.603  1.00  0.00     0.074 A 
ATOM     48  C   UNL A   1      40.046  27.531  27.508  1.00  0.00     0.031 C 
ATOM     49  C   UNL A   1      38.618  31.773  32.765  1.00  0.00     0.029 A 
ATOM     50  C   UNL A   1      39.782  30.909  32.943  1.00  0.00     0.049 A 
ATOM     51  H   UNL A   1      40.570  29.558  31.564  1.00  0.00     0.167 HD
ATOM     52  C   UNL A   1      42.094  26.712  28.625  1.00  0.00     0.034 A 
ATOM     53  C   UNL A   1      40.560  30.855  34.045  1.00  0.00     0.034 A 
ATOM     54  C   UNL A   1      43.050  26.696  29.698  1.00  0.00     0.049 A 
ATOM     55  C   UNL A   1      41.763  29.944  34.055  1.00  0.00     0.074 A 
ATOM     56  C   UNL A   1      44.224  25.970  29.783  1.00  0.00     0.029 A 
ATOM     57  N   UNL A   1      42.943  27.428  30.869  1.00  0.00    -0.354 N 
ATOM     58  N   UNL A   1      42.229  29.179  33.097  1.00  0.00    -0.248 NA
ATOM     59  C   UNL A   1      42.572  29.911  35.286  1.00  0.00     0.031 C 
ATOM     60  C   UNL A   1      44.810  26.233  31.021  1.00  0.00     0.029 A 
ATOM     61  C   UNL A   1      44.023  27.157  31.689  1.00  0.00     0.049 A 
ATOM     62  H   UNL A   1      42.209  28.047  31.085  1.00  0.00     0.167 HD
ATOM     63  C   UNL A   1      43.400  28.611  33.592  1.00  0.00     0.074 A 
ATOM     64  C   UNL A   1      43.583  29.128  34.931  1.00  0.00     0.031 C 
ATOM     65  C   UNL A   1      44.237  27.731  32.992  1.00  0.00     0.034 A 
BRANCH  52  66
ATOM     66  C   UNL A   1      42.383  25.832  27.438  1.00  0.00     0.023 A 
ATOM     67  C   UNL A   1      43.212  26.314  26.405  1.00  0.00     0.012 A 
ATOM     68  C   UNL A   1      41.968  24.485  27.424  1.00  0.00     0.148 A 
ATOM     69  C   UNL A   1      43.623  25.469  25.376  1.00  0.00     0.002 A 
ATOM     70  C   UNL A   1      42.419  23.638  26.419  1.00  0.00     0.091 A 
ATOM     71  F   UNL A   1      41.170  24.054  28.411  1.00  0.00    -0.205 F 
ATOM     72  C   UNL A   1      43.241  24.129  25.391  1.00  0.00     0.022 A 
BRANCH  70  73
ATOM     73  S   UNL A   1      42.060  21.878  26.395  1.00  0.00     0.127 S 
ATOM     74  O   UNL A   1      40.639  21.871  26.049  1.00  0.00    -0.237 OA
ATOM     75  O   UNL A   1      42.948  21.401  25.335  1.00  0.00    -0.237 OA
ATOM     76  O   UNL A   1      42.371  21.382  27.729  1.00  0.00    -0.744 OA
ENDBRANCH  70  73
ENDBRANCH  52  66
BRANCH  53  77
ATOM     77  C   UNL A   1      40.253  31.721  35.221  1.00  0.00     0.023 A 
ATOM     78  C   UNL A   1      41.006  32.890  35.441  1.00  0.00     0.012 A 
ATOM     79  C   UNL A   1      39.223  31.391  36.125  1.00  0.00     0.148 A 
ATOM     80  C   UNL A   1      40.763  33.698  36.552  1.00  0.00     0.002 A 
ATOM     81  C   UNL A   1      38.949  32.228  37.202  1.00  0.00     0.091 A 
ATOM     82  F   UNL A   1      38.534  30.258  35.920  1.00  0.00    -0.205 F 
ATOM     83  C   UNL A   1      39.728  33.374  37.426  1.00  0.00     0.022 A 
BRANCH  81  84
ATOM     84  S   UNL A   1      37.581  31.937  38.330  1.00  0.00     0.127 S 
ATOM     85  O   UNL A   1      36.618  32.947  37.895  1.00  0.00    -0.237 OA
ATOM     86  O   UNL A   1      37.205  30.560  38.011  1.00  0.00    -0.237 OA
ATOM     87  O   UNL A   1      38.123  32.122  39.669  1.00  0.00    -0.744 OA
ENDBRANCH  81  84
ENDBRANCH  53  77
BRANCH  65  88
ATOM     88  C   UNL A   1      45.470  27.280  33.734  1.00  0.00     0.023 A 
ATOM     89  C   UNL A   1      46.637  28.065  33.696  1.00  0.00     0.012 A 
ATOM     90  C   UNL A   1      45.411  26.167  34.600  1.00  0.00     0.148 A 
ATOM     91  C   UNL A   1      47.730  27.748  34.501  1.00  0.00     0.002 A 
ATOM     92  C   UNL A   1      46.484  25.888  35.438  1.00  0.00     0.091 A 
ATOM     93  F   UNL A   1      44.292  25.429  34.615  1.00  0.00    -0.205 F 
ATOM     94  C   UNL A   1      47.648  26.672  35.382  1.00  0.00     0.022 A 
BRANCH  92  95
ATOM     95  S   UNL A   1      46.431  24.594  36.684  1.00  0.00     0.127 S 
ATOM     96  O   UNL A   1      47.696  24.807  37.388  1.00  0.00    -0.237 OA
ATOM     97  O   UNL A   1      45.239  24.955  37.451  1.00  0.00    -0.237 OA
ATOM     98  O   UNL A   1      46.333  23.335  35.960  1.00  0.00    -0.744 OA
ENDBRANCH  92  95
ENDBRANCH  65  88
ENDBRANCH  39  40
ENDBRANCH  32  34
ENDBRANCH  31  32
ENDBRANCH  30  31
ENDBRANCH  29  30
ENDBRANCH  28  29
ENDBRANCH   1  28
TORSDOF 22
ENDMDL
