MODEL 1
REMARK VINA RESULT:     -11.5      0.000      0.000
REMARK SMILES CC1=C(C(=O)Nc2ccccc2)[C@@H](c2ccc(C(=O)OCCOCCOCCOC(=O)c3ccc(-c4c5nc(c(-c6cccc(S(=O)(=O)[O-])c6F)c6ccc([nH]6)c(-c6cccc(S(=O)(=O)[O-])c6F)c6nc(c(-c7cccc(S(=O)(=O)[O-])c7F)c7ccc4[nH]7)C=C6)C=C5)cc3)cc2)n2ncnc2N1
REMARK SMILES IDX 24 1 23 2 22 3 21 4 20 5 18 6 19 7 17 8 14 9 15 10 96 11
REMARK SMILES IDX 16 12 95 13 13 14 1 15 2 16 3 17 102 18 101 19 97 21 100 22
REMARK SMILES IDX 98 23 99 24 4 25 5 26 6 27 7 29 8 30 12 31 9 32 11 33 10 34
REMARK SMILES IDX 25 35 26 36 27 37 28 38 29 39 30 40 31 41 32 42 33 43 94 44
REMARK SMILES IDX 34 45 93 46 35 47 36 48 37 49 87 50 38 51 92 52 86 53 88 54
REMARK SMILES IDX 39 55 91 56 85 57 84 58 40 60 72 61 52 62 71 63 53 64 56 65
REMARK SMILES IDX 70 66 89 67 54 68 55 69 69 71 90 72 57 73 41 74 42 75 50 76
REMARK SMILES IDX 43 77 45 78 51 79 44 80 46 81 47 82 48 83 49 84 73 85 74 86
REMARK SMILES IDX 82 87 75 88 77 89 83 90 76 91 78 92 79 93 80 94 81 95 58 96
REMARK SMILES IDX 59 97 67 98 60 99 62 100 68 101 61 102 63 103 64 104 65 105
REMARK SMILES IDX 66 106
REMARK H PARENT 102 20 6 28 88 59 56 70
REMARK Flexibility Score: inf
ROOT
ATOM      1  C   UNL A   1      34.089  30.267  27.864  1.00  0.00     0.188 C 
ENDROOT
BRANCH   1   2
ATOM      2  O   UNL A   1      33.701  29.438  26.775  1.00  0.00    -0.376 OA
BRANCH   2   3
ATOM      3  C   UNL A   1      33.156  30.024  25.602  1.00  0.00     0.202 C 
BRANCH   3   4
ATOM      4  C   UNL A   1      31.735  29.638  25.153  1.00  0.00     0.261 C 
BRANCH   4   5
ATOM      5  O   UNL A   1      31.649  28.395  24.438  1.00  0.00    -0.460 OA
BRANCH   5   6
ATOM      6  C   UNL A   1      32.480  28.255  23.376  1.00  0.00     0.338 C 
ATOM      7  O   UNL A   1      32.786  29.116  22.569  1.00  0.00    -0.246 OA
BRANCH   6   8
ATOM      8  C   UNL A   1      33.118  26.913  23.402  1.00  0.00     0.060 A 
ATOM      9  C   UNL A   1      34.191  24.307  23.350  1.00  0.00    -0.019 A 
ATOM     10  C   UNL A   1      33.761  24.914  22.164  1.00  0.00     0.007 A 
ATOM     11  C   UNL A   1      34.164  25.064  24.544  1.00  0.00     0.007 A 
ATOM     12  C   UNL A   1      33.213  26.203  22.195  1.00  0.00     0.016 A 
ATOM     13  C   UNL A   1      33.628  26.355  24.574  1.00  0.00     0.016 A 
BRANCH   9  14
ATOM     14  C   UNL A   1      34.461  22.803  23.448  1.00  0.00     0.179 C 
ATOM     15  C   UNL A   1      32.795  19.383  24.338  1.00  0.00     0.065 C 
ATOM     16  C   UNL A   1      33.559  20.685  24.415  1.00  0.00     0.026 C 
ATOM     17  C   UNL A   1      33.300  21.815  23.697  1.00  0.00     0.065 C 
ATOM     18  N   UNL A   1      34.697  20.597  25.211  1.00  0.00    -0.328 N 
ATOM     19  C   UNL A   1      35.677  21.511  25.218  1.00  0.00     0.226 A 
ATOM     20  H   UNL A   1      34.788  19.816  25.802  1.00  0.00     0.169 HD
ATOM     21  N   UNL A   1      35.591  22.576  24.369  1.00  0.00    -0.219 N 
ATOM     22  N   UNL A   1      36.799  21.564  25.887  1.00  0.00    -0.200 NA
ATOM     23  N   UNL A   1      36.727  23.308  24.402  1.00  0.00    -0.157 NA
ATOM     24  C   UNL A   1      37.400  22.681  25.370  1.00  0.00     0.248 A 
BRANCH  17  25
ATOM     25  C   UNL A   1      32.123  22.025  22.804  1.00  0.00     0.255 C 
ATOM     26  O   UNL A   1      32.048  21.341  21.778  1.00  0.00    -0.269 OA
ATOM     27  N   UNL A   1      31.085  22.870  23.076  1.00  0.00    -0.322 N 
ATOM     28  H   UNL A   1      30.375  22.844  22.395  1.00  0.00     0.170 HD
BRANCH  27  29
ATOM     29  C   UNL A   1      30.815  23.769  24.121  1.00  0.00     0.041 A 
ATOM     30  C   UNL A   1      30.221  24.984  23.752  1.00  0.00     0.026 A 
ATOM     31  C   UNL A   1      31.027  23.496  25.472  1.00  0.00     0.026 A 
ATOM     32  C   UNL A   1      29.721  25.854  24.722  1.00  0.00     0.002 A 
ATOM     33  C   UNL A   1      30.555  24.387  26.445  1.00  0.00     0.002 A 
ATOM     34  C   UNL A   1      29.875  25.547  26.070  1.00  0.00     0.000 A 
ENDBRANCH  27  29
ENDBRANCH  17  25
ENDBRANCH   9  14
ENDBRANCH   6   8
ENDBRANCH   5   6
ENDBRANCH   4   5
ENDBRANCH   3   4
ENDBRANCH   2   3
ENDBRANCH   1   2
BRANCH   1  35
ATOM     35  C   UNL A   1      34.687  31.671  27.622  1.00  0.00     0.188 C 
BRANCH  35  36
ATOM     36  O   UNL A   1      33.842  32.760  27.967  1.00  0.00    -0.376 OA
BRANCH  36  37
ATOM     37  C   UNL A   1      34.236  33.521  29.102  1.00  0.00     0.202 C 
BRANCH  37  38
ATOM     38  C   UNL A   1      35.740  33.747  29.264  1.00  0.00     0.261 C 
BRANCH  38  39
ATOM     39  O   UNL A   1      36.252  33.444  30.556  1.00  0.00    -0.460 OA
BRANCH  39  40
ATOM     40  C   UNL A   1      36.214  32.147  30.925  1.00  0.00     0.338 C 
ATOM     41  O   UNL A   1      35.405  31.620  31.664  1.00  0.00    -0.246 OA
BRANCH  40  42
ATOM     42  C   UNL A   1      37.362  31.461  30.311  1.00  0.00     0.060 A 
ATOM     43  C   UNL A   1      37.240  30.093  30.051  1.00  0.00     0.016 A 
ATOM     44  C   UNL A   1      38.596  32.121  30.211  1.00  0.00     0.016 A 
ATOM     45  C   UNL A   1      38.390  29.349  29.877  1.00  0.00     0.010 A 
ATOM     46  C   UNL A   1      39.743  31.377  30.048  1.00  0.00     0.010 A 
ATOM     47  C   UNL A   1      39.629  29.989  29.975  1.00  0.00    -0.014 A 
BRANCH  47  48
ATOM     48  C   UNL A   1      40.812  29.160  30.115  1.00  0.00     0.031 A 
ATOM     49  C   UNL A   1      41.286  28.931  31.491  1.00  0.00     0.074 A 
ATOM     50  C   UNL A   1      41.367  28.560  29.041  1.00  0.00     0.049 A 
ATOM     51  N   UNL A   1      42.432  29.256  31.993  1.00  0.00    -0.248 NA
ATOM     52  C   UNL A   1      40.345  28.338  32.450  1.00  0.00     0.031 C 
ATOM     53  C   UNL A   1      40.782  28.478  27.697  1.00  0.00     0.029 A 
ATOM     54  N   UNL A   1      42.488  27.783  28.947  1.00  0.00    -0.354 N 
ATOM     55  C   UNL A   1      42.443  28.682  33.259  1.00  0.00     0.074 A 
ATOM     56  C   UNL A   1      41.089  28.295  33.555  1.00  0.00     0.031 C 
ATOM     57  C   UNL A   1      41.416  27.513  26.999  1.00  0.00     0.029 A 
ATOM     58  C   UNL A   1      42.525  27.012  27.792  1.00  0.00     0.049 A 
ATOM     59  H   UNL A   1      43.197  27.769  29.631  1.00  0.00     0.167 HD
ATOM     60  C   UNL A   1      43.608  28.303  33.844  1.00  0.00     0.034 A 
ATOM     61  C   UNL A   1      43.364  25.990  27.510  1.00  0.00     0.034 A 
ATOM     62  C   UNL A   1      44.757  28.882  33.202  1.00  0.00     0.049 A 
ATOM     63  C   UNL A   1      44.564  26.111  28.365  1.00  0.00     0.074 A 
ATOM     64  C   UNL A   1      45.383  30.106  33.163  1.00  0.00     0.029 A 
ATOM     65  N   UNL A   1      45.284  28.116  32.198  1.00  0.00    -0.354 N 
ATOM     66  N   UNL A   1      45.455  27.054  28.237  1.00  0.00    -0.248 NA
ATOM     67  C   UNL A   1      44.683  25.297  29.570  1.00  0.00     0.031 C 
ATOM     68  C   UNL A   1      46.211  30.095  32.003  1.00  0.00     0.029 A 
ATOM     69  C   UNL A   1      46.046  28.875  31.350  1.00  0.00     0.049 A 
ATOM     70  H   UNL A   1      45.135  27.148  32.099  1.00  0.00     0.167 HD
ATOM     71  C   UNL A   1      45.955  27.220  29.514  1.00  0.00     0.074 A 
ATOM     72  C   UNL A   1      45.605  26.003  30.229  1.00  0.00     0.031 C 
ATOM     73  C   UNL A   1      46.287  28.457  29.983  1.00  0.00     0.034 A 
BRANCH  60  74
ATOM     74  C   UNL A   1      43.774  27.077  34.714  1.00  0.00     0.023 A 
ATOM     75  C   UNL A   1      44.097  27.294  36.072  1.00  0.00     0.012 A 
ATOM     76  C   UNL A   1      43.930  25.761  34.224  1.00  0.00     0.148 A 
ATOM     77  C   UNL A   1      44.591  26.269  36.886  1.00  0.00     0.002 A 
ATOM     78  C   UNL A   1      44.344  24.727  35.058  1.00  0.00     0.091 A 
ATOM     79  F   UNL A   1      43.825  25.511  32.914  1.00  0.00    -0.205 F 
ATOM     80  C   UNL A   1      44.705  24.980  36.381  1.00  0.00     0.022 A 
BRANCH  78  81
ATOM     81  S   UNL A   1      44.449  23.043  34.444  1.00  0.00     0.127 S 
ATOM     82  O   UNL A   1      45.559  23.139  33.502  1.00  0.00    -0.237 OA
ATOM     83  O   UNL A   1      44.732  22.284  35.663  1.00  0.00    -0.237 OA
ATOM     84  O   UNL A   1      43.132  22.776  33.875  1.00  0.00    -0.744 OA
ENDBRANCH  78  81
ENDBRANCH  60  74
BRANCH  61  85
ATOM     85  C   UNL A   1      43.169  24.845  26.596  1.00  0.00     0.023 A 
ATOM     86  C   UNL A   1      43.859  24.809  25.370  1.00  0.00     0.012 A 
ATOM     87  C   UNL A   1      42.488  23.680  27.015  1.00  0.00     0.148 A 
ATOM     88  C   UNL A   1      43.891  23.645  24.595  1.00  0.00     0.002 A 
ATOM     89  C   UNL A   1      42.506  22.530  26.231  1.00  0.00     0.091 A 
ATOM     90  F   UNL A   1      41.898  23.671  28.218  1.00  0.00    -0.205 F 
ATOM     91  C   UNL A   1      43.217  22.506  25.025  1.00  0.00     0.022 A 
BRANCH  89  92
ATOM     92  S   UNL A   1      41.647  21.030  26.725  1.00  0.00     0.127 S 
ATOM     93  O   UNL A   1      40.251  21.468  26.752  1.00  0.00    -0.237 OA
ATOM     94  O   UNL A   1      41.980  20.116  25.636  1.00  0.00    -0.237 OA
ATOM     95  O   UNL A   1      42.186  20.687  28.035  1.00  0.00    -0.744 OA
ENDBRANCH  89  92
ENDBRANCH  61  85
BRANCH  73  96
ATOM     96  C   UNL A   1      46.636  29.519  28.980  1.00  0.00     0.023 A 
ATOM     97  C   UNL A   1      47.956  29.706  28.524  1.00  0.00     0.012 A 
ATOM     98  C   UNL A   1      45.601  30.278  28.403  1.00  0.00     0.148 A 
ATOM     99  C   UNL A   1      48.242  30.651  27.537  1.00  0.00     0.002 A 
ATOM    100  C   UNL A   1      45.885  31.185  27.388  1.00  0.00     0.091 A 
ATOM    101  F   UNL A   1      44.349  30.094  28.849  1.00  0.00    -0.205 F 
ATOM    102  C   UNL A   1      47.206  31.383  26.961  1.00  0.00     0.022 A 
BRANCH 100 103
ATOM    103  S   UNL A   1      44.571  32.050  26.524  1.00  0.00     0.127 S 
ATOM    104  O   UNL A   1      45.261  32.563  25.343  1.00  0.00    -0.237 OA
ATOM    105  O   UNL A   1      43.606  30.981  26.252  1.00  0.00    -0.237 OA
ATOM    106  O   UNL A   1      44.085  33.054  27.465  1.00  0.00    -0.744 OA
ENDBRANCH 100 103
ENDBRANCH  73  96
ENDBRANCH  47  48
ENDBRANCH  40  42
ENDBRANCH  39  40
ENDBRANCH  38  39
ENDBRANCH  37  38
ENDBRANCH  36  37
ENDBRANCH  35  36
ENDBRANCH   1  35
TORSDOF 23
ENDMDL
MODEL 2
REMARK VINA RESULT:     -10.8      2.538      6.484
REMARK SMILES CC1=C(C(=O)Nc2ccccc2)[C@@H](c2ccc(C(=O)OCCOCCOCCOC(=O)c3ccc(-c4c5nc(c(-c6cccc(S(=O)(=O)[O-])c6F)c6ccc([nH]6)c(-c6cccc(S(=O)(=O)[O-])c6F)c6nc(c(-c7cccc(S(=O)(=O)[O-])c7F)c7ccc4[nH]7)C=C6)C=C5)cc3)cc2)n2ncnc2N1
REMARK SMILES IDX 24 1 23 2 22 3 21 4 20 5 18 6 19 7 17 8 14 9 15 10 96 11
REMARK SMILES IDX 16 12 95 13 13 14 1 15 2 16 3 17 102 18 101 19 97 21 100 22
REMARK SMILES IDX 98 23 99 24 4 25 5 26 6 27 7 29 8 30 12 31 9 32 11 33 10 34
REMARK SMILES IDX 25 35 26 36 27 37 28 38 29 39 30 40 31 41 32 42 33 43 94 44
REMARK SMILES IDX 34 45 93 46 35 47 36 48 37 49 87 50 38 51 92 52 86 53 88 54
REMARK SMILES IDX 39 55 91 56 85 57 84 58 40 60 72 61 52 62 71 63 53 64 56 65
REMARK SMILES IDX 70 66 89 67 54 68 55 69 69 71 90 72 57 73 41 74 42 75 50 76
REMARK SMILES IDX 43 77 45 78 51 79 44 80 46 81 47 82 48 83 49 84 73 85 74 86
REMARK SMILES IDX 82 87 75 88 77 89 83 90 76 91 78 92 79 93 80 94 81 95 58 96
REMARK SMILES IDX 59 97 67 98 60 99 62 100 68 101 61 102 63 103 64 104 65 105
REMARK SMILES IDX 66 106
REMARK H PARENT 102 20 6 28 88 59 56 70
REMARK Flexibility Score: inf
ROOT
ATOM      1  C   UNL A   1      31.469  31.357  26.486  1.00  0.00     0.188 C 
ENDROOT
BRANCH   1   2
ATOM      2  O   UNL A   1      30.966  30.952  25.219  1.00  0.00    -0.376 OA
BRANCH   2   3
ATOM      3  C   UNL A   1      31.107  29.601  24.803  1.00  0.00     0.202 C 
BRANCH   3   4
ATOM      4  C   UNL A   1      30.613  29.184  23.405  1.00  0.00     0.261 C 
BRANCH   4   5
ATOM      5  O   UNL A   1      31.458  28.238  22.729  1.00  0.00    -0.460 OA
BRANCH   5   6
ATOM      6  C   UNL A   1      32.782  28.308  23.012  1.00  0.00     0.338 C 
ATOM      7  O   UNL A   1      33.424  29.314  23.263  1.00  0.00    -0.246 OA
BRANCH   6   8
ATOM      8  C   UNL A   1      33.350  26.940  23.133  1.00  0.00     0.060 A 
ATOM      9  C   UNL A   1      34.291  24.285  23.261  1.00  0.00    -0.019 A 
ATOM     10  C   UNL A   1      33.937  24.849  22.028  1.00  0.00     0.007 A 
ATOM     11  C   UNL A   1      34.256  25.106  24.412  1.00  0.00     0.007 A 
ATOM     12  C   UNL A   1      33.455  26.163  21.970  1.00  0.00     0.016 A 
ATOM     13  C   UNL A   1      33.786  26.422  24.353  1.00  0.00     0.016 A 
BRANCH   9  14
ATOM     14  C   UNL A   1      34.479  22.778  23.447  1.00  0.00     0.179 C 
ATOM     15  C   UNL A   1      32.641  19.514  24.556  1.00  0.00     0.065 C 
ATOM     16  C   UNL A   1      33.475  20.774  24.548  1.00  0.00     0.026 C 
ATOM     17  C   UNL A   1      33.270  21.872  23.765  1.00  0.00     0.065 C 
ATOM     18  N   UNL A   1      34.616  20.672  25.338  1.00  0.00    -0.328 N 
ATOM     19  C   UNL A   1      35.644  21.530  25.282  1.00  0.00     0.226 A 
ATOM     20  H   UNL A   1      34.671  19.924  25.975  1.00  0.00     0.169 HD
ATOM     21  N   UNL A   1      35.606  22.545  24.371  1.00  0.00    -0.219 N 
ATOM     22  N   UNL A   1      36.775  21.561  25.937  1.00  0.00    -0.200 NA
ATOM     23  N   UNL A   1      36.781  23.214  24.350  1.00  0.00    -0.157 NA
ATOM     24  C   UNL A   1      37.430  22.610  25.349  1.00  0.00     0.248 A 
BRANCH  17  25
ATOM     25  C   UNL A   1      32.096  22.092  22.870  1.00  0.00     0.255 C 
ATOM     26  O   UNL A   1      32.004  21.393  21.856  1.00  0.00    -0.269 OA
ATOM     27  N   UNL A   1      31.076  22.963  23.130  1.00  0.00    -0.322 N 
ATOM     28  H   UNL A   1      30.365  22.941  22.451  1.00  0.00     0.170 HD
BRANCH  27  29
ATOM     29  C   UNL A   1      30.828  23.884  24.161  1.00  0.00     0.041 A 
ATOM     30  C   UNL A   1      30.270  25.111  23.771  1.00  0.00     0.026 A 
ATOM     31  C   UNL A   1      31.025  23.625  25.516  1.00  0.00     0.026 A 
ATOM     32  C   UNL A   1      29.791  26.009  24.726  1.00  0.00     0.002 A 
ATOM     33  C   UNL A   1      30.574  24.544  26.474  1.00  0.00     0.002 A 
ATOM     34  C   UNL A   1      29.930  25.718  26.079  1.00  0.00     0.000 A 
ENDBRANCH  27  29
ENDBRANCH  17  25
ENDBRANCH   9  14
ENDBRANCH   6   8
ENDBRANCH   5   6
ENDBRANCH   4   5
ENDBRANCH   3   4
ENDBRANCH   2   3
ENDBRANCH   1   2
BRANCH   1  35
ATOM     35  C   UNL A   1      32.700  30.662  27.113  1.00  0.00     0.188 C 
BRANCH  35  36
ATOM     36  O   UNL A   1      33.506  31.486  27.943  1.00  0.00    -0.376 OA
BRANCH  36  37
ATOM     37  C   UNL A   1      34.909  31.415  27.721  1.00  0.00     0.202 C 
BRANCH  37  38
ATOM     38  C   UNL A   1      35.742  32.523  28.364  1.00  0.00     0.261 C 
BRANCH  38  39
ATOM     39  O   UNL A   1      36.822  32.066  29.169  1.00  0.00    -0.460 OA
BRANCH  39  40
ATOM     40  C   UNL A   1      36.599  30.947  29.888  1.00  0.00     0.338 C 
ATOM     41  O   UNL A   1      35.737  30.778  30.730  1.00  0.00    -0.246 OA
BRANCH  40  42
ATOM     42  C   UNL A   1      37.615  29.950  29.516  1.00  0.00     0.060 A 
ATOM     43  C   UNL A   1      37.983  29.005  30.477  1.00  0.00     0.016 A 
ATOM     44  C   UNL A   1      38.335  30.103  28.321  1.00  0.00     0.016 A 
ATOM     45  C   UNL A   1      39.186  28.343  30.326  1.00  0.00     0.010 A 
ATOM     46  C   UNL A   1      39.540  29.452  28.177  1.00  0.00     0.010 A 
ATOM     47  C   UNL A   1      39.991  28.650  29.225  1.00  0.00    -0.014 A 
BRANCH  47  48
ATOM     48  C   UNL A   1      41.371  28.202  29.247  1.00  0.00     0.031 A 
ATOM     49  C   UNL A   1      41.676  26.998  28.455  1.00  0.00     0.074 A 
ATOM     50  C   UNL A   1      42.321  28.919  29.882  1.00  0.00     0.049 A 
ATOM     51  N   UNL A   1      42.139  25.870  28.883  1.00  0.00    -0.248 NA
ATOM     52  C   UNL A   1      41.354  27.023  27.021  1.00  0.00     0.031 C 
ATOM     53  C   UNL A   1      42.165  30.277  30.421  1.00  0.00     0.029 A 
ATOM     54  N   UNL A   1      43.652  28.660  30.055  1.00  0.00    -0.354 N 
ATOM     55  C   UNL A   1      42.400  25.132  27.733  1.00  0.00     0.074 A 
ATOM     56  C   UNL A   1      41.739  25.804  26.646  1.00  0.00     0.031 C 
ATOM     57  C   UNL A   1      43.387  30.806  30.640  1.00  0.00     0.029 A 
ATOM     58  C   UNL A   1      44.392  29.788  30.387  1.00  0.00     0.049 A 
ATOM     59  H   UNL A   1      44.047  27.763  29.954  1.00  0.00     0.167 HD
ATOM     60  C   UNL A   1      43.381  24.194  27.714  1.00  0.00     0.034 A 
ATOM     61  C   UNL A   1      45.738  29.915  30.404  1.00  0.00     0.034 A 
ATOM     62  C   UNL A   1      43.811  23.823  29.035  1.00  0.00     0.049 A 
ATOM     63  C   UNL A   1      46.341  28.570  30.512  1.00  0.00     0.074 A 
ATOM     64  C   UNL A   1      43.340  23.051  30.072  1.00  0.00     0.029 A 
ATOM     65  N   UNL A   1      44.855  24.566  29.514  1.00  0.00    -0.354 N 
ATOM     66  N   UNL A   1      46.264  27.822  31.578  1.00  0.00    -0.248 NA
ATOM     67  C   UNL A   1      46.859  27.907  29.320  1.00  0.00     0.031 C 
ATOM     68  C   UNL A   1      44.054  23.464  31.235  1.00  0.00     0.029 A 
ATOM     69  C   UNL A   1      44.920  24.496  30.880  1.00  0.00     0.049 A 
ATOM     70  H   UNL A   1      45.477  25.082  28.952  1.00  0.00     0.167 HD
ATOM     71  C   UNL A   1      46.310  26.531  31.088  1.00  0.00     0.074 A 
ATOM     72  C   UNL A   1      46.873  26.644  29.752  1.00  0.00     0.031 C 
ATOM     73  C   UNL A   1      45.566  25.538  31.654  1.00  0.00     0.034 A 
BRANCH  60  74
ATOM     74  C   UNL A   1      44.275  23.909  26.527  1.00  0.00     0.023 A 
ATOM     75  C   UNL A   1      44.307  22.578  26.054  1.00  0.00     0.012 A 
ATOM     76  C   UNL A   1      45.288  24.776  26.060  1.00  0.00     0.148 A 
ATOM     77  C   UNL A   1      45.316  22.124  25.198  1.00  0.00     0.002 A 
ATOM     78  C   UNL A   1      46.242  24.341  25.145  1.00  0.00     0.091 A 
ATOM     79  F   UNL A   1      45.439  25.991  26.598  1.00  0.00    -0.205 F 
ATOM     80  C   UNL A   1      46.280  23.009  24.734  1.00  0.00     0.022 A 
BRANCH  78  81
ATOM     81  S   UNL A   1      47.466  25.480  24.489  1.00  0.00     0.127 S 
ATOM     82  O   UNL A   1      48.455  25.501  25.561  1.00  0.00    -0.237 OA
ATOM     83  O   UNL A   1      47.893  24.805  23.263  1.00  0.00    -0.237 OA
ATOM     84  O   UNL A   1      46.729  26.718  24.256  1.00  0.00    -0.744 OA
ENDBRANCH  78  81
ENDBRANCH  60  74
BRANCH  61  85
ATOM     85  C   UNL A   1      46.565  31.130  30.249  1.00  0.00     0.023 A 
ATOM     86  C   UNL A   1      47.145  31.726  31.386  1.00  0.00     0.012 A 
ATOM     87  C   UNL A   1      46.975  31.581  28.974  1.00  0.00     0.148 A 
ATOM     88  C   UNL A   1      48.119  32.722  31.258  1.00  0.00     0.002 A 
ATOM     89  C   UNL A   1      47.930  32.586  28.853  1.00  0.00     0.091 A 
ATOM     90  F   UNL A   1      46.495  30.967  27.885  1.00  0.00    -0.205 F 
ATOM     91  C   UNL A   1      48.514  33.150  29.994  1.00  0.00     0.022 A 
BRANCH  89  92
ATOM     92  S   UNL A   1      48.475  33.191  27.250  1.00  0.00     0.127 S 
ATOM     93  O   UNL A   1      47.251  33.786  26.713  1.00  0.00    -0.237 OA
ATOM     94  O   UNL A   1      49.510  34.151  27.623  1.00  0.00    -0.237 OA
ATOM     95  O   UNL A   1      48.929  32.011  26.523  1.00  0.00    -0.744 OA
ENDBRANCH  89  92
ENDBRANCH  61  85
BRANCH  73  96
ATOM     96  C   UNL A   1      45.154  25.699  33.089  1.00  0.00     0.023 A 
ATOM     97  C   UNL A   1      45.950  25.221  34.149  1.00  0.00     0.012 A 
ATOM     98  C   UNL A   1      43.995  26.439  33.386  1.00  0.00     0.148 A 
ATOM     99  C   UNL A   1      45.580  25.447  35.476  1.00  0.00     0.002 A 
ATOM    100  C   UNL A   1      43.657  26.702  34.709  1.00  0.00     0.091 A 
ATOM    101  F   UNL A   1      43.244  26.886  32.368  1.00  0.00    -0.205 F 
ATOM    102  C   UNL A   1      44.441  26.197  35.757  1.00  0.00     0.022 A 
BRANCH 100 103
ATOM    103  S   UNL A   1      42.276  27.774  35.117  1.00  0.00     0.127 S 
ATOM    104  O   UNL A   1      42.638  29.018  34.443  1.00  0.00    -0.237 OA
ATOM    105  O   UNL A   1      41.135  27.069  34.528  1.00  0.00    -0.237 OA
ATOM    106  O   UNL A   1      42.244  27.826  36.575  1.00  0.00    -0.744 OA
ENDBRANCH 100 103
ENDBRANCH  73  96
ENDBRANCH  47  48
ENDBRANCH  40  42
ENDBRANCH  39  40
ENDBRANCH  38  39
ENDBRANCH  37  38
ENDBRANCH  36  37
ENDBRANCH  35  36
ENDBRANCH   1  35
TORSDOF 23
ENDMDL
MODEL 3
REMARK VINA RESULT:     -10.8      1.838      2.234
REMARK SMILES CC1=C(C(=O)Nc2ccccc2)[C@@H](c2ccc(C(=O)OCCOCCOCCOC(=O)c3ccc(-c4c5nc(c(-c6cccc(S(=O)(=O)[O-])c6F)c6ccc([nH]6)c(-c6cccc(S(=O)(=O)[O-])c6F)c6nc(c(-c7cccc(S(=O)(=O)[O-])c7F)c7ccc4[nH]7)C=C6)C=C5)cc3)cc2)n2ncnc2N1
REMARK SMILES IDX 24 1 23 2 22 3 21 4 20 5 18 6 19 7 17 8 14 9 15 10 96 11
REMARK SMILES IDX 16 12 95 13 13 14 1 15 2 16 3 17 102 18 101 19 97 21 100 22
REMARK SMILES IDX 98 23 99 24 4 25 5 26 6 27 7 29 8 30 12 31 9 32 11 33 10 34
REMARK SMILES IDX 25 35 26 36 27 37 28 38 29 39 30 40 31 41 32 42 33 43 94 44
REMARK SMILES IDX 34 45 93 46 35 47 36 48 37 49 87 50 38 51 92 52 86 53 88 54
REMARK SMILES IDX 39 55 91 56 85 57 84 58 40 60 72 61 52 62 71 63 53 64 56 65
REMARK SMILES IDX 70 66 89 67 54 68 55 69 69 71 90 72 57 73 41 74 42 75 50 76
REMARK SMILES IDX 43 77 45 78 51 79 44 80 46 81 47 82 48 83 49 84 73 85 74 86
REMARK SMILES IDX 82 87 75 88 77 89 83 90 76 91 78 92 79 93 80 94 81 95 58 96
REMARK SMILES IDX 59 97 67 98 60 99 62 100 68 101 61 102 63 103 64 104 65 105
REMARK SMILES IDX 66 106
REMARK H PARENT 102 20 6 28 88 59 56 70
REMARK Flexibility Score: inf
ROOT
ATOM      1  C   UNL A   1      31.421  29.702  25.968  1.00  0.00     0.188 C 
ENDROOT
BRANCH   1   2
ATOM      2  O   UNL A   1      31.037  30.507  24.860  1.00  0.00    -0.376 OA
BRANCH   2   3
ATOM      3  C   UNL A   1      30.124  29.995  23.900  1.00  0.00     0.202 C 
BRANCH   3   4
ATOM      4  C   UNL A   1      30.661  29.214  22.686  1.00  0.00     0.261 C 
BRANCH   4   5
ATOM      5  O   UNL A   1      31.376  28.012  23.017  1.00  0.00    -0.460 OA
BRANCH   5   6
ATOM      6  C   UNL A   1      32.727  28.069  22.909  1.00  0.00     0.338 C 
ATOM      7  O   UNL A   1      33.413  29.074  22.844  1.00  0.00    -0.246 OA
BRANCH   6   8
ATOM      8  C   UNL A   1      33.305  26.706  23.038  1.00  0.00     0.060 A 
ATOM      9  C   UNL A   1      34.261  24.058  23.190  1.00  0.00    -0.019 A 
ATOM     10  C   UNL A   1      33.836  24.584  21.962  1.00  0.00     0.007 A 
ATOM     11  C   UNL A   1      34.289  24.912  24.316  1.00  0.00     0.007 A 
ATOM     12  C   UNL A   1      33.346  25.895  21.894  1.00  0.00     0.016 A 
ATOM     13  C   UNL A   1      33.812  26.224  24.246  1.00  0.00     0.016 A 
BRANCH   9  14
ATOM     14  C   UNL A   1      34.466  22.557  23.409  1.00  0.00     0.179 C 
ATOM     15  C   UNL A   1      32.671  19.304  24.618  1.00  0.00     0.065 C 
ATOM     16  C   UNL A   1      33.494  20.571  24.569  1.00  0.00     0.026 C 
ATOM     17  C   UNL A   1      33.269  21.648  23.764  1.00  0.00     0.065 C 
ATOM     18  N   UNL A   1      34.645  20.497  25.347  1.00  0.00    -0.328 N 
ATOM     19  C   UNL A   1      35.664  21.363  25.258  1.00  0.00     0.226 A 
ATOM     20  H   UNL A   1      34.715  19.765  26.001  1.00  0.00     0.169 HD
ATOM     21  N   UNL A   1      35.606  22.355  24.324  1.00  0.00    -0.219 N 
ATOM     22  N   UNL A   1      36.803  21.420  25.898  1.00  0.00    -0.200 NA
ATOM     23  N   UNL A   1      36.774  23.035  24.272  1.00  0.00    -0.157 NA
ATOM     24  C   UNL A   1      37.441  22.460  25.277  1.00  0.00     0.248 A 
BRANCH  17  25
ATOM     25  C   UNL A   1      32.082  21.837  22.879  1.00  0.00     0.255 C 
ATOM     26  O   UNL A   1      31.968  21.093  21.899  1.00  0.00    -0.269 OA
ATOM     27  N   UNL A   1      31.073  22.728  23.115  1.00  0.00    -0.322 N 
ATOM     28  H   UNL A   1      30.350  22.680  22.449  1.00  0.00     0.170 HD
BRANCH  27  29
ATOM     29  C   UNL A   1      30.848  23.697  24.106  1.00  0.00     0.041 A 
ATOM     30  C   UNL A   1      30.254  24.892  23.677  1.00  0.00     0.026 A 
ATOM     31  C   UNL A   1      31.103  23.511  25.464  1.00  0.00     0.026 A 
ATOM     32  C   UNL A   1      29.797  25.831  24.603  1.00  0.00     0.002 A 
ATOM     33  C   UNL A   1      30.674  24.471  26.390  1.00  0.00     0.002 A 
ATOM     34  C   UNL A   1      29.994  25.613  25.962  1.00  0.00     0.000 A 
ENDBRANCH  27  29
ENDBRANCH  17  25
ENDBRANCH   9  14
ENDBRANCH   6   8
ENDBRANCH   5   6
ENDBRANCH   4   5
ENDBRANCH   3   4
ENDBRANCH   2   3
ENDBRANCH   1   2
BRANCH   1  35
ATOM     35  C   UNL A   1      32.328  30.266  27.085  1.00  0.00     0.188 C 
BRANCH  35  36
ATOM     36  O   UNL A   1      33.632  30.651  26.673  1.00  0.00    -0.376 OA
BRANCH  36  37
ATOM     37  C   UNL A   1      34.692  30.313  27.558  1.00  0.00     0.202 C 
BRANCH  37  38
ATOM     38  C   UNL A   1      35.303  31.476  28.341  1.00  0.00     0.261 C 
BRANCH  38  39
ATOM     39  O   UNL A   1      35.203  31.359  29.755  1.00  0.00    -0.460 OA
BRANCH  39  40
ATOM     40  C   UNL A   1      36.325  31.623  30.456  1.00  0.00     0.338 C 
ATOM     41  O   UNL A   1      36.480  32.498  31.286  1.00  0.00    -0.246 OA
BRANCH  40  42
ATOM     42  C   UNL A   1      37.373  30.689  30.016  1.00  0.00     0.060 A 
ATOM     43  C   UNL A   1      37.224  29.340  30.348  1.00  0.00     0.016 A 
ATOM     44  C   UNL A   1      38.572  31.188  29.486  1.00  0.00     0.016 A 
ATOM     45  C   UNL A   1      38.341  28.528  30.328  1.00  0.00     0.010 A 
ATOM     46  C   UNL A   1      39.688  30.381  29.477  1.00  0.00     0.010 A 
ATOM     47  C   UNL A   1      39.576  29.087  29.985  1.00  0.00    -0.014 A 
BRANCH  47  48
ATOM     48  C   UNL A   1      40.773  28.321  30.278  1.00  0.00     0.031 A 
ATOM     49  C   UNL A   1      41.323  28.470  31.637  1.00  0.00     0.074 A 
ATOM     50  C   UNL A   1      41.276  27.451  29.377  1.00  0.00     0.049 A 
ATOM     51  N   UNL A   1      42.491  28.913  31.969  1.00  0.00    -0.248 NA
ATOM     52  C   UNL A   1      40.441  28.162  32.770  1.00  0.00     0.031 C 
ATOM     53  C   UNL A   1      40.620  27.012  28.139  1.00  0.00     0.029 A 
ATOM     54  N   UNL A   1      42.398  26.672  29.436  1.00  0.00    -0.354 N 
ATOM     55  C   UNL A   1      42.575  28.702  33.341  1.00  0.00     0.074 A 
ATOM     56  C   UNL A   1      41.243  28.415  33.803  1.00  0.00     0.031 C 
ATOM     57  C   UNL A   1      41.225  25.892  27.694  1.00  0.00     0.029 A 
ATOM     58  C   UNL A   1      42.381  25.618  28.532  1.00  0.00     0.049 A 
ATOM     59  H   UNL A   1      43.142  26.840  30.058  1.00  0.00     0.167 HD
ATOM     60  C   UNL A   1      43.774  28.489  33.942  1.00  0.00     0.034 A 
ATOM     61  C   UNL A   1      43.214  24.555  28.490  1.00  0.00     0.034 A 
ATOM     62  C   UNL A   1      44.881  28.869  33.106  1.00  0.00     0.049 A 
ATOM     63  C   UNL A   1      44.457  24.896  29.214  1.00  0.00     0.074 A 
ATOM     64  C   UNL A   1      45.491  30.034  32.705  1.00  0.00     0.029 A 
ATOM     65  N   UNL A   1      45.361  27.857  32.319  1.00  0.00    -0.354 N 
ATOM     66  N   UNL A   1      45.330  25.766  28.788  1.00  0.00    -0.248 NA
ATOM     67  C   UNL A   1      44.649  24.437  30.585  1.00  0.00     0.031 C 
ATOM     68  C   UNL A   1      46.256  29.706  31.547  1.00  0.00     0.029 A 
ATOM     69  C   UNL A   1      46.068  28.356  31.258  1.00  0.00     0.049 A 
ATOM     70  H   UNL A   1      45.217  26.899  32.492  1.00  0.00     0.167 HD
ATOM     71  C   UNL A   1      45.896  26.268  29.944  1.00  0.00     0.074 A 
ATOM     72  C   UNL A   1      45.598  25.291  30.978  1.00  0.00     0.031 C 
ATOM     73  C   UNL A   1      46.240  27.584  30.043  1.00  0.00     0.034 A 
BRANCH  60  74
ATOM     74  C   UNL A   1      43.999  27.543  35.100  1.00  0.00     0.023 A 
ATOM     75  C   UNL A   1      44.336  28.122  36.345  1.00  0.00     0.012 A 
ATOM     76  C   UNL A   1      44.196  26.149  34.971  1.00  0.00     0.148 A 
ATOM     77  C   UNL A   1      44.880  27.364  37.387  1.00  0.00     0.002 A 
ATOM     78  C   UNL A   1      44.661  25.387  36.037  1.00  0.00     0.091 A 
ATOM     79  F   UNL A   1      44.079  25.559  33.777  1.00  0.00    -0.205 F 
ATOM     80  C   UNL A   1      45.033  25.991  37.237  1.00  0.00     0.022 A 
BRANCH  78  81
ATOM     81  S   UNL A   1      44.817  23.604  35.887  1.00  0.00     0.127 S 
ATOM     82  O   UNL A   1      45.860  23.482  34.874  1.00  0.00    -0.237 OA
ATOM     83  O   UNL A   1      45.216  23.211  37.239  1.00  0.00    -0.237 OA
ATOM     84  O   UNL A   1      43.484  23.148  35.508  1.00  0.00    -0.744 OA
ENDBRANCH  78  81
ENDBRANCH  60  74
BRANCH  61  85
ATOM     85  C   UNL A   1      42.982  23.206  27.931  1.00  0.00     0.023 A 
ATOM     86  C   UNL A   1      41.831  22.487  28.304  1.00  0.00     0.012 A 
ATOM     87  C   UNL A   1      43.764  22.710  26.863  1.00  0.00     0.148 A 
ATOM     88  C   UNL A   1      41.455  21.325  27.622  1.00  0.00     0.002 A 
ATOM     89  C   UNL A   1      43.396  21.543  26.200  1.00  0.00     0.091 A 
ATOM     90  F   UNL A   1      44.815  23.427  26.441  1.00  0.00    -0.205 F 
ATOM     91  C   UNL A   1      42.235  20.854  26.570  1.00  0.00     0.022 A 
BRANCH  89  92
ATOM     92  S   UNL A   1      44.366  20.876  24.841  1.00  0.00     0.127 S 
ATOM     93  O   UNL A   1      44.328  21.970  23.869  1.00  0.00    -0.237 OA
ATOM     94  O   UNL A   1      45.666  20.663  25.471  1.00  0.00    -0.237 OA
ATOM     95  O   UNL A   1      43.659  19.676  24.411  1.00  0.00    -0.744 OA
ENDBRANCH  89  92
ENDBRANCH  61  85
BRANCH  73  96
ATOM     96  C   UNL A   1      46.524  28.334  28.773  1.00  0.00     0.023 A 
ATOM     97  C   UNL A   1      45.543  29.122  28.139  1.00  0.00     0.012 A 
ATOM     98  C   UNL A   1      47.835  28.335  28.262  1.00  0.00     0.148 A 
ATOM     99  C   UNL A   1      45.854  29.867  27.000  1.00  0.00     0.002 A 
ATOM    100  C   UNL A   1      48.151  29.116  27.156  1.00  0.00     0.091 A 
ATOM    101  F   UNL A   1      48.760  27.579  28.873  1.00  0.00    -0.205 F 
ATOM    102  C   UNL A   1      47.160  29.874  26.515  1.00  0.00     0.022 A 
BRANCH 100 103
ATOM    103  S   UNL A   1      49.843  29.263  26.577  1.00  0.00     0.127 S 
ATOM    104  O   UNL A   1      50.063  30.706  26.620  1.00  0.00    -0.237 OA
ATOM    105  O   UNL A   1      50.593  28.501  27.579  1.00  0.00    -0.237 OA
ATOM    106  O   UNL A   1      49.853  28.656  25.250  1.00  0.00    -0.744 OA
ENDBRANCH 100 103
ENDBRANCH  73  96
ENDBRANCH  47  48
ENDBRANCH  40  42
ENDBRANCH  39  40
ENDBRANCH  38  39
ENDBRANCH  37  38
ENDBRANCH  36  37
ENDBRANCH  35  36
ENDBRANCH   1  35
TORSDOF 23
ENDMDL
