MODEL 1
REMARK VINA RESULT:     -10.9      0.000      0.000
REMARK SMILES Cc1ccc2cc(C[N@H+]3CC[NH2+][C@H](C(=O)OCCOCCOCCOC(=O)c4ccc(-c5c6nc(c(-c7cccc(S(=O)(=O)[O-])c7F)c7ccc([nH]7)c(-c7cccc(S(=O)(=O)[O-])c7F)c7nc(c(-c8cccc(S(=O)(=O)[O-])c8F)c8ccc5[nH]8)C=C7)C=C6)cc4)C3)c(N3CCOCC3)nc2c1
REMARK SMILES IDX 20 1 19 2 18 3 17 4 16 5 14 6 15 7 13 8 9 9 10 10 91 11
REMARK SMILES IDX 11 13 12 14 8 17 7 18 1 19 2 20 3 21 101 22 4 23 100 24 5 25
REMARK SMILES IDX 99 26 6 27 92 28 93 29 94 30 98 31 95 32 97 33 96 34 21 35
REMARK SMILES IDX 22 36 23 37 24 38 25 39 26 40 27 41 28 42 29 43 90 44 30 45
REMARK SMILES IDX 89 46 31 47 32 48 33 49 83 50 34 51 88 52 82 53 84 54 35 55
REMARK SMILES IDX 87 56 81 57 80 58 36 60 68 61 48 62 67 63 49 64 52 65 66 66
REMARK SMILES IDX 85 67 50 68 51 69 65 71 86 72 53 73 37 74 38 75 46 76 39 77
REMARK SMILES IDX 41 78 47 79 40 80 42 81 43 82 44 83 45 84 69 85 70 86 78 87
REMARK SMILES IDX 71 88 73 89 79 90 72 91 74 92 75 93 76 94 77 95 54 96 55 97
REMARK SMILES IDX 63 98 56 99 58 100 64 101 57 102 59 103 60 104 61 105 62 106
REMARK H PARENT 9 12 12 15 12 16 84 59 52 70
REMARK Flexibility Score: inf
ROOT
ATOM      1  C   UNL A   1      32.280  28.554  22.495  1.00  0.00     0.188 C 
ENDROOT
BRANCH   1   2
ATOM      2  O   UNL A   1      32.275  27.167  22.792  1.00  0.00    -0.376 OA
BRANCH   2   3
ATOM      3  C   UNL A   1      32.532  26.297  21.701  1.00  0.00     0.202 C 
BRANCH   3   4
ATOM      4  C   UNL A   1      32.866  24.843  22.071  1.00  0.00     0.261 C 
BRANCH   4   5
ATOM      5  O   UNL A   1      34.230  24.601  22.460  1.00  0.00    -0.459 OA
BRANCH   5   6
ATOM      6  C   UNL A   1      34.515  24.801  23.771  1.00  0.00     0.371 C 
ATOM      7  O   UNL A   1      34.123  25.779  24.399  1.00  0.00    -0.245 OA
BRANCH   6   8
ATOM      8  C   UNL A   1      35.343  23.664  24.377  1.00  0.00     0.348 C 
ATOM      9  N   UNL A   1      36.079  22.528  26.484  1.00  0.00    -0.321 N 
ATOM     10  C   UNL A   1      37.263  22.044  25.748  1.00  0.00     0.324 C 
ATOM     11  C   UNL A   1      35.624  23.791  25.883  1.00  0.00     0.341 C 
ATOM     12  H   UNL A   1      36.373  22.716  27.442  1.00  0.00     0.348 HD
ATOM     13  C   UNL A   1      37.190  22.061  24.193  1.00  0.00     0.323 C 
ATOM     14  N   UNL A   1      36.479  23.185  23.547  1.00  0.00    -0.325 N 
ATOM     15  H   UNL A   1      36.120  22.873  22.644  1.00  0.00     0.347 HD
ATOM     16  H   UNL A   1      37.137  23.955  23.433  1.00  0.00     0.347 HD
BRANCH   9  17
ATOM     17  C   UNL A   1      35.012  21.523  26.748  1.00  0.00     0.303 C 
BRANCH  17  18
ATOM     18  C   UNL A   1      33.552  21.885  26.500  1.00  0.00     0.049 A 
ATOM     19  C   UNL A   1      29.391  26.234  24.174  1.00  0.00     0.044 C 
ATOM     20  C   UNL A   1      30.291  25.344  24.980  1.00  0.00    -0.049 A 
ATOM     21  C   UNL A   1      30.958  25.883  26.077  1.00  0.00     0.004 A 
ATOM     22  C   UNL A   1      30.532  23.998  24.626  1.00  0.00     0.032 A 
ATOM     23  C   UNL A   1      31.786  25.075  26.844  1.00  0.00     0.010 A 
ATOM     24  C   UNL A   1      31.419  23.179  25.338  1.00  0.00     0.073 A 
ATOM     25  C   UNL A   1      32.023  23.739  26.476  1.00  0.00     0.001 A 
ATOM     26  N   UNL A   1      31.743  21.926  24.925  1.00  0.00    -0.230 NA
ATOM     27  C   UNL A   1      33.006  23.002  27.136  1.00  0.00     0.023 A 
ATOM     28  C   UNL A   1      32.791  21.279  25.495  1.00  0.00     0.138 A 
BRANCH  28  29
ATOM     29  N   UNL A   1      33.167  20.035  25.024  1.00  0.00    -0.352 N 
ATOM     30  C   UNL A   1      32.126  19.179  24.444  1.00  0.00     0.146 C 
ATOM     31  C   UNL A   1      34.488  19.819  24.433  1.00  0.00     0.146 C 
ATOM     32  C   UNL A   1      32.541  17.720  24.671  1.00  0.00     0.181 C 
ATOM     33  C   UNL A   1      34.835  18.320  24.590  1.00  0.00     0.181 C 
ATOM     34  O   UNL A   1      33.813  17.448  24.056  1.00  0.00    -0.378 OA
ENDBRANCH  28  29
ENDBRANCH  17  18
ENDBRANCH   9  17
ENDBRANCH   6   8
ENDBRANCH   5   6
ENDBRANCH   4   5
ENDBRANCH   3   4
ENDBRANCH   2   3
ENDBRANCH   1   2
BRANCH   1  35
ATOM     35  C   UNL A   1      31.478  29.407  23.510  1.00  0.00     0.188 C 
BRANCH  35  36
ATOM     36  O   UNL A   1      31.482  29.083  24.888  1.00  0.00    -0.376 OA
BRANCH  36  37
ATOM     37  C   UNL A   1      32.090  29.997  25.778  1.00  0.00     0.202 C 
BRANCH  37  38
ATOM     38  C   UNL A   1      33.096  29.452  26.805  1.00  0.00     0.261 C 
BRANCH  38  39
ATOM     39  O   UNL A   1      33.448  30.344  27.886  1.00  0.00    -0.460 OA
BRANCH  39  40
ATOM     40  C   UNL A   1      34.535  31.138  27.689  1.00  0.00     0.338 C 
ATOM     41  O   UNL A   1      34.518  32.335  27.438  1.00  0.00    -0.246 OA
BRANCH  40  42
ATOM     42  C   UNL A   1      35.785  30.410  28.042  1.00  0.00     0.060 A 
ATOM     43  C   UNL A   1      36.910  30.448  27.219  1.00  0.00     0.016 A 
ATOM     44  C   UNL A   1      35.837  29.695  29.252  1.00  0.00     0.016 A 
ATOM     45  C   UNL A   1      38.095  29.821  27.636  1.00  0.00     0.010 A 
ATOM     46  C   UNL A   1      37.015  29.051  29.656  1.00  0.00     0.010 A 
ATOM     47  C   UNL A   1      38.171  29.140  28.871  1.00  0.00    -0.014 A 
BRANCH  47  48
ATOM     48  C   UNL A   1      39.508  28.786  29.427  1.00  0.00     0.031 A 
ATOM     49  C   UNL A   1      40.111  29.438  30.637  1.00  0.00     0.074 A 
ATOM     50  C   UNL A   1      40.205  27.818  28.797  1.00  0.00     0.049 A 
ATOM     51  N   UNL A   1      41.139  29.037  31.346  1.00  0.00    -0.248 NA
ATOM     52  C   UNL A   1      39.512  30.695  31.103  1.00  0.00     0.031 C 
ATOM     53  C   UNL A   1      39.797  27.173  27.547  1.00  0.00     0.029 A 
ATOM     54  N   UNL A   1      41.385  27.198  29.123  1.00  0.00    -0.354 N 
ATOM     55  C   UNL A   1      41.297  29.972  32.361  1.00  0.00     0.074 A 
ATOM     56  C   UNL A   1      40.292  30.989  32.139  1.00  0.00     0.031 C 
ATOM     57  C   UNL A   1      40.686  26.219  27.236  1.00  0.00     0.029 A 
ATOM     58  C   UNL A   1      41.725  26.181  28.262  1.00  0.00     0.049 A 
ATOM     59  H   UNL A   1      41.936  27.457  29.897  1.00  0.00     0.167 HD
ATOM     60  C   UNL A   1      42.172  29.965  33.396  1.00  0.00     0.034 A 
ATOM     61  C   UNL A   1      42.734  25.288  28.305  1.00  0.00     0.034 A 
ATOM     62  C   UNL A   1      43.192  28.970  33.597  1.00  0.00     0.049 A 
ATOM     63  C   UNL A   1      43.691  25.296  29.461  1.00  0.00     0.074 A 
ATOM     64  C   UNL A   1      44.070  28.845  34.661  1.00  0.00     0.029 A 
ATOM     65  N   UNL A   1      43.494  27.951  32.710  1.00  0.00    -0.354 N 
ATOM     66  N   UNL A   1      43.676  26.048  30.532  1.00  0.00    -0.248 NA
ATOM     67  C   UNL A   1      44.785  24.313  29.431  1.00  0.00     0.031 C 
ATOM     68  C   UNL A   1      44.919  27.765  34.407  1.00  0.00     0.029 A 
ATOM     69  C   UNL A   1      44.558  27.210  33.191  1.00  0.00     0.049 A 
ATOM     70  H   UNL A   1      43.021  27.781  31.863  1.00  0.00     0.167 HD
ATOM     71  C   UNL A   1      44.742  25.617  31.313  1.00  0.00     0.074 A 
ATOM     72  C   UNL A   1      45.375  24.528  30.602  1.00  0.00     0.031 C 
ATOM     73  C   UNL A   1      45.161  26.097  32.507  1.00  0.00     0.034 A 
BRANCH  60  74
ATOM     74  C   UNL A   1      42.025  30.999  34.484  1.00  0.00     0.023 A 
ATOM     75  C   UNL A   1      42.936  32.075  34.500  1.00  0.00     0.012 A 
ATOM     76  C   UNL A   1      40.898  31.033  35.328  1.00  0.00     0.148 A 
ATOM     77  C   UNL A   1      42.727  33.172  35.334  1.00  0.00     0.002 A 
ATOM     78  C   UNL A   1      40.685  32.140  36.143  1.00  0.00     0.091 A 
ATOM     79  F   UNL A   1      40.039  30.004  35.286  1.00  0.00    -0.205 F 
ATOM     80  C   UNL A   1      41.597  33.210  36.145  1.00  0.00     0.022 A 
BRANCH  78  81
ATOM     81  S   UNL A   1      39.237  32.325  37.192  1.00  0.00     0.127 S 
ATOM     82  O   UNL A   1      38.620  33.526  36.629  1.00  0.00    -0.237 OA
ATOM     83  O   UNL A   1      38.509  31.084  36.929  1.00  0.00    -0.237 OA
ATOM     84  O   UNL A   1      39.739  32.472  38.551  1.00  0.00    -0.744 OA
ENDBRANCH  78  81
ENDBRANCH  60  74
BRANCH  61  85
ATOM     85  C   UNL A   1      42.816  24.237  27.256  1.00  0.00     0.023 A 
ATOM     86  C   UNL A   1      43.617  24.464  26.121  1.00  0.00     0.012 A 
ATOM     87  C   UNL A   1      42.156  23.004  27.405  1.00  0.00     0.148 A 
ATOM     88  C   UNL A   1      43.749  23.480  25.141  1.00  0.00     0.002 A 
ATOM     89  C   UNL A   1      42.321  22.015  26.443  1.00  0.00     0.091 A 
ATOM     90  F   UNL A   1      41.400  22.817  28.496  1.00  0.00    -0.205 F 
ATOM     91  C   UNL A   1      43.109  22.255  25.307  1.00  0.00     0.022 A 
BRANCH  89  92
ATOM     92  S   UNL A   1      41.613  20.373  26.613  1.00  0.00     0.127 S 
ATOM     93  O   UNL A   1      40.183  20.668  26.633  1.00  0.00    -0.237 OA
ATOM     94  O   UNL A   1      42.091  19.713  25.398  1.00  0.00    -0.237 OA
ATOM     95  O   UNL A   1      42.161  19.833  27.851  1.00  0.00    -0.744 OA
ENDBRANCH  89  92
ENDBRANCH  61  85
BRANCH  73  96
ATOM     96  C   UNL A   1      46.367  25.474  33.153  1.00  0.00     0.023 A 
ATOM     97  C   UNL A   1      46.185  24.420  34.069  1.00  0.00     0.012 A 
ATOM     98  C   UNL A   1      47.668  25.817  32.733  1.00  0.00     0.148 A 
ATOM     99  C   UNL A   1      47.283  23.711  34.555  1.00  0.00     0.002 A 
ATOM    100  C   UNL A   1      48.754  25.084  33.198  1.00  0.00     0.091 A 
ATOM    101  F   UNL A   1      47.811  26.824  31.861  1.00  0.00    -0.205 F 
ATOM    102  C   UNL A   1      48.563  24.033  34.111  1.00  0.00     0.022 A 
BRANCH 100 103
ATOM    103  S   UNL A   1      50.435  25.374  32.634  1.00  0.00     0.127 S 
ATOM    104  O   UNL A   1      51.198  24.470  33.495  1.00  0.00    -0.237 OA
ATOM    105  O   UNL A   1      50.363  24.963  31.232  1.00  0.00    -0.237 OA
ATOM    106  O   UNL A   1      50.698  26.790  32.847  1.00  0.00    -0.744 OA
ENDBRANCH 100 103
ENDBRANCH  73  96
ENDBRANCH  47  48
ENDBRANCH  40  42
ENDBRANCH  39  40
ENDBRANCH  38  39
ENDBRANCH  37  38
ENDBRANCH  36  37
ENDBRANCH  35  36
ENDBRANCH   1  35
TORSDOF 23
ENDMDL
MODEL 2
REMARK VINA RESULT:     -10.7      2.452      3.785
REMARK SMILES Cc1ccc2cc(C[N@H+]3CC[NH2+][C@H](C(=O)OCCOCCOCCOC(=O)c4ccc(-c5c6nc(c(-c7cccc(S(=O)(=O)[O-])c7F)c7ccc([nH]7)c(-c7cccc(S(=O)(=O)[O-])c7F)c7nc(c(-c8cccc(S(=O)(=O)[O-])c8F)c8ccc5[nH]8)C=C7)C=C6)cc4)C3)c(N3CCOCC3)nc2c1
REMARK SMILES IDX 20 1 19 2 18 3 17 4 16 5 14 6 15 7 13 8 9 9 10 10 91 11
REMARK SMILES IDX 11 13 12 14 8 17 7 18 1 19 2 20 3 21 101 22 4 23 100 24 5 25
REMARK SMILES IDX 99 26 6 27 92 28 93 29 94 30 98 31 95 32 97 33 96 34 21 35
REMARK SMILES IDX 22 36 23 37 24 38 25 39 26 40 27 41 28 42 29 43 90 44 30 45
REMARK SMILES IDX 89 46 31 47 32 48 33 49 83 50 34 51 88 52 82 53 84 54 35 55
REMARK SMILES IDX 87 56 81 57 80 58 36 60 68 61 48 62 67 63 49 64 52 65 66 66
REMARK SMILES IDX 85 67 50 68 51 69 65 71 86 72 53 73 37 74 38 75 46 76 39 77
REMARK SMILES IDX 41 78 47 79 40 80 42 81 43 82 44 83 45 84 69 85 70 86 78 87
REMARK SMILES IDX 71 88 73 89 79 90 72 91 74 92 75 93 76 94 77 95 54 96 55 97
REMARK SMILES IDX 63 98 56 99 58 100 64 101 57 102 59 103 60 104 61 105 62 106
REMARK H PARENT 9 12 12 15 12 16 84 59 52 70
REMARK Flexibility Score: inf
ROOT
ATOM      1  C   UNL A   1      28.694  30.411  23.171  1.00  0.00     0.188 C 
ENDROOT
BRANCH   1   2
ATOM      2  O   UNL A   1      28.821  29.058  22.762  1.00  0.00    -0.376 OA
BRANCH   2   3
ATOM      3  C   UNL A   1      29.862  28.317  23.378  1.00  0.00     0.202 C 
BRANCH   3   4
ATOM      4  C   UNL A   1      29.503  26.881  23.792  1.00  0.00     0.261 C 
BRANCH   4   5
ATOM      5  O   UNL A   1      30.537  26.159  24.482  1.00  0.00    -0.459 OA
BRANCH   5   6
ATOM      6  C   UNL A   1      31.267  25.303  23.724  1.00  0.00     0.371 C 
ATOM      7  O   UNL A   1      31.430  25.451  22.517  1.00  0.00    -0.245 OA
BRANCH   6   8
ATOM      8  C   UNL A   1      31.885  24.165  24.543  1.00  0.00     0.348 C 
ATOM      9  N   UNL A   1      31.695  21.766  25.234  1.00  0.00    -0.321 N 
ATOM     10  C   UNL A   1      32.479  22.105  26.437  1.00  0.00     0.324 C 
ATOM     11  C   UNL A   1      30.962  22.960  24.787  1.00  0.00     0.341 C 
ATOM     12  H   UNL A   1      31.016  21.055  25.504  1.00  0.00     0.348 HD
ATOM     13  C   UNL A   1      33.303  23.425  26.401  1.00  0.00     0.323 C 
ATOM     14  N   UNL A   1      32.717  24.587  25.700  1.00  0.00    -0.325 N 
ATOM     15  H   UNL A   1      33.471  25.185  25.364  1.00  0.00     0.347 HD
ATOM     16  H   UNL A   1      32.118  25.086  26.357  1.00  0.00     0.347 HD
BRANCH   9  17
ATOM     17  C   UNL A   1      32.417  21.020  24.166  1.00  0.00     0.303 C 
BRANCH  17  18
ATOM     18  C   UNL A   1      33.942  21.000  24.155  1.00  0.00     0.049 A 
ATOM     19  C   UNL A   1      39.386  23.238  26.798  1.00  0.00     0.044 C 
ATOM     20  C   UNL A   1      38.172  22.925  25.975  1.00  0.00    -0.049 A 
ATOM     21  C   UNL A   1      37.493  23.972  25.358  1.00  0.00     0.004 A 
ATOM     22  C   UNL A   1      37.662  21.614  25.854  1.00  0.00     0.032 A 
ATOM     23  C   UNL A   1      36.374  23.705  24.581  1.00  0.00     0.010 A 
ATOM     24  C   UNL A   1      36.493  21.323  25.138  1.00  0.00     0.073 A 
ATOM     25  C   UNL A   1      35.872  22.397  24.477  1.00  0.00     0.001 A 
ATOM     26  N   UNL A   1      35.935  20.084  25.127  1.00  0.00    -0.230 NA
ATOM     27  C   UNL A   1      34.640  22.174  23.861  1.00  0.00     0.023 A 
ATOM     28  C   UNL A   1      34.679  19.914  24.641  1.00  0.00     0.138 A 
BRANCH  28  29
ATOM     29  N   UNL A   1      34.085  18.668  24.697  1.00  0.00    -0.352 N 
ATOM     30  C   UNL A   1      34.900  17.503  24.334  1.00  0.00     0.146 C 
ATOM     31  C   UNL A   1      33.058  18.367  25.695  1.00  0.00     0.146 C 
ATOM     32  C   UNL A   1      33.957  16.432  23.772  1.00  0.00     0.181 C 
ATOM     33  C   UNL A   1      32.185  17.217  25.140  1.00  0.00     0.181 C 
ATOM     34  O   UNL A   1      32.962  16.064  24.743  1.00  0.00    -0.378 OA
ENDBRANCH  28  29
ENDBRANCH  17  18
ENDBRANCH   9  17
ENDBRANCH   6   8
ENDBRANCH   5   6
ENDBRANCH   4   5
ENDBRANCH   3   4
ENDBRANCH   2   3
ENDBRANCH   1   2
BRANCH   1  35
ATOM     35  C   UNL A   1      29.855  30.896  24.075  1.00  0.00     0.188 C 
BRANCH  35  36
ATOM     36  O   UNL A   1      29.734  32.089  24.829  1.00  0.00    -0.376 OA
BRANCH  36  37
ATOM     37  C   UNL A   1      30.893  32.588  25.464  1.00  0.00     0.202 C 
BRANCH  37  38
ATOM     38  C   UNL A   1      31.230  32.073  26.873  1.00  0.00     0.261 C 
BRANCH  38  39
ATOM     39  O   UNL A   1      32.629  31.836  27.146  1.00  0.00    -0.460 OA
BRANCH  39  40
ATOM     40  C   UNL A   1      33.106  30.599  26.840  1.00  0.00     0.338 C 
ATOM     41  O   UNL A   1      32.553  29.768  26.133  1.00  0.00    -0.246 OA
BRANCH  40  42
ATOM     42  C   UNL A   1      34.517  30.455  27.296  1.00  0.00     0.060 A 
ATOM     43  C   UNL A   1      35.277  31.559  27.679  1.00  0.00     0.016 A 
ATOM     44  C   UNL A   1      35.079  29.168  27.371  1.00  0.00     0.016 A 
ATOM     45  C   UNL A   1      36.572  31.366  28.187  1.00  0.00     0.010 A 
ATOM     46  C   UNL A   1      36.381  28.980  27.858  1.00  0.00     0.010 A 
ATOM     47  C   UNL A   1      37.127  30.074  28.310  1.00  0.00    -0.014 A 
BRANCH  47  48
ATOM     48  C   UNL A   1      38.344  29.880  29.150  1.00  0.00     0.031 A 
ATOM     49  C   UNL A   1      38.501  30.437  30.535  1.00  0.00     0.074 A 
ATOM     50  C   UNL A   1      39.353  29.158  28.622  1.00  0.00     0.049 A 
ATOM     51  N   UNL A   1      39.398  30.122  31.438  1.00  0.00    -0.248 NA
ATOM     52  C   UNL A   1      37.563  31.484  30.959  1.00  0.00     0.031 C 
ATOM     53  C   UNL A   1      39.389  28.648  27.250  1.00  0.00     0.029 A 
ATOM     54  N   UNL A   1      40.529  28.713  29.174  1.00  0.00    -0.354 N 
ATOM     55  C   UNL A   1      39.119  30.904  32.551  1.00  0.00     0.074 A 
ATOM     56  C   UNL A   1      38.003  31.750  32.185  1.00  0.00     0.031 C 
ATOM     57  C   UNL A   1      40.504  27.924  27.080  1.00  0.00     0.029 A 
ATOM     58  C   UNL A   1      41.263  27.915  28.329  1.00  0.00     0.049 A 
ATOM     59  H   UNL A   1      40.820  28.945  30.086  1.00  0.00     0.167 HD
ATOM     60  C   UNL A   1      39.713  30.896  33.769  1.00  0.00     0.034 A 
ATOM     61  C   UNL A   1      42.398  27.218  28.536  1.00  0.00     0.034 A 
ATOM     62  C   UNL A   1      40.843  30.077  34.120  1.00  0.00     0.049 A 
ATOM     63  C   UNL A   1      43.039  27.219  29.894  1.00  0.00     0.074 A 
ATOM     64  C   UNL A   1      41.458  29.949  35.356  1.00  0.00     0.029 A 
ATOM     65  N   UNL A   1      41.548  29.274  33.240  1.00  0.00    -0.354 N 
ATOM     66  N   UNL A   1      42.620  27.785  30.997  1.00  0.00    -0.248 NA
ATOM     67  C   UNL A   1      44.291  26.461  30.044  1.00  0.00     0.031 C 
ATOM     68  C   UNL A   1      42.549  29.087  35.217  1.00  0.00     0.029 A 
ATOM     69  C   UNL A   1      42.602  28.668  33.899  1.00  0.00     0.049 A 
ATOM     70  H   UNL A   1      41.329  29.153  32.288  1.00  0.00     0.167 HD
ATOM     71  C   UNL A   1      43.543  27.436  31.976  1.00  0.00     0.074 A 
ATOM     72  C   UNL A   1      44.536  26.596  31.342  1.00  0.00     0.031 C 
ATOM     73  C   UNL A   1      43.565  27.796  33.280  1.00  0.00     0.034 A 
BRANCH  60  74
ATOM     74  C   UNL A   1      39.107  31.710  34.884  1.00  0.00     0.023 A 
ATOM     75  C   UNL A   1      38.205  31.067  35.756  1.00  0.00     0.012 A 
ATOM     76  C   UNL A   1      39.573  33.001  35.198  1.00  0.00     0.148 A 
ATOM     77  C   UNL A   1      37.781  31.691  36.928  1.00  0.00     0.002 A 
ATOM     78  C   UNL A   1      39.161  33.610  36.380  1.00  0.00     0.091 A 
ATOM     79  F   UNL A   1      40.440  33.587  34.360  1.00  0.00    -0.205 F 
ATOM     80  C   UNL A   1      38.267  32.956  37.245  1.00  0.00     0.022 A 
BRANCH  78  81
ATOM     81  S   UNL A   1      39.762  35.217  36.919  1.00  0.00     0.127 S 
ATOM     82  O   UNL A   1      39.319  36.076  35.821  1.00  0.00    -0.237 OA
ATOM     83  O   UNL A   1      39.038  35.408  38.175  1.00  0.00    -0.237 OA
ATOM     84  O   UNL A   1      41.206  35.084  37.051  1.00  0.00    -0.744 OA
ENDBRANCH  78  81
ENDBRANCH  60  74
BRANCH  61  85
ATOM     85  C   UNL A   1      42.937  26.369  27.441  1.00  0.00     0.023 A 
ATOM     86  C   UNL A   1      43.720  26.967  26.434  1.00  0.00     0.012 A 
ATOM     87  C   UNL A   1      42.728  24.979  27.424  1.00  0.00     0.148 A 
ATOM     88  C   UNL A   1      44.276  26.191  25.418  1.00  0.00     0.002 A 
ATOM     89  C   UNL A   1      43.315  24.207  26.429  1.00  0.00     0.091 A 
ATOM     90  F   UNL A   1      41.978  24.439  28.395  1.00  0.00    -0.205 F 
ATOM     91  C   UNL A   1      44.081  24.812  25.421  1.00  0.00     0.022 A 
BRANCH  89  92
ATOM     92  S   UNL A   1      43.198  22.415  26.401  1.00  0.00     0.127 S 
ATOM     93  O   UNL A   1      42.743  22.126  27.758  1.00  0.00    -0.237 OA
ATOM     94  O   UNL A   1      42.198  22.197  25.355  1.00  0.00    -0.237 OA
ATOM     95  O   UNL A   1      44.534  21.937  26.070  1.00  0.00    -0.744 OA
ENDBRANCH  89  92
ENDBRANCH  61  85
BRANCH  73  96
ATOM     96  C   UNL A   1      44.692  27.305  34.146  1.00  0.00     0.023 A 
ATOM     97  C   UNL A   1      45.849  28.096  34.277  1.00  0.00     0.012 A 
ATOM     98  C   UNL A   1      44.538  26.157  34.949  1.00  0.00     0.148 A 
ATOM     99  C   UNL A   1      46.837  27.755  35.200  1.00  0.00     0.002 A 
ATOM    100  C   UNL A   1      45.512  25.841  35.888  1.00  0.00     0.091 A 
ATOM    101  F   UNL A   1      43.426  25.423  34.803  1.00  0.00    -0.205 F 
ATOM    102  C   UNL A   1      46.663  26.637  36.013  1.00  0.00     0.022 A 
BRANCH 100 103
ATOM    103  S   UNL A   1      45.350  24.464  37.032  1.00  0.00     0.127 S 
ATOM    104  O   UNL A   1      46.577  24.585  37.820  1.00  0.00    -0.237 OA
ATOM    105  O   UNL A   1      44.126  24.808  37.755  1.00  0.00    -0.237 OA
ATOM    106  O   UNL A   1      45.263  23.264  36.213  1.00  0.00    -0.744 OA
ENDBRANCH 100 103
ENDBRANCH  73  96
ENDBRANCH  47  48
ENDBRANCH  40  42
ENDBRANCH  39  40
ENDBRANCH  38  39
ENDBRANCH  37  38
ENDBRANCH  36  37
ENDBRANCH  35  36
ENDBRANCH   1  35
TORSDOF 23
ENDMDL
MODEL 3
REMARK VINA RESULT:     -10.3      5.476     10.086
REMARK SMILES Cc1ccc2cc(C[N@H+]3CC[NH2+][C@H](C(=O)OCCOCCOCCOC(=O)c4ccc(-c5c6nc(c(-c7cccc(S(=O)(=O)[O-])c7F)c7ccc([nH]7)c(-c7cccc(S(=O)(=O)[O-])c7F)c7nc(c(-c8cccc(S(=O)(=O)[O-])c8F)c8ccc5[nH]8)C=C7)C=C6)cc4)C3)c(N3CCOCC3)nc2c1
REMARK SMILES IDX 20 1 19 2 18 3 17 4 16 5 14 6 15 7 13 8 9 9 10 10 91 11
REMARK SMILES IDX 11 13 12 14 8 17 7 18 1 19 2 20 3 21 101 22 4 23 100 24 5 25
REMARK SMILES IDX 99 26 6 27 92 28 93 29 94 30 98 31 95 32 97 33 96 34 21 35
REMARK SMILES IDX 22 36 23 37 24 38 25 39 26 40 27 41 28 42 29 43 90 44 30 45
REMARK SMILES IDX 89 46 31 47 32 48 33 49 83 50 34 51 88 52 82 53 84 54 35 55
REMARK SMILES IDX 87 56 81 57 80 58 36 60 68 61 48 62 67 63 49 64 52 65 66 66
REMARK SMILES IDX 85 67 50 68 51 69 65 71 86 72 53 73 37 74 38 75 46 76 39 77
REMARK SMILES IDX 41 78 47 79 40 80 42 81 43 82 44 83 45 84 69 85 70 86 78 87
REMARK SMILES IDX 71 88 73 89 79 90 72 91 74 92 75 93 76 94 77 95 54 96 55 97
REMARK SMILES IDX 63 98 56 99 58 100 64 101 57 102 59 103 60 104 61 105 62 106
REMARK H PARENT 9 12 12 15 12 16 84 59 52 70
REMARK Flexibility Score: inf
ROOT
ATOM      1  C   UNL A   1      34.056  34.398  28.314  1.00  0.00     0.188 C 
ENDROOT
BRANCH   1   2
ATOM      2  O   UNL A   1      34.896  33.483  27.627  1.00  0.00    -0.376 OA
BRANCH   2   3
ATOM      3  C   UNL A   1      36.213  33.347  28.135  1.00  0.00     0.202 C 
BRANCH   3   4
ATOM      4  C   UNL A   1      36.707  31.904  28.329  1.00  0.00     0.261 C 
BRANCH   4   5
ATOM      5  O   UNL A   1      35.726  30.975  28.822  1.00  0.00    -0.459 OA
BRANCH   5   6
ATOM      6  C   UNL A   1      35.641  29.796  28.156  1.00  0.00     0.371 C 
ATOM      7  O   UNL A   1      36.542  28.964  28.153  1.00  0.00    -0.245 OA
BRANCH   6   8
ATOM      8  C   UNL A   1      34.295  29.611  27.448  1.00  0.00     0.348 C 
ATOM      9  N   UNL A   1      33.072  28.476  25.580  1.00  0.00    -0.321 N 
ATOM     10  C   UNL A   1      32.093  29.580  25.621  1.00  0.00     0.324 C 
ATOM     11  C   UNL A   1      34.374  28.973  26.051  1.00  0.00     0.341 C 
ATOM     12  H   UNL A   1      33.170  28.193  24.606  1.00  0.00     0.348 HD
ATOM     13  C   UNL A   1      32.054  30.450  26.911  1.00  0.00     0.323 C 
ATOM     14  N   UNL A   1      33.336  30.737  27.590  1.00  0.00    -0.325 N 
ATOM     15  H   UNL A   1      33.157  30.895  28.581  1.00  0.00     0.347 HD
ATOM     16  H   UNL A   1      33.748  31.563  27.157  1.00  0.00     0.347 HD
BRANCH   9  17
ATOM     17  C   UNL A   1      32.629  27.182  26.168  1.00  0.00     0.303 C 
BRANCH  17  18
ATOM     18  C   UNL A   1      32.907  25.879  25.426  1.00  0.00     0.049 A 
ATOM     19  C   UNL A   1      32.908  19.431  25.667  1.00  0.00     0.044 C 
ATOM     20  C   UNL A   1      33.200  20.903  25.666  1.00  0.00    -0.049 A 
ATOM     21  C   UNL A   1      34.142  21.399  26.563  1.00  0.00     0.004 A 
ATOM     22  C   UNL A   1      32.510  21.807  24.829  1.00  0.00     0.032 A 
ATOM     23  C   UNL A   1      34.437  22.755  26.572  1.00  0.00     0.010 A 
ATOM     24  C   UNL A   1      32.734  23.190  24.867  1.00  0.00     0.073 A 
ATOM     25  C   UNL A   1      33.736  23.645  25.740  1.00  0.00     0.001 A 
ATOM     26  N   UNL A   1      31.982  24.069  24.153  1.00  0.00    -0.230 NA
ATOM     27  C   UNL A   1      33.901  25.021  25.901  1.00  0.00     0.023 A 
ATOM     28  C   UNL A   1      32.064  25.397  24.419  1.00  0.00     0.138 A 
BRANCH  28  29
ATOM     29  N   UNL A   1      31.246  26.283  23.744  1.00  0.00    -0.352 N 
ATOM     30  C   UNL A   1      31.759  26.882  22.507  1.00  0.00     0.146 C 
ATOM     31  C   UNL A   1      29.791  26.120  23.748  1.00  0.00     0.146 C 
ATOM     32  C   UNL A   1      31.102  28.260  22.350  1.00  0.00     0.181 C 
ATOM     33  C   UNL A   1      29.161  27.508  23.488  1.00  0.00     0.181 C 
ATOM     34  O   UNL A   1      29.670  28.141  22.292  1.00  0.00    -0.378 OA
ENDBRANCH  28  29
ENDBRANCH  17  18
ENDBRANCH   9  17
ENDBRANCH   6   8
ENDBRANCH   5   6
ENDBRANCH   4   5
ENDBRANCH   3   4
ENDBRANCH   2   3
ENDBRANCH   1   2
BRANCH   1  35
ATOM     35  C   UNL A   1      33.914  34.093  29.826  1.00  0.00     0.188 C 
BRANCH  35  36
ATOM     36  O   UNL A   1      33.338  35.043  30.704  1.00  0.00    -0.376 OA
BRANCH  36  37
ATOM     37  C   UNL A   1      33.966  35.253  31.952  1.00  0.00     0.202 C 
BRANCH  37  38
ATOM     38  C   UNL A   1      33.721  34.227  33.071  1.00  0.00     0.261 C 
BRANCH  38  39
ATOM     39  O   UNL A   1      34.630  33.105  33.116  1.00  0.00    -0.460 OA
BRANCH  39  40
ATOM     40  C   UNL A   1      35.736  33.253  33.896  1.00  0.00     0.338 C 
ATOM     41  O   UNL A   1      35.746  33.456  35.102  1.00  0.00    -0.246 OA
BRANCH  40  42
ATOM     42  C   UNL A   1      36.966  32.906  33.130  1.00  0.00     0.060 A 
ATOM     43  C   UNL A   1      37.178  33.381  31.836  1.00  0.00     0.016 A 
ATOM     44  C   UNL A   1      37.947  32.109  33.745  1.00  0.00     0.016 A 
ATOM     45  C   UNL A   1      38.391  33.103  31.187  1.00  0.00     0.010 A 
ATOM     46  C   UNL A   1      39.150  31.814  33.085  1.00  0.00     0.010 A 
ATOM     47  C   UNL A   1      39.402  32.342  31.814  1.00  0.00    -0.014 A 
BRANCH  47  48
ATOM     48  C   UNL A   1      40.781  32.352  31.246  1.00  0.00     0.031 A 
ATOM     49  C   UNL A   1      41.308  31.305  30.309  1.00  0.00     0.074 A 
ATOM     50  C   UNL A   1      41.590  33.371  31.601  1.00  0.00     0.049 A 
ATOM     51  N   UNL A   1      42.388  31.351  29.567  1.00  0.00    -0.248 NA
ATOM     52  C   UNL A   1      40.556  30.048  30.201  1.00  0.00     0.031 C 
ATOM     53  C   UNL A   1      41.255  34.400  32.588  1.00  0.00     0.029 A 
ATOM     54  N   UNL A   1      42.845  33.720  31.168  1.00  0.00    -0.354 N 
ATOM     55  C   UNL A   1      42.434  30.147  28.876  1.00  0.00     0.074 A 
ATOM     56  C   UNL A   1      41.303  29.370  29.334  1.00  0.00     0.031 C 
ATOM     57  C   UNL A   1      42.257  35.289  32.651  1.00  0.00     0.029 A 
ATOM     58  C   UNL A   1      43.304  34.897  31.711  1.00  0.00     0.049 A 
ATOM     59  H   UNL A   1      43.367  33.180  30.531  1.00  0.00     0.167 HD
ATOM     60  C   UNL A   1      43.315  29.741  27.929  1.00  0.00     0.034 A 
ATOM     61  C   UNL A   1      44.421  35.609  31.460  1.00  0.00     0.034 A 
ATOM     62  C   UNL A   1      44.458  30.503  27.498  1.00  0.00     0.049 A 
ATOM     63  C   UNL A   1      45.383  35.144  30.405  1.00  0.00     0.074 A 
ATOM     64  C   UNL A   1      45.357  30.201  26.488  1.00  0.00     0.029 A 
ATOM     65  N   UNL A   1      44.880  31.693  28.064  1.00  0.00    -0.354 N 
ATOM     66  N   UNL A   1      45.283  34.117  29.600  1.00  0.00    -0.248 NA
ATOM     67  C   UNL A   1      46.596  35.952  30.202  1.00  0.00     0.031 C 
ATOM     68  C   UNL A   1      46.337  31.196  26.459  1.00  0.00     0.029 A 
ATOM     69  C   UNL A   1      46.037  32.125  27.441  1.00  0.00     0.049 A 
ATOM     70  H   UNL A   1      44.423  32.162  28.800  1.00  0.00     0.167 HD
ATOM     71  C   UNL A   1      46.405  34.167  28.781  1.00  0.00     0.074 A 
ATOM     72  C   UNL A   1      47.166  35.332  29.175  1.00  0.00     0.031 C 
ATOM     73  C   UNL A   1      46.772  33.309  27.801  1.00  0.00     0.034 A 
BRANCH  60  74
ATOM     74  C   UNL A   1      43.048  28.459  27.183  1.00  0.00     0.023 A 
ATOM     75  C   UNL A   1      42.316  28.534  25.980  1.00  0.00     0.012 A 
ATOM     76  C   UNL A   1      43.680  27.251  27.534  1.00  0.00     0.148 A 
ATOM     77  C   UNL A   1      42.223  27.431  25.134  1.00  0.00     0.002 A 
ATOM     78  C   UNL A   1      43.599  26.159  26.675  1.00  0.00     0.091 A 
ATOM     79  F   UNL A   1      44.380  27.207  28.677  1.00  0.00    -0.205 F 
ATOM     80  C   UNL A   1      42.872  26.249  25.475  1.00  0.00     0.022 A 
BRANCH  78  81
ATOM     81  S   UNL A   1      44.439  24.600  26.984  1.00  0.00     0.127 S 
ATOM     82  O   UNL A   1      44.877  24.775  28.369  1.00  0.00    -0.237 OA
ATOM     83  O   UNL A   1      43.360  23.630  26.803  1.00  0.00    -0.237 OA
ATOM     84  O   UNL A   1      45.514  24.520  26.005  1.00  0.00    -0.744 OA
ENDBRANCH  78  81
ENDBRANCH  60  74
BRANCH  61  85
ATOM     85  C   UNL A   1      44.627  36.904  32.161  1.00  0.00     0.023 A 
ATOM     86  C   UNL A   1      45.293  36.913  33.402  1.00  0.00     0.012 A 
ATOM     87  C   UNL A   1      44.222  38.120  31.581  1.00  0.00     0.148 A 
ATOM     88  C   UNL A   1      45.540  38.116  34.062  1.00  0.00     0.002 A 
ATOM     89  C   UNL A   1      44.504  39.317  32.227  1.00  0.00     0.091 A 
ATOM     90  F   UNL A   1      43.590  38.079  30.400  1.00  0.00    -0.205 F 
ATOM     91  C   UNL A   1      45.153  39.317  33.471  1.00  0.00     0.022 A 
BRANCH  89  92
ATOM     92  S   UNL A   1      44.129  40.917  31.503  1.00  0.00     0.127 S 
ATOM     93  O   UNL A   1      45.217  41.068  30.540  1.00  0.00    -0.237 OA
ATOM     94  O   UNL A   1      42.812  40.678  30.913  1.00  0.00    -0.237 OA
ATOM     95  O   UNL A   1      44.133  41.863  32.611  1.00  0.00    -0.744 OA
ENDBRANCH  89  92
ENDBRANCH  61  85
BRANCH  73  96
ATOM     96  C   UNL A   1      48.056  33.562  27.062  1.00  0.00     0.023 A 
ATOM     97  C   UNL A   1      48.049  34.436  25.958  1.00  0.00     0.012 A 
ATOM     98  C   UNL A   1      49.282  33.073  27.556  1.00  0.00     0.148 A 
ATOM     99  C   UNL A   1      49.247  34.824  25.358  1.00  0.00     0.002 A 
ATOM    100  C   UNL A   1      50.472  33.490  26.973  1.00  0.00     0.091 A 
ATOM    101  F   UNL A   1      49.258  32.243  28.609  1.00  0.00    -0.205 F 
ATOM    102  C   UNL A   1      50.456  34.362  25.872  1.00  0.00     0.022 A 
BRANCH 100 103
ATOM    103  S   UNL A   1      52.085  33.009  27.603  1.00  0.00     0.127 S 
ATOM    104  O   UNL A   1      52.137  31.593  27.242  1.00  0.00    -0.237 OA
ATOM    105  O   UNL A   1      52.984  33.868  26.832  1.00  0.00    -0.237 OA
ATOM    106  O   UNL A   1      52.058  33.276  29.034  1.00  0.00    -0.744 OA
ENDBRANCH 100 103
ENDBRANCH  73  96
ENDBRANCH  47  48
ENDBRANCH  40  42
ENDBRANCH  39  40
ENDBRANCH  38  39
ENDBRANCH  37  38
ENDBRANCH  36  37
ENDBRANCH  35  36
ENDBRANCH   1  35
TORSDOF 23
ENDMDL
