MODEL 1
REMARK VINA RESULT:     -11.9      0.000      0.000
REMARK SMILES Cc1cc(C(=O)OCCOCCOCCOC(=O)c2ccc(-c3c4nc(c(-c5cccc(S(=O)(=O)[O-])c5F)c5ccc([nH]5)c(-c5cccc(S(=O)(=O)[O-])c5F)c5nc(c(-c6cccc(S(=O)(=O)[O-])c6F)c6ccc3[nH]6)C=C5)C=C4)cc2)ccc1NC(=O)N1C[C@@H](C)[C@H](C)C1
REMARK SMILES IDX 12 1 11 2 10 3 9 4 8 5 7 6 5 7 6 8 4 9 1 10 2 11 3 12 84 13
REMARK SMILES IDX 83 14 82 15 85 16 86 17 87 19 88 20 89 21 94 22 90 23 92 24
REMARK SMILES IDX 91 25 93 26 13 27 14 28 15 29 16 30 17 31 18 32 19 33 20 34
REMARK SMILES IDX 81 35 21 36 80 37 22 38 23 39 24 40 74 41 25 42 79 43 73 44
REMARK SMILES IDX 75 45 26 46 78 47 72 48 71 49 27 51 59 52 39 53 58 54 40 55
REMARK SMILES IDX 43 56 57 57 76 58 41 59 42 60 56 62 77 63 44 64 28 65 29 66
REMARK SMILES IDX 37 67 30 68 32 69 38 70 31 71 33 72 34 73 35 74 36 75 60 76
REMARK SMILES IDX 61 77 69 78 62 79 64 80 70 81 63 82 65 83 66 84 67 85 68 86
REMARK SMILES IDX 45 87 46 88 54 89 47 90 49 91 55 92 48 93 50 94 51 95 52 96
REMARK SMILES IDX 53 97
REMARK H PARENT 85 18 75 50 43 61
REMARK Flexibility Score: inf
ROOT
ATOM      1  C   UNL A   1      42.090  21.408  27.193  1.00  0.00     0.188 C 
ENDROOT
BRANCH   1   2
ATOM      2  C   UNL A   1      40.823  21.995  27.766  1.00  0.00     0.188 C 
BRANCH   2   3
ATOM      3  O   UNL A   1      40.809  23.388  28.009  1.00  0.00    -0.376 OA
BRANCH   3   4
ATOM      4  C   UNL A   1      40.078  23.980  26.906  1.00  0.00     0.202 C 
BRANCH   4   5
ATOM      5  C   UNL A   1      38.934  23.002  26.419  1.00  0.00     0.261 C 
BRANCH   5   6
ATOM      6  O   UNL A   1      37.381  23.385  25.884  1.00  0.00    -0.460 OA
BRANCH   6   7
ATOM      7  C   UNL A   1      36.422  23.273  24.832  1.00  0.00     0.338 C 
ATOM      8  O   UNL A   1      36.475  23.504  23.629  1.00  0.00    -0.246 OA
BRANCH   7   9
ATOM      9  C   UNL A   1      35.114  22.690  25.070  1.00  0.00     0.060 A 
ATOM     10  C   UNL A   1      32.066  21.945  22.869  1.00  0.00     0.046 C 
ATOM     11  C   UNL A   1      32.901  22.335  24.058  1.00  0.00    -0.027 A 
ATOM     12  C   UNL A   1      34.288  22.360  23.945  1.00  0.00     0.021 A 
ATOM     13  C   UNL A   1      32.414  22.724  25.301  1.00  0.00     0.045 A 
ATOM     14  C   UNL A   1      33.250  22.715  26.441  1.00  0.00     0.027 A 
ATOM     15  C   UNL A   1      34.619  22.757  26.337  1.00  0.00     0.018 A 
BRANCH  13  16
ATOM     16  N   UNL A   1      31.142  23.316  25.423  1.00  0.00    -0.308 N 
ATOM     17  C   UNL A   1      30.920  24.610  25.834  1.00  0.00     0.321 C 
ATOM     18  H   UNL A   1      30.359  22.765  25.199  1.00  0.00     0.171 HD
ATOM     19  O   UNL A   1      29.907  24.888  26.476  1.00  0.00    -0.248 OA
ATOM     20  N   UNL A   1      31.889  25.546  25.534  1.00  0.00    -0.324 N 
ATOM     21  C   UNL A   1      32.344  26.515  26.505  1.00  0.00     0.125 C 
ATOM     22  C   UNL A   1      32.445  25.815  24.204  1.00  0.00     0.125 C 
ATOM     23  C   UNL A   1      33.000  27.627  25.696  1.00  0.00     0.010 C 
ATOM     24  C   UNL A   1      33.498  26.911  24.424  1.00  0.00     0.010 C 
ATOM     25  C   UNL A   1      34.112  28.323  26.468  1.00  0.00     0.010 C 
ATOM     26  C   UNL A   1      33.647  27.865  23.243  1.00  0.00     0.010 C 
ENDBRANCH  13  16
ENDBRANCH   7   9
ENDBRANCH   6   7
ENDBRANCH   5   6
ENDBRANCH   4   5
ENDBRANCH   3   4
ENDBRANCH   2   3
ENDBRANCH   1   2
BRANCH   1  27
ATOM     27  O   UNL A   1      42.164  19.994  27.081  1.00  0.00    -0.376 OA
BRANCH  27  28
ATOM     28  C   UNL A   1      42.484  19.482  25.791  1.00  0.00     0.202 C 
BRANCH  28  29
ATOM     29  C   UNL A   1      43.954  19.623  25.289  1.00  0.00     0.261 C 
BRANCH  29  30
ATOM     30  O   UNL A   1      44.209  20.804  24.497  1.00  0.00    -0.460 OA
BRANCH  30  31
ATOM     31  C   UNL A   1      45.326  21.537  24.801  1.00  0.00     0.338 C 
ATOM     32  O   UNL A   1      46.404  21.064  25.161  1.00  0.00    -0.246 OA
BRANCH  31  33
ATOM     33  C   UNL A   1      44.960  22.973  24.712  1.00  0.00     0.060 A 
ATOM     34  C   UNL A   1      45.779  24.064  24.921  1.00  0.00     0.016 A 
ATOM     35  C   UNL A   1      43.650  23.277  24.612  1.00  0.00     0.016 A 
ATOM     36  C   UNL A   1      45.256  25.310  25.437  1.00  0.00     0.010 A 
ATOM     37  C   UNL A   1      43.209  24.429  25.283  1.00  0.00     0.010 A 
ATOM     38  C   UNL A   1      43.958  25.442  25.941  1.00  0.00    -0.014 A 
BRANCH  38  39
ATOM     39  C   UNL A   1      43.588  26.521  27.227  1.00  0.00     0.031 A 
ATOM     40  C   UNL A   1      42.237  27.548  27.681  1.00  0.00     0.074 A 
ATOM     41  C   UNL A   1      44.611  26.619  28.127  1.00  0.00     0.049 A 
ATOM     42  N   UNL A   1      42.380  28.796  28.106  1.00  0.00    -0.248 NA
ATOM     43  C   UNL A   1      40.714  27.395  27.491  1.00  0.00     0.031 C 
ATOM     44  C   UNL A   1      44.648  27.385  29.372  1.00  0.00     0.029 A 
ATOM     45  N   UNL A   1      45.937  26.167  28.032  1.00  0.00    -0.354 N 
ATOM     46  C   UNL A   1      41.082  29.362  28.184  1.00  0.00     0.074 A 
ATOM     47  C   UNL A   1      40.264  28.623  27.358  1.00  0.00     0.031 C 
ATOM     48  C   UNL A   1      45.936  27.655  29.663  1.00  0.00     0.029 A 
ATOM     49  C   UNL A   1      46.740  27.179  28.550  1.00  0.00     0.049 A 
ATOM     50  H   UNL A   1      46.239  25.303  27.669  1.00  0.00     0.167 HD
ATOM     51  C   UNL A   1      40.617  30.221  29.126  1.00  0.00     0.034 A 
ATOM     52  C   UNL A   1      47.578  27.918  27.760  1.00  0.00     0.034 A 
ATOM     53  C   UNL A   1      41.783  30.800  29.737  1.00  0.00     0.049 A 
ATOM     54  C   UNL A   1      47.216  29.405  27.803  1.00  0.00     0.074 A 
ATOM     55  C   UNL A   1      42.549  30.420  30.818  1.00  0.00     0.029 A 
ATOM     56  N   UNL A   1      42.605  31.532  28.895  1.00  0.00    -0.354 N 
ATOM     57  N   UNL A   1      46.157  29.905  28.392  1.00  0.00    -0.248 NA
ATOM     58  C   UNL A   1      48.032  30.442  27.181  1.00  0.00     0.031 C 
ATOM     59  C   UNL A   1      43.902  30.761  30.503  1.00  0.00     0.029 A 
ATOM     60  C   UNL A   1      43.932  31.427  29.285  1.00  0.00     0.049 A 
ATOM     61  H   UNL A   1      42.290  32.056  28.123  1.00  0.00     0.167 HD
ATOM     62  C   UNL A   1      46.060  31.249  28.127  1.00  0.00     0.074 A 
ATOM     63  C   UNL A   1      47.306  31.544  27.435  1.00  0.00     0.031 C 
ATOM     64  C   UNL A   1      44.961  32.016  28.425  1.00  0.00     0.034 A 
BRANCH  51  65
ATOM     65  C   UNL A   1      39.127  30.341  29.598  1.00  0.00     0.023 A 
ATOM     66  C   UNL A   1      38.569  29.163  30.132  1.00  0.00     0.012 A 
ATOM     67  C   UNL A   1      38.183  31.427  29.466  1.00  0.00     0.148 A 
ATOM     68  C   UNL A   1      37.202  29.043  30.459  1.00  0.00     0.002 A 
ATOM     69  C   UNL A   1      36.825  31.314  29.814  1.00  0.00     0.091 A 
ATOM     70  F   UNL A   1      38.532  32.606  28.954  1.00  0.00    -0.205 F 
ATOM     71  C   UNL A   1      36.329  30.111  30.295  1.00  0.00     0.022 A 
BRANCH  69  72
ATOM     72  S   UNL A   1      35.625  32.668  29.606  1.00  0.00     0.127 S 
ATOM     73  O   UNL A   1      35.505  32.751  28.150  1.00  0.00    -0.237 OA
ATOM     74  O   UNL A   1      34.438  32.145  30.282  1.00  0.00    -0.237 OA
ATOM     75  O   UNL A   1      36.207  33.851  30.230  1.00  0.00    -0.744 OA
ENDBRANCH  69  72
ENDBRANCH  51  65
BRANCH  52  76
ATOM     76  C   UNL A   1      48.248  27.185  26.611  1.00  0.00     0.023 A 
ATOM     77  C   UNL A   1      47.664  27.337  25.322  1.00  0.00     0.012 A 
ATOM     78  C   UNL A   1      49.523  26.583  26.668  1.00  0.00     0.148 A 
ATOM     79  C   UNL A   1      48.348  27.009  24.145  1.00  0.00     0.002 A 
ATOM     80  C   UNL A   1      50.213  26.269  25.482  1.00  0.00     0.091 A 
ATOM     81  F   UNL A   1      50.107  26.407  27.860  1.00  0.00    -0.205 F 
ATOM     82  C   UNL A   1      49.628  26.478  24.224  1.00  0.00     0.022 A 
BRANCH  80  83
ATOM     83  S   UNL A   1      51.980  25.871  25.522  1.00  0.00     0.127 S 
ATOM     84  O   UNL A   1      52.534  26.929  26.369  1.00  0.00    -0.237 OA
ATOM     85  O   UNL A   1      52.028  24.547  26.128  1.00  0.00    -0.237 OA
ATOM     86  O   UNL A   1      52.340  25.963  24.111  1.00  0.00    -0.744 OA
ENDBRANCH  80  83
ENDBRANCH  52  76
BRANCH  64  87
ATOM     87  C   UNL A   1      44.711  33.413  27.853  1.00  0.00     0.023 A 
ATOM     88  C   UNL A   1      44.113  33.619  26.596  1.00  0.00     0.012 A 
ATOM     89  C   UNL A   1      44.883  34.572  28.658  1.00  0.00     0.148 A 
ATOM     90  C   UNL A   1      43.783  34.897  26.128  1.00  0.00     0.002 A 
ATOM     91  C   UNL A   1      44.389  35.811  28.258  1.00  0.00     0.091 A 
ATOM     92  F   UNL A   1      45.524  34.491  29.833  1.00  0.00    -0.205 F 
ATOM     93  C   UNL A   1      43.888  35.992  26.972  1.00  0.00     0.022 A 
BRANCH  91  94
ATOM     94  S   UNL A   1      44.160  37.113  29.481  1.00  0.00     0.127 S 
ATOM     95  O   UNL A   1      43.360  38.093  28.752  1.00  0.00    -0.237 OA
ATOM     96  O   UNL A   1      43.445  36.425  30.559  1.00  0.00    -0.237 OA
ATOM     97  O   UNL A   1      45.520  37.507  29.829  1.00  0.00    -0.744 OA
ENDBRANCH  91  94
ENDBRANCH  64  87
ENDBRANCH  38  39
ENDBRANCH  31  33
ENDBRANCH  30  31
ENDBRANCH  29  30
ENDBRANCH  28  29
ENDBRANCH  27  28
ENDBRANCH   1  27
TORSDOF 21
ENDMDL
MODEL 2
REMARK VINA RESULT:     -11.8      1.998      2.580
REMARK SMILES Cc1cc(C(=O)OCCOCCOCCOC(=O)c2ccc(-c3c4nc(c(-c5cccc(S(=O)(=O)[O-])c5F)c5ccc([nH]5)c(-c5cccc(S(=O)(=O)[O-])c5F)c5nc(c(-c6cccc(S(=O)(=O)[O-])c6F)c6ccc3[nH]6)C=C5)C=C4)cc2)ccc1NC(=O)N1C[C@@H](C)[C@H](C)C1
REMARK SMILES IDX 12 1 11 2 10 3 9 4 8 5 7 6 5 7 6 8 4 9 1 10 2 11 3 12 84 13
REMARK SMILES IDX 83 14 82 15 85 16 86 17 87 19 88 20 89 21 94 22 90 23 92 24
REMARK SMILES IDX 91 25 93 26 13 27 14 28 15 29 16 30 17 31 18 32 19 33 20 34
REMARK SMILES IDX 81 35 21 36 80 37 22 38 23 39 24 40 74 41 25 42 79 43 73 44
REMARK SMILES IDX 75 45 26 46 78 47 72 48 71 49 27 51 59 52 39 53 58 54 40 55
REMARK SMILES IDX 43 56 57 57 76 58 41 59 42 60 56 62 77 63 44 64 28 65 29 66
REMARK SMILES IDX 37 67 30 68 32 69 38 70 31 71 33 72 34 73 35 74 36 75 60 76
REMARK SMILES IDX 61 77 69 78 62 79 64 80 70 81 63 82 65 83 66 84 67 85 68 86
REMARK SMILES IDX 45 87 46 88 54 89 47 90 49 91 55 92 48 93 50 94 51 95 52 96
REMARK SMILES IDX 53 97
REMARK H PARENT 85 18 75 50 43 61
REMARK Flexibility Score: inf
ROOT
ATOM      1  C   UNL A   1      42.312  23.164  28.131  1.00  0.00     0.188 C 
ENDROOT
BRANCH   1   2
ATOM      2  C   UNL A   1      41.009  23.683  27.573  1.00  0.00     0.188 C 
BRANCH   2   3
ATOM      3  O   UNL A   1      40.271  24.577  28.382  1.00  0.00    -0.376 OA
BRANCH   3   4
ATOM      4  C   UNL A   1      38.983  24.732  27.735  1.00  0.00     0.202 C 
BRANCH   4   5
ATOM      5  C   UNL A   1      38.903  23.816  26.448  1.00  0.00     0.261 C 
BRANCH   5   6
ATOM      6  O   UNL A   1      37.567  23.495  25.468  1.00  0.00    -0.460 OA
BRANCH   6   7
ATOM      7  C   UNL A   1      36.759  22.496  24.846  1.00  0.00     0.338 C 
ATOM      8  O   UNL A   1      36.829  21.923  23.764  1.00  0.00    -0.246 OA
BRANCH   7   9
ATOM      9  C   UNL A   1      35.661  21.869  25.560  1.00  0.00     0.060 A 
ATOM     10  C   UNL A   1      32.540  19.913  24.502  1.00  0.00     0.046 C 
ATOM     11  C   UNL A   1      33.446  20.843  25.260  1.00  0.00    -0.027 A 
ATOM     12  C   UNL A   1      34.760  21.019  24.837  1.00  0.00     0.021 A 
ATOM     13  C   UNL A   1      33.087  21.606  26.366  1.00  0.00     0.045 A 
ATOM     14  C   UNL A   1      34.074  22.154  27.219  1.00  0.00     0.027 A 
ATOM     15  C   UNL A   1      35.368  22.346  26.801  1.00  0.00     0.018 A 
BRANCH  13  16
ATOM     16  N   UNL A   1      31.753  22.013  26.558  1.00  0.00    -0.308 N 
ATOM     17  C   UNL A   1      31.322  23.319  26.525  1.00  0.00     0.321 C 
ATOM     18  H   UNL A   1      31.082  21.313  26.728  1.00  0.00     0.171 HD
ATOM     19  O   UNL A   1      30.388  23.680  27.240  1.00  0.00    -0.248 OA
ATOM     20  N   UNL A   1      32.005  24.191  25.700  1.00  0.00    -0.324 N 
ATOM     21  C   UNL A   1      32.387  25.515  26.135  1.00  0.00     0.125 C 
ATOM     22  C   UNL A   1      32.274  23.996  24.272  1.00  0.00     0.125 C 
ATOM     23  C   UNL A   1      32.649  26.305  24.859  1.00  0.00     0.010 C 
ATOM     24  C   UNL A   1      33.084  25.227  23.845  1.00  0.00     0.010 C 
ATOM     25  C   UNL A   1      33.692  27.396  25.060  1.00  0.00     0.010 C 
ATOM     26  C   UNL A   1      32.835  25.656  22.402  1.00  0.00     0.010 C 
ENDBRANCH  13  16
ENDBRANCH   7   9
ENDBRANCH   6   7
ENDBRANCH   5   6
ENDBRANCH   4   5
ENDBRANCH   3   4
ENDBRANCH   2   3
ENDBRANCH   1   2
BRANCH   1  27
ATOM     27  O   UNL A   1      42.634  21.802  27.884  1.00  0.00    -0.376 OA
BRANCH  27  28
ATOM     28  C   UNL A   1      42.243  21.285  26.616  1.00  0.00     0.202 C 
BRANCH  28  29
ATOM     29  C   UNL A   1      43.362  20.817  25.637  1.00  0.00     0.261 C 
BRANCH  29  30
ATOM     30  O   UNL A   1      44.001  21.883  24.899  1.00  0.00    -0.460 OA
BRANCH  30  31
ATOM     31  C   UNL A   1      45.190  22.362  25.385  1.00  0.00     0.338 C 
ATOM     32  O   UNL A   1      46.161  21.666  25.683  1.00  0.00    -0.246 OA
BRANCH  31  33
ATOM     33  C   UNL A   1      45.043  23.826  25.571  1.00  0.00     0.060 A 
ATOM     34  C   UNL A   1      45.664  24.620  26.515  1.00  0.00     0.016 A 
ATOM     35  C   UNL A   1      44.056  24.445  24.893  1.00  0.00     0.016 A 
ATOM     36  C   UNL A   1      45.026  25.810  27.034  1.00  0.00     0.010 A 
ATOM     37  C   UNL A   1      43.389  25.494  25.548  1.00  0.00     0.010 A 
ATOM     38  C   UNL A   1      43.689  26.131  26.782  1.00  0.00    -0.014 A 
BRANCH  38  39
ATOM     39  C   UNL A   1      42.719  26.959  27.936  1.00  0.00     0.031 A 
ATOM     40  C   UNL A   1      41.280  27.966  27.905  1.00  0.00     0.074 A 
ATOM     41  C   UNL A   1      43.193  26.808  29.209  1.00  0.00     0.049 A 
ATOM     42  N   UNL A   1      41.164  29.092  28.593  1.00  0.00    -0.248 NA
ATOM     43  C   UNL A   1      40.033  27.957  26.997  1.00  0.00     0.031 C 
ATOM     44  C   UNL A   1      42.612  27.310  30.453  1.00  0.00     0.029 A 
ATOM     45  N   UNL A   1      44.422  26.295  29.654  1.00  0.00    -0.354 N 
ATOM     46  C   UNL A   1      39.964  29.719  28.170  1.00  0.00     0.074 A 
ATOM     47  C   UNL A   1      39.657  29.215  26.924  1.00  0.00     0.031 C 
ATOM     48  C   UNL A   1      43.601  27.429  31.361  1.00  0.00     0.029 A 
ATOM     49  C   UNL A   1      44.850  27.128  30.683  1.00  0.00     0.049 A 
ATOM     50  H   UNL A   1      44.888  25.501  29.306  1.00  0.00     0.167 HD
ATOM     51  C   UNL A   1      39.081  30.406  28.938  1.00  0.00     0.034 A 
ATOM     52  C   UNL A   1      45.936  27.950  30.548  1.00  0.00     0.034 A 
ATOM     53  C   UNL A   1      39.801  30.772  30.128  1.00  0.00     0.049 A 
ATOM     54  C   UNL A   1      45.547  29.420  30.722  1.00  0.00     0.074 A 
ATOM     55  C   UNL A   1      39.978  30.136  31.338  1.00  0.00     0.029 A 
ATOM     56  N   UNL A   1      40.897  31.598  29.939  1.00  0.00    -0.354 N 
ATOM     57  N   UNL A   1      44.319  29.865  30.835  1.00  0.00    -0.248 NA
ATOM     58  C   UNL A   1      46.524  30.502  30.781  1.00  0.00     0.031 C 
ATOM     59  C   UNL A   1      41.308  30.440  31.770  1.00  0.00     0.029 A 
ATOM     60  C   UNL A   1      41.886  31.329  30.873  1.00  0.00     0.049 A 
ATOM     61  H   UNL A   1      40.966  32.284  29.236  1.00  0.00     0.167 HD
ATOM     62  C   UNL A   1      44.314  31.239  30.838  1.00  0.00     0.074 A 
ATOM     63  C   UNL A   1      45.728  31.579  30.886  1.00  0.00     0.031 C 
ATOM     64  C   UNL A   1      43.178  32.004  30.737  1.00  0.00     0.034 A 
BRANCH  51  65
ATOM     65  C   UNL A   1      37.541  30.530  28.671  1.00  0.00     0.023 A 
ATOM     66  C   UNL A   1      36.917  29.363  28.188  1.00  0.00     0.012 A 
ATOM     67  C   UNL A   1      36.669  31.681  28.720  1.00  0.00     0.148 A 
ATOM     68  C   UNL A   1      35.579  29.338  27.746  1.00  0.00     0.002 A 
ATOM     69  C   UNL A   1      35.327  31.650  28.301  1.00  0.00     0.091 A 
ATOM     70  F   UNL A   1      37.098  32.875  29.126  1.00  0.00    -0.205 F 
ATOM     71  C   UNL A   1      34.785  30.477  27.794  1.00  0.00     0.022 A 
BRANCH  69  72
ATOM     72  S   UNL A   1      34.239  33.110  28.321  1.00  0.00     0.127 S 
ATOM     73  O   UNL A   1      33.042  32.611  27.642  1.00  0.00    -0.237 OA
ATOM     74  O   UNL A   1      34.065  33.356  29.752  1.00  0.00    -0.237 OA
ATOM     75  O   UNL A   1      34.939  34.171  27.604  1.00  0.00    -0.744 OA
ENDBRANCH  69  72
ENDBRANCH  51  65
BRANCH  52  76
ATOM     76  C   UNL A   1      47.093  27.413  29.724  1.00  0.00     0.023 A 
ATOM     77  C   UNL A   1      47.241  27.933  28.406  1.00  0.00     0.012 A 
ATOM     78  C   UNL A   1      48.163  26.647  30.232  1.00  0.00     0.148 A 
ATOM     79  C   UNL A   1      48.426  27.791  27.673  1.00  0.00     0.002 A 
ATOM     80  C   UNL A   1      49.358  26.520  29.497  1.00  0.00     0.091 A 
ATOM     81  F   UNL A   1      48.065  26.127  31.461  1.00  0.00    -0.205 F 
ATOM     82  C   UNL A   1      49.489  27.087  28.221  1.00  0.00     0.022 A 
BRANCH  80  83
ATOM     83  S   UNL A   1      50.862  25.888  30.285  1.00  0.00     0.127 S 
ATOM     84  O   UNL A   1      51.066  26.820  31.395  1.00  0.00    -0.237 OA
ATOM     85  O   UNL A   1      50.497  24.542  30.708  1.00  0.00    -0.237 OA
ATOM     86  O   UNL A   1      51.836  25.997  29.204  1.00  0.00    -0.744 OA
ENDBRANCH  80  83
ENDBRANCH  52  76
BRANCH  64  87
ATOM     87  C   UNL A   1      43.181  33.500  30.415  1.00  0.00     0.023 A 
ATOM     88  C   UNL A   1      43.146  34.489  31.417  1.00  0.00     0.012 A 
ATOM     89  C   UNL A   1      43.427  33.962  29.094  1.00  0.00     0.148 A 
ATOM     90  C   UNL A   1      43.264  35.853  31.122  1.00  0.00     0.002 A 
ATOM     91  C   UNL A   1      43.721  35.298  28.836  1.00  0.00     0.091 A 
ATOM     92  F   UNL A   1      43.390  33.108  28.060  1.00  0.00    -0.205 F 
ATOM     93  C   UNL A   1      43.586  36.258  29.835  1.00  0.00     0.022 A 
BRANCH  91  94
ATOM     94  S   UNL A   1      44.519  35.751  27.287  1.00  0.00     0.127 S 
ATOM     95  O   UNL A   1      43.522  35.366  26.293  1.00  0.00    -0.237 OA
ATOM     96  O   UNL A   1      44.710  37.197  27.430  1.00  0.00    -0.237 OA
ATOM     97  O   UNL A   1      45.761  34.987  27.299  1.00  0.00    -0.744 OA
ENDBRANCH  91  94
ENDBRANCH  64  87
ENDBRANCH  38  39
ENDBRANCH  31  33
ENDBRANCH  30  31
ENDBRANCH  29  30
ENDBRANCH  28  29
ENDBRANCH  27  28
ENDBRANCH   1  27
TORSDOF 21
ENDMDL
MODEL 3
REMARK VINA RESULT:     -11.5      4.508     11.289
REMARK SMILES Cc1cc(C(=O)OCCOCCOCCOC(=O)c2ccc(-c3c4nc(c(-c5cccc(S(=O)(=O)[O-])c5F)c5ccc([nH]5)c(-c5cccc(S(=O)(=O)[O-])c5F)c5nc(c(-c6cccc(S(=O)(=O)[O-])c6F)c6ccc3[nH]6)C=C5)C=C4)cc2)ccc1NC(=O)N1C[C@@H](C)[C@H](C)C1
REMARK SMILES IDX 12 1 11 2 10 3 9 4 8 5 7 6 5 7 6 8 4 9 1 10 2 11 3 12 84 13
REMARK SMILES IDX 83 14 82 15 85 16 86 17 87 19 88 20 89 21 94 22 90 23 92 24
REMARK SMILES IDX 91 25 93 26 13 27 14 28 15 29 16 30 17 31 18 32 19 33 20 34
REMARK SMILES IDX 81 35 21 36 80 37 22 38 23 39 24 40 74 41 25 42 79 43 73 44
REMARK SMILES IDX 75 45 26 46 78 47 72 48 71 49 27 51 59 52 39 53 58 54 40 55
REMARK SMILES IDX 43 56 57 57 76 58 41 59 42 60 56 62 77 63 44 64 28 65 29 66
REMARK SMILES IDX 37 67 30 68 32 69 38 70 31 71 33 72 34 73 35 74 36 75 60 76
REMARK SMILES IDX 61 77 69 78 62 79 64 80 70 81 63 82 65 83 66 84 67 85 68 86
REMARK SMILES IDX 45 87 46 88 54 89 47 90 49 91 55 92 48 93 50 94 51 95 52 96
REMARK SMILES IDX 53 97
REMARK H PARENT 85 18 75 50 43 61
REMARK Flexibility Score: inf
ROOT
ATOM      1  C   UNL A   1      32.736  36.220  31.051  1.00  0.00     0.188 C 
ENDROOT
BRANCH   1   2
ATOM      2  C   UNL A   1      33.025  35.194  29.983  1.00  0.00     0.188 C 
BRANCH   2   3
ATOM      3  O   UNL A   1      33.659  35.650  28.804  1.00  0.00    -0.376 OA
BRANCH   3   4
ATOM      4  C   UNL A   1      34.537  34.576  28.381  1.00  0.00     0.202 C 
BRANCH   4   5
ATOM      5  C   UNL A   1      33.689  33.308  27.962  1.00  0.00     0.261 C 
BRANCH   5   6
ATOM      6  O   UNL A   1      34.058  31.677  28.184  1.00  0.00    -0.460 OA
BRANCH   6   7
ATOM      7  C   UNL A   1      34.716  30.522  27.663  1.00  0.00     0.338 C 
ATOM      8  O   UNL A   1      35.889  30.166  27.654  1.00  0.00    -0.246 OA
BRANCH   7   9
ATOM      9  C   UNL A   1      33.960  29.422  27.093  1.00  0.00     0.060 A 
ATOM     10  C   UNL A   1      33.729  27.844  23.608  1.00  0.00     0.046 C 
ATOM     11  C   UNL A   1      33.337  28.351  24.969  1.00  0.00    -0.027 A 
ATOM     12  C   UNL A   1      34.292  28.963  25.776  1.00  0.00     0.021 A 
ATOM     13  C   UNL A   1      32.060  28.302  25.518  1.00  0.00     0.045 A 
ATOM     14  C   UNL A   1      31.864  28.459  26.910  1.00  0.00     0.027 A 
ATOM     15  C   UNL A   1      32.795  29.078  27.708  1.00  0.00     0.018 A 
BRANCH  13  16
ATOM     16  N   UNL A   1      30.921  28.289  24.691  1.00  0.00    -0.308 N 
ATOM     17  C   UNL A   1      30.497  27.202  23.961  1.00  0.00     0.321 C 
ATOM     18  H   UNL A   1      30.392  29.117  24.630  1.00  0.00     0.171 HD
ATOM     19  O   UNL A   1      29.940  27.366  22.876  1.00  0.00    -0.248 OA
ATOM     20  N   UNL A   1      30.764  25.950  24.477  1.00  0.00    -0.324 N 
ATOM     21  C   UNL A   1      31.273  24.876  23.656  1.00  0.00     0.125 C 
ATOM     22  C   UNL A   1      30.416  25.480  25.823  1.00  0.00     0.125 C 
ATOM     23  C   UNL A   1      30.970  23.595  24.423  1.00  0.00     0.010 C 
ATOM     24  C   UNL A   1      30.959  24.046  25.898  1.00  0.00     0.010 C 
ATOM     25  C   UNL A   1      31.986  22.498  24.139  1.00  0.00     0.010 C 
ATOM     26  C   UNL A   1      30.126  23.121  26.780  1.00  0.00     0.010 C 
ENDBRANCH  13  16
ENDBRANCH   7   9
ENDBRANCH   6   7
ENDBRANCH   5   6
ENDBRANCH   4   5
ENDBRANCH   3   4
ENDBRANCH   2   3
ENDBRANCH   1   2
BRANCH   1  27
ATOM     27  O   UNL A   1      33.117  35.904  32.383  1.00  0.00    -0.376 OA
BRANCH  27  28
ATOM     28  C   UNL A   1      32.849  34.573  32.813  1.00  0.00     0.202 C 
BRANCH  28  29
ATOM     29  C   UNL A   1      34.058  33.678  33.228  1.00  0.00     0.261 C 
BRANCH  29  30
ATOM     30  O   UNL A   1      35.253  33.880  32.442  1.00  0.00    -0.460 OA
BRANCH  30  31
ATOM     31  C   UNL A   1      35.647  32.856  31.619  1.00  0.00     0.338 C 
ATOM     32  O   UNL A   1      35.017  31.814  31.440  1.00  0.00    -0.246 OA
BRANCH  31  33
ATOM     33  C   UNL A   1      36.988  33.198  31.086  1.00  0.00     0.060 A 
ATOM     34  C   UNL A   1      37.508  32.876  29.848  1.00  0.00     0.016 A 
ATOM     35  C   UNL A   1      37.892  33.704  31.949  1.00  0.00     0.016 A 
ATOM     36  C   UNL A   1      38.926  32.669  29.658  1.00  0.00     0.010 A 
ATOM     37  C   UNL A   1      39.231  33.316  31.774  1.00  0.00     0.010 A 
ATOM     38  C   UNL A   1      39.833  32.580  30.718  1.00  0.00    -0.014 A 
BRANCH  38  39
ATOM     39  C   UNL A   1      41.228  31.578  30.641  1.00  0.00     0.031 A 
ATOM     40  C   UNL A   1      41.656  30.040  29.905  1.00  0.00     0.074 A 
ATOM     41  C   UNL A   1      42.277  32.101  31.343  1.00  0.00     0.049 A 
ATOM     42  N   UNL A   1      42.326  29.090  30.540  1.00  0.00    -0.248 NA
ATOM     43  C   UNL A   1      41.207  29.364  28.593  1.00  0.00     0.031 C 
ATOM     44  C   UNL A   1      43.636  31.573  31.463  1.00  0.00     0.029 A 
ATOM     45  N   UNL A   1      42.303  33.167  32.257  1.00  0.00    -0.354 N 
ATOM     46  C   UNL A   1      42.309  27.940  29.709  1.00  0.00     0.074 A 
ATOM     47  C   UNL A   1      41.241  28.074  28.848  1.00  0.00     0.031 C 
ATOM     48  C   UNL A   1      44.167  32.037  32.611  1.00  0.00     0.029 A 
ATOM     49  C   UNL A   1      43.122  32.766  33.309  1.00  0.00     0.049 A 
ATOM     50  H   UNL A   1      41.834  34.028  32.170  1.00  0.00     0.167 HD
ATOM     51  C   UNL A   1      43.314  27.047  29.523  1.00  0.00     0.034 A 
ATOM     52  C   UNL A   1      42.625  32.507  34.558  1.00  0.00     0.034 A 
ATOM     53  C   UNL A   1      44.196  27.212  30.647  1.00  0.00     0.049 A 
ATOM     54  C   UNL A   1      42.894  31.058  34.973  1.00  0.00     0.074 A 
ATOM     55  C   UNL A   1      45.291  28.024  30.856  1.00  0.00     0.029 A 
ATOM     56  N   UNL A   1      43.645  26.946  31.891  1.00  0.00    -0.354 N 
ATOM     57  N   UNL A   1      43.397  30.132  34.194  1.00  0.00    -0.248 NA
ATOM     58  C   UNL A   1      42.613  30.547  36.311  1.00  0.00     0.031 C 
ATOM     59  C   UNL A   1      45.258  28.410  32.233  1.00  0.00     0.029 A 
ATOM     60  C   UNL A   1      44.208  27.757  32.864  1.00  0.00     0.049 A 
ATOM     61  H   UNL A   1      42.948  26.271  32.060  1.00  0.00     0.167 HD
ATOM     62  C   UNL A   1      43.379  28.916  34.832  1.00  0.00     0.074 A 
ATOM     63  C   UNL A   1      42.956  29.254  36.183  1.00  0.00     0.031 C 
ATOM     64  C   UNL A   1      43.645  27.718  34.216  1.00  0.00     0.034 A 
BRANCH  51  65
ATOM     65  C   UNL A   1      43.565  26.212  28.221  1.00  0.00     0.023 A 
ATOM     66  C   UNL A   1      44.307  26.867  27.219  1.00  0.00     0.012 A 
ATOM     67  C   UNL A   1      43.057  24.920  27.821  1.00  0.00     0.148 A 
ATOM     68  C   UNL A   1      44.492  26.330  25.928  1.00  0.00     0.002 A 
ATOM     69  C   UNL A   1      43.261  24.373  26.541  1.00  0.00     0.091 A 
ATOM     70  F   UNL A   1      42.311  24.172  28.633  1.00  0.00    -0.205 F 
ATOM     71  C   UNL A   1      43.967  25.091  25.584  1.00  0.00     0.022 A 
BRANCH  69  72
ATOM     72  S   UNL A   1      42.584  22.765  26.020  1.00  0.00     0.127 S 
ATOM     73  O   UNL A   1      41.143  22.981  26.155  1.00  0.00    -0.237 OA
ATOM     74  O   UNL A   1      43.053  22.656  24.640  1.00  0.00    -0.237 OA
ATOM     75  O   UNL A   1      43.130  21.761  26.928  1.00  0.00    -0.744 OA
ENDBRANCH  69  72
ENDBRANCH  51  65
BRANCH  52  76
ATOM     76  C   UNL A   1      41.476  33.382  35.025  1.00  0.00     0.023 A 
ATOM     77  C   UNL A   1      41.586  34.779  34.775  1.00  0.00     0.012 A 
ATOM     78  C   UNL A   1      40.217  32.906  35.449  1.00  0.00     0.148 A 
ATOM     79  C   UNL A   1      40.485  35.641  34.839  1.00  0.00     0.002 A 
ATOM     80  C   UNL A   1      39.109  33.774  35.498  1.00  0.00     0.091 A 
ATOM     81  F   UNL A   1      40.068  31.601  35.709  1.00  0.00    -0.205 F 
ATOM     82  C   UNL A   1      39.242  35.138  35.197  1.00  0.00     0.022 A 
BRANCH  80  83
ATOM     83  S   UNL A   1      37.428  33.115  35.653  1.00  0.00     0.127 S 
ATOM     84  O   UNL A   1      36.593  34.280  35.358  1.00  0.00    -0.237 OA
ATOM     85  O   UNL A   1      37.365  32.073  34.637  1.00  0.00    -0.237 OA
ATOM     86  O   UNL A   1      37.404  32.681  37.046  1.00  0.00    -0.744 OA
ENDBRANCH  80  83
ENDBRANCH  52  76
BRANCH  64  87
ATOM     87  C   UNL A   1      43.317  26.352  34.823  1.00  0.00     0.023 A 
ATOM     88  C   UNL A   1      41.997  25.880  34.953  1.00  0.00     0.012 A 
ATOM     89  C   UNL A   1      44.345  25.408  35.093  1.00  0.00     0.148 A 
ATOM     90  C   UNL A   1      41.709  24.585  35.402  1.00  0.00     0.002 A 
ATOM     91  C   UNL A   1      44.050  24.075  35.365  1.00  0.00     0.091 A 
ATOM     92  F   UNL A   1      45.631  25.787  35.083  1.00  0.00    -0.205 F 
ATOM     93  C   UNL A   1      42.736  23.669  35.576  1.00  0.00     0.022 A 
BRANCH  91  94
ATOM     94  S   UNL A   1      45.337  22.827  35.191  1.00  0.00     0.127 S 
ATOM     95  O   UNL A   1      46.089  22.973  36.434  1.00  0.00    -0.237 OA
ATOM     96  O   UNL A   1      44.570  21.582  35.086  1.00  0.00    -0.237 OA
ATOM     97  O   UNL A   1      46.025  23.204  33.962  1.00  0.00    -0.744 OA
ENDBRANCH  91  94
ENDBRANCH  64  87
ENDBRANCH  38  39
ENDBRANCH  31  33
ENDBRANCH  30  31
ENDBRANCH  29  30
ENDBRANCH  28  29
ENDBRANCH  27  28
ENDBRANCH   1  27
TORSDOF 21
ENDMDL
