MODEL 1
REMARK VINA RESULT:      -8.3      0.000      0.000
REMARK SMILES CCCCCCNC(=O)Oc1cccc(-c2ccc([C@@H](C)C(=O)OCCOCCOCCOC(=O)c3ccc(-c4c5nc(c(-c6cccc(S(=O)(=O)[O-])c6F)c6ccc([nH]6)c(-c6cccc(S(=O)(=O)[O-])c6F)c6nc(c(-c7cccc(S(=O)(=O)[O-])c7F)c7ccc4[nH]7)C=C6)C=C5)cc3)cc2O)c1
REMARK SMILES IDX 25 1 24 2 22 3 23 4 20 5 21 6 19 7 16 8 17 9 100 10 18 11
REMARK SMILES IDX 99 12 15 13 11 14 12 15 102 16 13 17 14 18 10 19 8 20 7 21
REMARK SMILES IDX 9 23 6 24 5 25 4 26 3 27 2 28 1 29 101 30 26 32 27 33 28 34
REMARK SMILES IDX 29 35 30 36 31 37 32 38 33 39 34 40 35 41 36 42 37 43 98 44
REMARK SMILES IDX 38 45 97 46 39 47 40 48 41 49 91 50 42 51 96 52 90 53 92 54
REMARK SMILES IDX 43 55 95 56 89 57 88 58 44 60 76 61 56 62 75 63 57 64 60 65
REMARK SMILES IDX 74 66 93 67 58 68 59 69 73 71 94 72 61 73 45 74 46 75 54 76
REMARK SMILES IDX 47 77 49 78 55 79 48 80 50 81 51 82 52 83 53 84 77 85 78 86
REMARK SMILES IDX 86 87 79 88 81 89 87 90 80 91 82 92 83 93 84 94 85 95 62 96
REMARK SMILES IDX 63 97 71 98 64 99 66 100 72 101 65 102 67 103 68 104 69 105
REMARK SMILES IDX 70 106
REMARK H PARENT 7 22 101 31 92 59 60 70
REMARK Flexibility Score: inf
ROOT
ATOM      1  C   UNL A   1      31.067  26.980  22.913  1.00  0.00     0.261 C 
ENDROOT
BRANCH   1   2
ATOM      2  O   UNL A   1      32.409  26.554  23.241  1.00  0.00    -0.463 OA
BRANCH   2   3
ATOM      3  C   UNL A   1      32.514  25.470  24.051  1.00  0.00     0.313 C 
ATOM      4  O   UNL A   1      32.289  25.514  25.259  1.00  0.00    -0.252 OA
BRANCH   3   5
ATOM      5  C   UNL A   1      32.915  24.152  23.381  1.00  0.00     0.126 C 
ATOM      6  C   UNL A   1      31.704  23.217  23.403  1.00  0.00     0.025 C 
BRANCH   5   7
ATOM      7  C   UNL A   1      34.168  23.383  23.799  1.00  0.00    -0.030 A 
ATOM      8  C   UNL A   1      36.458  21.903  24.724  1.00  0.00     0.024 A 
ATOM      9  C   UNL A   1      36.535  22.809  23.646  1.00  0.00     0.013 A 
ATOM     10  C   UNL A   1      35.198  21.754  25.323  1.00  0.00     0.123 A 
ATOM     11  C   UNL A   1      35.420  23.545  23.198  1.00  0.00     0.005 A 
ATOM     12  C   UNL A   1      34.082  22.478  24.877  1.00  0.00     0.051 A 
BRANCH   8  13
ATOM     13  C   UNL A   1      37.682  21.232  25.223  1.00  0.00    -0.011 A 
ATOM     14  C   UNL A   1      39.883  21.247  26.265  1.00  0.00     0.133 A 
ATOM     15  C   UNL A   1      40.059  19.892  25.987  1.00  0.00     0.047 A 
ATOM     16  C   UNL A   1      38.707  21.918  25.904  1.00  0.00     0.056 A 
ATOM     17  C   UNL A   1      39.044  19.193  25.345  1.00  0.00     0.004 A 
ATOM     18  C   UNL A   1      37.876  19.858  24.961  1.00  0.00     0.009 A 
BRANCH  14  19
ATOM     19  O   UNL A   1      41.012  21.927  26.761  1.00  0.00    -0.410 OA
BRANCH  19  20
ATOM     20  C   UNL A   1      41.968  22.397  25.879  1.00  0.00     0.412 C 
ATOM     21  N   UNL A   1      42.042  23.761  25.833  1.00  0.00    -0.321 N 
ATOM     22  H   UNL A   1      42.759  24.144  25.278  1.00  0.00     0.167 HD
ATOM     23  O   UNL A   1      42.684  21.695  25.161  1.00  0.00    -0.224 OA
BRANCH  21  24
ATOM     24  C   UNL A   1      41.177  24.708  26.514  1.00  0.00     0.119 C 
BRANCH  24  25
ATOM     25  C   UNL A   1      41.949  25.704  27.379  1.00  0.00     0.021 C 
BRANCH  25  26
ATOM     26  C   UNL A   1      43.344  25.243  27.817  1.00  0.00     0.002 C 
BRANCH  26  27
ATOM     27  C   UNL A   1      44.523  26.022  27.222  1.00  0.00    -0.000 C 
BRANCH  27  28
ATOM     28  C   UNL A   1      45.291  25.310  26.105  1.00  0.00    -0.003 C 
ATOM     29  C   UNL A   1      46.751  25.051  26.444  1.00  0.00     0.004 C 
ENDBRANCH  27  28
ENDBRANCH  26  27
ENDBRANCH  25  26
ENDBRANCH  24  25
ENDBRANCH  21  24
ENDBRANCH  19  20
ENDBRANCH  14  19
ENDBRANCH   8  13
BRANCH  10  30
ATOM     30  O   UNL A   1      34.963  20.932  26.394  1.00  0.00    -0.507 OA
ATOM     31  H   UNL A   1      34.374  20.208  26.309  1.00  0.00     0.293 HD
ENDBRANCH  10  30
ENDBRANCH   5   7
ENDBRANCH   3   5
ENDBRANCH   2   3
ENDBRANCH   1   2
BRANCH   1  32
ATOM     32  C   UNL A   1      30.821  28.493  23.010  1.00  0.00     0.202 C 
BRANCH  32  33
ATOM     33  O   UNL A   1      30.757  29.082  24.301  1.00  0.00    -0.376 OA
BRANCH  33  34
ATOM     34  C   UNL A   1      31.915  29.710  24.839  1.00  0.00     0.188 C 
BRANCH  34  35
ATOM     35  C   UNL A   1      32.662  29.026  25.992  1.00  0.00     0.188 C 
BRANCH  35  36
ATOM     36  O   UNL A   1      33.768  29.753  26.487  1.00  0.00    -0.376 OA
BRANCH  36  37
ATOM     37  C   UNL A   1      33.483  30.764  27.434  1.00  0.00     0.202 C 
BRANCH  37  38
ATOM     38  C   UNL A   1      34.681  31.643  27.816  1.00  0.00     0.261 C 
BRANCH  38  39
ATOM     39  O   UNL A   1      35.285  31.361  29.093  1.00  0.00    -0.460 OA
BRANCH  39  40
ATOM     40  C   UNL A   1      35.205  32.321  30.040  1.00  0.00     0.338 C 
ATOM     41  O   UNL A   1      34.215  32.629  30.691  1.00  0.00    -0.246 OA
BRANCH  40  42
ATOM     42  C   UNL A   1      36.575  32.796  30.329  1.00  0.00     0.060 A 
ATOM     43  C   UNL A   1      37.525  31.888  30.823  1.00  0.00     0.016 A 
ATOM     44  C   UNL A   1      36.926  34.129  30.105  1.00  0.00     0.016 A 
ATOM     45  C   UNL A   1      38.817  32.322  31.128  1.00  0.00     0.010 A 
ATOM     46  C   UNL A   1      38.212  34.565  30.431  1.00  0.00     0.010 A 
ATOM     47  C   UNL A   1      39.154  33.673  30.976  1.00  0.00    -0.014 A 
BRANCH  47  48
ATOM     48  C   UNL A   1      40.410  34.205  31.564  1.00  0.00     0.031 A 
ATOM     49  C   UNL A   1      40.431  34.511  33.038  1.00  0.00     0.074 A 
ATOM     50  C   UNL A   1      41.499  34.443  30.812  1.00  0.00     0.049 A 
ATOM     51  N   UNL A   1      41.373  35.057  33.761  1.00  0.00    -0.248 NA
ATOM     52  C   UNL A   1      39.218  34.161  33.797  1.00  0.00     0.031 C 
ATOM     53  C   UNL A   1      41.614  34.185  29.379  1.00  0.00     0.029 A 
ATOM     54  N   UNL A   1      42.712  34.992  31.155  1.00  0.00    -0.354 N 
ATOM     55  C   UNL A   1      40.858  35.150  35.048  1.00  0.00     0.074 A 
ATOM     56  C   UNL A   1      39.515  34.612  35.006  1.00  0.00     0.031 C 
ATOM     57  C   UNL A   1      42.819  34.608  28.955  1.00  0.00     0.029 A 
ATOM     58  C   UNL A   1      43.547  35.192  30.081  1.00  0.00     0.049 A 
ATOM     59  H   UNL A   1      42.958  35.221  32.080  1.00  0.00     0.167 HD
ATOM     60  C   UNL A   1      41.448  35.627  36.168  1.00  0.00     0.034 A 
ATOM     61  C   UNL A   1      44.748  35.805  30.009  1.00  0.00     0.034 A 
ATOM     62  C   UNL A   1      42.787  36.148  36.214  1.00  0.00     0.049 A 
ATOM     63  C   UNL A   1      45.373  36.359  31.267  1.00  0.00     0.074 A 
ATOM     64  C   UNL A   1      43.491  36.610  37.312  1.00  0.00     0.029 A 
ATOM     65  N   UNL A   1      43.619  36.293  35.116  1.00  0.00    -0.354 N 
ATOM     66  N   UNL A   1      44.921  36.333  32.498  1.00  0.00    -0.248 NA
ATOM     67  C   UNL A   1      46.691  37.000  31.129  1.00  0.00     0.031 C 
ATOM     68  C   UNL A   1      44.737  37.068  36.871  1.00  0.00     0.029 A 
ATOM     69  C   UNL A   1      44.824  36.852  35.505  1.00  0.00     0.049 A 
ATOM     70  H   UNL A   1      43.387  36.036  34.194  1.00  0.00     0.167 HD
ATOM     71  C   UNL A   1      45.913  36.916  33.283  1.00  0.00     0.074 A 
ATOM     72  C   UNL A   1      46.997  37.268  32.391  1.00  0.00     0.031 C 
ATOM     73  C   UNL A   1      45.920  37.149  34.618  1.00  0.00     0.034 A 
BRANCH  60  74
ATOM     74  C   UNL A   1      40.650  35.597  37.445  1.00  0.00     0.023 A 
ATOM     75  C   UNL A   1      40.096  36.790  37.953  1.00  0.00     0.012 A 
ATOM     76  C   UNL A   1      40.407  34.381  38.113  1.00  0.00     0.148 A 
ATOM     77  C   UNL A   1      39.341  36.778  39.125  1.00  0.00     0.002 A 
ATOM     78  C   UNL A   1      39.614  34.371  39.254  1.00  0.00     0.091 A 
ATOM     79  F   UNL A   1      40.962  33.262  37.627  1.00  0.00    -0.205 F 
ATOM     80  C   UNL A   1      39.090  35.569  39.768  1.00  0.00     0.022 A 
BRANCH  78  81
ATOM     81  S   UNL A   1      39.168  32.857  40.111  1.00  0.00     0.127 S 
ATOM     82  O   UNL A   1      38.145  33.335  41.041  1.00  0.00    -0.237 OA
ATOM     83  O   UNL A   1      38.657  32.027  39.019  1.00  0.00    -0.237 OA
ATOM     84  O   UNL A   1      40.392  32.367  40.727  1.00  0.00    -0.744 OA
ENDBRANCH  78  81
ENDBRANCH  60  74
BRANCH  61  85
ATOM     85  C   UNL A   1      45.459  35.913  28.703  1.00  0.00     0.023 A 
ATOM     86  C   UNL A   1      45.196  37.008  27.856  1.00  0.00     0.012 A 
ATOM     87  C   UNL A   1      46.386  34.935  28.293  1.00  0.00     0.148 A 
ATOM     88  C   UNL A   1      45.817  37.108  26.610  1.00  0.00     0.002 A 
ATOM     89  C   UNL A   1      47.042  35.071  27.075  1.00  0.00     0.091 A 
ATOM     90  F   UNL A   1      46.610  33.892  29.104  1.00  0.00    -0.205 F 
ATOM     91  C   UNL A   1      46.745  36.146  26.224  1.00  0.00     0.022 A 
BRANCH  89  92
ATOM     92  S   UNL A   1      48.336  33.944  26.543  1.00  0.00     0.127 S 
ATOM     93  O   UNL A   1      47.677  32.647  26.678  1.00  0.00    -0.237 OA
ATOM     94  O   UNL A   1      48.563  34.379  25.164  1.00  0.00    -0.237 OA
ATOM     95  O   UNL A   1      49.458  34.178  27.441  1.00  0.00    -0.744 OA
ENDBRANCH  89  92
ENDBRANCH  61  85
BRANCH  73  96
ATOM     96  C   UNL A   1      47.155  37.769  35.223  1.00  0.00     0.023 A 
ATOM     97  C   UNL A   1      47.332  39.166  35.192  1.00  0.00     0.012 A 
ATOM     98  C   UNL A   1      48.101  36.969  35.897  1.00  0.00     0.148 A 
ATOM     99  C   UNL A   1      48.446  39.754  35.791  1.00  0.00     0.002 A 
ATOM    100  C   UNL A   1      49.181  37.565  36.536  1.00  0.00     0.091 A 
ATOM    101  F   UNL A   1      47.924  35.640  35.904  1.00  0.00    -0.205 F 
ATOM    102  C   UNL A   1      49.363  38.957  36.473  1.00  0.00     0.022 A 
BRANCH 100 103
ATOM    103  S   UNL A   1      50.357  36.630  37.523  1.00  0.00     0.127 S 
ATOM    104  O   UNL A   1      49.470  35.898  38.426  1.00  0.00    -0.237 OA
ATOM    105  O   UNL A   1      51.018  35.803  36.513  1.00  0.00    -0.237 OA
ATOM    106  O   UNL A   1      51.221  37.614  38.159  1.00  0.00    -0.744 OA
ENDBRANCH 100 103
ENDBRANCH  73  96
ENDBRANCH  47  48
ENDBRANCH  40  42
ENDBRANCH  39  40
ENDBRANCH  38  39
ENDBRANCH  37  38
ENDBRANCH  36  37
ENDBRANCH  35  36
ENDBRANCH  34  35
ENDBRANCH  33  34
ENDBRANCH  32  33
ENDBRANCH   1  32
TORSDOF 30
ENDMDL
MODEL 2
REMARK VINA RESULT:      -8.0      3.733      6.159
REMARK SMILES CCCCCCNC(=O)Oc1cccc(-c2ccc([C@@H](C)C(=O)OCCOCCOCCOC(=O)c3ccc(-c4c5nc(c(-c6cccc(S(=O)(=O)[O-])c6F)c6ccc([nH]6)c(-c6cccc(S(=O)(=O)[O-])c6F)c6nc(c(-c7cccc(S(=O)(=O)[O-])c7F)c7ccc4[nH]7)C=C6)C=C5)cc3)cc2O)c1
REMARK SMILES IDX 25 1 24 2 22 3 23 4 20 5 21 6 19 7 16 8 17 9 100 10 18 11
REMARK SMILES IDX 99 12 15 13 11 14 12 15 102 16 13 17 14 18 10 19 8 20 7 21
REMARK SMILES IDX 9 23 6 24 5 25 4 26 3 27 2 28 1 29 101 30 26 32 27 33 28 34
REMARK SMILES IDX 29 35 30 36 31 37 32 38 33 39 34 40 35 41 36 42 37 43 98 44
REMARK SMILES IDX 38 45 97 46 39 47 40 48 41 49 91 50 42 51 96 52 90 53 92 54
REMARK SMILES IDX 43 55 95 56 89 57 88 58 44 60 76 61 56 62 75 63 57 64 60 65
REMARK SMILES IDX 74 66 93 67 58 68 59 69 73 71 94 72 61 73 45 74 46 75 54 76
REMARK SMILES IDX 47 77 49 78 55 79 48 80 50 81 51 82 52 83 53 84 77 85 78 86
REMARK SMILES IDX 86 87 79 88 81 89 87 90 80 91 82 92 83 93 84 94 85 95 62 96
REMARK SMILES IDX 63 97 71 98 64 99 66 100 72 101 65 102 67 103 68 104 69 105
REMARK SMILES IDX 70 106
REMARK H PARENT 7 22 101 31 92 59 60 70
REMARK Flexibility Score: inf
ROOT
ATOM      1  C   UNL A   1      31.075  28.372  22.577  1.00  0.00     0.261 C 
ENDROOT
BRANCH   1   2
ATOM      2  O   UNL A   1      32.255  28.973  23.156  1.00  0.00    -0.463 OA
BRANCH   2   3
ATOM      3  C   UNL A   1      33.127  28.125  23.757  1.00  0.00     0.313 C 
ATOM      4  O   UNL A   1      34.326  28.371  23.874  1.00  0.00    -0.252 OA
BRANCH   3   5
ATOM      5  C   UNL A   1      32.540  26.825  24.317  1.00  0.00     0.126 C 
ATOM      6  C   UNL A   1      31.885  27.138  25.664  1.00  0.00     0.025 C 
BRANCH   5   7
ATOM      7  C   UNL A   1      33.374  25.548  24.432  1.00  0.00    -0.030 A 
ATOM      8  C   UNL A   1      34.959  23.174  24.803  1.00  0.00     0.024 A 
ATOM      9  C   UNL A   1      34.751  23.746  23.531  1.00  0.00     0.013 A 
ATOM     10  C   UNL A   1      34.344  23.821  25.885  1.00  0.00     0.123 A 
ATOM     11  C   UNL A   1      33.986  24.916  23.346  1.00  0.00     0.005 A 
ATOM     12  C   UNL A   1      33.575  24.981  25.707  1.00  0.00     0.051 A 
BRANCH   8  13
ATOM     13  C   UNL A   1      35.856  22.003  24.956  1.00  0.00    -0.011 A 
ATOM     14  C   UNL A   1      38.049  20.985  25.248  1.00  0.00     0.133 A 
ATOM     15  C   UNL A   1      37.516  19.710  25.064  1.00  0.00     0.047 A 
ATOM     16  C   UNL A   1      37.237  22.127  25.210  1.00  0.00     0.056 A 
ATOM     17  C   UNL A   1      36.151  19.569  24.846  1.00  0.00     0.004 A 
ATOM     18  C   UNL A   1      35.335  20.703  24.784  1.00  0.00     0.009 A 
BRANCH  14  19
ATOM     19  O   UNL A   1      39.454  21.067  25.296  1.00  0.00    -0.410 OA
BRANCH  19  20
ATOM     20  C   UNL A   1      40.086  21.260  26.511  1.00  0.00     0.412 C 
ATOM     21  N   UNL A   1      41.123  20.395  26.728  1.00  0.00    -0.321 N 
ATOM     22  H   UNL A   1      41.653  20.542  27.544  1.00  0.00     0.167 HD
ATOM     23  O   UNL A   1      39.762  22.092  27.360  1.00  0.00    -0.224 OA
BRANCH  21  24
ATOM     24  C   UNL A   1      41.527  19.285  25.885  1.00  0.00     0.119 C 
BRANCH  24  25
ATOM     25  C   UNL A   1      42.609  18.415  26.525  1.00  0.00     0.021 C 
BRANCH  25  26
ATOM     26  C   UNL A   1      44.048  18.764  26.125  1.00  0.00     0.002 C 
BRANCH  26  27
ATOM     27  C   UNL A   1      44.213  19.462  24.770  1.00  0.00    -0.000 C 
BRANCH  27  28
ATOM     28  C   UNL A   1      45.329  18.913  23.875  1.00  0.00    -0.003 C 
ATOM     29  C   UNL A   1      44.944  18.839  22.405  1.00  0.00     0.004 C 
ENDBRANCH  27  28
ENDBRANCH  26  27
ENDBRANCH  25  26
ENDBRANCH  24  25
ENDBRANCH  21  24
ENDBRANCH  19  20
ENDBRANCH  14  19
ENDBRANCH   8  13
BRANCH  10  30
ATOM     30  O   UNL A   1      34.468  23.404  27.185  1.00  0.00    -0.507 OA
ATOM     31  H   UNL A   1      34.176  23.955  27.884  1.00  0.00     0.293 HD
ENDBRANCH  10  30
ENDBRANCH   5   7
ENDBRANCH   3   5
ENDBRANCH   2   3
ENDBRANCH   1   2
BRANCH   1  32
ATOM     32  C   UNL A   1      29.938  29.352  22.248  1.00  0.00     0.202 C 
BRANCH  32  33
ATOM     33  O   UNL A   1      29.242  29.959  23.328  1.00  0.00    -0.376 OA
BRANCH  33  34
ATOM     34  C   UNL A   1      29.874  30.996  24.069  1.00  0.00     0.188 C 
BRANCH  34  35
ATOM     35  C   UNL A   1      30.554  30.648  25.401  1.00  0.00     0.188 C 
BRANCH  35  36
ATOM     36  O   UNL A   1      31.640  31.486  25.741  1.00  0.00    -0.376 OA
BRANCH  36  37
ATOM     37  C   UNL A   1      31.414  32.416  26.782  1.00  0.00     0.202 C 
BRANCH  37  38
ATOM     38  C   UNL A   1      32.674  33.124  27.296  1.00  0.00     0.261 C 
BRANCH  38  39
ATOM     39  O   UNL A   1      33.333  32.500  28.414  1.00  0.00    -0.460 OA
BRANCH  39  40
ATOM     40  C   UNL A   1      34.042  33.300  29.240  1.00  0.00     0.338 C 
ATOM     41  O   UNL A   1      33.610  34.229  29.911  1.00  0.00    -0.246 OA
BRANCH  40  42
ATOM     42  C   UNL A   1      35.399  32.730  29.379  1.00  0.00     0.060 A 
ATOM     43  C   UNL A   1      35.614  31.692  30.298  1.00  0.00     0.016 A 
ATOM     44  C   UNL A   1      36.453  33.210  28.599  1.00  0.00     0.016 A 
ATOM     45  C   UNL A   1      36.894  31.157  30.464  1.00  0.00     0.010 A 
ATOM     46  C   UNL A   1      37.736  32.689  28.782  1.00  0.00     0.010 A 
ATOM     47  C   UNL A   1      37.971  31.684  29.739  1.00  0.00    -0.014 A 
BRANCH  47  48
ATOM     48  C   UNL A   1      39.367  31.339  30.109  1.00  0.00     0.031 A 
ATOM     49  C   UNL A   1      40.071  32.207  31.118  1.00  0.00     0.074 A 
ATOM     50  C   UNL A   1      40.013  30.302  29.547  1.00  0.00     0.049 A 
ATOM     51  N   UNL A   1      41.308  32.160  31.538  1.00  0.00    -0.248 NA
ATOM     52  C   UNL A   1      39.269  33.281  31.731  1.00  0.00     0.031 C 
ATOM     53  C   UNL A   1      39.447  29.381  28.565  1.00  0.00     0.029 A 
ATOM     54  N   UNL A   1      41.310  29.874  29.704  1.00  0.00    -0.354 N 
ATOM     55  C   UNL A   1      41.444  33.214  32.432  1.00  0.00     0.074 A 
ATOM     56  C   UNL A   1      40.167  33.891  32.489  1.00  0.00     0.031 C 
ATOM     57  C   UNL A   1      40.402  28.515  28.179  1.00  0.00     0.029 A 
ATOM     58  C   UNL A   1      41.653  28.840  28.864  1.00  0.00     0.049 A 
ATOM     59  H   UNL A   1      41.934  30.270  30.354  1.00  0.00     0.167 HD
ATOM     60  C   UNL A   1      42.530  33.583  33.152  1.00  0.00     0.034 A 
ATOM     61  C   UNL A   1      42.845  28.247  28.650  1.00  0.00     0.034 A 
ATOM     62  C   UNL A   1      43.795  32.903  33.108  1.00  0.00     0.049 A 
ATOM     63  C   UNL A   1      44.049  28.696  29.442  1.00  0.00     0.074 A 
ATOM     64  C   UNL A   1      44.940  33.173  33.837  1.00  0.00     0.029 A 
ATOM     65  N   UNL A   1      44.091  31.833  32.280  1.00  0.00    -0.354 N 
ATOM     66  N   UNL A   1      44.134  29.619  30.370  1.00  0.00    -0.248 NA
ATOM     67  C   UNL A   1      45.319  28.000  29.177  1.00  0.00     0.031 C 
ATOM     68  C   UNL A   1      45.940  32.287  33.424  1.00  0.00     0.029 A 
ATOM     69  C   UNL A   1      45.405  31.439  32.467  1.00  0.00     0.049 A 
ATOM     70  H   UNL A   1      43.460  31.415  31.650  1.00  0.00     0.167 HD
ATOM     71  C   UNL A   1      45.449  29.586  30.825  1.00  0.00     0.074 A 
ATOM     72  C   UNL A   1      46.122  28.539  30.085  1.00  0.00     0.031 C 
ATOM     73  C   UNL A   1      46.049  30.359  31.764  1.00  0.00     0.034 A 
BRANCH  60  74
ATOM     74  C   UNL A   1      42.391  34.774  34.064  1.00  0.00     0.023 A 
ATOM     75  C   UNL A   1      42.748  36.057  33.599  1.00  0.00     0.012 A 
ATOM     76  C   UNL A   1      41.860  34.631  35.360  1.00  0.00     0.148 A 
ATOM     77  C   UNL A   1      42.611  37.173  34.423  1.00  0.00     0.002 A 
ATOM     78  C   UNL A   1      41.682  35.754  36.158  1.00  0.00     0.091 A 
ATOM     79  F   UNL A   1      41.548  33.400  35.791  1.00  0.00    -0.205 F 
ATOM     80  C   UNL A   1      42.068  37.024  35.696  1.00  0.00     0.022 A 
BRANCH  78  81
ATOM     81  S   UNL A   1      40.919  35.679  37.782  1.00  0.00     0.127 S 
ATOM     82  O   UNL A   1      42.071  35.386  38.635  1.00  0.00    -0.237 OA
ATOM     83  O   UNL A   1      40.380  37.031  37.930  1.00  0.00    -0.237 OA
ATOM     84  O   UNL A   1      39.915  34.628  37.707  1.00  0.00    -0.744 OA
ENDBRANCH  78  81
ENDBRANCH  60  74
BRANCH  61  85
ATOM     85  C   UNL A   1      42.967  27.141  27.656  1.00  0.00     0.023 A 
ATOM     86  C   UNL A   1      42.911  27.434  26.279  1.00  0.00     0.012 A 
ATOM     87  C   UNL A   1      43.127  25.804  28.068  1.00  0.00     0.148 A 
ATOM     88  C   UNL A   1      42.979  26.411  25.332  1.00  0.00     0.002 A 
ATOM     89  C   UNL A   1      43.249  24.797  27.117  1.00  0.00     0.091 A 
ATOM     90  F   UNL A   1      43.159  25.543  29.382  1.00  0.00    -0.205 F 
ATOM     91  C   UNL A   1      43.157  25.096  25.749  1.00  0.00     0.022 A 
BRANCH  89  92
ATOM     92  S   UNL A   1      43.594  23.089  27.556  1.00  0.00     0.127 S 
ATOM     93  O   UNL A   1      44.906  23.201  28.186  1.00  0.00    -0.237 OA
ATOM     94  O   UNL A   1      42.494  22.789  28.475  1.00  0.00    -0.237 OA
ATOM     95  O   UNL A   1      43.555  22.344  26.306  1.00  0.00    -0.744 OA
ENDBRANCH  89  92
ENDBRANCH  61  85
BRANCH  73  96
ATOM     96  C   UNL A   1      47.495  30.080  32.093  1.00  0.00     0.023 A 
ATOM     97  C   UNL A   1      47.825  29.148  33.097  1.00  0.00     0.012 A 
ATOM     98  C   UNL A   1      48.528  30.684  31.347  1.00  0.00     0.148 A 
ATOM     99  C   UNL A   1      49.158  28.847  33.375  1.00  0.00     0.002 A 
ATOM    100  C   UNL A   1      49.852  30.340  31.594  1.00  0.00     0.091 A 
ATOM    101  F   UNL A   1      48.197  31.579  30.405  1.00  0.00    -0.205 F 
ATOM    102  C   UNL A   1      50.170  29.432  32.617  1.00  0.00     0.022 A 
BRANCH 100 103
ATOM    103  S   UNL A   1      51.214  30.966  30.603  1.00  0.00     0.127 S 
ATOM    104  O   UNL A   1      51.221  32.382  30.967  1.00  0.00    -0.237 OA
ATOM    105  O   UNL A   1      52.348  30.198  31.117  1.00  0.00    -0.237 OA
ATOM    106  O   UNL A   1      50.868  30.680  29.217  1.00  0.00    -0.744 OA
ENDBRANCH 100 103
ENDBRANCH  73  96
ENDBRANCH  47  48
ENDBRANCH  40  42
ENDBRANCH  39  40
ENDBRANCH  38  39
ENDBRANCH  37  38
ENDBRANCH  36  37
ENDBRANCH  35  36
ENDBRANCH  34  35
ENDBRANCH  33  34
ENDBRANCH  32  33
ENDBRANCH   1  32
TORSDOF 30
ENDMDL
MODEL 3
REMARK VINA RESULT:      -7.6      5.527     11.930
REMARK SMILES CCCCCCNC(=O)Oc1cccc(-c2ccc([C@@H](C)C(=O)OCCOCCOCCOC(=O)c3ccc(-c4c5nc(c(-c6cccc(S(=O)(=O)[O-])c6F)c6ccc([nH]6)c(-c6cccc(S(=O)(=O)[O-])c6F)c6nc(c(-c7cccc(S(=O)(=O)[O-])c7F)c7ccc4[nH]7)C=C6)C=C5)cc3)cc2O)c1
REMARK SMILES IDX 25 1 24 2 22 3 23 4 20 5 21 6 19 7 16 8 17 9 100 10 18 11
REMARK SMILES IDX 99 12 15 13 11 14 12 15 102 16 13 17 14 18 10 19 8 20 7 21
REMARK SMILES IDX 9 23 6 24 5 25 4 26 3 27 2 28 1 29 101 30 26 32 27 33 28 34
REMARK SMILES IDX 29 35 30 36 31 37 32 38 33 39 34 40 35 41 36 42 37 43 98 44
REMARK SMILES IDX 38 45 97 46 39 47 40 48 41 49 91 50 42 51 96 52 90 53 92 54
REMARK SMILES IDX 43 55 95 56 89 57 88 58 44 60 76 61 56 62 75 63 57 64 60 65
REMARK SMILES IDX 74 66 93 67 58 68 59 69 73 71 94 72 61 73 45 74 46 75 54 76
REMARK SMILES IDX 47 77 49 78 55 79 48 80 50 81 51 82 52 83 53 84 77 85 78 86
REMARK SMILES IDX 86 87 79 88 81 89 87 90 80 91 82 92 83 93 84 94 85 95 62 96
REMARK SMILES IDX 63 97 71 98 64 99 66 100 72 101 65 102 67 103 68 104 69 105
REMARK SMILES IDX 70 106
REMARK H PARENT 7 22 101 31 92 59 60 70
REMARK Flexibility Score: inf
ROOT
ATOM      1  C   UNL A   1      43.323  40.447  27.345  1.00  0.00     0.261 C 
ENDROOT
BRANCH   1   2
ATOM      2  O   UNL A   1      43.707  39.067  27.544  1.00  0.00    -0.463 OA
BRANCH   2   3
ATOM      3  C   UNL A   1      42.771  38.257  28.099  1.00  0.00     0.313 C 
ATOM      4  O   UNL A   1      41.741  38.683  28.618  1.00  0.00    -0.252 OA
BRANCH   3   5
ATOM      5  C   UNL A   1      43.044  36.751  28.033  1.00  0.00     0.126 C 
ATOM      6  C   UNL A   1      42.598  36.244  26.660  1.00  0.00     0.025 C 
BRANCH   5   7
ATOM      7  C   UNL A   1      42.555  35.794  29.120  1.00  0.00    -0.030 A 
ATOM      8  C   UNL A   1      41.771  34.012  31.241  1.00  0.00     0.024 A 
ATOM      9  C   UNL A   1      41.107  34.036  29.997  1.00  0.00     0.013 A 
ATOM     10  C   UNL A   1      42.837  34.911  31.395  1.00  0.00     0.123 A 
ATOM     11  C   UNL A   1      41.495  34.898  28.952  1.00  0.00     0.005 A 
ATOM     12  C   UNL A   1      43.223  35.777  30.361  1.00  0.00     0.051 A 
BRANCH   8  13
ATOM     13  C   UNL A   1      41.390  33.014  32.270  1.00  0.00    -0.011 A 
ATOM     14  C   UNL A   1      40.087  31.115  33.060  1.00  0.00     0.133 A 
ATOM     15  C   UNL A   1      40.598  31.261  34.349  1.00  0.00     0.047 A 
ATOM     16  C   UNL A   1      40.480  31.967  32.020  1.00  0.00     0.056 A 
ATOM     17  C   UNL A   1      41.522  32.267  34.604  1.00  0.00     0.004 A 
ATOM     18  C   UNL A   1      41.904  33.137  33.579  1.00  0.00     0.009 A 
BRANCH  14  19
ATOM     19  O   UNL A   1      39.036  30.189  32.913  1.00  0.00    -0.410 OA
BRANCH  19  20
ATOM     20  C   UNL A   1      39.326  28.870  32.611  1.00  0.00     0.412 C 
ATOM     21  N   UNL A   1      38.774  28.449  31.434  1.00  0.00    -0.321 N 
ATOM     22  H   UNL A   1      39.015  27.542  31.136  1.00  0.00     0.167 HD
ATOM     23  O   UNL A   1      39.984  28.104  33.318  1.00  0.00    -0.224 OA
BRANCH  21  24
ATOM     24  C   UNL A   1      37.871  29.193  30.574  1.00  0.00     0.119 C 
BRANCH  24  25
ATOM     25  C   UNL A   1      38.603  30.008  29.507  1.00  0.00     0.021 C 
BRANCH  25  26
ATOM     26  C   UNL A   1      39.971  29.455  29.088  1.00  0.00     0.002 C 
BRANCH  26  27
ATOM     27  C   UNL A   1      39.981  28.583  27.827  1.00  0.00    -0.000 C 
BRANCH  27  28
ATOM     28  C   UNL A   1      39.259  27.237  27.948  1.00  0.00    -0.003 C 
ATOM     29  C   UNL A   1      40.095  26.160  28.622  1.00  0.00     0.004 C 
ENDBRANCH  27  28
ENDBRANCH  26  27
ENDBRANCH  25  26
ENDBRANCH  24  25
ENDBRANCH  21  24
ENDBRANCH  19  20
ENDBRANCH  14  19
ENDBRANCH   8  13
BRANCH  10  30
ATOM     30  O   UNL A   1      43.596  34.994  32.533  1.00  0.00    -0.507 OA
ATOM     31  H   UNL A   1      43.563  35.766  33.064  1.00  0.00     0.293 HD
ENDBRANCH  10  30
ENDBRANCH   5   7
ENDBRANCH   3   5
ENDBRANCH   2   3
ENDBRANCH   1   2
BRANCH   1  32
ATOM     32  C   UNL A   1      42.853  40.795  25.925  1.00  0.00     0.202 C 
BRANCH  32  33
ATOM     33  O   UNL A   1      43.708  41.585  25.110  1.00  0.00    -0.376 OA
BRANCH  33  34
ATOM     34  C   UNL A   1      44.929  42.076  25.651  1.00  0.00     0.188 C 
BRANCH  34  35
ATOM     35  C   UNL A   1      46.224  41.890  24.848  1.00  0.00     0.188 C 
BRANCH  35  36
ATOM     36  O   UNL A   1      47.145  40.985  25.422  1.00  0.00    -0.376 OA
BRANCH  36  37
ATOM     37  C   UNL A   1      47.150  39.673  24.893  1.00  0.00     0.202 C 
BRANCH  37  38
ATOM     38  C   UNL A   1      46.491  38.616  25.789  1.00  0.00     0.261 C 
BRANCH  38  39
ATOM     39  O   UNL A   1      47.388  37.824  26.590  1.00  0.00    -0.460 OA
BRANCH  39  40
ATOM     40  C   UNL A   1      48.026  36.803  25.979  1.00  0.00     0.338 C 
ATOM     41  O   UNL A   1      48.960  36.888  25.191  1.00  0.00    -0.246 OA
BRANCH  40  42
ATOM     42  C   UNL A   1      47.560  35.539  26.588  1.00  0.00     0.060 A 
ATOM     43  C   UNL A   1      46.189  35.357  26.824  1.00  0.00     0.016 A 
ATOM     44  C   UNL A   1      48.470  34.532  26.917  1.00  0.00     0.016 A 
ATOM     45  C   UNL A   1      45.730  34.182  27.423  1.00  0.00     0.010 A 
ATOM     46  C   UNL A   1      48.011  33.366  27.535  1.00  0.00     0.010 A 
ATOM     47  C   UNL A   1      46.644  33.199  27.823  1.00  0.00    -0.014 A 
BRANCH  47  48
ATOM     48  C   UNL A   1      46.215  32.091  28.714  1.00  0.00     0.031 A 
ATOM     49  C   UNL A   1      46.394  32.264  30.199  1.00  0.00     0.074 A 
ATOM     50  C   UNL A   1      45.708  30.945  28.227  1.00  0.00     0.049 A 
ATOM     51  N   UNL A   1      46.175  31.414  31.168  1.00  0.00    -0.248 NA
ATOM     52  C   UNL A   1      46.896  33.573  30.651  1.00  0.00     0.031 C 
ATOM     53  C   UNL A   1      45.476  30.653  26.814  1.00  0.00     0.029 A 
ATOM     54  N   UNL A   1      45.326  29.796  28.877  1.00  0.00    -0.354 N 
ATOM     55  C   UNL A   1      46.546  32.068  32.337  1.00  0.00     0.074 A 
ATOM     56  C   UNL A   1      47.012  33.384  31.956  1.00  0.00     0.031 C 
ATOM     57  C   UNL A   1      45.025  29.391  26.699  1.00  0.00     0.029 A 
ATOM     58  C   UNL A   1      44.964  28.778  28.026  1.00  0.00     0.049 A 
ATOM     59  H   UNL A   1      45.314  29.709  29.857  1.00  0.00     0.167 HD
ATOM     60  C   UNL A   1      46.494  31.623  33.614  1.00  0.00     0.034 A 
ATOM     61  C   UNL A   1      44.650  27.492  28.286  1.00  0.00     0.034 A 
ATOM     62  C   UNL A   1      46.016  30.321  33.994  1.00  0.00     0.049 A 
ATOM     63  C   UNL A   1      44.629  27.008  29.716  1.00  0.00     0.074 A 
ATOM     64  C   UNL A   1      45.880  29.796  35.267  1.00  0.00     0.029 A 
ATOM     65  N   UNL A   1      45.615  29.335  33.109  1.00  0.00    -0.354 N 
ATOM     66  N   UNL A   1      44.870  27.674  30.819  1.00  0.00    -0.248 NA
ATOM     67  C   UNL A   1      44.262  25.600  29.938  1.00  0.00     0.031 C 
ATOM     68  C   UNL A   1      45.429  28.477  35.149  1.00  0.00     0.029 A 
ATOM     69  C   UNL A   1      45.245  28.197  33.804  1.00  0.00     0.049 A 
ATOM     70  H   UNL A   1      45.596  29.429  32.129  1.00  0.00     0.167 HD
ATOM     71  C   UNL A   1      44.646  26.781  31.864  1.00  0.00     0.074 A 
ATOM     72  C   UNL A   1      44.232  25.531  31.262  1.00  0.00     0.031 C 
ATOM     73  C   UNL A   1      44.781  26.974  33.199  1.00  0.00     0.034 A 
BRANCH  60  74
ATOM     74  C   UNL A   1      46.955  32.559  34.699  1.00  0.00     0.023 A 
ATOM     75  C   UNL A   1      48.314  32.581  35.075  1.00  0.00     0.012 A 
ATOM     76  C   UNL A   1      46.053  33.452  35.310  1.00  0.00     0.148 A 
ATOM     77  C   UNL A   1      48.762  33.453  36.066  1.00  0.00     0.002 A 
ATOM     78  C   UNL A   1      46.516  34.351  36.263  1.00  0.00     0.091 A 
ATOM     79  F   UNL A   1      44.762  33.400  34.955  1.00  0.00    -0.205 F 
ATOM     80  C   UNL A   1      47.867  34.345  36.651  1.00  0.00     0.022 A 
BRANCH  78  81
ATOM     81  S   UNL A   1      45.461  35.592  37.019  1.00  0.00     0.127 S 
ATOM     82  O   UNL A   1      44.626  35.998  35.888  1.00  0.00    -0.237 OA
ATOM     83  O   UNL A   1      44.762  34.816  38.043  1.00  0.00    -0.237 OA
ATOM     84  O   UNL A   1      46.353  36.619  37.536  1.00  0.00    -0.744 OA
ENDBRANCH  78  81
ENDBRANCH  60  74
BRANCH  61  85
ATOM     85  C   UNL A   1      44.305  26.563  27.171  1.00  0.00     0.023 A 
ATOM     86  C   UNL A   1      42.985  26.526  26.679  1.00  0.00     0.012 A 
ATOM     87  C   UNL A   1      45.273  25.711  26.605  1.00  0.00     0.148 A 
ATOM     88  C   UNL A   1      42.629  25.634  25.666  1.00  0.00     0.002 A 
ATOM     89  C   UNL A   1      44.923  24.864  25.559  1.00  0.00     0.091 A 
ATOM     90  F   UNL A   1      46.518  25.747  27.099  1.00  0.00    -0.205 F 
ATOM     91  C   UNL A   1      43.598  24.811  25.101  1.00  0.00     0.022 A 
BRANCH  89  92
ATOM     92  S   UNL A   1      46.126  23.850  24.692  1.00  0.00     0.127 S 
ATOM     93  O   UNL A   1      47.091  24.849  24.243  1.00  0.00    -0.237 OA
ATOM     94  O   UNL A   1      46.602  22.971  25.762  1.00  0.00    -0.237 OA
ATOM     95  O   UNL A   1      45.385  23.170  23.640  1.00  0.00    -0.744 OA
ENDBRANCH  89  92
ENDBRANCH  61  85
BRANCH  73  96
ATOM     96  C   UNL A   1      44.432  25.831  34.120  1.00  0.00     0.023 A 
ATOM     97  C   UNL A   1      43.099  25.633  34.527  1.00  0.00     0.012 A 
ATOM     98  C   UNL A   1      45.418  24.902  34.512  1.00  0.00     0.148 A 
ATOM     99  C   UNL A   1      42.758  24.552  35.339  1.00  0.00     0.002 A 
ATOM    100  C   UNL A   1      45.062  23.798  35.277  1.00  0.00     0.091 A 
ATOM    101  F   UNL A   1      46.685  25.114  34.126  1.00  0.00    -0.205 F 
ATOM    102  C   UNL A   1      43.735  23.628  35.703  1.00  0.00     0.022 A 
BRANCH 100 103
ATOM    103  S   UNL A   1      46.232  22.504  35.709  1.00  0.00     0.127 S 
ATOM    104  O   UNL A   1      45.342  21.442  36.175  1.00  0.00    -0.237 OA
ATOM    105  O   UNL A   1      46.884  22.236  34.427  1.00  0.00    -0.237 OA
ATOM    106  O   UNL A   1      47.107  23.074  36.724  1.00  0.00    -0.744 OA
ENDBRANCH 100 103
ENDBRANCH  73  96
ENDBRANCH  47  48
ENDBRANCH  40  42
ENDBRANCH  39  40
ENDBRANCH  38  39
ENDBRANCH  37  38
ENDBRANCH  36  37
ENDBRANCH  35  36
ENDBRANCH  34  35
ENDBRANCH  33  34
ENDBRANCH  32  33
ENDBRANCH   1  32
TORSDOF 30
ENDMDL
