MODEL 1
REMARK VINA RESULT:     -10.5      0.000      0.000
REMARK SMILES O=C(OCCOCCOCCOC(=O)c1cn(-c2ccnc3ccc(Cl)cc23)cn1)c1ccc(-c2c3nc(c(-c4cccc(S(=O)(=O)[O-])c4F)c4ccc([nH]4)c(-c4cccc(S(=O)(=O)[O-])c4F)c4nc(c(-c5cccc(S(=O)(=O)[O-])c5F)c5ccc2[nH]5)C=C4)C=C3)cc1
REMARK SMILES IDX 7 1 6 2 5 3 4 4 3 5 2 6 1 7 31 8 32 9 93 10 33 11 92 12
REMARK SMILES IDX 34 13 35 14 36 15 86 16 37 17 91 18 85 19 87 20 38 21 90 22
REMARK SMILES IDX 84 23 83 24 39 26 71 27 51 28 70 29 52 30 55 31 69 32 88 33
REMARK SMILES IDX 53 34 54 35 68 37 89 38 56 39 40 40 41 41 49 42 42 43 44 44
REMARK SMILES IDX 50 45 43 46 45 47 46 48 47 49 48 50 72 51 73 52 81 53 74 54
REMARK SMILES IDX 76 55 82 56 75 57 77 58 78 59 79 60 80 61 57 62 58 63 66 64
REMARK SMILES IDX 59 65 61 66 67 67 60 68 62 69 63 70 64 71 65 72 8 73 9 74
REMARK SMILES IDX 10 75 11 76 12 77 13 78 14 79 15 80 16 81 30 82 17 83 29 84
REMARK SMILES IDX 18 85 19 86 28 87 20 88 22 89 27 90 21 91 23 92 25 93 24 94
REMARK SMILES IDX 26 95
REMARK H PARENT 87 25 55 36
REMARK Flexibility Score: inf
ROOT
ATOM      1  C   UNL A   1      33.323  30.159  27.175  1.00  0.00     0.188 C 
ENDROOT
BRANCH   1   2
ATOM      2  O   UNL A   1      34.378  31.103  27.278  1.00  0.00    -0.376 OA
BRANCH   2   3
ATOM      3  C   UNL A   1      34.033  32.401  27.714  1.00  0.00     0.202 C 
BRANCH   3   4
ATOM      4  C   UNL A   1      35.209  33.294  28.134  1.00  0.00     0.261 C 
BRANCH   4   5
ATOM      5  O   UNL A   1      35.491  33.340  29.543  1.00  0.00    -0.460 OA
BRANCH   5   6
ATOM      6  C   UNL A   1      36.040  32.457  30.398  1.00  0.00     0.338 C 
ATOM      7  O   UNL A   1      35.609  32.421  31.549  1.00  0.00    -0.246 OA
BRANCH   6   8
ATOM      8  C   UNL A   1      37.201  31.582  30.065  1.00  0.00     0.060 A 
ATOM      9  C   UNL A   1      37.145  30.217  29.776  1.00  0.00     0.016 A 
ATOM     10  C   UNL A   1      38.461  32.214  30.098  1.00  0.00     0.016 A 
ATOM     11  C   UNL A   1      38.312  29.474  29.688  1.00  0.00     0.010 A 
ATOM     12  C   UNL A   1      39.631  31.480  30.002  1.00  0.00     0.010 A 
ATOM     13  C   UNL A   1      39.541  30.100  29.882  1.00  0.00    -0.014 A 
BRANCH  13  14
ATOM     14  C   UNL A   1      40.712  29.251  30.007  1.00  0.00     0.031 A 
ATOM     15  C   UNL A   1      41.144  28.955  31.392  1.00  0.00     0.074 A 
ATOM     16  C   UNL A   1      41.325  28.749  28.918  1.00  0.00     0.049 A 
ATOM     17  N   UNL A   1      42.227  29.342  31.985  1.00  0.00    -0.248 NA
ATOM     18  C   UNL A   1      40.198  28.250  32.266  1.00  0.00     0.031 C 
ATOM     19  C   UNL A   1      40.835  28.757  27.535  1.00  0.00     0.029 A 
ATOM     20  N   UNL A   1      42.456  27.995  28.840  1.00  0.00    -0.354 N 
ATOM     21  C   UNL A   1      42.207  28.725  33.235  1.00  0.00     0.074 A 
ATOM     22  C   UNL A   1      40.867  28.232  33.420  1.00  0.00     0.031 C 
ATOM     23  C   UNL A   1      41.510  27.828  26.823  1.00  0.00     0.029 A 
ATOM     24  C   UNL A   1      42.557  27.269  27.658  1.00  0.00     0.049 A 
ATOM     25  H   UNL A   1      43.136  27.966  29.551  1.00  0.00     0.167 HD
ATOM     26  C   UNL A   1      43.355  28.452  33.914  1.00  0.00     0.034 A 
ATOM     27  C   UNL A   1      43.379  26.217  27.427  1.00  0.00     0.034 A 
ATOM     28  C   UNL A   1      44.476  29.181  33.383  1.00  0.00     0.049 A 
ATOM     29  C   UNL A   1      44.472  26.278  28.423  1.00  0.00     0.074 A 
ATOM     30  C   UNL A   1      44.791  30.513  33.214  1.00  0.00     0.029 A 
ATOM     31  N   UNL A   1      45.362  28.477  32.604  1.00  0.00    -0.354 N 
ATOM     32  N   UNL A   1      45.386  27.206  28.436  1.00  0.00    -0.248 NA
ATOM     33  C   UNL A   1      44.314  25.538  29.665  1.00  0.00     0.031 C 
ATOM     34  C   UNL A   1      45.529  30.563  31.995  1.00  0.00     0.029 A 
ATOM     35  C   UNL A   1      45.663  29.256  31.521  1.00  0.00     0.049 A 
ATOM     36  H   UNL A   1      45.715  27.578  32.791  1.00  0.00     0.167 HD
ATOM     37  C   UNL A   1      45.584  27.477  29.784  1.00  0.00     0.074 A 
ATOM     38  C   UNL A   1      44.993  26.342  30.489  1.00  0.00     0.031 C 
ATOM     39  C   UNL A   1      45.938  28.727  30.205  1.00  0.00     0.034 A 
BRANCH  26  40
ATOM     40  C   UNL A   1      43.566  27.257  34.817  1.00  0.00     0.023 A 
ATOM     41  C   UNL A   1      43.923  27.514  36.161  1.00  0.00     0.012 A 
ATOM     42  C   UNL A   1      43.719  25.930  34.358  1.00  0.00     0.148 A 
ATOM     43  C   UNL A   1      44.461  26.517  36.983  1.00  0.00     0.002 A 
ATOM     44  C   UNL A   1      44.175  24.925  35.203  1.00  0.00     0.091 A 
ATOM     45  F   UNL A   1      43.556  25.645  33.063  1.00  0.00    -0.205 F 
ATOM     46  C   UNL A   1      44.582  25.219  36.505  1.00  0.00     0.022 A 
BRANCH  44  47
ATOM     47  S   UNL A   1      44.292  23.218  34.651  1.00  0.00     0.127 S 
ATOM     48  O   UNL A   1      44.780  22.555  35.856  1.00  0.00    -0.237 OA
ATOM     49  O   UNL A   1      42.904  22.925  34.295  1.00  0.00    -0.237 OA
ATOM     50  O   UNL A   1      45.205  23.242  33.513  1.00  0.00    -0.744 OA
ENDBRANCH  44  47
ENDBRANCH  26  40
BRANCH  27  51
ATOM     51  C   UNL A   1      43.140  25.019  26.590  1.00  0.00     0.023 A 
ATOM     52  C   UNL A   1      43.947  24.789  25.458  1.00  0.00     0.012 A 
ATOM     53  C   UNL A   1      42.314  23.967  27.045  1.00  0.00     0.148 A 
ATOM     54  C   UNL A   1      43.949  23.544  24.818  1.00  0.00     0.002 A 
ATOM     55  C   UNL A   1      42.311  22.735  26.400  1.00  0.00     0.091 A 
ATOM     56  F   UNL A   1      41.603  24.141  28.167  1.00  0.00    -0.205 F 
ATOM     57  C   UNL A   1      43.137  22.515  25.291  1.00  0.00     0.022 A 
BRANCH  55  58
ATOM     58  S   UNL A   1      41.305  21.360  26.972  1.00  0.00     0.127 S 
ATOM     59  O   UNL A   1      40.236  21.328  25.973  1.00  0.00    -0.237 OA
ATOM     60  O   UNL A   1      42.248  20.247  26.897  1.00  0.00    -0.237 OA
ATOM     61  O   UNL A   1      40.860  21.723  28.312  1.00  0.00    -0.744 OA
ENDBRANCH  55  58
ENDBRANCH  27  51
BRANCH  39  62
ATOM     62  C   UNL A   1      46.387  29.727  29.171  1.00  0.00     0.023 A 
ATOM     63  C   UNL A   1      47.724  29.803  28.727  1.00  0.00     0.012 A 
ATOM     64  C   UNL A   1      45.405  30.475  28.501  1.00  0.00     0.148 A 
ATOM     65  C   UNL A   1      48.076  30.625  27.653  1.00  0.00     0.002 A 
ATOM     66  C   UNL A   1      45.750  31.252  27.403  1.00  0.00     0.091 A 
ATOM     67  F   UNL A   1      44.137  30.389  28.932  1.00  0.00    -0.205 F 
ATOM     68  C   UNL A   1      47.085  31.339  26.982  1.00  0.00     0.022 A 
BRANCH  66  69
ATOM     69  S   UNL A   1      44.500  32.078  26.414  1.00  0.00     0.127 S 
ATOM     70  O   UNL A   1      44.025  33.115  27.327  1.00  0.00    -0.237 OA
ATOM     71  O   UNL A   1      45.276  32.573  25.275  1.00  0.00    -0.237 OA
ATOM     72  O   UNL A   1      43.527  31.050  26.064  1.00  0.00    -0.744 OA
ENDBRANCH  66  69
ENDBRANCH  39  62
ENDBRANCH  13  14
ENDBRANCH   6   8
ENDBRANCH   5   6
ENDBRANCH   4   5
ENDBRANCH   3   4
ENDBRANCH   2   3
ENDBRANCH   1   2
BRANCH   1  73
ATOM     73  C   UNL A   1      31.997  30.752  26.633  1.00  0.00     0.188 C 
BRANCH  73  74
ATOM     74  O   UNL A   1      31.404  30.261  25.428  1.00  0.00    -0.376 OA
BRANCH  74  75
ATOM     75  C   UNL A   1      32.038  29.219  24.701  1.00  0.00     0.202 C 
BRANCH  75  76
ATOM     76  C   UNL A   1      31.278  28.610  23.516  1.00  0.00     0.261 C 
BRANCH  76  77
ATOM     77  O   UNL A   1      30.858  27.261  23.747  1.00  0.00    -0.458 OA
BRANCH  77  78
ATOM     78  C   UNL A   1      31.573  26.275  23.159  1.00  0.00     0.358 C 
ATOM     79  O   UNL A   1      32.003  26.306  21.993  1.00  0.00    -0.244 OA
BRANCH  78  80
ATOM     80  C   UNL A   1      31.744  25.120  24.023  1.00  0.00     0.166 A 
ATOM     81  C   UNL A   1      32.156  23.874  23.614  1.00  0.00     0.129 A 
ATOM     82  N   UNL A   1      31.533  25.108  25.396  1.00  0.00    -0.229 NA
ATOM     83  N   UNL A   1      32.291  23.124  24.757  1.00  0.00    -0.305 N 
ATOM     84  C   UNL A   1      31.829  23.889  25.796  1.00  0.00     0.205 A 
BRANCH  83  85
ATOM     85  C   UNL A   1      32.883  21.852  24.827  1.00  0.00     0.057 A 
ATOM     86  C   UNL A   1      32.075  20.726  24.695  1.00  0.00     0.047 A 
ATOM     87  C   UNL A   1      34.290  21.744  24.968  1.00  0.00     0.026 A 
ATOM     88  C   UNL A   1      32.720  19.511  24.601  1.00  0.00     0.114 A 
ATOM     89  C   UNL A   1      34.829  20.451  24.848  1.00  0.00     0.072 A 
ATOM     90  C   UNL A   1      35.162  22.826  25.282  1.00  0.00     0.033 A 
ATOM     91  N   UNL A   1      34.065  19.364  24.644  1.00  0.00    -0.256 NA
ATOM     92  C   UNL A   1      36.206  20.294  24.961  1.00  0.00     0.030 A 
ATOM     93  C   UNL A   1      36.531  22.634  25.405  1.00  0.00     0.041 A 
ATOM     94  C   UNL A   1      37.062  21.368  25.231  1.00  0.00     0.023 A 
ATOM     95  Cl  UNL A   1      37.552  23.963  25.784  1.00  0.00    -0.084 Cl
ENDBRANCH  83  85
ENDBRANCH  78  80
ENDBRANCH  77  78
ENDBRANCH  76  77
ENDBRANCH  75  76
ENDBRANCH  74  75
ENDBRANCH  73  74
ENDBRANCH   1  73
TORSDOF 21
ENDMDL
MODEL 2
REMARK VINA RESULT:     -10.4      3.623      5.070
REMARK SMILES O=C(OCCOCCOCCOC(=O)c1cn(-c2ccnc3ccc(Cl)cc23)cn1)c1ccc(-c2c3nc(c(-c4cccc(S(=O)(=O)[O-])c4F)c4ccc([nH]4)c(-c4cccc(S(=O)(=O)[O-])c4F)c4nc(c(-c5cccc(S(=O)(=O)[O-])c5F)c5ccc2[nH]5)C=C4)C=C3)cc1
REMARK SMILES IDX 7 1 6 2 5 3 4 4 3 5 2 6 1 7 31 8 32 9 93 10 33 11 92 12
REMARK SMILES IDX 34 13 35 14 36 15 86 16 37 17 91 18 85 19 87 20 38 21 90 22
REMARK SMILES IDX 84 23 83 24 39 26 71 27 51 28 70 29 52 30 55 31 69 32 88 33
REMARK SMILES IDX 53 34 54 35 68 37 89 38 56 39 40 40 41 41 49 42 42 43 44 44
REMARK SMILES IDX 50 45 43 46 45 47 46 48 47 49 48 50 72 51 73 52 81 53 74 54
REMARK SMILES IDX 76 55 82 56 75 57 77 58 78 59 79 60 80 61 57 62 58 63 66 64
REMARK SMILES IDX 59 65 61 66 67 67 60 68 62 69 63 70 64 71 65 72 8 73 9 74
REMARK SMILES IDX 10 75 11 76 12 77 13 78 14 79 15 80 16 81 30 82 17 83 29 84
REMARK SMILES IDX 18 85 19 86 28 87 20 88 22 89 27 90 21 91 23 92 25 93 24 94
REMARK SMILES IDX 26 95
REMARK H PARENT 87 25 55 36
REMARK Flexibility Score: inf
ROOT
ATOM      1  C   UNL A   1      35.141  33.764  28.414  1.00  0.00     0.188 C 
ENDROOT
BRANCH   1   2
ATOM      2  O   UNL A   1      34.432  34.979  28.227  1.00  0.00    -0.376 OA
BRANCH   2   3
ATOM      3  C   UNL A   1      33.217  35.125  28.931  1.00  0.00     0.202 C 
BRANCH   3   4
ATOM      4  C   UNL A   1      33.055  36.435  29.714  1.00  0.00     0.261 C 
BRANCH   4   5
ATOM      5  O   UNL A   1      32.752  36.299  31.112  1.00  0.00    -0.460 OA
BRANCH   5   6
ATOM      6  C   UNL A   1      32.930  35.301  31.997  1.00  0.00     0.338 C 
ATOM      7  O   UNL A   1      31.947  34.890  32.611  1.00  0.00    -0.246 OA
BRANCH   6   8
ATOM      8  C   UNL A   1      34.258  34.721  32.348  1.00  0.00     0.060 A 
ATOM      9  C   UNL A   1      35.350  35.421  32.864  1.00  0.00     0.016 A 
ATOM     10  C   UNL A   1      34.404  33.344  32.079  1.00  0.00     0.016 A 
ATOM     11  C   UNL A   1      36.592  34.811  32.952  1.00  0.00     0.010 A 
ATOM     12  C   UNL A   1      35.640  32.726  32.174  1.00  0.00     0.010 A 
ATOM     13  C   UNL A   1      36.741  33.492  32.530  1.00  0.00    -0.014 A 
BRANCH  13  14
ATOM     14  C   UNL A   1      38.092  32.970  32.427  1.00  0.00     0.031 A 
ATOM     15  C   UNL A   1      38.887  33.000  33.676  1.00  0.00     0.074 A 
ATOM     16  C   UNL A   1      38.555  32.466  31.267  1.00  0.00     0.049 A 
ATOM     17  N   UNL A   1      39.933  33.715  33.934  1.00  0.00    -0.248 NA
ATOM     18  C   UNL A   1      38.382  32.235  34.824  1.00  0.00     0.031 C 
ATOM     19  C   UNL A   1      37.782  32.147  30.062  1.00  0.00     0.029 A 
ATOM     20  N   UNL A   1      39.798  31.995  30.971  1.00  0.00    -0.354 N 
ATOM     21  C   UNL A   1      40.358  33.310  35.198  1.00  0.00     0.074 A 
ATOM     22  C   UNL A   1      39.275  32.551  35.765  1.00  0.00     0.031 C 
ATOM     23  C   UNL A   1      38.501  31.305  29.288  1.00  0.00     0.029 A 
ATOM     24  C   UNL A   1      39.819  31.141  29.874  1.00  0.00     0.049 A 
ATOM     25  H   UNL A   1      40.603  32.236  31.484  1.00  0.00     0.167 HD
ATOM     26  C   UNL A   1      41.660  33.421  35.582  1.00  0.00     0.034 A 
ATOM     27  C   UNL A   1      40.816  30.288  29.537  1.00  0.00     0.034 A 
ATOM     28  C   UNL A   1      42.399  34.302  34.717  1.00  0.00     0.049 A 
ATOM     29  C   UNL A   1      42.049  30.755  30.209  1.00  0.00     0.074 A 
ATOM     30  C   UNL A   1      42.303  35.630  34.353  1.00  0.00     0.029 A 
ATOM     31  N   UNL A   1      43.241  33.715  33.805  1.00  0.00    -0.354 N 
ATOM     32  N   UNL A   1      42.663  31.863  29.903  1.00  0.00    -0.248 NA
ATOM     33  C   UNL A   1      42.376  30.199  31.512  1.00  0.00     0.031 C 
ATOM     34  C   UNL A   1      42.708  35.664  32.987  1.00  0.00     0.029 A 
ATOM     35  C   UNL A   1      43.073  34.368  32.615  1.00  0.00     0.049 A 
ATOM     36  H   UNL A   1      43.852  32.964  33.976  1.00  0.00     0.167 HD
ATOM     37  C   UNL A   1      43.080  32.376  31.124  1.00  0.00     0.074 A 
ATOM     38  C   UNL A   1      42.985  31.256  32.057  1.00  0.00     0.031 C 
ATOM     39  C   UNL A   1      43.176  33.723  31.325  1.00  0.00     0.034 A 
BRANCH  26  40
ATOM     40  C   UNL A   1      42.377  32.461  36.505  1.00  0.00     0.023 A 
ATOM     41  C   UNL A   1      43.152  33.020  37.548  1.00  0.00     0.012 A 
ATOM     42  C   UNL A   1      42.567  31.088  36.234  1.00  0.00     0.148 A 
ATOM     43  C   UNL A   1      44.106  32.268  38.240  1.00  0.00     0.002 A 
ATOM     44  C   UNL A   1      43.458  30.324  36.980  1.00  0.00     0.091 A 
ATOM     45  F   UNL A   1      41.994  30.530  35.165  1.00  0.00    -0.205 F 
ATOM     46  C   UNL A   1      44.256  30.916  37.960  1.00  0.00     0.022 A 
BRANCH  44  47
ATOM     47  S   UNL A   1      43.643  28.559  36.697  1.00  0.00     0.127 S 
ATOM     48  O   UNL A   1      44.439  28.161  37.853  1.00  0.00    -0.237 OA
ATOM     49  O   UNL A   1      42.252  28.108  36.711  1.00  0.00    -0.237 OA
ATOM     50  O   UNL A   1      44.292  28.443  35.396  1.00  0.00    -0.744 OA
ENDBRANCH  44  47
ENDBRANCH  26  40
BRANCH  27  51
ATOM     51  C   UNL A   1      40.721  28.955  28.901  1.00  0.00     0.023 A 
ATOM     52  C   UNL A   1      39.635  28.112  29.207  1.00  0.00     0.012 A 
ATOM     53  C   UNL A   1      41.537  28.617  27.797  1.00  0.00     0.148 A 
ATOM     54  C   UNL A   1      39.355  26.986  28.423  1.00  0.00     0.002 A 
ATOM     55  C   UNL A   1      41.262  27.491  27.028  1.00  0.00     0.091 A 
ATOM     56  F   UNL A   1      42.524  29.450  27.442  1.00  0.00    -0.205 F 
ATOM     57  C   UNL A   1      40.163  26.678  27.331  1.00  0.00     0.022 A 
BRANCH  55  58
ATOM     58  S   UNL A   1      42.251  27.049  25.593  1.00  0.00     0.127 S 
ATOM     59  O   UNL A   1      41.514  25.904  25.057  1.00  0.00    -0.237 OA
ATOM     60  O   UNL A   1      42.168  28.264  24.786  1.00  0.00    -0.237 OA
ATOM     61  O   UNL A   1      43.575  26.722  26.108  1.00  0.00    -0.744 OA
ENDBRANCH  55  58
ENDBRANCH  27  51
BRANCH  39  62
ATOM     62  C   UNL A   1      43.099  34.631  30.125  1.00  0.00     0.023 A 
ATOM     63  C   UNL A   1      41.870  35.035  29.563  1.00  0.00     0.012 A 
ATOM     64  C   UNL A   1      44.284  35.235  29.674  1.00  0.00     0.148 A 
ATOM     65  C   UNL A   1      41.828  36.003  28.557  1.00  0.00     0.002 A 
ATOM     66  C   UNL A   1      44.234  36.233  28.709  1.00  0.00     0.091 A 
ATOM     67  F   UNL A   1      45.446  34.843  30.221  1.00  0.00    -0.205 F 
ATOM     68  C   UNL A   1      43.009  36.614  28.140  1.00  0.00     0.022 A 
BRANCH  66  69
ATOM     69  S   UNL A   1      45.702  37.151  28.238  1.00  0.00     0.127 S 
ATOM     70  O   UNL A   1      46.071  37.802  29.493  1.00  0.00    -0.237 OA
ATOM     71  O   UNL A   1      46.614  36.088  27.809  1.00  0.00    -0.237 OA
ATOM     72  O   UNL A   1      45.286  38.042  27.162  1.00  0.00    -0.744 OA
ENDBRANCH  66  69
ENDBRANCH  39  62
ENDBRANCH  13  14
ENDBRANCH   6   8
ENDBRANCH   5   6
ENDBRANCH   4   5
ENDBRANCH   3   4
ENDBRANCH   2   3
ENDBRANCH   1   2
BRANCH   1  73
ATOM     73  C   UNL A   1      34.233  32.509  28.481  1.00  0.00     0.188 C 
BRANCH  73  74
ATOM     74  O   UNL A   1      33.800  31.845  27.291  1.00  0.00    -0.376 OA
BRANCH  74  75
ATOM     75  C   UNL A   1      32.413  31.672  27.042  1.00  0.00     0.202 C 
BRANCH  75  76
ATOM     76  C   UNL A   1      31.963  30.358  26.389  1.00  0.00     0.261 C 
BRANCH  76  77
ATOM     77  O   UNL A   1      33.018  29.680  25.699  1.00  0.00    -0.458 OA
BRANCH  77  78
ATOM     78  C   UNL A   1      33.565  28.600  26.302  1.00  0.00     0.358 C 
ATOM     79  O   UNL A   1      33.982  28.574  27.472  1.00  0.00    -0.244 OA
BRANCH  78  80
ATOM     80  C   UNL A   1      33.676  27.460  25.408  1.00  0.00     0.166 A 
ATOM     81  C   UNL A   1      33.824  26.151  25.801  1.00  0.00     0.129 A 
ATOM     82  N   UNL A   1      33.631  27.522  24.021  1.00  0.00    -0.229 NA
ATOM     83  N   UNL A   1      33.771  25.401  24.652  1.00  0.00    -0.305 N 
ATOM     84  C   UNL A   1      33.734  26.279  23.600  1.00  0.00     0.205 A 
BRANCH  83  85
ATOM     85  C   UNL A   1      33.679  23.999  24.602  1.00  0.00     0.057 A 
ATOM     86  C   UNL A   1      32.470  23.418  24.230  1.00  0.00     0.047 A 
ATOM     87  C   UNL A   1      34.830  23.215  24.869  1.00  0.00     0.026 A 
ATOM     88  C   UNL A   1      32.476  22.053  24.032  1.00  0.00     0.114 A 
ATOM     89  C   UNL A   1      34.712  21.836  24.624  1.00  0.00     0.072 A 
ATOM     90  C   UNL A   1      36.045  23.713  25.420  1.00  0.00     0.033 A 
ATOM     91  N   UNL A   1      33.570  21.272  24.191  1.00  0.00    -0.256 NA
ATOM     92  C   UNL A   1      35.817  21.024  24.854  1.00  0.00     0.030 A 
ATOM     93  C   UNL A   1      37.126  22.875  25.655  1.00  0.00     0.041 A 
ATOM     94  C   UNL A   1      37.022  21.527  25.360  1.00  0.00     0.023 A 
ATOM     95  Cl  UNL A   1      38.576  23.512  26.321  1.00  0.00    -0.084 Cl
ENDBRANCH  83  85
ENDBRANCH  78  80
ENDBRANCH  77  78
ENDBRANCH  76  77
ENDBRANCH  75  76
ENDBRANCH  74  75
ENDBRANCH  73  74
ENDBRANCH   1  73
TORSDOF 21
ENDMDL
MODEL 3
REMARK VINA RESULT:     -10.2      3.226      9.434
REMARK SMILES O=C(OCCOCCOCCOC(=O)c1cn(-c2ccnc3ccc(Cl)cc23)cn1)c1ccc(-c2c3nc(c(-c4cccc(S(=O)(=O)[O-])c4F)c4ccc([nH]4)c(-c4cccc(S(=O)(=O)[O-])c4F)c4nc(c(-c5cccc(S(=O)(=O)[O-])c5F)c5ccc2[nH]5)C=C4)C=C3)cc1
REMARK SMILES IDX 7 1 6 2 5 3 4 4 3 5 2 6 1 7 31 8 32 9 93 10 33 11 92 12
REMARK SMILES IDX 34 13 35 14 36 15 86 16 37 17 91 18 85 19 87 20 38 21 90 22
REMARK SMILES IDX 84 23 83 24 39 26 71 27 51 28 70 29 52 30 55 31 69 32 88 33
REMARK SMILES IDX 53 34 54 35 68 37 89 38 56 39 40 40 41 41 49 42 42 43 44 44
REMARK SMILES IDX 50 45 43 46 45 47 46 48 47 49 48 50 72 51 73 52 81 53 74 54
REMARK SMILES IDX 76 55 82 56 75 57 77 58 78 59 79 60 80 61 57 62 58 63 66 64
REMARK SMILES IDX 59 65 61 66 67 67 60 68 62 69 63 70 64 71 65 72 8 73 9 74
REMARK SMILES IDX 10 75 11 76 12 77 13 78 14 79 15 80 16 81 30 82 17 83 29 84
REMARK SMILES IDX 18 85 19 86 28 87 20 88 22 89 27 90 21 91 23 92 25 93 24 94
REMARK SMILES IDX 26 95
REMARK H PARENT 87 25 55 36
REMARK Flexibility Score: inf
ROOT
ATOM      1  C   UNL A   1      37.695  20.742  25.161  1.00  0.00     0.188 C 
ENDROOT
BRANCH   1   2
ATOM      2  O   UNL A   1      38.971  21.147  25.632  1.00  0.00    -0.376 OA
BRANCH   2   3
ATOM      3  C   UNL A   1      39.942  20.134  25.795  1.00  0.00     0.202 C 
BRANCH   3   4
ATOM      4  C   UNL A   1      41.360  20.621  26.126  1.00  0.00     0.261 C 
BRANCH   4   5
ATOM      5  O   UNL A   1      41.476  21.997  26.523  1.00  0.00    -0.460 OA
BRANCH   5   6
ATOM      6  C   UNL A   1      41.335  22.626  27.705  1.00  0.00     0.338 C 
ATOM      7  O   UNL A   1      40.913  21.976  28.660  1.00  0.00    -0.246 OA
BRANCH   6   8
ATOM      8  C   UNL A   1      41.570  24.084  27.909  1.00  0.00     0.060 A 
ATOM      9  C   UNL A   1      42.639  24.655  28.602  1.00  0.00     0.016 A 
ATOM     10  C   UNL A   1      40.578  24.934  27.377  1.00  0.00     0.016 A 
ATOM     11  C   UNL A   1      42.634  26.009  28.900  1.00  0.00     0.010 A 
ATOM     12  C   UNL A   1      40.571  26.289  27.663  1.00  0.00     0.010 A 
ATOM     13  C   UNL A   1      41.559  26.797  28.496  1.00  0.00    -0.014 A 
BRANCH  13  14
ATOM     14  C   UNL A   1      41.485  28.149  29.021  1.00  0.00     0.031 A 
ATOM     15  C   UNL A   1      42.486  29.099  28.486  1.00  0.00     0.074 A 
ATOM     16  C   UNL A   1      40.535  28.498  29.910  1.00  0.00     0.049 A 
ATOM     17  N   UNL A   1      43.467  29.657  29.118  1.00  0.00    -0.248 NA
ATOM     18  C   UNL A   1      42.473  29.364  27.042  1.00  0.00     0.031 C 
ATOM     19  C   UNL A   1      39.350  27.724  30.298  1.00  0.00     0.029 A 
ATOM     20  N   UNL A   1      40.351  29.686  30.549  1.00  0.00    -0.354 N 
ATOM     21  C   UNL A   1      44.051  30.531  28.203  1.00  0.00     0.074 A 
ATOM     22  C   UNL A   1      43.528  30.171  26.911  1.00  0.00     0.031 C 
ATOM     23  C   UNL A   1      38.454  28.553  30.878  1.00  0.00     0.029 A 
ATOM     24  C   UNL A   1      39.056  29.866  31.021  1.00  0.00     0.049 A 
ATOM     25  H   UNL A   1      41.066  30.352  30.665  1.00  0.00     0.167 HD
ATOM     26  C   UNL A   1      44.729  31.640  28.607  1.00  0.00     0.034 A 
ATOM     27  C   UNL A   1      38.494  31.037  31.405  1.00  0.00     0.034 A 
ATOM     28  C   UNL A   1      45.067  31.580  30.004  1.00  0.00     0.049 A 
ATOM     29  C   UNL A   1      39.594  31.980  31.710  1.00  0.00     0.074 A 
ATOM     30  C   UNL A   1      45.807  30.731  30.801  1.00  0.00     0.029 A 
ATOM     31  N   UNL A   1      44.311  32.344  30.860  1.00  0.00    -0.354 N 
ATOM     32  N   UNL A   1      40.403  31.841  32.722  1.00  0.00    -0.248 NA
ATOM     33  C   UNL A   1      40.061  32.859  30.651  1.00  0.00     0.031 C 
ATOM     34  C   UNL A   1      45.117  30.704  32.047  1.00  0.00     0.029 A 
ATOM     35  C   UNL A   1      44.028  31.575  31.954  1.00  0.00     0.049 A 
ATOM     36  H   UNL A   1      44.026  33.274  30.711  1.00  0.00     0.167 HD
ATOM     37  C   UNL A   1      41.643  32.227  32.227  1.00  0.00     0.074 A 
ATOM     38  C   UNL A   1      41.349  32.955  30.996  1.00  0.00     0.031 C 
ATOM     39  C   UNL A   1      42.795  31.666  32.701  1.00  0.00     0.034 A 
BRANCH  26  40
ATOM     40  C   UNL A   1      44.776  32.951  27.855  1.00  0.00     0.023 A 
ATOM     41  C   UNL A   1      45.994  33.296  27.225  1.00  0.00     0.012 A 
ATOM     42  C   UNL A   1      43.808  33.974  27.978  1.00  0.00     0.148 A 
ATOM     43  C   UNL A   1      46.258  34.602  26.799  1.00  0.00     0.002 A 
ATOM     44  C   UNL A   1      44.043  35.249  27.478  1.00  0.00     0.091 A 
ATOM     45  F   UNL A   1      42.704  33.768  28.700  1.00  0.00    -0.205 F 
ATOM     46  C   UNL A   1      45.279  35.579  26.919  1.00  0.00     0.022 A 
BRANCH  44  47
ATOM     47  S   UNL A   1      42.785  36.531  27.555  1.00  0.00     0.127 S 
ATOM     48  O   UNL A   1      43.341  37.538  26.657  1.00  0.00    -0.237 OA
ATOM     49  O   UNL A   1      41.609  35.824  27.048  1.00  0.00    -0.237 OA
ATOM     50  O   UNL A   1      42.697  36.900  28.962  1.00  0.00    -0.744 OA
ENDBRANCH  44  47
ENDBRANCH  26  40
BRANCH  27  51
ATOM     51  C   UNL A   1      37.089  31.483  31.266  1.00  0.00     0.023 A 
ATOM     52  C   UNL A   1      36.343  31.804  32.416  1.00  0.00     0.012 A 
ATOM     53  C   UNL A   1      36.567  31.855  30.007  1.00  0.00     0.148 A 
ATOM     54  C   UNL A   1      35.130  32.497  32.317  1.00  0.00     0.002 A 
ATOM     55  C   UNL A   1      35.355  32.533  29.912  1.00  0.00     0.091 A 
ATOM     56  F   UNL A   1      37.301  31.632  28.909  1.00  0.00    -0.205 F 
ATOM     57  C   UNL A   1      34.639  32.867  31.067  1.00  0.00     0.022 A 
BRANCH  55  58
ATOM     58  S   UNL A   1      34.677  33.060  28.332  1.00  0.00     0.127 S 
ATOM     59  O   UNL A   1      33.570  33.921  28.749  1.00  0.00    -0.237 OA
ATOM     60  O   UNL A   1      35.811  33.763  27.738  1.00  0.00    -0.237 OA
ATOM     61  O   UNL A   1      34.262  31.839  27.652  1.00  0.00    -0.744 OA
ENDBRANCH  55  58
ENDBRANCH  27  51
BRANCH  39  62
ATOM     62  C   UNL A   1      42.720  30.839  33.958  1.00  0.00     0.023 A 
ATOM     63  C   UNL A   1      42.714  31.420  35.243  1.00  0.00     0.012 A 
ATOM     64  C   UNL A   1      42.461  29.464  33.833  1.00  0.00     0.148 A 
ATOM     65  C   UNL A   1      42.479  30.642  36.379  1.00  0.00     0.002 A 
ATOM     66  C   UNL A   1      42.178  28.702  34.960  1.00  0.00     0.091 A 
ATOM     67  F   UNL A   1      42.465  28.926  32.603  1.00  0.00    -0.205 F 
ATOM     68  C   UNL A   1      42.196  29.285  36.236  1.00  0.00     0.022 A 
BRANCH  66  69
ATOM     69  S   UNL A   1      41.669  26.987  34.824  1.00  0.00     0.127 S 
ATOM     70  O   UNL A   1      42.818  26.378  34.160  1.00  0.00    -0.237 OA
ATOM     71  O   UNL A   1      41.494  26.598  36.225  1.00  0.00    -0.237 OA
ATOM     72  O   UNL A   1      40.429  27.000  34.056  1.00  0.00    -0.744 OA
ENDBRANCH  66  69
ENDBRANCH  39  62
ENDBRANCH  13  14
ENDBRANCH   6   8
ENDBRANCH   5   6
ENDBRANCH   4   5
ENDBRANCH   3   4
ENDBRANCH   2   3
ENDBRANCH   1   2
BRANCH   1  73
ATOM     73  C   UNL A   1      36.513  21.508  25.808  1.00  0.00     0.188 C 
BRANCH  73  74
ATOM     74  O   UNL A   1      35.195  21.437  25.257  1.00  0.00    -0.376 OA
BRANCH  74  75
ATOM     75  C   UNL A   1      34.613  22.589  24.664  1.00  0.00     0.202 C 
BRANCH  75  76
ATOM     76  C   UNL A   1      33.937  22.424  23.297  1.00  0.00     0.261 C 
BRANCH  76  77
ATOM     77  O   UNL A   1      32.922  23.402  23.046  1.00  0.00    -0.458 OA
BRANCH  77  78
ATOM     78  C   UNL A   1      33.054  24.170  21.941  1.00  0.00     0.358 C 
ATOM     79  O   UNL A   1      33.271  23.738  20.796  1.00  0.00    -0.244 OA
BRANCH  78  80
ATOM     80  C   UNL A   1      32.973  25.590  22.237  1.00  0.00     0.166 A 
ATOM     81  C   UNL A   1      32.216  26.153  23.237  1.00  0.00     0.129 A 
ATOM     82  N   UNL A   1      33.665  26.589  21.565  1.00  0.00    -0.229 NA
ATOM     83  N   UNL A   1      32.522  27.492  23.236  1.00  0.00    -0.305 N 
ATOM     84  C   UNL A   1      33.339  27.718  22.160  1.00  0.00     0.205 A 
BRANCH  83  85
ATOM     85  C   UNL A   1      32.131  28.414  24.223  1.00  0.00     0.057 A 
ATOM     86  C   UNL A   1      32.816  28.432  25.434  1.00  0.00     0.047 A 
ATOM     87  C   UNL A   1      31.094  29.339  23.942  1.00  0.00     0.026 A 
ATOM     88  C   UNL A   1      32.510  29.460  26.302  1.00  0.00     0.114 A 
ATOM     89  C   UNL A   1      30.881  30.344  24.901  1.00  0.00     0.072 A 
ATOM     90  C   UNL A   1      30.233  29.278  22.809  1.00  0.00     0.033 A 
ATOM     91  N   UNL A   1      31.589  30.418  26.042  1.00  0.00    -0.256 NA
ATOM     92  C   UNL A   1      29.887  31.287  24.665  1.00  0.00     0.030 A 
ATOM     93  C   UNL A   1      29.238  30.224  22.609  1.00  0.00     0.041 A 
ATOM     94  C   UNL A   1      29.070  31.243  23.530  1.00  0.00     0.023 A 
ATOM     95  Cl  UNL A   1      28.218  30.118  21.230  1.00  0.00    -0.084 Cl
ENDBRANCH  83  85
ENDBRANCH  78  80
ENDBRANCH  77  78
ENDBRANCH  76  77
ENDBRANCH  75  76
ENDBRANCH  74  75
ENDBRANCH  73  74
ENDBRANCH   1  73
TORSDOF 21
ENDMDL
