MODEL 1
REMARK VINA RESULT:     -10.6      0.000      0.000
REMARK SMILES CC(=O)Nc1nc(C[N@@H+]2CCO[C@@H](CC(=O)OCCOCCOCCOC(=O)c3ccc(-c4c5nc(c(-c6cccc(S(=O)(=O)[O-])c6F)c6ccc([nH]6)c(-c6cccc(S(=O)(=O)[O-])c6F)c6nc(c(-c7cccc(S(=O)(=O)[O-])c7F)c7ccc4[nH]7)C=C6)C=C5)cc3)C2)cs1
REMARK SMILES IDX 21 1 20 2 19 3 18 4 17 5 15 6 16 7 14 8 13 9 9 10 10 11
REMARK SMILES IDX 92 12 11 14 12 15 8 16 7 17 5 18 6 19 94 20 93 21 4 22 1 23
REMARK SMILES IDX 2 24 3 25 22 27 23 28 24 29 25 30 26 31 27 32 28 33 29 34
REMARK SMILES IDX 30 35 91 36 31 37 90 38 32 39 33 40 34 41 84 42 35 43 89 44
REMARK SMILES IDX 83 45 85 46 36 47 88 48 82 49 81 50 37 52 69 53 49 54 68 55
REMARK SMILES IDX 50 56 53 57 67 58 86 59 51 60 52 61 66 63 87 64 54 65 38 66
REMARK SMILES IDX 39 67 47 68 40 69 42 70 48 71 41 72 43 73 44 74 45 75 46 76
REMARK SMILES IDX 70 77 71 78 79 79 72 80 74 81 80 82 73 83 75 84 76 85 77 86
REMARK SMILES IDX 78 87 55 88 56 89 64 90 57 91 59 92 65 93 58 94 60 95 61 96
REMARK SMILES IDX 62 97 63 98
REMARK H PARENT 9 13 4 26 85 51 53 62
REMARK Flexibility Score: inf
ROOT
ATOM      1  C   UNL A   1      39.784  21.735  26.136  1.00  0.00     0.188 C 
ENDROOT
BRANCH   1   2
ATOM      2  O   UNL A   1      38.434  21.343  25.916  1.00  0.00    -0.376 OA
BRANCH   2   3
ATOM      3  C   UNL A   1      37.640  22.114  25.018  1.00  0.00     0.202 C 
BRANCH   3   4
ATOM      4  C   UNL A   1      36.188  22.378  25.428  1.00  0.00     0.261 C 
BRANCH   4   5
ATOM      5  O   UNL A   1      35.515  21.157  25.783  1.00  0.00    -0.463 OA
BRANCH   5   6
ATOM      6  C   UNL A   1      34.272  21.321  26.294  1.00  0.00     0.308 C 
ATOM      7  O   UNL A   1      34.025  21.403  27.491  1.00  0.00    -0.252 OA
BRANCH   6   8
ATOM      8  C   UNL A   1      33.260  21.615  25.214  1.00  0.00     0.160 C 
BRANCH   8   9
ATOM      9  C   UNL A   1      32.609  23.000  25.086  1.00  0.00     0.184 C 
ATOM     10  N   UNL A   1      30.567  24.486  25.016  1.00  0.00    -0.326 N 
ATOM     11  C   UNL A   1      31.192  25.285  26.072  1.00  0.00     0.291 C 
ATOM     12  C   UNL A   1      31.068  23.097  25.052  1.00  0.00     0.295 C 
ATOM     13  H   UNL A   1      29.576  24.447  25.258  1.00  0.00     0.348 HD
ATOM     14  C   UNL A   1      32.720  25.126  26.150  1.00  0.00     0.222 C 
ATOM     15  O   UNL A   1      33.098  23.752  26.228  1.00  0.00    -0.366 OA
BRANCH  10  16
ATOM     16  C   UNL A   1      30.358  25.106  23.693  1.00  0.00     0.320 C 
BRANCH  16  17
ATOM     17  C   UNL A   1      30.844  26.525  23.488  1.00  0.00     0.108 A 
ATOM     18  C   UNL A   1      30.673  28.730  23.627  1.00  0.00     0.189 A 
ATOM     19  N   UNL A   1      30.055  27.607  23.903  1.00  0.00    -0.219 NA
ATOM     20  S   UNL A   1      32.161  28.602  22.811  1.00  0.00    -0.105 S 
ATOM     21  C   UNL A   1      32.113  26.913  23.082  1.00  0.00     0.098 A 
BRANCH  18  22
ATOM     22  N   UNL A   1      30.350  30.017  23.926  1.00  0.00    -0.302 N 
ATOM     23  C   UNL A   1      28.134  29.948  22.792  1.00  0.00     0.114 C 
ATOM     24  C   UNL A   1      29.216  30.663  23.550  1.00  0.00     0.223 C 
ATOM     25  O   UNL A   1      29.036  31.811  23.961  1.00  0.00    -0.275 OA
ATOM     26  H   UNL A   1      30.997  30.527  24.464  1.00  0.00     0.172 HD
ENDBRANCH  18  22
ENDBRANCH  16  17
ENDBRANCH  10  16
ENDBRANCH   8   9
ENDBRANCH   6   8
ENDBRANCH   5   6
ENDBRANCH   4   5
ENDBRANCH   3   4
ENDBRANCH   2   3
ENDBRANCH   1   2
BRANCH   1  27
ATOM     27  C   UNL A   1      40.542  21.135  27.337  1.00  0.00     0.188 C 
BRANCH  27  28
ATOM     28  O   UNL A   1      41.959  21.169  27.264  1.00  0.00    -0.376 OA
BRANCH  28  29
ATOM     29  C   UNL A   1      42.493  20.604  26.063  1.00  0.00     0.202 C 
BRANCH  29  30
ATOM     30  C   UNL A   1      43.411  21.554  25.284  1.00  0.00     0.261 C 
BRANCH  30  31
ATOM     31  O   UNL A   1      42.767  22.808  24.989  1.00  0.00    -0.460 OA
BRANCH  31  32
ATOM     32  C   UNL A   1      43.556  23.904  25.000  1.00  0.00     0.338 C 
ATOM     33  O   UNL A   1      44.578  24.071  24.362  1.00  0.00    -0.246 OA
BRANCH  32  34
ATOM     34  C   UNL A   1      42.954  24.912  25.898  1.00  0.00     0.060 A 
ATOM     35  C   UNL A   1      43.459  26.217  25.944  1.00  0.00     0.016 A 
ATOM     36  C   UNL A   1      41.940  24.525  26.771  1.00  0.00     0.016 A 
ATOM     37  C   UNL A   1      42.976  27.128  26.882  1.00  0.00     0.010 A 
ATOM     38  C   UNL A   1      41.443  25.446  27.699  1.00  0.00     0.010 A 
ATOM     39  C   UNL A   1      41.981  26.743  27.786  1.00  0.00    -0.014 A 
BRANCH  39  40
ATOM     40  C   UNL A   1      41.574  27.657  28.883  1.00  0.00     0.031 A 
ATOM     41  C   UNL A   1      42.334  27.651  30.182  1.00  0.00     0.074 A 
ATOM     42  C   UNL A   1      40.538  28.500  28.719  1.00  0.00     0.049 A 
ATOM     43  N   UNL A   1      42.103  28.329  31.277  1.00  0.00    -0.248 NA
ATOM     44  C   UNL A   1      43.520  26.784  30.253  1.00  0.00     0.031 C 
ATOM     45  C   UNL A   1      39.748  28.643  27.496  1.00  0.00     0.029 A 
ATOM     46  N   UNL A   1      39.949  29.372  29.603  1.00  0.00    -0.354 N 
ATOM     47  C   UNL A   1      43.115  27.973  32.162  1.00  0.00     0.074 A 
ATOM     48  C   UNL A   1      43.958  27.015  31.482  1.00  0.00     0.031 C 
ATOM     49  C   UNL A   1      38.752  29.515  27.720  1.00  0.00     0.029 A 
ATOM     50  C   UNL A   1      38.803  29.952  29.113  1.00  0.00     0.049 A 
ATOM     51  H   UNL A   1      40.313  29.562  30.498  1.00  0.00     0.167 HD
ATOM     52  C   UNL A   1      43.332  28.409  33.424  1.00  0.00     0.034 A 
ATOM     53  C   UNL A   1      37.869  30.701  29.732  1.00  0.00     0.034 A 
ATOM     54  C   UNL A   1      42.478  29.330  34.120  1.00  0.00     0.049 A 
ATOM     55  C   UNL A   1      38.046  31.051  31.184  1.00  0.00     0.074 A 
ATOM     56  C   UNL A   1      42.606  29.817  35.409  1.00  0.00     0.029 A 
ATOM     57  N   UNL A   1      41.316  29.876  33.599  1.00  0.00    -0.354 N 
ATOM     58  N   UNL A   1      39.054  30.785  31.980  1.00  0.00    -0.248 NA
ATOM     59  C   UNL A   1      36.964  31.814  31.823  1.00  0.00     0.031 C 
ATOM     60  C   UNL A   1      41.501  30.630  35.679  1.00  0.00     0.029 A 
ATOM     61  C   UNL A   1      40.698  30.668  34.550  1.00  0.00     0.049 A 
ATOM     62  H   UNL A   1      40.981  29.723  32.686  1.00  0.00     0.167 HD
ATOM     63  C   UNL A   1      38.739  31.365  33.203  1.00  0.00     0.074 A 
ATOM     64  C   UNL A   1      37.455  32.017  33.039  1.00  0.00     0.031 C 
ATOM     65  C   UNL A   1      39.442  31.346  34.363  1.00  0.00     0.034 A 
BRANCH  52  66
ATOM     66  C   UNL A   1      44.551  27.895  34.136  1.00  0.00     0.023 A 
ATOM     67  C   UNL A   1      45.712  28.692  34.180  1.00  0.00     0.012 A 
ATOM     68  C   UNL A   1      44.532  26.655  34.803  1.00  0.00     0.148 A 
ATOM     69  C   UNL A   1      46.842  28.258  34.872  1.00  0.00     0.002 A 
ATOM     70  C   UNL A   1      45.652  26.241  35.513  1.00  0.00     0.091 A 
ATOM     71  F   UNL A   1      43.426  25.903  34.721  1.00  0.00    -0.205 F 
ATOM     72  C   UNL A   1      46.809  27.039  35.545  1.00  0.00     0.022 A 
BRANCH  70  73
ATOM     73  S   UNL A   1      45.692  24.710  36.451  1.00  0.00     0.127 S 
ATOM     74  O   UNL A   1      45.532  23.712  35.395  1.00  0.00    -0.237 OA
ATOM     75  O   UNL A   1      47.024  24.751  37.053  1.00  0.00    -0.237 OA
ATOM     76  O   UNL A   1      44.592  24.795  37.402  1.00  0.00    -0.744 OA
ENDBRANCH  70  73
ENDBRANCH  52  66
BRANCH  53  77
ATOM     77  C   UNL A   1      36.666  31.152  28.974  1.00  0.00     0.023 A 
ATOM     78  C   UNL A   1      36.466  32.523  28.729  1.00  0.00     0.012 A 
ATOM     79  C   UNL A   1      35.739  30.221  28.463  1.00  0.00     0.148 A 
ATOM     80  C   UNL A   1      35.360  32.958  27.997  1.00  0.00     0.002 A 
ATOM     81  C   UNL A   1      34.676  30.657  27.683  1.00  0.00     0.091 A 
ATOM     82  F   UNL A   1      35.922  28.921  28.740  1.00  0.00    -0.205 F 
ATOM     83  C   UNL A   1      34.475  32.026  27.461  1.00  0.00     0.022 A 
BRANCH  81  84
ATOM     84  S   UNL A   1      33.590  29.503  26.837  1.00  0.00     0.127 S 
ATOM     85  O   UNL A   1      32.719  29.059  27.921  1.00  0.00    -0.237 OA
ATOM     86  O   UNL A   1      32.946  30.358  25.839  1.00  0.00    -0.237 OA
ATOM     87  O   UNL A   1      34.473  28.492  26.269  1.00  0.00    -0.744 OA
ENDBRANCH  81  84
ENDBRANCH  53  77
BRANCH  65  88
ATOM     88  C   UNL A   1      38.852  32.058  35.551  1.00  0.00     0.023 A 
ATOM     89  C   UNL A   1      38.814  33.466  35.569  1.00  0.00     0.012 A 
ATOM     90  C   UNL A   1      38.265  31.337  36.609  1.00  0.00     0.148 A 
ATOM     91  C   UNL A   1      38.223  34.146  36.633  1.00  0.00     0.002 A 
ATOM     92  C   UNL A   1      37.640  32.020  37.645  1.00  0.00     0.091 A 
ATOM     93  F   UNL A   1      38.330  29.997  36.586  1.00  0.00    -0.205 F 
ATOM     94  C   UNL A   1      37.626  33.424  37.664  1.00  0.00     0.022 A 
BRANCH  92  95
ATOM     95  S   UNL A   1      36.769  31.164  38.963  1.00  0.00     0.127 S 
ATOM     96  O   UNL A   1      37.794  31.092  40.002  1.00  0.00    -0.237 OA
ATOM     97  O   UNL A   1      35.664  32.079  39.258  1.00  0.00    -0.237 OA
ATOM     98  O   UNL A   1      36.353  29.887  38.397  1.00  0.00    -0.744 OA
ENDBRANCH  92  95
ENDBRANCH  65  88
ENDBRANCH  39  40
ENDBRANCH  32  34
ENDBRANCH  31  32
ENDBRANCH  30  31
ENDBRANCH  29  30
ENDBRANCH  28  29
ENDBRANCH  27  28
ENDBRANCH   1  27
TORSDOF 24
ENDMDL
MODEL 2
REMARK VINA RESULT:     -10.5      2.406      8.044
REMARK SMILES CC(=O)Nc1nc(C[N@@H+]2CCO[C@@H](CC(=O)OCCOCCOCCOC(=O)c3ccc(-c4c5nc(c(-c6cccc(S(=O)(=O)[O-])c6F)c6ccc([nH]6)c(-c6cccc(S(=O)(=O)[O-])c6F)c6nc(c(-c7cccc(S(=O)(=O)[O-])c7F)c7ccc4[nH]7)C=C6)C=C5)cc3)C2)cs1
REMARK SMILES IDX 21 1 20 2 19 3 18 4 17 5 15 6 16 7 14 8 13 9 9 10 10 11
REMARK SMILES IDX 92 12 11 14 12 15 8 16 7 17 5 18 6 19 94 20 93 21 4 22 1 23
REMARK SMILES IDX 2 24 3 25 22 27 23 28 24 29 25 30 26 31 27 32 28 33 29 34
REMARK SMILES IDX 30 35 91 36 31 37 90 38 32 39 33 40 34 41 84 42 35 43 89 44
REMARK SMILES IDX 83 45 85 46 36 47 88 48 82 49 81 50 37 52 69 53 49 54 68 55
REMARK SMILES IDX 50 56 53 57 67 58 86 59 51 60 52 61 66 63 87 64 54 65 38 66
REMARK SMILES IDX 39 67 47 68 40 69 42 70 48 71 41 72 43 73 44 74 45 75 46 76
REMARK SMILES IDX 70 77 71 78 79 79 72 80 74 81 80 82 73 83 75 84 76 85 77 86
REMARK SMILES IDX 78 87 55 88 56 89 64 90 57 91 59 92 65 93 58 94 60 95 61 96
REMARK SMILES IDX 62 97 63 98
REMARK H PARENT 9 13 4 26 85 51 53 62
REMARK Flexibility Score: inf
ROOT
ATOM      1  C   UNL A   1      30.920  24.549  26.272  1.00  0.00     0.188 C 
ENDROOT
BRANCH   1   2
ATOM      2  O   UNL A   1      32.015  24.088  27.056  1.00  0.00    -0.376 OA
BRANCH   2   3
ATOM      3  C   UNL A   1      32.232  22.683  27.162  1.00  0.00     0.202 C 
BRANCH   3   4
ATOM      4  C   UNL A   1      33.222  22.058  26.175  1.00  0.00     0.261 C 
BRANCH   4   5
ATOM      5  O   UNL A   1      34.203  23.016  25.742  1.00  0.00    -0.463 OA
BRANCH   5   6
ATOM      6  C   UNL A   1      34.372  23.090  24.401  1.00  0.00     0.308 C 
ATOM      7  O   UNL A   1      34.213  22.148  23.635  1.00  0.00    -0.252 OA
BRANCH   6   8
ATOM      8  C   UNL A   1      34.560  24.514  23.940  1.00  0.00     0.160 C 
BRANCH   8   9
ATOM      9  C   UNL A   1      33.367  25.376  23.504  1.00  0.00     0.184 C 
ATOM     10  N   UNL A   1      32.373  27.236  22.112  1.00  0.00    -0.326 N 
ATOM     11  C   UNL A   1      31.371  26.272  21.655  1.00  0.00     0.291 C 
ATOM     12  C   UNL A   1      33.611  26.543  22.522  1.00  0.00     0.295 C 
ATOM     13  H   UNL A   1      32.608  27.794  21.290  1.00  0.00     0.348 HD
ATOM     14  C   UNL A   1      31.186  25.072  22.599  1.00  0.00     0.222 C 
ATOM     15  O   UNL A   1      32.433  24.444  22.897  1.00  0.00    -0.366 OA
BRANCH  10  16
ATOM     16  C   UNL A   1      31.927  28.382  22.928  1.00  0.00     0.320 C 
BRANCH  16  17
ATOM     17  C   UNL A   1      30.524  28.906  22.712  1.00  0.00     0.108 A 
ATOM     18  C   UNL A   1      29.026  30.304  21.867  1.00  0.00     0.189 A 
ATOM     19  N   UNL A   1      30.310  30.038  21.912  1.00  0.00    -0.219 NA
ATOM     20  S   UNL A   1      28.006  29.310  22.798  1.00  0.00    -0.105 S 
ATOM     21  C   UNL A   1      29.341  28.276  23.074  1.00  0.00     0.098 A 
BRANCH  18  22
ATOM     22  N   UNL A   1      28.338  31.233  21.151  1.00  0.00    -0.302 N 
ATOM     23  C   UNL A   1      28.705  33.076  22.785  1.00  0.00     0.114 C 
ATOM     24  C   UNL A   1      28.116  32.522  21.519  1.00  0.00     0.223 C 
ATOM     25  O   UNL A   1      27.533  33.263  20.726  1.00  0.00    -0.275 OA
ATOM     26  H   UNL A   1      27.967  30.946  20.286  1.00  0.00     0.172 HD
ENDBRANCH  18  22
ENDBRANCH  16  17
ENDBRANCH  10  16
ENDBRANCH   8   9
ENDBRANCH   6   8
ENDBRANCH   5   6
ENDBRANCH   4   5
ENDBRANCH   3   4
ENDBRANCH   2   3
ENDBRANCH   1   2
BRANCH   1  27
ATOM     27  C   UNL A   1      30.726  26.068  26.096  1.00  0.00     0.188 C 
BRANCH  27  28
ATOM     28  O   UNL A   1      31.872  26.877  26.320  1.00  0.00    -0.376 OA
BRANCH  28  29
ATOM     29  C   UNL A   1      31.584  28.273  26.432  1.00  0.00     0.202 C 
BRANCH  29  30
ATOM     30  C   UNL A   1      32.806  29.133  26.780  1.00  0.00     0.261 C 
BRANCH  30  31
ATOM     31  O   UNL A   1      32.687  30.474  26.267  1.00  0.00    -0.460 OA
BRANCH  31  32
ATOM     32  C   UNL A   1      33.116  31.466  27.077  1.00  0.00     0.338 C 
ATOM     33  O   UNL A   1      32.512  32.482  27.365  1.00  0.00    -0.246 OA
BRANCH  32  34
ATOM     34  C   UNL A   1      34.447  31.102  27.606  1.00  0.00     0.060 A 
ATOM     35  C   UNL A   1      34.704  29.799  28.051  1.00  0.00     0.016 A 
ATOM     36  C   UNL A   1      35.415  32.092  27.751  1.00  0.00     0.016 A 
ATOM     37  C   UNL A   1      35.916  29.491  28.668  1.00  0.00     0.010 A 
ATOM     38  C   UNL A   1      36.638  31.777  28.353  1.00  0.00     0.010 A 
ATOM     39  C   UNL A   1      36.884  30.484  28.849  1.00  0.00    -0.014 A 
BRANCH  39  40
ATOM     40  C   UNL A   1      38.108  30.200  29.640  1.00  0.00     0.031 A 
ATOM     41  C   UNL A   1      39.129  29.227  29.114  1.00  0.00     0.074 A 
ATOM     42  C   UNL A   1      38.316  30.816  30.818  1.00  0.00     0.049 A 
ATOM     43  N   UNL A   1      40.232  28.803  29.676  1.00  0.00    -0.248 NA
ATOM     44  C   UNL A   1      38.889  28.675  27.772  1.00  0.00     0.031 C 
ATOM     45  C   UNL A   1      37.434  31.815  31.419  1.00  0.00     0.029 A 
ATOM     46  N   UNL A   1      39.325  30.662  31.738  1.00  0.00    -0.354 N 
ATOM     47  C   UNL A   1      40.816  27.939  28.756  1.00  0.00     0.074 A 
ATOM     48  C   UNL A   1      39.945  27.893  27.603  1.00  0.00     0.031 C 
ATOM     49  C   UNL A   1      37.915  32.152  32.626  1.00  0.00     0.029 A 
ATOM     50  C   UNL A   1      39.109  31.357  32.904  1.00  0.00     0.049 A 
ATOM     51  H   UNL A   1      40.123  30.108  31.578  1.00  0.00     0.167 HD
ATOM     52  C   UNL A   1      41.977  27.252  28.855  1.00  0.00     0.034 A 
ATOM     53  C   UNL A   1      39.763  31.314  34.083  1.00  0.00     0.034 A 
ATOM     54  C   UNL A   1      42.827  27.262  30.012  1.00  0.00     0.049 A 
ATOM     55  C   UNL A   1      40.967  30.424  34.227  1.00  0.00     0.074 A 
ATOM     56  C   UNL A   1      44.016  26.582  30.212  1.00  0.00     0.029 A 
ATOM     57  N   UNL A   1      42.562  27.959  31.180  1.00  0.00    -0.354 N 
ATOM     58  N   UNL A   1      41.560  29.686  33.320  1.00  0.00    -0.248 NA
ATOM     59  C   UNL A   1      41.599  30.367  35.553  1.00  0.00     0.031 C 
ATOM     60  C   UNL A   1      44.451  26.842  31.517  1.00  0.00     0.029 A 
ATOM     61  C   UNL A   1      43.545  27.701  32.118  1.00  0.00     0.049 A 
ATOM     62  H   UNL A   1      41.788  28.552  31.320  1.00  0.00     0.167 HD
ATOM     63  C   UNL A   1      42.646  29.097  33.958  1.00  0.00     0.074 A 
ATOM     64  C   UNL A   1      42.642  29.581  35.323  1.00  0.00     0.031 C 
ATOM     65  C   UNL A   1      43.555  28.220  33.461  1.00  0.00     0.034 A 
BRANCH  52  66
ATOM     66  C   UNL A   1      42.400  26.430  27.670  1.00  0.00     0.023 A 
ATOM     67  C   UNL A   1      43.235  27.008  26.693  1.00  0.00     0.012 A 
ATOM     68  C   UNL A   1      42.019  25.080  27.552  1.00  0.00     0.148 A 
ATOM     69  C   UNL A   1      43.678  26.253  25.607  1.00  0.00     0.002 A 
ATOM     70  C   UNL A   1      42.487  24.328  26.482  1.00  0.00     0.091 A 
ATOM     71  F   UNL A   1      41.202  24.563  28.480  1.00  0.00    -0.205 F 
ATOM     72  C   UNL A   1      43.312  24.913  25.506  1.00  0.00     0.022 A 
BRANCH  70  73
ATOM     73  S   UNL A   1      42.111  22.582  26.289  1.00  0.00     0.127 S 
ATOM     74  O   UNL A   1      40.649  22.590  26.308  1.00  0.00    -0.237 OA
ATOM     75  O   UNL A   1      42.702  22.280  24.986  1.00  0.00    -0.237 OA
ATOM     76  O   UNL A   1      42.746  21.909  27.415  1.00  0.00    -0.744 OA
ENDBRANCH  70  73
ENDBRANCH  52  66
BRANCH  53  77
ATOM     77  C   UNL A   1      39.270  32.131  35.228  1.00  0.00     0.023 A 
ATOM     78  C   UNL A   1      38.358  31.574  36.145  1.00  0.00     0.012 A 
ATOM     79  C   UNL A   1      39.731  33.447  35.433  1.00  0.00     0.148 A 
ATOM     80  C   UNL A   1      37.910  32.317  37.238  1.00  0.00     0.002 A 
ATOM     81  C   UNL A   1      39.328  34.157  36.557  1.00  0.00     0.091 A 
ATOM     82  F   UNL A   1      40.567  33.978  34.528  1.00  0.00    -0.205 F 
ATOM     83  C   UNL A   1      38.405  33.601  37.453  1.00  0.00     0.022 A 
BRANCH  81  84
ATOM     84  S   UNL A   1      40.044  35.751  36.974  1.00  0.00     0.127 S 
ATOM     85  O   UNL A   1      39.666  36.563  35.821  1.00  0.00    -0.237 OA
ATOM     86  O   UNL A   1      39.350  36.086  38.219  1.00  0.00    -0.237 OA
ATOM     87  O   UNL A   1      41.469  35.498  37.141  1.00  0.00    -0.744 OA
ENDBRANCH  81  84
ENDBRANCH  53  77
BRANCH  65  88
ATOM     88  C   UNL A   1      44.634  27.730  34.389  1.00  0.00     0.023 A 
ATOM     89  C   UNL A   1      45.855  28.429  34.465  1.00  0.00     0.012 A 
ATOM     90  C   UNL A   1      44.412  26.631  35.240  1.00  0.00     0.148 A 
ATOM     91  C   UNL A   1      46.848  28.026  35.357  1.00  0.00     0.002 A 
ATOM     92  C   UNL A   1      45.389  26.260  36.156  1.00  0.00     0.091 A 
ATOM     93  F   UNL A   1      43.252  25.964  35.138  1.00  0.00    -0.205 F 
ATOM     94  C   UNL A   1      46.611  26.950  36.210  1.00  0.00     0.022 A 
BRANCH  92  95
ATOM     95  S   UNL A   1      45.125  24.945  37.352  1.00  0.00     0.127 S 
ATOM     96  O   UNL A   1      44.021  25.480  38.146  1.00  0.00    -0.237 OA
ATOM     97  O   UNL A   1      44.771  23.809  36.500  1.00  0.00    -0.237 OA
ATOM     98  O   UNL A   1      46.392  24.792  38.056  1.00  0.00    -0.744 OA
ENDBRANCH  92  95
ENDBRANCH  65  88
ENDBRANCH  39  40
ENDBRANCH  32  34
ENDBRANCH  31  32
ENDBRANCH  30  31
ENDBRANCH  29  30
ENDBRANCH  28  29
ENDBRANCH  27  28
ENDBRANCH   1  27
TORSDOF 24
ENDMDL
MODEL 3
REMARK VINA RESULT:     -10.0      5.776      8.028
REMARK SMILES CC(=O)Nc1nc(C[N@@H+]2CCO[C@@H](CC(=O)OCCOCCOCCOC(=O)c3ccc(-c4c5nc(c(-c6cccc(S(=O)(=O)[O-])c6F)c6ccc([nH]6)c(-c6cccc(S(=O)(=O)[O-])c6F)c6nc(c(-c7cccc(S(=O)(=O)[O-])c7F)c7ccc4[nH]7)C=C6)C=C5)cc3)C2)cs1
REMARK SMILES IDX 21 1 20 2 19 3 18 4 17 5 15 6 16 7 14 8 13 9 9 10 10 11
REMARK SMILES IDX 92 12 11 14 12 15 8 16 7 17 5 18 6 19 94 20 93 21 4 22 1 23
REMARK SMILES IDX 2 24 3 25 22 27 23 28 24 29 25 30 26 31 27 32 28 33 29 34
REMARK SMILES IDX 30 35 91 36 31 37 90 38 32 39 33 40 34 41 84 42 35 43 89 44
REMARK SMILES IDX 83 45 85 46 36 47 88 48 82 49 81 50 37 52 69 53 49 54 68 55
REMARK SMILES IDX 50 56 53 57 67 58 86 59 51 60 52 61 66 63 87 64 54 65 38 66
REMARK SMILES IDX 39 67 47 68 40 69 42 70 48 71 41 72 43 73 44 74 45 75 46 76
REMARK SMILES IDX 70 77 71 78 79 79 72 80 74 81 80 82 73 83 75 84 76 85 77 86
REMARK SMILES IDX 78 87 55 88 56 89 64 90 57 91 59 92 65 93 58 94 60 95 61 96
REMARK SMILES IDX 62 97 63 98
REMARK H PARENT 9 13 4 26 85 51 53 62
REMARK Flexibility Score: inf
ROOT
ATOM      1  C   UNL A   1      40.561  21.649  26.585  1.00  0.00     0.188 C 
ENDROOT
BRANCH   1   2
ATOM      2  O   UNL A   1      39.245  22.071  26.239  1.00  0.00    -0.376 OA
BRANCH   2   3
ATOM      3  C   UNL A   1      38.876  23.424  26.497  1.00  0.00     0.202 C 
BRANCH   3   4
ATOM      4  C   UNL A   1      37.404  23.791  26.289  1.00  0.00     0.261 C 
BRANCH   4   5
ATOM      5  O   UNL A   1      36.695  22.743  25.607  1.00  0.00    -0.463 OA
BRANCH   5   6
ATOM      6  C   UNL A   1      35.701  23.167  24.790  1.00  0.00     0.308 C 
ATOM      7  O   UNL A   1      35.298  22.542  23.816  1.00  0.00    -0.252 OA
BRANCH   6   8
ATOM      8  C   UNL A   1      35.002  24.382  25.347  1.00  0.00     0.160 C 
BRANCH   8   9
ATOM      9  C   UNL A   1      33.523  24.335  25.755  1.00  0.00     0.184 C 
ATOM     10  N   UNL A   1      31.066  24.321  25.166  1.00  0.00    -0.326 N 
ATOM     11  C   UNL A   1      30.945  23.105  25.972  1.00  0.00     0.291 C 
ATOM     12  C   UNL A   1      32.444  24.472  24.658  1.00  0.00     0.295 C 
ATOM     13  H   UNL A   1      30.468  24.166  24.352  1.00  0.00     0.348 HD
ATOM     14  C   UNL A   1      32.065  22.936  27.013  1.00  0.00     0.222 C 
ATOM     15  O   UNL A   1      33.356  23.053  26.414  1.00  0.00    -0.366 OA
BRANCH  10  16
ATOM     16  C   UNL A   1      30.365  25.538  25.617  1.00  0.00     0.320 C 
BRANCH  16  17
ATOM     17  C   UNL A   1      30.696  26.846  24.932  1.00  0.00     0.108 A 
ATOM     18  C   UNL A   1      30.583  28.313  23.273  1.00  0.00     0.189 A 
ATOM     19  N   UNL A   1      30.163  27.133  23.666  1.00  0.00    -0.219 NA
ATOM     20  S   UNL A   1      31.667  29.121  24.306  1.00  0.00    -0.105 S 
ATOM     21  C   UNL A   1      31.350  27.933  25.496  1.00  0.00     0.098 A 
BRANCH  18  22
ATOM     22  N   UNL A   1      30.260  29.048  22.176  1.00  0.00    -0.302 N 
ATOM     23  C   UNL A   1      28.129  29.920  23.123  1.00  0.00     0.114 C 
ATOM     24  C   UNL A   1      29.133  29.788  22.014  1.00  0.00     0.223 C 
ATOM     25  O   UNL A   1      29.018  30.457  20.985  1.00  0.00    -0.275 OA
ATOM     26  H   UNL A   1      30.901  29.042  21.429  1.00  0.00     0.172 HD
ENDBRANCH  18  22
ENDBRANCH  16  17
ENDBRANCH  10  16
ENDBRANCH   8   9
ENDBRANCH   6   8
ENDBRANCH   5   6
ENDBRANCH   4   5
ENDBRANCH   3   4
ENDBRANCH   2   3
ENDBRANCH   1   2
BRANCH   1  27
ATOM     27  C   UNL A   1      40.868  20.139  26.611  1.00  0.00     0.188 C 
BRANCH  27  28
ATOM     28  O   UNL A   1      41.603  19.669  27.731  1.00  0.00    -0.376 OA
BRANCH  28  29
ATOM     29  C   UNL A   1      42.338  18.468  27.481  1.00  0.00     0.202 C 
BRANCH  29  30
ATOM     30  C   UNL A   1      42.790  18.308  26.024  1.00  0.00     0.261 C 
BRANCH  30  31
ATOM     31  O   UNL A   1      44.130  18.795  25.816  1.00  0.00    -0.460 OA
BRANCH  31  32
ATOM     32  C   UNL A   1      44.339  19.512  24.692  1.00  0.00     0.338 C 
ATOM     33  O   UNL A   1      44.512  19.073  23.570  1.00  0.00    -0.246 OA
BRANCH  32  34
ATOM     34  C   UNL A   1      44.285  20.949  25.030  1.00  0.00     0.060 A 
ATOM     35  C   UNL A   1      44.232  21.918  24.020  1.00  0.00     0.016 A 
ATOM     36  C   UNL A   1      44.388  21.338  26.364  1.00  0.00     0.016 A 
ATOM     37  C   UNL A   1      44.311  23.273  24.337  1.00  0.00     0.010 A 
ATOM     38  C   UNL A   1      44.449  22.699  26.682  1.00  0.00     0.010 A 
ATOM     39  C   UNL A   1      44.448  23.676  25.669  1.00  0.00    -0.014 A 
BRANCH  39  40
ATOM     40  C   UNL A   1      44.688  25.104  25.998  1.00  0.00     0.031 A 
ATOM     41  C   UNL A   1      46.084  25.660  25.936  1.00  0.00     0.074 A 
ATOM     42  C   UNL A   1      43.662  25.906  26.338  1.00  0.00     0.049 A 
ATOM     43  N   UNL A   1      46.509  26.861  26.237  1.00  0.00    -0.248 NA
ATOM     44  C   UNL A   1      47.138  24.756  25.452  1.00  0.00     0.031 C 
ATOM     45  C   UNL A   1      42.256  25.509  26.389  1.00  0.00     0.029 A 
ATOM     46  N   UNL A   1      43.655  27.220  26.741  1.00  0.00    -0.354 N 
ATOM     47  C   UNL A   1      47.875  26.854  25.977  1.00  0.00     0.074 A 
ATOM     48  C   UNL A   1      48.211  25.532  25.500  1.00  0.00     0.031 C 
ATOM     49  C   UNL A   1      41.527  26.541  26.841  1.00  0.00     0.029 A 
ATOM     50  C   UNL A   1      42.419  27.653  27.160  1.00  0.00     0.049 A 
ATOM     51  H   UNL A   1      44.455  27.794  26.731  1.00  0.00     0.167 HD
ATOM     52  C   UNL A   1      48.771  27.859  26.114  1.00  0.00     0.034 A 
ATOM     53  C   UNL A   1      42.057  28.792  27.784  1.00  0.00     0.034 A 
ATOM     54  C   UNL A   1      48.453  29.163  26.625  1.00  0.00     0.049 A 
ATOM     55  C   UNL A   1      43.098  29.841  28.069  1.00  0.00     0.074 A 
ATOM     56  C   UNL A   1      49.298  30.242  26.816  1.00  0.00     0.029 A 
ATOM     57  N   UNL A   1      47.197  29.554  27.059  1.00  0.00    -0.354 N 
ATOM     58  N   UNL A   1      44.365  29.858  27.733  1.00  0.00    -0.248 NA
ATOM     59  C   UNL A   1      42.658  31.032  28.810  1.00  0.00     0.031 C 
ATOM     60  C   UNL A   1      48.558  31.275  27.401  1.00  0.00     0.029 A 
ATOM     61  C   UNL A   1      47.248  30.846  27.551  1.00  0.00     0.049 A 
ATOM     62  H   UNL A   1      46.387  28.995  27.022  1.00  0.00     0.167 HD
ATOM     63  C   UNL A   1      44.867  31.068  28.200  1.00  0.00     0.074 A 
ATOM     64  C   UNL A   1      43.762  31.766  28.824  1.00  0.00     0.031 C 
ATOM     65  C   UNL A   1      46.134  31.549  28.132  1.00  0.00     0.034 A 
BRANCH  52  66
ATOM     66  C   UNL A   1      50.188  27.587  25.696  1.00  0.00     0.023 A 
ATOM     67  C   UNL A   1      51.144  27.255  26.676  1.00  0.00     0.012 A 
ATOM     68  C   UNL A   1      50.560  27.606  24.339  1.00  0.00     0.148 A 
ATOM     69  C   UNL A   1      52.456  26.954  26.311  1.00  0.00     0.002 A 
ATOM     70  C   UNL A   1      51.862  27.279  23.980  1.00  0.00     0.091 A 
ATOM     71  F   UNL A   1      49.639  27.952  23.429  1.00  0.00    -0.205 F 
ATOM     72  C   UNL A   1      52.812  26.957  24.964  1.00  0.00     0.022 A 
BRANCH  70  73
ATOM     73  S   UNL A   1      52.405  27.208  22.269  1.00  0.00     0.127 S 
ATOM     74  O   UNL A   1      52.776  28.600  22.018  1.00  0.00    -0.237 OA
ATOM     75  O   UNL A   1      53.534  26.280  22.341  1.00  0.00    -0.237 OA
ATOM     76  O   UNL A   1      51.264  26.718  21.507  1.00  0.00    -0.744 OA
ENDBRANCH  70  73
ENDBRANCH  52  66
BRANCH  53  77
ATOM     77  C   UNL A   1      40.639  28.984  28.200  1.00  0.00     0.023 A 
ATOM     78  C   UNL A   1      39.661  29.291  27.235  1.00  0.00     0.012 A 
ATOM     79  C   UNL A   1      40.248  28.826  29.545  1.00  0.00     0.148 A 
ATOM     80  C   UNL A   1      38.324  29.446  27.604  1.00  0.00     0.002 A 
ATOM     81  C   UNL A   1      38.907  28.920  29.895  1.00  0.00     0.091 A 
ATOM     82  F   UNL A   1      41.198  28.574  30.459  1.00  0.00    -0.205 F 
ATOM     83  C   UNL A   1      37.944  29.245  28.929  1.00  0.00     0.022 A 
BRANCH  81  84
ATOM     84  S   UNL A   1      38.333  28.523  31.550  1.00  0.00     0.127 S 
ATOM     85  O   UNL A   1      36.941  28.959  31.499  1.00  0.00    -0.237 OA
ATOM     86  O   UNL A   1      38.523  27.072  31.603  1.00  0.00    -0.237 OA
ATOM     87  O   UNL A   1      39.206  29.268  32.447  1.00  0.00    -0.744 OA
ENDBRANCH  81  84
ENDBRANCH  53  77
BRANCH  65  88
ATOM     88  C   UNL A   1      46.402  32.901  28.736  1.00  0.00     0.023 A 
ATOM     89  C   UNL A   1      46.887  32.988  30.057  1.00  0.00     0.012 A 
ATOM     90  C   UNL A   1      46.253  34.076  27.976  1.00  0.00     0.148 A 
ATOM     91  C   UNL A   1      47.194  34.226  30.618  1.00  0.00     0.002 A 
ATOM     92  C   UNL A   1      46.602  35.303  28.528  1.00  0.00     0.091 A 
ATOM     93  F   UNL A   1      45.770  33.976  26.728  1.00  0.00    -0.205 F 
ATOM     94  C   UNL A   1      47.064  35.381  29.851  1.00  0.00     0.022 A 
BRANCH  92  95
ATOM     95  S   UNL A   1      46.550  36.826  27.575  1.00  0.00     0.127 S 
ATOM     96  O   UNL A   1      47.602  36.597  26.588  1.00  0.00    -0.237 OA
ATOM     97  O   UNL A   1      45.190  36.814  27.033  1.00  0.00    -0.237 OA
ATOM     98  O   UNL A   1      46.803  37.898  28.530  1.00  0.00    -0.744 OA
ENDBRANCH  92  95
ENDBRANCH  65  88
ENDBRANCH  39  40
ENDBRANCH  32  34
ENDBRANCH  31  32
ENDBRANCH  30  31
ENDBRANCH  29  30
ENDBRANCH  28  29
ENDBRANCH  27  28
ENDBRANCH   1  27
TORSDOF 24
ENDMDL
