MODEL 1
REMARK VINA RESULT:     -10.9      0.000      0.000
REMARK SMILES Nc1c(Cl)ccc2c1C=C(C(=O)OCCOCCOCCOC(=O)c1ccc(-c3c4nc(c(-c5cccc(S(=O)(=O)[O-])c5F)c5ccc([nH]5)c(-c5cccc(S(=O)(=O)[O-])c5F)c5nc(c(-c6cccc(S(=O)(=O)[O-])c6F)c6ccc3[nH]6)C=C5)C=C4)cc1)[C@@H](C(F)(F)F)O2
REMARK SMILES IDX 18 1 17 2 16 3 15 4 14 5 13 6 11 7 12 8 10 9 2 10 3 11 8 12
REMARK SMILES IDX 4 13 5 14 7 15 9 16 6 17 93 18 88 19 1 20 89 23 90 24 91 25
REMARK SMILES IDX 92 26 19 27 20 28 21 29 22 30 23 31 24 32 25 33 26 34 87 35
REMARK SMILES IDX 27 36 86 37 28 38 29 39 30 40 80 41 31 42 85 43 79 44 81 45
REMARK SMILES IDX 32 46 84 47 78 48 77 49 33 51 65 52 45 53 64 54 46 55 49 56
REMARK SMILES IDX 63 57 82 58 47 59 48 60 62 62 83 63 50 64 34 65 35 66 43 67
REMARK SMILES IDX 36 68 38 69 44 70 37 71 39 72 40 73 41 74 42 75 66 76 67 77
REMARK SMILES IDX 75 78 68 79 70 80 76 81 69 82 71 83 72 84 73 85 74 86 51 87
REMARK SMILES IDX 52 88 60 89 53 90 55 91 61 92 54 93 56 94 57 95 58 96 59 97
REMARK H PARENT 1 21 1 22 81 50 49 61
REMARK Flexibility Score: inf
ROOT
ATOM      1  C   UNL A   1      32.094  28.753  25.042  1.00  0.00     0.188 C 
ENDROOT
BRANCH   1   2
ATOM      2  C   UNL A   1      33.620  28.655  24.827  1.00  0.00     0.188 C 
BRANCH   2   3
ATOM      3  O   UNL A   1      34.093  27.332  24.978  1.00  0.00    -0.376 OA
BRANCH   3   4
ATOM      4  C   UNL A   1      33.157  26.273  24.968  1.00  0.00     0.202 C 
BRANCH   4   5
ATOM      5  C   UNL A   1      33.278  25.137  25.997  1.00  0.00     0.261 C 
BRANCH   5   6
ATOM      6  O   UNL A   1      33.162  23.801  25.488  1.00  0.00    -0.460 OA
BRANCH   6   7
ATOM      7  C   UNL A   1      31.934  23.378  25.121  1.00  0.00     0.338 C 
ATOM      8  O   UNL A   1      30.886  23.987  25.249  1.00  0.00    -0.246 OA
BRANCH   7   9
ATOM      9  C   UNL A   1      32.074  22.072  24.437  1.00  0.00     0.088 C 
ATOM     10  C   UNL A   1      32.723  18.511  25.293  1.00  0.00     0.061 A 
ATOM     11  C   UNL A   1      33.051  17.339  24.574  1.00  0.00     0.064 A 
ATOM     12  C   UNL A   1      32.466  19.693  24.560  1.00  0.00     0.042 A 
ATOM     13  Cl  UNL A   1      33.489  15.882  25.403  1.00  0.00    -0.082 Cl
ATOM     14  C   UNL A   1      33.027  17.308  23.180  1.00  0.00     0.026 A 
ATOM     15  C   UNL A   1      32.407  19.640  23.158  1.00  0.00     0.130 A 
ATOM     16  C   UNL A   1      32.313  20.999  25.203  1.00  0.00     0.029 C 
ATOM     17  C   UNL A   1      32.679  18.454  22.474  1.00  0.00     0.049 A 
ATOM     18  O   UNL A   1      32.100  20.702  22.355  1.00  0.00    -0.475 OA
ATOM     19  C   UNL A   1      31.908  22.013  22.944  1.00  0.00     0.316 C 
BRANCH  10  20
ATOM     20  N   UNL A   1      32.778  18.505  26.691  1.00  0.00    -0.397 N 
ATOM     21  H   UNL A   1      33.121  19.291  27.174  1.00  0.00     0.156 HD
ATOM     22  H   UNL A   1      32.473  17.715  27.192  1.00  0.00     0.156 HD
ENDBRANCH  10  20
BRANCH  19  23
ATOM     23  C   UNL A   1      32.831  22.996  22.208  1.00  0.00     0.430 C 
ATOM     24  F   UNL A   1      34.095  22.943  22.701  1.00  0.00    -0.167 F 
ATOM     25  F   UNL A   1      32.924  22.716  20.887  1.00  0.00    -0.167 F 
ATOM     26  F   UNL A   1      32.409  24.275  22.322  1.00  0.00    -0.167 F 
ENDBRANCH  19  23
ENDBRANCH   7   9
ENDBRANCH   6   7
ENDBRANCH   5   6
ENDBRANCH   4   5
ENDBRANCH   3   4
ENDBRANCH   2   3
ENDBRANCH   1   2
BRANCH   1  27
ATOM     27  O   UNL A   1      31.524  29.990  25.458  1.00  0.00    -0.376 OA
BRANCH  27  28
ATOM     28  C   UNL A   1      31.800  30.457  26.776  1.00  0.00     0.202 C 
BRANCH  28  29
ATOM     29  C   UNL A   1      31.847  31.970  27.035  1.00  0.00     0.261 C 
BRANCH  29  30
ATOM     30  O   UNL A   1      33.134  32.577  26.824  1.00  0.00    -0.460 OA
BRANCH  30  31
ATOM     31  C   UNL A   1      33.699  33.141  27.922  1.00  0.00     0.338 C 
ATOM     32  O   UNL A   1      33.201  33.967  28.667  1.00  0.00    -0.246 OA
BRANCH  31  33
ATOM     33  C   UNL A   1      34.975  32.466  28.221  1.00  0.00     0.060 A 
ATOM     34  C   UNL A   1      34.949  31.100  28.541  1.00  0.00     0.016 A 
ATOM     35  C   UNL A   1      36.172  33.182  28.265  1.00  0.00     0.016 A 
ATOM     36  C   UNL A   1      36.122  30.445  28.913  1.00  0.00     0.010 A 
ATOM     37  C   UNL A   1      37.340  32.532  28.679  1.00  0.00     0.010 A 
ATOM     38  C   UNL A   1      37.313  31.171  29.030  1.00  0.00    -0.014 A 
BRANCH  38  39
ATOM     39  C   UNL A   1      38.472  30.556  29.714  1.00  0.00     0.031 A 
ATOM     40  C   UNL A   1      38.864  31.085  31.066  1.00  0.00     0.074 A 
ATOM     41  C   UNL A   1      39.167  29.553  29.148  1.00  0.00     0.049 A 
ATOM     42  N   UNL A   1      39.860  30.728  31.832  1.00  0.00    -0.248 NA
ATOM     43  C   UNL A   1      38.020  32.153  31.633  1.00  0.00     0.031 C 
ATOM     44  C   UNL A   1      38.877  28.948  27.849  1.00  0.00     0.029 A 
ATOM     45  N   UNL A   1      40.283  28.887  29.590  1.00  0.00    -0.354 N 
ATOM     46  C   UNL A   1      39.775  31.537  32.958  1.00  0.00     0.074 A 
ATOM     47  C   UNL A   1      38.628  32.398  32.786  1.00  0.00     0.031 C 
ATOM     48  C   UNL A   1      39.820  28.027  27.579  1.00  0.00     0.029 A 
ATOM     49  C   UNL A   1      40.786  27.990  28.678  1.00  0.00     0.049 A 
ATOM     50  H   UNL A   1      40.685  29.037  30.476  1.00  0.00     0.167 HD
ATOM     51  C   UNL A   1      40.578  31.554  34.045  1.00  0.00     0.034 A 
ATOM     52  C   UNL A   1      41.911  27.247  28.713  1.00  0.00     0.034 A 
ATOM     53  C   UNL A   1      41.713  30.696  34.226  1.00  0.00     0.049 A 
ATOM     54  C   UNL A   1      42.807  27.311  29.922  1.00  0.00     0.074 A 
ATOM     55  C   UNL A   1      42.562  30.622  35.317  1.00  0.00     0.029 A 
ATOM     56  N   UNL A   1      42.166  29.776  33.297  1.00  0.00    -0.354 N 
ATOM     57  N   UNL A   1      42.652  28.002  31.025  1.00  0.00    -0.248 NA
ATOM     58  C   UNL A   1      44.020  26.476  29.905  1.00  0.00     0.031 C 
ATOM     59  C   UNL A   1      43.539  29.664  35.040  1.00  0.00     0.029 A 
ATOM     60  C   UNL A   1      43.289  29.135  33.784  1.00  0.00     0.049 A 
ATOM     61  H   UNL A   1      41.751  29.606  32.421  1.00  0.00     0.167 HD
ATOM     62  C   UNL A   1      43.730  27.670  31.839  1.00  0.00     0.074 A 
ATOM     63  C   UNL A   1      44.526  26.705  31.111  1.00  0.00     0.031 C 
ATOM     64  C   UNL A   1      44.038  28.135  33.073  1.00  0.00     0.034 A 
BRANCH  51  65
ATOM     65  C   UNL A   1      40.250  32.506  35.156  1.00  0.00     0.023 A 
ATOM     66  C   UNL A   1      40.780  33.810  35.117  1.00  0.00     0.012 A 
ATOM     67  C   UNL A   1      39.321  32.155  36.152  1.00  0.00     0.148 A 
ATOM     68  C   UNL A   1      40.381  34.760  36.054  1.00  0.00     0.002 A 
ATOM     69  C   UNL A   1      38.907  33.116  37.067  1.00  0.00     0.091 A 
ATOM     70  F   UNL A   1      38.845  30.902  36.168  1.00  0.00    -0.205 F 
ATOM     71  C   UNL A   1      39.437  34.417  37.020  1.00  0.00     0.022 A 
BRANCH  69  72
ATOM     72  S   UNL A   1      37.659  32.794  38.317  1.00  0.00     0.127 S 
ATOM     73  O   UNL A   1      37.895  33.888  39.259  1.00  0.00    -0.237 OA
ATOM     74  O   UNL A   1      36.422  32.909  37.547  1.00  0.00    -0.237 OA
ATOM     75  O   UNL A   1      37.942  31.466  38.841  1.00  0.00    -0.744 OA
ENDBRANCH  69  72
ENDBRANCH  51  65
BRANCH  52  76
ATOM     76  C   UNL A   1      42.250  26.363  27.564  1.00  0.00     0.023 A 
ATOM     77  C   UNL A   1      42.999  26.878  26.491  1.00  0.00     0.012 A 
ATOM     78  C   UNL A   1      41.848  25.015  27.544  1.00  0.00     0.148 A 
ATOM     79  C   UNL A   1      43.329  26.067  25.404  1.00  0.00     0.002 A 
ATOM     80  C   UNL A   1      42.213  24.201  26.478  1.00  0.00     0.091 A 
ATOM     81  F   UNL A   1      41.123  24.554  28.572  1.00  0.00    -0.205 F 
ATOM     82  C   UNL A   1      42.944  24.728  25.402  1.00  0.00     0.022 A 
BRANCH  80  83
ATOM     83  S   UNL A   1      41.844  22.443  26.431  1.00  0.00     0.127 S 
ATOM     84  O   UNL A   1      40.383  22.446  26.437  1.00  0.00    -0.237 OA
ATOM     85  O   UNL A   1      42.456  22.044  25.164  1.00  0.00    -0.237 OA
ATOM     86  O   UNL A   1      42.477  21.875  27.613  1.00  0.00    -0.744 OA
ENDBRANCH  80  83
ENDBRANCH  52  76
BRANCH  64  87
ATOM     87  C   UNL A   1      45.274  27.613  33.751  1.00  0.00     0.023 A 
ATOM     88  C   UNL A   1      46.486  28.316  33.612  1.00  0.00     0.012 A 
ATOM     89  C   UNL A   1      45.194  26.529  34.648  1.00  0.00     0.148 A 
ATOM     90  C   UNL A   1      47.605  27.945  34.357  1.00  0.00     0.002 A 
ATOM     91  C   UNL A   1      46.304  26.189  35.413  1.00  0.00     0.091 A 
ATOM     92  F   UNL A   1      44.029  25.877  34.758  1.00  0.00    -0.205 F 
ATOM     93  C   UNL A   1      47.510  26.894  35.265  1.00  0.00     0.022 A 
BRANCH  91  94
ATOM     94  S   UNL A   1      46.257  24.904  36.669  1.00  0.00     0.127 S 
ATOM     95  O   UNL A   1      45.933  23.722  35.872  1.00  0.00    -0.237 OA
ATOM     96  O   UNL A   1      47.623  24.934  37.190  1.00  0.00    -0.237 OA
ATOM     97  O   UNL A   1      45.233  25.308  37.623  1.00  0.00    -0.744 OA
ENDBRANCH  91  94
ENDBRANCH  64  87
ENDBRANCH  38  39
ENDBRANCH  31  33
ENDBRANCH  30  31
ENDBRANCH  29  30
ENDBRANCH  28  29
ENDBRANCH  27  28
ENDBRANCH   1  27
TORSDOF 22
ENDMDL
MODEL 2
REMARK VINA RESULT:     -10.8      5.256      8.362
REMARK SMILES Nc1c(Cl)ccc2c1C=C(C(=O)OCCOCCOCCOC(=O)c1ccc(-c3c4nc(c(-c5cccc(S(=O)(=O)[O-])c5F)c5ccc([nH]5)c(-c5cccc(S(=O)(=O)[O-])c5F)c5nc(c(-c6cccc(S(=O)(=O)[O-])c6F)c6ccc3[nH]6)C=C5)C=C4)cc1)[C@@H](C(F)(F)F)O2
REMARK SMILES IDX 18 1 17 2 16 3 15 4 14 5 13 6 11 7 12 8 10 9 2 10 3 11 8 12
REMARK SMILES IDX 4 13 5 14 7 15 9 16 6 17 93 18 88 19 1 20 89 23 90 24 91 25
REMARK SMILES IDX 92 26 19 27 20 28 21 29 22 30 23 31 24 32 25 33 26 34 87 35
REMARK SMILES IDX 27 36 86 37 28 38 29 39 30 40 80 41 31 42 85 43 79 44 81 45
REMARK SMILES IDX 32 46 84 47 78 48 77 49 33 51 65 52 45 53 64 54 46 55 49 56
REMARK SMILES IDX 63 57 82 58 47 59 48 60 62 62 83 63 50 64 34 65 35 66 43 67
REMARK SMILES IDX 36 68 38 69 44 70 37 71 39 72 40 73 41 74 42 75 66 76 67 77
REMARK SMILES IDX 75 78 68 79 70 80 76 81 69 82 71 83 72 84 73 85 74 86 51 87
REMARK SMILES IDX 52 88 60 89 53 90 55 91 61 92 54 93 56 94 57 95 58 96 59 97
REMARK H PARENT 1 21 1 22 81 50 49 61
REMARK Flexibility Score: inf
ROOT
ATOM      1  C   UNL A   1      34.093  20.017  25.354  1.00  0.00     0.188 C 
ENDROOT
BRANCH   1   2
ATOM      2  C   UNL A   1      32.877  19.851  24.416  1.00  0.00     0.188 C 
BRANCH   2   3
ATOM      3  O   UNL A   1      31.678  20.288  25.022  1.00  0.00    -0.376 OA
BRANCH   3   4
ATOM      4  C   UNL A   1      31.374  21.668  25.007  1.00  0.00     0.202 C 
BRANCH   4   5
ATOM      5  C   UNL A   1      30.412  22.251  26.056  1.00  0.00     0.261 C 
BRANCH   5   6
ATOM      6  O   UNL A   1      30.606  23.628  26.403  1.00  0.00    -0.460 OA
BRANCH   6   7
ATOM      7  C   UNL A   1      31.826  23.992  26.854  1.00  0.00     0.338 C 
ATOM      8  O   UNL A   1      32.460  23.458  27.748  1.00  0.00    -0.246 OA
BRANCH   7   9
ATOM      9  C   UNL A   1      32.324  25.102  26.011  1.00  0.00     0.088 C 
ATOM     10  C   UNL A   1      30.974  27.790  23.823  1.00  0.00     0.061 A 
ATOM     11  C   UNL A   1      31.511  28.694  22.878  1.00  0.00     0.064 A 
ATOM     12  C   UNL A   1      31.869  26.952  24.528  1.00  0.00     0.042 A 
ATOM     13  Cl  UNL A   1      30.473  29.671  21.894  1.00  0.00    -0.082 Cl
ATOM     14  C   UNL A   1      32.888  28.839  22.708  1.00  0.00     0.026 A 
ATOM     15  C   UNL A   1      33.254  27.135  24.378  1.00  0.00     0.130 A 
ATOM     16  C   UNL A   1      31.412  25.852  25.378  1.00  0.00     0.029 C 
ATOM     17  C   UNL A   1      33.759  28.076  23.479  1.00  0.00     0.049 A 
ATOM     18  O   UNL A   1      34.206  26.432  25.059  1.00  0.00    -0.475 OA
ATOM     19  C   UNL A   1      33.806  25.350  25.938  1.00  0.00     0.316 C 
BRANCH  10  20
ATOM     20  N   UNL A   1      29.587  27.661  23.948  1.00  0.00    -0.397 N 
ATOM     21  H   UNL A   1      29.009  27.764  23.158  1.00  0.00     0.156 HD
ATOM     22  H   UNL A   1      29.187  27.467  24.826  1.00  0.00     0.156 HD
ENDBRANCH  10  20
BRANCH  19  23
ATOM     23  C   UNL A   1      34.594  24.097  25.526  1.00  0.00     0.430 C 
ATOM     24  F   UNL A   1      33.845  23.285  24.737  1.00  0.00    -0.167 F 
ATOM     25  F   UNL A   1      35.703  24.404  24.814  1.00  0.00    -0.167 F 
ATOM     26  F   UNL A   1      34.988  23.369  26.594  1.00  0.00    -0.167 F 
ENDBRANCH  19  23
ENDBRANCH   7   9
ENDBRANCH   6   7
ENDBRANCH   5   6
ENDBRANCH   4   5
ENDBRANCH   3   4
ENDBRANCH   2   3
ENDBRANCH   1   2
BRANCH   1  27
ATOM     27  O   UNL A   1      35.393  19.679  24.879  1.00  0.00    -0.376 OA
BRANCH  27  28
ATOM     28  C   UNL A   1      36.429  20.653  24.981  1.00  0.00     0.202 C 
BRANCH  28  29
ATOM     29  C   UNL A   1      37.875  20.182  25.192  1.00  0.00     0.261 C 
BRANCH  29  30
ATOM     30  O   UNL A   1      38.833  21.240  25.370  1.00  0.00    -0.460 OA
BRANCH  30  31
ATOM     31  C   UNL A   1      39.773  21.019  26.324  1.00  0.00     0.338 C 
ATOM     32  O   UNL A   1      40.355  19.974  26.560  1.00  0.00    -0.246 OA
BRANCH  31  33
ATOM     33  C   UNL A   1      40.154  22.301  26.947  1.00  0.00     0.060 A 
ATOM     34  C   UNL A   1      39.542  23.475  26.485  1.00  0.00     0.016 A 
ATOM     35  C   UNL A   1      41.157  22.357  27.915  1.00  0.00     0.016 A 
ATOM     36  C   UNL A   1      39.936  24.715  26.987  1.00  0.00     0.010 A 
ATOM     37  C   UNL A   1      41.579  23.604  28.387  1.00  0.00     0.010 A 
ATOM     38  C   UNL A   1      40.990  24.786  27.904  1.00  0.00    -0.014 A 
BRANCH  38  39
ATOM     39  C   UNL A   1      41.607  26.099  28.197  1.00  0.00     0.031 A 
ATOM     40  C   UNL A   1      40.753  27.161  28.834  1.00  0.00     0.074 A 
ATOM     41  C   UNL A   1      42.895  26.349  27.901  1.00  0.00     0.049 A 
ATOM     42  N   UNL A   1      41.065  28.390  29.147  1.00  0.00    -0.248 NA
ATOM     43  C   UNL A   1      39.366  26.788  29.167  1.00  0.00     0.031 C 
ATOM     44  C   UNL A   1      43.825  25.398  27.294  1.00  0.00     0.029 A 
ATOM     45  N   UNL A   1      43.633  27.497  28.048  1.00  0.00    -0.354 N 
ATOM     46  C   UNL A   1      39.914  28.942  29.694  1.00  0.00     0.074 A 
ATOM     47  C   UNL A   1      38.896  27.916  29.682  1.00  0.00     0.031 C 
ATOM     48  C   UNL A   1      45.000  26.016  27.081  1.00  0.00     0.029 A 
ATOM     49  C   UNL A   1      44.899  27.408  27.521  1.00  0.00     0.049 A 
ATOM     50  H   UNL A   1      43.288  28.307  28.490  1.00  0.00     0.167 HD
ATOM     51  C   UNL A   1      39.725  30.191  30.173  1.00  0.00     0.034 A 
ATOM     52  C   UNL A   1      45.855  28.349  27.384  1.00  0.00     0.034 A 
ATOM     53  C   UNL A   1      40.733  31.210  30.196  1.00  0.00     0.049 A 
ATOM     54  C   UNL A   1      45.605  29.744  27.896  1.00  0.00     0.074 A 
ATOM     55  C   UNL A   1      40.636  32.496  30.699  1.00  0.00     0.029 A 
ATOM     56  N   UNL A   1      42.012  31.069  29.688  1.00  0.00    -0.354 N 
ATOM     57  N   UNL A   1      44.548  30.218  28.509  1.00  0.00    -0.248 NA
ATOM     58  C   UNL A   1      46.686  30.729  27.720  1.00  0.00     0.031 C 
ATOM     59  C   UNL A   1      41.856  33.139  30.481  1.00  0.00     0.029 A 
ATOM     60  C   UNL A   1      42.713  32.248  29.856  1.00  0.00     0.049 A 
ATOM     61  H   UNL A   1      42.368  30.253  29.269  1.00  0.00     0.167 HD
ATOM     62  C   UNL A   1      44.844  31.543  28.811  1.00  0.00     0.074 A 
ATOM     63  C   UNL A   1      46.183  31.797  28.328  1.00  0.00     0.031 C 
ATOM     64  C   UNL A   1      44.067  32.469  29.422  1.00  0.00     0.034 A 
BRANCH  51  65
ATOM     65  C   UNL A   1      38.385  30.535  30.751  1.00  0.00     0.023 A 
ATOM     66  C   UNL A   1      38.126  30.235  32.102  1.00  0.00     0.012 A 
ATOM     67  C   UNL A   1      37.445  31.268  30.003  1.00  0.00     0.148 A 
ATOM     68  C   UNL A   1      36.949  30.669  32.706  1.00  0.00     0.002 A 
ATOM     69  C   UNL A   1      36.286  31.720  30.620  1.00  0.00     0.091 A 
ATOM     70  F   UNL A   1      37.717  31.526  28.715  1.00  0.00    -0.205 F 
ATOM     71  C   UNL A   1      36.036  31.421  31.970  1.00  0.00     0.022 A 
BRANCH  69  72
ATOM     72  S   UNL A   1      35.071  32.740  29.778  1.00  0.00     0.127 S 
ATOM     73  O   UNL A   1      34.497  31.790  28.825  1.00  0.00    -0.237 OA
ATOM     74  O   UNL A   1      34.181  33.118  30.874  1.00  0.00    -0.237 OA
ATOM     75  O   UNL A   1      35.811  33.838  29.174  1.00  0.00    -0.744 OA
ENDBRANCH  69  72
ENDBRANCH  51  65
BRANCH  52  76
ATOM     76  C   UNL A   1      47.151  28.000  26.740  1.00  0.00     0.023 A 
ATOM     77  C   UNL A   1      48.278  27.744  27.543  1.00  0.00     0.012 A 
ATOM     78  C   UNL A   1      47.262  27.903  25.340  1.00  0.00     0.148 A 
ATOM     79  C   UNL A   1      49.502  27.413  26.959  1.00  0.00     0.002 A 
ATOM     80  C   UNL A   1      48.473  27.535  24.767  1.00  0.00     0.091 A 
ATOM     81  F   UNL A   1      46.177  28.166  24.599  1.00  0.00    -0.205 F 
ATOM     82  C   UNL A   1      49.598  27.300  25.574  1.00  0.00     0.022 A 
BRANCH  80  83
ATOM     83  S   UNL A   1      48.668  27.273  23.001  1.00  0.00     0.127 S 
ATOM     84  O   UNL A   1      48.252  25.881  22.857  1.00  0.00    -0.237 OA
ATOM     85  O   UNL A   1      47.736  28.257  22.449  1.00  0.00    -0.237 OA
ATOM     86  O   UNL A   1      50.071  27.544  22.714  1.00  0.00    -0.744 OA
ENDBRANCH  80  83
ENDBRANCH  52  76
BRANCH  64  87
ATOM     87  C   UNL A   1      44.623  33.849  29.635  1.00  0.00     0.023 A 
ATOM     88  C   UNL A   1      45.327  34.132  30.820  1.00  0.00     0.012 A 
ATOM     89  C   UNL A   1      44.588  34.803  28.599  1.00  0.00     0.148 A 
ATOM     90  C   UNL A   1      45.988  35.350  30.973  1.00  0.00     0.002 A 
ATOM     91  C   UNL A   1      45.279  36.000  28.745  1.00  0.00     0.091 A 
ATOM     92  F   UNL A   1      43.907  34.507  27.483  1.00  0.00    -0.205 F 
ATOM     93  C   UNL A   1      45.976  36.276  29.932  1.00  0.00     0.022 A 
BRANCH  91  94
ATOM     94  S   UNL A   1      45.392  37.220  27.429  1.00  0.00     0.127 S 
ATOM     95  O   UNL A   1      43.985  37.546  27.206  1.00  0.00    -0.237 OA
ATOM     96  O   UNL A   1      46.172  38.283  28.062  1.00  0.00    -0.237 OA
ATOM     97  O   UNL A   1      46.058  36.555  26.317  1.00  0.00    -0.744 OA
ENDBRANCH  91  94
ENDBRANCH  64  87
ENDBRANCH  38  39
ENDBRANCH  31  33
ENDBRANCH  30  31
ENDBRANCH  29  30
ENDBRANCH  28  29
ENDBRANCH  27  28
ENDBRANCH   1  27
TORSDOF 22
ENDMDL
MODEL 3
REMARK VINA RESULT:     -10.8      1.607      1.979
REMARK SMILES Nc1c(Cl)ccc2c1C=C(C(=O)OCCOCCOCCOC(=O)c1ccc(-c3c4nc(c(-c5cccc(S(=O)(=O)[O-])c5F)c5ccc([nH]5)c(-c5cccc(S(=O)(=O)[O-])c5F)c5nc(c(-c6cccc(S(=O)(=O)[O-])c6F)c6ccc3[nH]6)C=C5)C=C4)cc1)[C@@H](C(F)(F)F)O2
REMARK SMILES IDX 18 1 17 2 16 3 15 4 14 5 13 6 11 7 12 8 10 9 2 10 3 11 8 12
REMARK SMILES IDX 4 13 5 14 7 15 9 16 6 17 93 18 88 19 1 20 89 23 90 24 91 25
REMARK SMILES IDX 92 26 19 27 20 28 21 29 22 30 23 31 24 32 25 33 26 34 87 35
REMARK SMILES IDX 27 36 86 37 28 38 29 39 30 40 80 41 31 42 85 43 79 44 81 45
REMARK SMILES IDX 32 46 84 47 78 48 77 49 33 51 65 52 45 53 64 54 46 55 49 56
REMARK SMILES IDX 63 57 82 58 47 59 48 60 62 62 83 63 50 64 34 65 35 66 43 67
REMARK SMILES IDX 36 68 38 69 44 70 37 71 39 72 40 73 41 74 42 75 66 76 67 77
REMARK SMILES IDX 75 78 68 79 70 80 76 81 69 82 71 83 72 84 73 85 74 86 51 87
REMARK SMILES IDX 52 88 60 89 53 90 55 91 61 92 54 93 56 94 57 95 58 96 59 97
REMARK H PARENT 1 21 1 22 81 50 49 61
REMARK Flexibility Score: inf
ROOT
ATOM      1  C   UNL A   1      31.955  28.937  24.966  1.00  0.00     0.188 C 
ENDROOT
BRANCH   1   2
ATOM      2  C   UNL A   1      33.488  28.986  24.787  1.00  0.00     0.188 C 
BRANCH   2   3
ATOM      3  O   UNL A   1      34.070  27.699  24.847  1.00  0.00    -0.376 OA
BRANCH   3   4
ATOM      4  C   UNL A   1      33.230  26.569  24.717  1.00  0.00     0.202 C 
BRANCH   4   5
ATOM      5  C   UNL A   1      33.276  25.458  25.779  1.00  0.00     0.261 C 
BRANCH   5   6
ATOM      6  O   UNL A   1      33.204  24.111  25.294  1.00  0.00    -0.460 OA
BRANCH   6   7
ATOM      7  C   UNL A   1      32.001  23.497  25.333  1.00  0.00     0.338 C 
ATOM      8  O   UNL A   1      30.978  23.933  25.832  1.00  0.00    -0.246 OA
BRANCH   7   9
ATOM      9  C   UNL A   1      32.099  22.229  24.576  1.00  0.00     0.088 C 
ATOM     10  C   UNL A   1      32.677  18.611  25.221  1.00  0.00     0.061 A 
ATOM     11  C   UNL A   1      32.966  17.474  24.432  1.00  0.00     0.064 A 
ATOM     12  C   UNL A   1      32.437  19.839  24.559  1.00  0.00     0.042 A 
ATOM     13  Cl  UNL A   1      33.383  15.964  25.170  1.00  0.00    -0.082 Cl
ATOM     14  C   UNL A   1      32.918  17.521  23.039  1.00  0.00     0.026 A 
ATOM     15  C   UNL A   1      32.353  19.865  23.157  1.00  0.00     0.130 A 
ATOM     16  C   UNL A   1      32.325  21.109  25.276  1.00  0.00     0.029 C 
ATOM     17  C   UNL A   1      32.585  18.713  22.403  1.00  0.00     0.049 A 
ATOM     18  O   UNL A   1      32.058  20.976  22.420  1.00  0.00    -0.475 OA
ATOM     19  C   UNL A   1      31.907  22.257  23.084  1.00  0.00     0.316 C 
BRANCH  10  20
ATOM     20  N   UNL A   1      32.756  18.526  26.615  1.00  0.00    -0.397 N 
ATOM     21  H   UNL A   1      32.794  19.347  27.157  1.00  0.00     0.156 HD
ATOM     22  H   UNL A   1      32.773  17.645  27.054  1.00  0.00     0.156 HD
ENDBRANCH  10  20
BRANCH  19  23
ATOM     23  C   UNL A   1      32.841  23.258  22.388  1.00  0.00     0.430 C 
ATOM     24  F   UNL A   1      33.066  22.902  21.097  1.00  0.00    -0.167 F 
ATOM     25  F   UNL A   1      32.316  24.506  22.354  1.00  0.00    -0.167 F 
ATOM     26  F   UNL A   1      34.044  23.342  22.998  1.00  0.00    -0.167 F 
ENDBRANCH  19  23
ENDBRANCH   7   9
ENDBRANCH   6   7
ENDBRANCH   5   6
ENDBRANCH   4   5
ENDBRANCH   3   4
ENDBRANCH   2   3
ENDBRANCH   1   2
BRANCH   1  27
ATOM     27  O   UNL A   1      31.252  30.131  25.297  1.00  0.00    -0.376 OA
BRANCH  27  28
ATOM     28  C   UNL A   1      31.460  30.710  26.582  1.00  0.00     0.202 C 
BRANCH  28  29
ATOM     29  C   UNL A   1      31.426  32.239  26.724  1.00  0.00     0.261 C 
BRANCH  29  30
ATOM     30  O   UNL A   1      32.699  32.888  26.559  1.00  0.00    -0.460 OA
BRANCH  30  31
ATOM     31  C   UNL A   1      33.220  33.440  27.684  1.00  0.00     0.338 C 
ATOM     32  O   UNL A   1      32.698  34.264  28.414  1.00  0.00    -0.246 OA
BRANCH  31  33
ATOM     33  C   UNL A   1      34.478  32.752  28.032  1.00  0.00     0.060 A 
ATOM     34  C   UNL A   1      34.431  31.381  28.324  1.00  0.00     0.016 A 
ATOM     35  C   UNL A   1      35.674  33.462  28.148  1.00  0.00     0.016 A 
ATOM     36  C   UNL A   1      35.582  30.713  28.740  1.00  0.00     0.010 A 
ATOM     37  C   UNL A   1      36.818  32.799  28.606  1.00  0.00     0.010 A 
ATOM     38  C   UNL A   1      36.768  31.431  28.930  1.00  0.00    -0.014 A 
BRANCH  38  39
ATOM     39  C   UNL A   1      37.890  30.797  29.657  1.00  0.00     0.031 A 
ATOM     40  C   UNL A   1      38.151  31.226  31.075  1.00  0.00     0.074 A 
ATOM     41  C   UNL A   1      38.665  29.865  29.074  1.00  0.00     0.049 A 
ATOM     42  N   UNL A   1      39.095  30.838  31.891  1.00  0.00    -0.248 NA
ATOM     43  C   UNL A   1      37.226  32.218  31.652  1.00  0.00     0.031 C 
ATOM     44  C   UNL A   1      38.503  29.360  27.712  1.00  0.00     0.029 A 
ATOM     45  N   UNL A   1      39.765  29.199  29.554  1.00  0.00    -0.354 N 
ATOM     46  C   UNL A   1      38.890  31.549  33.067  1.00  0.00     0.074 A 
ATOM     47  C   UNL A   1      37.729  32.386  32.867  1.00  0.00     0.031 C 
ATOM     48  C   UNL A   1      39.498  28.493  27.450  1.00  0.00     0.029 A 
ATOM     49  C   UNL A   1      40.373  28.396  28.619  1.00  0.00     0.049 A 
ATOM     50  H   UNL A   1      40.088  29.288  30.480  1.00  0.00     0.167 HD
ATOM     51  C   UNL A   1      39.601  31.501  34.214  1.00  0.00     0.034 A 
ATOM     52  C   UNL A   1      41.517  27.686  28.690  1.00  0.00     0.034 A 
ATOM     53  C   UNL A   1      40.748  30.666  34.422  1.00  0.00     0.049 A 
ATOM     54  C   UNL A   1      42.310  27.678  29.971  1.00  0.00     0.074 A 
ATOM     55  C   UNL A   1      41.507  30.529  35.570  1.00  0.00     0.029 A 
ATOM     56  N   UNL A   1      41.308  29.839  33.464  1.00  0.00    -0.354 N 
ATOM     57  N   UNL A   1      42.041  28.272  31.108  1.00  0.00    -0.248 NA
ATOM     58  C   UNL A   1      43.550  26.885  29.989  1.00  0.00     0.031 C 
ATOM     59  C   UNL A   1      42.539  29.627  35.302  1.00  0.00     0.029 A 
ATOM     60  C   UNL A   1      42.411  29.195  33.991  1.00  0.00     0.049 A 
ATOM     61  H   UNL A   1      40.972  29.729  32.545  1.00  0.00     0.167 HD
ATOM     62  C   UNL A   1      43.061  27.907  31.980  1.00  0.00     0.074 A 
ATOM     63  C   UNL A   1      43.948  27.029  31.248  1.00  0.00     0.031 C 
ATOM     64  C   UNL A   1      43.251  28.279  33.268  1.00  0.00     0.034 A 
BRANCH  51  65
ATOM     65  C   UNL A   1      39.149  32.349  35.365  1.00  0.00     0.023 A 
ATOM     66  C   UNL A   1      38.291  31.790  36.332  1.00  0.00     0.012 A 
ATOM     67  C   UNL A   1      39.678  33.639  35.559  1.00  0.00     0.148 A 
ATOM     68  C   UNL A   1      37.970  32.503  37.484  1.00  0.00     0.002 A 
ATOM     69  C   UNL A   1      39.375  34.332  36.724  1.00  0.00     0.091 A 
ATOM     70  F   UNL A   1      40.483  34.147  34.614  1.00  0.00    -0.205 F 
ATOM     71  C   UNL A   1      38.520  33.767  37.686  1.00  0.00     0.022 A 
BRANCH  69  72
ATOM     72  S   UNL A   1      40.071  35.942  37.106  1.00  0.00     0.127 S 
ATOM     73  O   UNL A   1      41.489  35.621  37.268  1.00  0.00    -0.237 OA
ATOM     74  O   UNL A   1      39.752  36.705  35.901  1.00  0.00    -0.237 OA
ATOM     75  O   UNL A   1      39.406  36.395  38.320  1.00  0.00    -0.744 OA
ENDBRANCH  69  72
ENDBRANCH  51  65
BRANCH  52  76
ATOM     76  C   UNL A   1      41.981  26.910  27.507  1.00  0.00     0.023 A 
ATOM     77  C   UNL A   1      42.635  27.574  26.454  1.00  0.00     0.012 A 
ATOM     78  C   UNL A   1      41.790  25.517  27.434  1.00  0.00     0.148 A 
ATOM     79  C   UNL A   1      43.078  26.865  25.336  1.00  0.00     0.002 A 
ATOM     80  C   UNL A   1      42.269  24.811  26.337  1.00  0.00     0.091 A 
ATOM     81  F   UNL A   1      41.151  24.911  28.444  1.00  0.00    -0.205 F 
ATOM     82  C   UNL A   1      42.904  25.484  25.282  1.00  0.00     0.022 A 
BRANCH  80  83
ATOM     83  S   UNL A   1      42.174  23.020  26.222  1.00  0.00     0.127 S 
ATOM     84  O   UNL A   1      42.781  22.773  24.917  1.00  0.00    -0.237 OA
ATOM     85  O   UNL A   1      42.981  22.604  27.369  1.00  0.00    -0.237 OA
ATOM     86  O   UNL A   1      40.759  22.693  26.330  1.00  0.00    -0.744 OA
ENDBRANCH  80  83
ENDBRANCH  52  76
BRANCH  64  87
ATOM     87  C   UNL A   1      44.446  27.741  34.004  1.00  0.00     0.023 A 
ATOM     88  C   UNL A   1      44.346  26.505  34.671  1.00  0.00     0.012 A 
ATOM     89  C   UNL A   1      45.699  28.376  33.897  1.00  0.00     0.148 A 
ATOM     90  C   UNL A   1      45.478  25.909  35.224  1.00  0.00     0.002 A 
ATOM     91  C   UNL A   1      46.829  27.758  34.420  1.00  0.00     0.091 A 
ATOM     92  F   UNL A   1      45.765  29.553  33.260  1.00  0.00    -0.205 F 
ATOM     93  C   UNL A   1      46.719  26.526  35.087  1.00  0.00     0.022 A 
BRANCH  91  94
ATOM     94  S   UNL A   1      48.482  28.434  34.221  1.00  0.00     0.127 S 
ATOM     95  O   UNL A   1      48.635  28.422  32.767  1.00  0.00    -0.237 OA
ATOM     96  O   UNL A   1      48.343  29.766  34.810  1.00  0.00    -0.237 OA
ATOM     97  O   UNL A   1      49.375  27.539  34.945  1.00  0.00    -0.744 OA
ENDBRANCH  91  94
ENDBRANCH  64  87
ENDBRANCH  38  39
ENDBRANCH  31  33
ENDBRANCH  30  31
ENDBRANCH  29  30
ENDBRANCH  28  29
ENDBRANCH  27  28
ENDBRANCH   1  27
TORSDOF 22
ENDMDL
