MODEL 1
REMARK VINA RESULT:      -9.5      0.000      0.000
REMARK SMILES CCC[C@H](CCCc1c(O)nc(N)[nH]c1=O)C(=O)OCCOCCOCCOC(=O)c1ccc(-c2c3nc(c(-c4cccc(S(=O)(=O)[O-])c4F)c4ccc([nH]4)c(-c4cccc(S(=O)(=O)[O-])c4F)c4nc(c(-c5cccc(S(=O)(=O)[O-])c5F)c5ccc2[nH]5)C=C4)C=C3)cc1
REMARK SMILES IDX 23 1 22 2 21 3 20 4 19 5 17 6 18 7 4 8 3 9 2 10 1 11 5 12
REMARK SMILES IDX 6 13 7 14 8 15 9 16 15 17 11 18 14 19 16 20 12 21 10 23
REMARK SMILES IDX 13 25 24 28 25 29 26 30 27 31 28 32 29 33 30 34 31 35 32 36
REMARK SMILES IDX 93 37 33 38 92 39 34 40 35 41 36 42 86 43 37 44 91 45 85 46
REMARK SMILES IDX 87 47 38 48 90 49 84 50 83 51 39 53 71 54 51 55 70 56 52 57
REMARK SMILES IDX 55 58 69 59 88 60 53 61 54 62 68 64 89 65 56 66 40 67 41 68
REMARK SMILES IDX 49 69 42 70 44 71 50 72 43 73 45 74 46 75 47 76 48 77 72 78
REMARK SMILES IDX 73 79 81 80 74 81 76 82 82 83 75 84 77 85 78 86 79 87 80 88
REMARK SMILES IDX 57 89 58 90 66 91 59 92 61 93 67 94 60 95 62 96 63 97 64 98
REMARK SMILES IDX 65 99
REMARK H PARENT 14 22 10 24 13 26 13 27 87 52 55 63
REMARK Flexibility Score: inf
ROOT
ATOM      1  C   UNL A   1      31.063  26.126  26.500  1.00  0.00     0.188 C 
ENDROOT
BRANCH   1   2
ATOM      2  O   UNL A   1      29.989  25.209  26.662  1.00  0.00    -0.376 OA
BRANCH   2   3
ATOM      3  C   UNL A   1      30.226  23.825  26.450  1.00  0.00     0.202 C 
BRANCH   3   4
ATOM      4  C   UNL A   1      31.504  23.224  27.047  1.00  0.00     0.261 C 
BRANCH   4   5
ATOM      5  O   UNL A   1      32.550  22.875  26.107  1.00  0.00    -0.463 OA
BRANCH   5   6
ATOM      6  C   UNL A   1      32.209  21.968  25.148  1.00  0.00     0.309 C 
ATOM      7  O   UNL A   1      31.090  21.881  24.654  1.00  0.00    -0.252 OA
BRANCH   6   8
ATOM      8  C   UNL A   1      33.300  20.931  24.843  1.00  0.00     0.099 C 
BRANCH   8   9
ATOM      9  C   UNL A   1      32.662  19.550  25.160  1.00  0.00     0.015 C 
BRANCH   9  10
ATOM     10  C   UNL A   1      33.503  18.281  25.021  1.00  0.00    -0.003 C 
ATOM     11  C   UNL A   1      33.753  17.854  23.580  1.00  0.00     0.004 C 
ENDBRANCH   9  10
ENDBRANCH   8   9
BRANCH   8  12
ATOM     12  C   UNL A   1      34.717  21.215  25.400  1.00  0.00     0.015 C 
BRANCH  12  13
ATOM     13  C   UNL A   1      35.520  22.346  24.718  1.00  0.00     0.006 C 
BRANCH  13  14
ATOM     14  C   UNL A   1      35.118  22.774  23.294  1.00  0.00     0.047 C 
BRANCH  14  15
ATOM     15  C   UNL A   1      34.261  23.995  23.004  1.00  0.00     0.079 A 
ATOM     16  C   UNL A   1      33.450  24.280  21.973  1.00  0.00     0.222 A 
ATOM     17  C   UNL A   1      34.359  25.087  24.017  1.00  0.00     0.259 A 
ATOM     18  N   UNL A   1      32.899  25.501  21.700  1.00  0.00    -0.179 NA
ATOM     19  N   UNL A   1      33.887  26.304  23.633  1.00  0.00    -0.292 N 
ATOM     20  O   UNL A   1      34.875  24.921  25.117  1.00  0.00    -0.269 OA
ATOM     21  C   UNL A   1      33.184  26.482  22.491  1.00  0.00     0.203 A 
ATOM     22  H   UNL A   1      34.063  27.084  24.208  1.00  0.00     0.173 HD
BRANCH  16  23
ATOM     23  O   UNL A   1      33.205  23.368  20.986  1.00  0.00    -0.493 OA
ATOM     24  H   UNL A   1      33.906  22.848  20.645  1.00  0.00     0.295 HD
ENDBRANCH  16  23
BRANCH  21  25
ATOM     25  N   UNL A   1      32.818  27.749  22.199  1.00  0.00    -0.369 N 
ATOM     26  H   UNL A   1      32.507  28.349  22.915  1.00  0.00     0.159 HD
ATOM     27  H   UNL A   1      32.863  28.073  21.269  1.00  0.00     0.159 HD
ENDBRANCH  21  25
ENDBRANCH  14  15
ENDBRANCH  13  14
ENDBRANCH  12  13
ENDBRANCH   8  12
ENDBRANCH   6   8
ENDBRANCH   5   6
ENDBRANCH   4   5
ENDBRANCH   3   4
ENDBRANCH   2   3
ENDBRANCH   1   2
BRANCH   1  28
ATOM     28  C   UNL A   1      31.026  27.045  25.271  1.00  0.00     0.188 C 
BRANCH  28  29
ATOM     29  O   UNL A   1      30.898  28.425  25.576  1.00  0.00    -0.376 OA
BRANCH  29  30
ATOM     30  C   UNL A   1      32.097  29.176  25.533  1.00  0.00     0.202 C 
BRANCH  30  31
ATOM     31  C   UNL A   1      32.254  30.174  26.680  1.00  0.00     0.261 C 
BRANCH  31  32
ATOM     32  O   UNL A   1      33.447  30.970  26.537  1.00  0.00    -0.460 OA
BRANCH  32  33
ATOM     33  C   UNL A   1      33.851  31.749  27.552  1.00  0.00     0.338 C 
ATOM     34  O   UNL A   1      33.229  32.681  28.062  1.00  0.00    -0.246 OA
BRANCH  33  35
ATOM     35  C   UNL A   1      35.197  31.319  27.991  1.00  0.00     0.060 A 
ATOM     36  C   UNL A   1      35.444  30.003  28.401  1.00  0.00     0.016 A 
ATOM     37  C   UNL A   1      36.215  32.265  28.082  1.00  0.00     0.016 A 
ATOM     38  C   UNL A   1      36.669  29.642  28.960  1.00  0.00     0.010 A 
ATOM     39  C   UNL A   1      37.462  31.892  28.594  1.00  0.00     0.010 A 
ATOM     40  C   UNL A   1      37.687  30.588  29.065  1.00  0.00    -0.014 A 
BRANCH  40  41
ATOM     41  C   UNL A   1      38.973  30.255  29.723  1.00  0.00     0.031 A 
ATOM     42  C   UNL A   1      39.884  29.256  29.072  1.00  0.00     0.074 A 
ATOM     43  C   UNL A   1      39.292  30.802  30.909  1.00  0.00     0.049 A 
ATOM     44  N   UNL A   1      40.883  28.591  29.584  1.00  0.00    -0.248 NA
ATOM     45  C   UNL A   1      39.622  28.956  27.654  1.00  0.00     0.031 C 
ATOM     46  C   UNL A   1      38.526  31.843  31.595  1.00  0.00     0.029 A 
ATOM     47  N   UNL A   1      40.330  30.531  31.766  1.00  0.00    -0.354 N 
ATOM     48  C   UNL A   1      41.329  27.745  28.576  1.00  0.00     0.074 A 
ATOM     49  C   UNL A   1      40.498  27.989  27.417  1.00  0.00     0.031 C 
ATOM     50  C   UNL A   1      39.102  32.102  32.779  1.00  0.00     0.029 A 
ATOM     51  C   UNL A   1      40.230  31.196  32.966  1.00  0.00     0.049 A 
ATOM     52  H   UNL A   1      41.070  29.920  31.544  1.00  0.00     0.167 HD
ATOM     53  C   UNL A   1      42.344  26.851  28.622  1.00  0.00     0.034 A 
ATOM     54  C   UNL A   1      40.934  31.050  34.106  1.00  0.00     0.034 A 
ATOM     55  C   UNL A   1      43.193  26.671  29.770  1.00  0.00     0.049 A 
ATOM     56  C   UNL A   1      42.029  30.017  34.150  1.00  0.00     0.074 A 
ATOM     57  C   UNL A   1      44.256  25.801  29.926  1.00  0.00     0.029 A 
ATOM     58  N   UNL A   1      43.083  27.388  30.953  1.00  0.00    -0.354 N 
ATOM     59  N   UNL A   1      42.446  29.217  33.198  1.00  0.00    -0.248 NA
ATOM     60  C   UNL A   1      42.757  29.870  35.418  1.00  0.00     0.031 C 
ATOM     61  C   UNL A   1      44.779  25.982  31.210  1.00  0.00     0.029 A 
ATOM     62  C   UNL A   1      44.057  26.981  31.846  1.00  0.00     0.049 A 
ATOM     63  H   UNL A   1      42.410  28.086  31.131  1.00  0.00     0.167 HD
ATOM     64  C   UNL A   1      43.497  28.488  33.742  1.00  0.00     0.074 A 
ATOM     65  C   UNL A   1      43.669  28.959  35.101  1.00  0.00     0.031 C 
ATOM     66  C   UNL A   1      44.240  27.503  33.177  1.00  0.00     0.034 A 
BRANCH  53  67
ATOM     67  C   UNL A   1      42.613  26.016  27.398  1.00  0.00     0.023 A 
ATOM     68  C   UNL A   1      43.351  26.561  26.329  1.00  0.00     0.012 A 
ATOM     69  C   UNL A   1      42.207  24.668  27.340  1.00  0.00     0.148 A 
ATOM     70  C   UNL A   1      43.662  25.784  25.212  1.00  0.00     0.002 A 
ATOM     71  C   UNL A   1      42.556  23.888  26.243  1.00  0.00     0.091 A 
ATOM     72  F   UNL A   1      41.487  24.173  28.357  1.00  0.00    -0.205 F 
ATOM     73  C   UNL A   1      43.276  24.447  25.175  1.00  0.00     0.022 A 
BRANCH  71  74
ATOM     74  S   UNL A   1      42.173  22.136  26.132  1.00  0.00     0.127 S 
ATOM     75  O   UNL A   1      43.000  21.724  24.997  1.00  0.00    -0.237 OA
ATOM     76  O   UNL A   1      42.629  21.639  27.429  1.00  0.00    -0.237 OA
ATOM     77  O   UNL A   1      40.736  22.049  25.916  1.00  0.00    -0.744 OA
ENDBRANCH  71  74
ENDBRANCH  53  67
BRANCH  54  78
ATOM     78  C   UNL A   1      40.629  31.915  35.282  1.00  0.00     0.023 A 
ATOM     79  C   UNL A   1      41.483  32.995  35.577  1.00  0.00     0.012 A 
ATOM     80  C   UNL A   1      39.472  31.722  36.065  1.00  0.00     0.148 A 
ATOM     81  C   UNL A   1      41.196  33.861  36.634  1.00  0.00     0.002 A 
ATOM     82  C   UNL A   1      39.162  32.623  37.078  1.00  0.00     0.091 A 
ATOM     83  F   UNL A   1      38.684  30.674  35.787  1.00  0.00    -0.205 F 
ATOM     84  C   UNL A   1      40.029  33.685  37.373  1.00  0.00     0.022 A 
BRANCH  82  85
ATOM     85  S   UNL A   1      37.612  32.556  37.987  1.00  0.00     0.127 S 
ATOM     86  O   UNL A   1      36.663  33.068  37.001  1.00  0.00    -0.237 OA
ATOM     87  O   UNL A   1      37.490  31.127  38.274  1.00  0.00    -0.237 OA
ATOM     88  O   UNL A   1      37.811  33.389  39.165  1.00  0.00    -0.744 OA
ENDBRANCH  82  85
ENDBRANCH  54  78
BRANCH  66  89
ATOM     89  C   UNL A   1      45.320  26.874  34.015  1.00  0.00     0.023 A 
ATOM     90  C   UNL A   1      46.631  27.389  33.957  1.00  0.00     0.012 A 
ATOM     91  C   UNL A   1      45.014  25.857  34.941  1.00  0.00     0.148 A 
ATOM     92  C   UNL A   1      47.625  26.886  34.794  1.00  0.00     0.002 A 
ATOM     93  C   UNL A   1      45.998  25.395  35.805  1.00  0.00     0.091 A 
ATOM     94  F   UNL A   1      43.764  25.373  34.968  1.00  0.00    -0.205 F 
ATOM     95  C   UNL A   1      47.307  25.901  35.726  1.00  0.00     0.022 A 
BRANCH  93  96
ATOM     96  S   UNL A   1      45.659  24.205  37.108  1.00  0.00     0.127 S 
ATOM     97  O   UNL A   1      46.906  23.444  37.148  1.00  0.00    -0.237 OA
ATOM     98  O   UNL A   1      45.434  25.069  38.267  1.00  0.00    -0.237 OA
ATOM     99  O   UNL A   1      44.485  23.459  36.674  1.00  0.00    -0.744 OA
ENDBRANCH  93  96
ENDBRANCH  66  89
ENDBRANCH  40  41
ENDBRANCH  33  35
ENDBRANCH  32  33
ENDBRANCH  31  32
ENDBRANCH  30  31
ENDBRANCH  29  30
ENDBRANCH  28  29
ENDBRANCH   1  28
TORSDOF 28
ENDMDL
MODEL 2
REMARK VINA RESULT:      -9.4      2.198      8.137
REMARK SMILES CCC[C@H](CCCc1c(O)nc(N)[nH]c1=O)C(=O)OCCOCCOCCOC(=O)c1ccc(-c2c3nc(c(-c4cccc(S(=O)(=O)[O-])c4F)c4ccc([nH]4)c(-c4cccc(S(=O)(=O)[O-])c4F)c4nc(c(-c5cccc(S(=O)(=O)[O-])c5F)c5ccc2[nH]5)C=C4)C=C3)cc1
REMARK SMILES IDX 23 1 22 2 21 3 20 4 19 5 17 6 18 7 4 8 3 9 2 10 1 11 5 12
REMARK SMILES IDX 6 13 7 14 8 15 9 16 15 17 11 18 14 19 16 20 12 21 10 23
REMARK SMILES IDX 13 25 24 28 25 29 26 30 27 31 28 32 29 33 30 34 31 35 32 36
REMARK SMILES IDX 93 37 33 38 92 39 34 40 35 41 36 42 86 43 37 44 91 45 85 46
REMARK SMILES IDX 87 47 38 48 90 49 84 50 83 51 39 53 71 54 51 55 70 56 52 57
REMARK SMILES IDX 55 58 69 59 88 60 53 61 54 62 68 64 89 65 56 66 40 67 41 68
REMARK SMILES IDX 49 69 42 70 44 71 50 72 43 73 45 74 46 75 47 76 48 77 72 78
REMARK SMILES IDX 73 79 81 80 74 81 76 82 82 83 75 84 77 85 78 86 79 87 80 88
REMARK SMILES IDX 57 89 58 90 66 91 59 92 61 93 67 94 60 95 62 96 63 97 64 98
REMARK SMILES IDX 65 99
REMARK H PARENT 14 22 10 24 13 26 13 27 87 52 55 63
REMARK Flexibility Score: inf
ROOT
ATOM      1  C   UNL A   1      33.249  28.644  26.541  1.00  0.00     0.188 C 
ENDROOT
BRANCH   1   2
ATOM      2  O   UNL A   1      32.206  28.231  27.415  1.00  0.00    -0.376 OA
BRANCH   2   3
ATOM      3  C   UNL A   1      31.090  27.537  26.875  1.00  0.00     0.202 C 
BRANCH   3   4
ATOM      4  C   UNL A   1      31.143  26.005  26.869  1.00  0.00     0.261 C 
BRANCH   4   5
ATOM      5  O   UNL A   1      30.282  25.336  25.916  1.00  0.00    -0.463 OA
BRANCH   5   6
ATOM      6  C   UNL A   1      30.901  24.484  25.049  1.00  0.00     0.309 C 
ATOM      7  O   UNL A   1      30.652  23.285  24.972  1.00  0.00    -0.252 OA
BRANCH   6   8
ATOM      8  C   UNL A   1      32.074  25.108  24.280  1.00  0.00     0.099 C 
BRANCH   8   9
ATOM      9  C   UNL A   1      31.680  25.022  22.779  1.00  0.00     0.015 C 
BRANCH   9  10
ATOM     10  C   UNL A   1      31.741  26.279  21.911  1.00  0.00    -0.003 C 
ATOM     11  C   UNL A   1      31.056  27.495  22.525  1.00  0.00     0.004 C 
ENDBRANCH   9  10
ENDBRANCH   8   9
BRANCH   8  12
ATOM     12  C   UNL A   1      33.500  24.651  24.677  1.00  0.00     0.015 C 
BRANCH  12  13
ATOM     13  C   UNL A   1      34.510  24.443  23.527  1.00  0.00     0.006 C 
BRANCH  13  14
ATOM     14  C   UNL A   1      34.930  23.004  23.171  1.00  0.00     0.047 C 
BRANCH  14  15
ATOM     15  C   UNL A   1      34.347  21.778  23.852  1.00  0.00     0.079 A 
ATOM     16  C   UNL A   1      33.140  21.199  23.749  1.00  0.00     0.222 A 
ATOM     17  C   UNL A   1      35.252  21.115  24.837  1.00  0.00     0.259 A 
ATOM     18  N   UNL A   1      32.641  20.230  24.574  1.00  0.00    -0.179 NA
ATOM     19  N   UNL A   1      34.664  20.241  25.699  1.00  0.00    -0.292 N 
ATOM     20  O   UNL A   1      36.450  21.369  24.906  1.00  0.00    -0.269 OA
ATOM     21  C   UNL A   1      33.382  19.832  25.554  1.00  0.00     0.203 A 
ATOM     22  H   UNL A   1      35.190  19.894  26.455  1.00  0.00     0.173 HD
BRANCH  16  23
ATOM     23  O   UNL A   1      32.211  21.646  22.853  1.00  0.00    -0.493 OA
ATOM     24  H   UNL A   1      31.678  22.389  23.063  1.00  0.00     0.295 HD
ENDBRANCH  16  23
BRANCH  21  25
ATOM     25  N   UNL A   1      32.902  19.004  26.507  1.00  0.00    -0.369 N 
ATOM     26  H   UNL A   1      32.084  19.244  27.001  1.00  0.00     0.159 HD
ATOM     27  H   UNL A   1      33.369  18.161  26.709  1.00  0.00     0.159 HD
ENDBRANCH  21  25
ENDBRANCH  14  15
ENDBRANCH  13  14
ENDBRANCH  12  13
ENDBRANCH   8  12
ENDBRANCH   6   8
ENDBRANCH   5   6
ENDBRANCH   4   5
ENDBRANCH   3   4
ENDBRANCH   2   3
ENDBRANCH   1   2
BRANCH   1  28
ATOM     28  C   UNL A   1      32.900  29.689  25.472  1.00  0.00     0.188 C 
BRANCH  28  29
ATOM     29  O   UNL A   1      32.037  30.720  25.921  1.00  0.00    -0.376 OA
BRANCH  29  30
ATOM     30  C   UNL A   1      32.556  31.556  26.939  1.00  0.00     0.202 C 
BRANCH  30  31
ATOM     31  C   UNL A   1      32.062  33.001  26.878  1.00  0.00     0.261 C 
BRANCH  31  32
ATOM     32  O   UNL A   1      32.532  33.775  28.000  1.00  0.00    -0.460 OA
BRANCH  32  33
ATOM     33  C   UNL A   1      33.713  34.406  27.923  1.00  0.00     0.338 C 
ATOM     34  O   UNL A   1      33.975  35.406  27.253  1.00  0.00    -0.246 OA
BRANCH  33  35
ATOM     35  C   UNL A   1      34.696  33.711  28.783  1.00  0.00     0.060 A 
ATOM     36  C   UNL A   1      36.065  33.994  28.702  1.00  0.00     0.016 A 
ATOM     37  C   UNL A   1      34.258  32.692  29.626  1.00  0.00     0.016 A 
ATOM     38  C   UNL A   1      37.000  33.230  29.399  1.00  0.00     0.010 A 
ATOM     39  C   UNL A   1      35.190  31.957  30.365  1.00  0.00     0.010 A 
ATOM     40  C   UNL A   1      36.568  32.201  30.234  1.00  0.00    -0.014 A 
BRANCH  40  41
ATOM     41  C   UNL A   1      37.540  31.323  30.928  1.00  0.00     0.031 A 
ATOM     42  C   UNL A   1      37.839  31.574  32.376  1.00  0.00     0.074 A 
ATOM     43  C   UNL A   1      38.179  30.350  30.255  1.00  0.00     0.049 A 
ATOM     44  N   UNL A   1      38.843  31.156  33.098  1.00  0.00    -0.248 NA
ATOM     45  C   UNL A   1      36.883  32.425  33.106  1.00  0.00     0.031 C 
ATOM     46  C   UNL A   1      37.911  29.961  28.870  1.00  0.00     0.029 A 
ATOM     47  N   UNL A   1      39.215  29.533  30.637  1.00  0.00    -0.354 N 
ATOM     48  C   UNL A   1      38.680  31.744  34.347  1.00  0.00     0.074 A 
ATOM     49  C   UNL A   1      37.472  32.539  34.288  1.00  0.00     0.031 C 
ATOM     50  C   UNL A   1      38.778  29.002  28.508  1.00  0.00     0.029 A 
ATOM     51  C   UNL A   1      39.706  28.764  29.608  1.00  0.00     0.049 A 
ATOM     52  H   UNL A   1      39.570  29.503  31.555  1.00  0.00     0.167 HD
ATOM     53  C   UNL A   1      39.469  31.622  35.438  1.00  0.00     0.034 A 
ATOM     54  C   UNL A   1      40.814  27.998  29.544  1.00  0.00     0.034 A 
ATOM     55  C   UNL A   1      40.632  30.776  35.487  1.00  0.00     0.049 A 
ATOM     56  C   UNL A   1      41.703  27.912  30.756  1.00  0.00     0.074 A 
ATOM     57  C   UNL A   1      41.503  30.569  36.541  1.00  0.00     0.029 A 
ATOM     58  N   UNL A   1      41.078  29.986  34.437  1.00  0.00    -0.354 N 
ATOM     59  N   UNL A   1      41.548  28.471  31.933  1.00  0.00    -0.248 NA
ATOM     60  C   UNL A   1      42.914  27.087  30.638  1.00  0.00     0.031 C 
ATOM     61  C   UNL A   1      42.482  29.664  36.124  1.00  0.00     0.029 A 
ATOM     62  C   UNL A   1      42.211  29.289  34.817  1.00  0.00     0.049 A 
ATOM     63  H   UNL A   1      40.650  29.928  33.551  1.00  0.00     0.167 HD
ATOM     64  C   UNL A   1      42.626  28.049  32.702  1.00  0.00     0.074 A 
ATOM     65  C   UNL A   1      43.414  27.168  31.865  1.00  0.00     0.031 C 
ATOM     66  C   UNL A   1      42.948  28.377  33.979  1.00  0.00     0.034 A 
BRANCH  53  67
ATOM     67  C   UNL A   1      39.098  32.395  36.676  1.00  0.00     0.023 A 
ATOM     68  C   UNL A   1      38.175  31.849  37.590  1.00  0.00     0.012 A 
ATOM     69  C   UNL A   1      39.722  33.623  36.975  1.00  0.00     0.148 A 
ATOM     70  C   UNL A   1      37.863  32.523  38.772  1.00  0.00     0.002 A 
ATOM     71  C   UNL A   1      39.437  34.268  38.174  1.00  0.00     0.091 A 
ATOM     72  F   UNL A   1      40.581  34.137  36.084  1.00  0.00    -0.205 F 
ATOM     73  C   UNL A   1      38.502  33.724  39.069  1.00  0.00     0.022 A 
BRANCH  71  74
ATOM     74  S   UNL A   1      40.262  35.781  38.685  1.00  0.00     0.127 S 
ATOM     75  O   UNL A   1      39.976  35.802  40.120  1.00  0.00    -0.237 OA
ATOM     76  O   UNL A   1      41.658  35.498  38.348  1.00  0.00    -0.237 OA
ATOM     77  O   UNL A   1      39.653  36.855  37.915  1.00  0.00    -0.744 OA
ENDBRANCH  71  74
ENDBRANCH  53  67
BRANCH  54  78
ATOM     78  C   UNL A   1      41.123  27.245  28.294  1.00  0.00     0.023 A 
ATOM     79  C   UNL A   1      41.782  27.908  27.241  1.00  0.00     0.012 A 
ATOM     80  C   UNL A   1      40.833  25.871  28.164  1.00  0.00     0.148 A 
ATOM     81  C   UNL A   1      42.140  27.221  26.080  1.00  0.00     0.002 A 
ATOM     82  C   UNL A   1      41.245  25.179  27.030  1.00  0.00     0.091 A 
ATOM     83  F   UNL A   1      40.182  25.261  29.165  1.00  0.00    -0.205 F 
ATOM     84  C   UNL A   1      41.886  25.855  25.981  1.00  0.00     0.022 A 
BRANCH  82  85
ATOM     85  S   UNL A   1      41.088  23.394  26.878  1.00  0.00     0.127 S 
ATOM     86  O   UNL A   1      41.726  22.931  28.107  1.00  0.00    -0.237 OA
ATOM     87  O   UNL A   1      39.635  23.221  26.836  1.00  0.00    -0.237 OA
ATOM     88  O   UNL A   1      41.769  23.044  25.640  1.00  0.00    -0.744 OA
ENDBRANCH  82  85
ENDBRANCH  54  78
BRANCH  66  89
ATOM     89  C   UNL A   1      44.196  27.770  34.563  1.00  0.00     0.023 A 
ATOM     90  C   UNL A   1      45.409  28.485  34.502  1.00  0.00     0.012 A 
ATOM     91  C   UNL A   1      44.143  26.553  35.270  1.00  0.00     0.148 A 
ATOM     92  C   UNL A   1      46.554  27.988  35.119  1.00  0.00     0.002 A 
ATOM     93  C   UNL A   1      45.276  26.088  35.924  1.00  0.00     0.091 A 
ATOM     94  F   UNL A   1      42.981  25.883  35.303  1.00  0.00    -0.205 F 
ATOM     95  C   UNL A   1      46.485  26.798  35.841  1.00  0.00     0.022 A 
BRANCH  93  96
ATOM     96  S   UNL A   1      45.258  24.622  36.964  1.00  0.00     0.127 S 
ATOM     97  O   UNL A   1      45.041  23.563  35.981  1.00  0.00    -0.237 OA
ATOM     98  O   UNL A   1      46.597  24.643  37.553  1.00  0.00    -0.237 OA
ATOM     99  O   UNL A   1      44.175  24.820  37.918  1.00  0.00    -0.744 OA
ENDBRANCH  93  96
ENDBRANCH  66  89
ENDBRANCH  40  41
ENDBRANCH  33  35
ENDBRANCH  32  33
ENDBRANCH  31  32
ENDBRANCH  30  31
ENDBRANCH  29  30
ENDBRANCH  28  29
ENDBRANCH   1  28
TORSDOF 28
ENDMDL
MODEL 3
REMARK VINA RESULT:      -9.4      2.946      8.388
REMARK SMILES CCC[C@H](CCCc1c(O)nc(N)[nH]c1=O)C(=O)OCCOCCOCCOC(=O)c1ccc(-c2c3nc(c(-c4cccc(S(=O)(=O)[O-])c4F)c4ccc([nH]4)c(-c4cccc(S(=O)(=O)[O-])c4F)c4nc(c(-c5cccc(S(=O)(=O)[O-])c5F)c5ccc2[nH]5)C=C4)C=C3)cc1
REMARK SMILES IDX 23 1 22 2 21 3 20 4 19 5 17 6 18 7 4 8 3 9 2 10 1 11 5 12
REMARK SMILES IDX 6 13 7 14 8 15 9 16 15 17 11 18 14 19 16 20 12 21 10 23
REMARK SMILES IDX 13 25 24 28 25 29 26 30 27 31 28 32 29 33 30 34 31 35 32 36
REMARK SMILES IDX 93 37 33 38 92 39 34 40 35 41 36 42 86 43 37 44 91 45 85 46
REMARK SMILES IDX 87 47 38 48 90 49 84 50 83 51 39 53 71 54 51 55 70 56 52 57
REMARK SMILES IDX 55 58 69 59 88 60 53 61 54 62 68 64 89 65 56 66 40 67 41 68
REMARK SMILES IDX 49 69 42 70 44 71 50 72 43 73 45 74 46 75 47 76 48 77 72 78
REMARK SMILES IDX 73 79 81 80 74 81 76 82 82 83 75 84 77 85 78 86 79 87 80 88
REMARK SMILES IDX 57 89 58 90 66 91 59 92 61 93 67 94 60 95 62 96 63 97 64 98
REMARK SMILES IDX 65 99
REMARK H PARENT 14 22 10 24 13 26 13 27 87 52 55 63
REMARK Flexibility Score: inf
ROOT
ATOM      1  C   UNL A   1      30.746  26.584  26.094  1.00  0.00     0.188 C 
ENDROOT
BRANCH   1   2
ATOM      2  O   UNL A   1      30.278  25.336  25.597  1.00  0.00    -0.376 OA
BRANCH   2   3
ATOM      3  C   UNL A   1      31.214  24.418  25.051  1.00  0.00     0.202 C 
BRANCH   3   4
ATOM      4  C   UNL A   1      32.695  24.815  25.073  1.00  0.00     0.261 C 
BRANCH   4   5
ATOM      5  O   UNL A   1      33.285  25.166  23.798  1.00  0.00    -0.463 OA
BRANCH   5   6
ATOM      6  C   UNL A   1      33.997  24.181  23.180  1.00  0.00     0.309 C 
ATOM      7  O   UNL A   1      33.999  23.996  21.967  1.00  0.00    -0.252 OA
BRANCH   6   8
ATOM      8  C   UNL A   1      34.675  23.194  24.140  1.00  0.00     0.099 C 
BRANCH   8   9
ATOM      9  C   UNL A   1      36.154  23.660  24.241  1.00  0.00     0.015 C 
BRANCH   9  10
ATOM     10  C   UNL A   1      36.892  23.546  25.574  1.00  0.00    -0.003 C 
ATOM     11  C   UNL A   1      37.863  22.373  25.652  1.00  0.00     0.004 C 
ENDBRANCH   9  10
ENDBRANCH   8   9
BRANCH   8  12
ATOM     12  C   UNL A   1      34.409  21.686  23.904  1.00  0.00     0.015 C 
BRANCH  12  13
ATOM     13  C   UNL A   1      33.172  21.080  24.605  1.00  0.00     0.006 C 
BRANCH  13  14
ATOM     14  C   UNL A   1      32.464  19.885  23.938  1.00  0.00     0.047 C 
BRANCH  14  15
ATOM     15  C   UNL A   1      32.650  18.449  24.399  1.00  0.00     0.079 A 
ATOM     16  C   UNL A   1      32.717  17.918  25.630  1.00  0.00     0.222 A 
ATOM     17  C   UNL A   1      32.828  17.453  23.301  1.00  0.00     0.259 A 
ATOM     18  N   UNL A   1      33.110  16.645  25.935  1.00  0.00    -0.179 NA
ATOM     19  N   UNL A   1      33.328  16.241  23.666  1.00  0.00    -0.292 N 
ATOM     20  O   UNL A   1      32.587  17.716  22.128  1.00  0.00    -0.269 OA
ATOM     21  C   UNL A   1      33.465  15.873  24.961  1.00  0.00     0.203 A 
ATOM     22  H   UNL A   1      33.599  15.608  22.962  1.00  0.00     0.173 HD
BRANCH  16  23
ATOM     23  O   UNL A   1      32.519  18.680  26.746  1.00  0.00    -0.493 OA
ATOM     24  H   UNL A   1      33.253  18.960  27.258  1.00  0.00     0.295 HD
ENDBRANCH  16  23
BRANCH  21  25
ATOM     25  N   UNL A   1      34.022  14.664  25.189  1.00  0.00    -0.369 N 
ATOM     26  H   UNL A   1      34.689  14.303  24.561  1.00  0.00     0.159 HD
ATOM     27  H   UNL A   1      33.761  14.144  25.984  1.00  0.00     0.159 HD
ENDBRANCH  21  25
ENDBRANCH  14  15
ENDBRANCH  13  14
ENDBRANCH  12  13
ENDBRANCH   8  12
ENDBRANCH   6   8
ENDBRANCH   5   6
ENDBRANCH   4   5
ENDBRANCH   3   4
ENDBRANCH   2   3
ENDBRANCH   1   2
BRANCH   1  28
ATOM     28  C   UNL A   1      31.134  27.652  25.062  1.00  0.00     0.188 C 
BRANCH  28  29
ATOM     29  O   UNL A   1      31.063  28.984  25.544  1.00  0.00    -0.376 OA
BRANCH  29  30
ATOM     30  C   UNL A   1      32.256  29.738  25.441  1.00  0.00     0.202 C 
BRANCH  30  31
ATOM     31  C   UNL A   1      32.707  30.380  26.753  1.00  0.00     0.261 C 
BRANCH  31  32
ATOM     32  O   UNL A   1      34.067  30.854  26.677  1.00  0.00    -0.460 OA
BRANCH  32  33
ATOM     33  C   UNL A   1      34.519  31.725  27.591  1.00  0.00     0.338 C 
ATOM     34  O   UNL A   1      34.059  32.840  27.840  1.00  0.00    -0.246 OA
BRANCH  33  35
ATOM     35  C   UNL A   1      35.689  31.143  28.284  1.00  0.00     0.060 A 
ATOM     36  C   UNL A   1      35.605  29.910  28.943  1.00  0.00     0.016 A 
ATOM     37  C   UNL A   1      36.869  31.878  28.357  1.00  0.00     0.016 A 
ATOM     38  C   UNL A   1      36.660  29.439  29.724  1.00  0.00     0.010 A 
ATOM     39  C   UNL A   1      37.947  31.384  29.098  1.00  0.00     0.010 A 
ATOM     40  C   UNL A   1      37.840  30.177  29.811  1.00  0.00    -0.014 A 
BRANCH  40  41
ATOM     41  C   UNL A   1      38.949  29.742  30.692  1.00  0.00     0.031 A 
ATOM     42  C   UNL A   1      39.089  30.371  32.047  1.00  0.00     0.074 A 
ATOM     43  C   UNL A   1      39.843  28.834  30.262  1.00  0.00     0.049 A 
ATOM     44  N   UNL A   1      40.117  30.383  32.850  1.00  0.00    -0.248 NA
ATOM     45  C   UNL A   1      37.914  31.097  32.558  1.00  0.00     0.031 C 
ATOM     46  C   UNL A   1      39.762  28.096  29.001  1.00  0.00     0.029 A 
ATOM     47  N   UNL A   1      41.019  28.404  30.826  1.00  0.00    -0.354 N 
ATOM     48  C   UNL A   1      39.741  31.172  33.931  1.00  0.00     0.074 A 
ATOM     49  C   UNL A   1      38.384  31.611  33.686  1.00  0.00     0.031 C 
ATOM     50  C   UNL A   1      40.854  27.327  28.873  1.00  0.00     0.029 A 
ATOM     51  C   UNL A   1      41.743  27.573  30.003  1.00  0.00     0.049 A 
ATOM     52  H   UNL A   1      41.314  28.665  31.729  1.00  0.00     0.167 HD
ATOM     53  C   UNL A   1      40.468  31.492  35.026  1.00  0.00     0.034 A 
ATOM     54  C   UNL A   1      43.003  27.110  30.122  1.00  0.00     0.034 A 
ATOM     55  C   UNL A   1      41.795  30.992  35.273  1.00  0.00     0.049 A 
ATOM     56  C   UNL A   1      43.811  27.515  31.326  1.00  0.00     0.074 A 
ATOM     57  C   UNL A   1      42.623  31.244  36.352  1.00  0.00     0.029 A 
ATOM     58  N   UNL A   1      42.481  30.126  34.434  1.00  0.00    -0.354 N 
ATOM     59  N   UNL A   1      43.454  28.263  32.344  1.00  0.00    -0.248 NA
ATOM     60  C   UNL A   1      45.189  27.010  31.406  1.00  0.00     0.031 C 
ATOM     61  C   UNL A   1      43.815  30.540  36.157  1.00  0.00     0.029 A 
ATOM     62  C   UNL A   1      43.722  29.832  34.969  1.00  0.00     0.049 A 
ATOM     63  H   UNL A   1      42.135  29.771  33.582  1.00  0.00     0.167 HD
ATOM     64  C   UNL A   1      44.552  28.301  33.195  1.00  0.00     0.074 A 
ATOM     65  C   UNL A   1      45.579  27.480  32.585  1.00  0.00     0.031 C 
ATOM     66  C   UNL A   1      44.707  28.970  34.365  1.00  0.00     0.034 A 
BRANCH  53  67
ATOM     67  C   UNL A   1      39.847  32.402  36.053  1.00  0.00     0.023 A 
ATOM     68  C   UNL A   1      38.981  31.867  37.028  1.00  0.00     0.012 A 
ATOM     69  C   UNL A   1      40.182  33.770  36.104  1.00  0.00     0.148 A 
ATOM     70  C   UNL A   1      38.443  32.683  38.023  1.00  0.00     0.002 A 
ATOM     71  C   UNL A   1      39.674  34.568  37.123  1.00  0.00     0.091 A 
ATOM     72  F   UNL A   1      40.990  34.265  35.155  1.00  0.00    -0.205 F 
ATOM     73  C   UNL A   1      38.799  34.028  38.078  1.00  0.00     0.022 A 
BRANCH  71  74
ATOM     74  S   UNL A   1      40.130  36.294  37.327  1.00  0.00     0.127 S 
ATOM     75  O   UNL A   1      41.552  36.187  37.655  1.00  0.00    -0.237 OA
ATOM     76  O   UNL A   1      39.852  36.844  35.999  1.00  0.00    -0.237 OA
ATOM     77  O   UNL A   1      39.285  36.814  38.391  1.00  0.00    -0.744 OA
ENDBRANCH  71  74
ENDBRANCH  53  67
BRANCH  54  78
ATOM     78  C   UNL A   1      43.560  26.201  29.078  1.00  0.00     0.023 A 
ATOM     79  C   UNL A   1      43.225  24.834  29.110  1.00  0.00     0.012 A 
ATOM     80  C   UNL A   1      44.357  26.687  28.020  1.00  0.00     0.148 A 
ATOM     81  C   UNL A   1      43.680  23.965  28.117  1.00  0.00     0.002 A 
ATOM     82  C   UNL A   1      44.756  25.828  27.002  1.00  0.00     0.091 A 
ATOM     83  F   UNL A   1      44.688  27.986  28.018  1.00  0.00    -0.205 F 
ATOM     84  C   UNL A   1      44.431  24.464  27.055  1.00  0.00     0.022 A 
BRANCH  82  85
ATOM     85  S   UNL A   1      45.604  26.409  25.526  1.00  0.00     0.127 S 
ATOM     86  O   UNL A   1      44.708  27.465  25.062  1.00  0.00    -0.237 OA
ATOM     87  O   UNL A   1      46.877  26.879  26.073  1.00  0.00    -0.237 OA
ATOM     88  O   UNL A   1      45.717  25.247  24.656  1.00  0.00    -0.744 OA
ENDBRANCH  82  85
ENDBRANCH  54  78
BRANCH  66  89
ATOM     89  C   UNL A   1      46.025  28.835  35.079  1.00  0.00     0.023 A 
ATOM     90  C   UNL A   1      47.042  29.780  34.842  1.00  0.00     0.012 A 
ATOM     91  C   UNL A   1      46.213  27.846  36.065  1.00  0.00     0.148 A 
ATOM     92  C   UNL A   1      48.235  29.731  35.561  1.00  0.00     0.002 A 
ATOM     93  C   UNL A   1      47.384  27.833  36.812  1.00  0.00     0.091 A 
ATOM     94  F   UNL A   1      45.236  26.947  36.264  1.00  0.00    -0.205 F 
ATOM     95  C   UNL A   1      48.400  28.768  36.554  1.00  0.00     0.022 A 
BRANCH  93  96
ATOM     96  S   UNL A   1      47.643  26.698  38.181  1.00  0.00     0.127 S 
ATOM     97  O   UNL A   1      46.843  27.317  39.236  1.00  0.00    -0.237 OA
ATOM     98  O   UNL A   1      47.098  25.447  37.656  1.00  0.00    -0.237 OA
ATOM     99  O   UNL A   1      49.081  26.679  38.419  1.00  0.00    -0.744 OA
ENDBRANCH  93  96
ENDBRANCH  66  89
ENDBRANCH  40  41
ENDBRANCH  33  35
ENDBRANCH  32  33
ENDBRANCH  31  32
ENDBRANCH  30  31
ENDBRANCH  29  30
ENDBRANCH  28  29
ENDBRANCH   1  28
TORSDOF 28
ENDMDL
