MODEL 1
REMARK VINA RESULT:     -11.4      0.000      0.000
REMARK SMILES CCCOC(=O)c1c(NC(=O)[C@@H]2CC=CC[C@H]2C(=O)OCCOCCOCCOC(=O)c2ccc(-c3c4nc(c(-c5cccc(S(=O)(=O)[O-])c5F)c5ccc([nH]5)c(-c5cccc(S(=O)(=O)[O-])c5F)c5nc(c(-c6cccc(S(=O)(=O)[O-])c6F)c6ccc3[nH]6)C=C5)C=C4)cc2)sc2c1CCCC2
REMARK SMILES IDX 23 1 22 2 21 3 20 4 18 5 19 6 17 7 12 8 13 9 14 10 16 11
REMARK SMILES IDX 15 12 10 13 9 14 11 16 8 17 7 18 97 19 95 20 96 21 98 22
REMARK SMILES IDX 101 23 99 24 100 25 5 26 6 27 4 28 3 29 2 30 1 31 24 32
REMARK SMILES IDX 25 33 26 34 27 35 28 36 29 37 30 38 31 39 32 40 33 41 94 42
REMARK SMILES IDX 34 43 93 44 35 45 36 46 37 47 87 48 38 49 92 50 86 51 88 52
REMARK SMILES IDX 39 53 91 54 85 55 84 56 40 58 72 59 52 60 71 61 53 62 56 63
REMARK SMILES IDX 70 64 89 65 54 66 55 67 69 69 90 70 57 71 41 72 42 73 50 74
REMARK SMILES IDX 43 75 45 76 51 77 44 78 46 79 47 80 48 81 49 82 73 83 74 84
REMARK SMILES IDX 82 85 75 86 77 87 83 88 76 89 78 90 79 91 80 92 81 93 58 94
REMARK SMILES IDX 59 95 67 96 60 97 62 98 68 99 61 100 63 101 64 102 65 103
REMARK SMILES IDX 66 104
REMARK H PARENT 9 15 88 57 56 68
REMARK Flexibility Score: inf
ROOT
ATOM      1  O   UNL A   1      32.124  21.301  24.689  1.00  0.00    -0.376 OA
ENDROOT
BRANCH   1   2
ATOM      2  C   UNL A   1      32.421  21.401  26.075  1.00  0.00     0.202 C 
BRANCH   2   3
ATOM      3  C   UNL A   1      33.055  22.711  26.559  1.00  0.00     0.261 C 
BRANCH   3   4
ATOM      4  O   UNL A   1      34.168  23.150  25.727  1.00  0.00    -0.463 OA
BRANCH   4   5
ATOM      5  C   UNL A   1      34.156  24.466  25.430  1.00  0.00     0.310 C 
ATOM      6  O   UNL A   1      35.058  25.212  25.824  1.00  0.00    -0.252 OA
BRANCH   5   7
ATOM      7  C   UNL A   1      33.064  25.008  24.472  1.00  0.00     0.116 C 
ATOM      8  C   UNL A   1      32.560  24.417  23.164  1.00  0.00     0.097 C 
ATOM      9  C   UNL A   1      31.021  24.126  22.995  1.00  0.00     0.041 C 
ATOM     10  C   UNL A   1      30.145  25.120  23.679  1.00  0.00    -0.030 C 
ATOM     11  C   UNL A   1      31.868  25.098  25.392  1.00  0.00     0.043 C 
ATOM     12  C   UNL A   1      30.576  25.601  24.837  1.00  0.00    -0.030 C 
BRANCH   8  13
ATOM     13  C   UNL A   1      32.774  25.342  21.996  1.00  0.00     0.229 C 
ATOM     14  N   UNL A   1      32.402  26.633  21.880  1.00  0.00    -0.317 N 
ATOM     15  H   UNL A   1      32.209  26.792  20.928  1.00  0.00     0.170 HD
ATOM     16  O   UNL A   1      33.095  24.810  20.920  1.00  0.00    -0.274 OA
BRANCH  14  17
ATOM     17  C   UNL A   1      32.178  27.825  22.539  1.00  0.00     0.110 A 
ATOM     18  C   UNL A   1      31.285  28.848  22.901  1.00  0.00     0.098 A 
ATOM     19  C   UNL A   1      31.765  29.382  24.207  1.00  0.00    -0.017 A 
ATOM     20  S   UNL A   1      33.728  28.084  23.295  1.00  0.00    -0.122 S 
ATOM     21  C   UNL A   1      33.028  28.943  24.550  1.00  0.00     0.011 A 
ATOM     22  C   UNL A   1      30.971  30.196  25.200  1.00  0.00     0.038 C 
ATOM     23  C   UNL A   1      33.760  29.180  25.839  1.00  0.00     0.047 C 
ATOM     24  C   UNL A   1      31.867  30.798  26.302  1.00  0.00     0.005 C 
ATOM     25  C   UNL A   1      32.815  29.751  26.897  1.00  0.00     0.006 C 
BRANCH  18  26
ATOM     26  C   UNL A   1      29.902  29.175  22.452  1.00  0.00     0.341 C 
ATOM     27  O   UNL A   1      28.931  28.655  22.991  1.00  0.00    -0.246 OA
BRANCH  26  28
ATOM     28  O   UNL A   1      29.777  30.173  21.481  1.00  0.00    -0.462 OA
BRANCH  28  29
ATOM     29  C   UNL A   1      28.426  30.707  21.199  1.00  0.00     0.233 C 
BRANCH  29  30
ATOM     30  C   UNL A   1      27.869  31.852  22.134  1.00  0.00     0.038 C 
ATOM     31  C   UNL A   1      28.775  32.943  22.744  1.00  0.00     0.007 C 
ENDBRANCH  29  30
ENDBRANCH  28  29
ENDBRANCH  26  28
ENDBRANCH  18  26
ENDBRANCH  14  17
ENDBRANCH   8  13
ENDBRANCH   5   7
ENDBRANCH   4   5
ENDBRANCH   3   4
ENDBRANCH   2   3
ENDBRANCH   1   2
BRANCH   1  32
ATOM     32  C   UNL A   1      32.911  20.410  23.916  1.00  0.00     0.188 C 
BRANCH  32  33
ATOM     33  C   UNL A   1      33.752  19.411  24.711  1.00  0.00     0.188 C 
BRANCH  33  34
ATOM     34  O   UNL A   1      35.169  19.465  24.660  1.00  0.00    -0.376 OA
BRANCH  34  35
ATOM     35  C   UNL A   1      35.892  20.613  25.090  1.00  0.00     0.202 C 
BRANCH  35  36
ATOM     36  C   UNL A   1      37.421  20.713  24.938  1.00  0.00     0.261 C 
BRANCH  36  37
ATOM     37  O   UNL A   1      38.039  21.777  25.662  1.00  0.00    -0.460 OA
BRANCH  37  38
ATOM     38  C   UNL A   1      39.274  21.504  26.138  1.00  0.00     0.338 C 
ATOM     39  O   UNL A   1      39.922  20.484  25.944  1.00  0.00    -0.246 OA
BRANCH  38  40
ATOM     40  C   UNL A   1      39.795  22.721  26.792  1.00  0.00     0.060 A 
ATOM     41  C   UNL A   1      39.231  23.949  26.439  1.00  0.00     0.016 A 
ATOM     42  C   UNL A   1      40.801  22.675  27.756  1.00  0.00     0.016 A 
ATOM     43  C   UNL A   1      39.656  25.136  27.026  1.00  0.00     0.010 A 
ATOM     44  C   UNL A   1      41.275  23.874  28.307  1.00  0.00     0.010 A 
ATOM     45  C   UNL A   1      40.727  25.113  27.921  1.00  0.00    -0.014 A 
BRANCH  45  46
ATOM     46  C   UNL A   1      41.421  26.389  28.235  1.00  0.00     0.031 A 
ATOM     47  C   UNL A   1      40.636  27.457  28.947  1.00  0.00     0.074 A 
ATOM     48  C   UNL A   1      42.723  26.588  27.964  1.00  0.00     0.049 A 
ATOM     49  N   UNL A   1      40.976  28.685  29.234  1.00  0.00    -0.248 NA
ATOM     50  C   UNL A   1      39.281  27.087  29.391  1.00  0.00     0.031 C 
ATOM     51  C   UNL A   1      43.620  25.615  27.347  1.00  0.00     0.029 A 
ATOM     52  N   UNL A   1      43.514  27.693  28.173  1.00  0.00    -0.354 N 
ATOM     53  C   UNL A   1      39.851  29.259  29.814  1.00  0.00     0.074 A 
ATOM     54  C   UNL A   1      38.830  28.236  29.867  1.00  0.00     0.031 C 
ATOM     55  C   UNL A   1      44.839  26.169  27.218  1.00  0.00     0.029 A 
ATOM     56  C   UNL A   1      44.798  27.551  27.700  1.00  0.00     0.049 A 
ATOM     57  H   UNL A   1      43.193  28.509  28.621  1.00  0.00     0.167 HD
ATOM     58  C   UNL A   1      39.677  30.527  30.255  1.00  0.00     0.034 A 
ATOM     59  C   UNL A   1      45.810  28.441  27.632  1.00  0.00     0.034 A 
ATOM     60  C   UNL A   1      40.702  31.535  30.237  1.00  0.00     0.049 A 
ATOM     61  C   UNL A   1      45.591  29.854  28.119  1.00  0.00     0.074 A 
ATOM     62  C   UNL A   1      40.620  32.848  30.664  1.00  0.00     0.029 A 
ATOM     63  N   UNL A   1      41.990  31.348  29.764  1.00  0.00    -0.354 N 
ATOM     64  N   UNL A   1      44.531  30.379  28.684  1.00  0.00    -0.248 NA
ATOM     65  C   UNL A   1      46.710  30.795  27.959  1.00  0.00     0.031 C 
ATOM     66  C   UNL A   1      41.850  33.465  30.415  1.00  0.00     0.029 A 
ATOM     67  C   UNL A   1      42.712  32.522  29.880  1.00  0.00     0.049 A 
ATOM     68  H   UNL A   1      42.340  30.502  29.399  1.00  0.00     0.167 HD
ATOM     69  C   UNL A   1      44.860  31.704  28.960  1.00  0.00     0.074 A 
ATOM     70  C   UNL A   1      46.232  31.890  28.535  1.00  0.00     0.031 C 
ATOM     71  C   UNL A   1      44.091  32.684  29.497  1.00  0.00     0.034 A 
BRANCH  58  72
ATOM     72  C   UNL A   1      38.312  30.902  30.769  1.00  0.00     0.023 A 
ATOM     73  C   UNL A   1      37.916  30.542  32.071  1.00  0.00     0.012 A 
ATOM     74  C   UNL A   1      37.432  31.648  29.959  1.00  0.00     0.148 A 
ATOM     75  C   UNL A   1      36.650  30.884  32.546  1.00  0.00     0.002 A 
ATOM     76  C   UNL A   1      36.195  32.031  30.457  1.00  0.00     0.091 A 
ATOM     77  F   UNL A   1      37.820  31.960  28.714  1.00  0.00    -0.205 F 
ATOM     78  C   UNL A   1      35.796  31.637  31.744  1.00  0.00     0.022 A 
BRANCH  76  79
ATOM     79  S   UNL A   1      35.060  33.072  29.533  1.00  0.00     0.127 S 
ATOM     80  O   UNL A   1      35.953  34.122  29.045  1.00  0.00    -0.237 OA
ATOM     81  O   UNL A   1      34.576  32.154  28.501  1.00  0.00    -0.237 OA
ATOM     82  O   UNL A   1      34.046  33.508  30.483  1.00  0.00    -0.744 OA
ENDBRANCH  76  79
ENDBRANCH  58  72
BRANCH  59  83
ATOM     83  C   UNL A   1      47.130  28.037  27.064  1.00  0.00     0.023 A 
ATOM     84  C   UNL A   1      48.230  27.827  27.920  1.00  0.00     0.012 A 
ATOM     85  C   UNL A   1      47.302  27.862  25.677  1.00  0.00     0.148 A 
ATOM     86  C   UNL A   1      49.478  27.476  27.404  1.00  0.00     0.002 A 
ATOM     87  C   UNL A   1      48.528  27.442  25.176  1.00  0.00     0.091 A 
ATOM     88  F   UNL A   1      46.257  28.102  24.874  1.00  0.00    -0.205 F 
ATOM     89  C   UNL A   1      49.624  27.269  26.035  1.00  0.00     0.022 A 
BRANCH  87  90
ATOM     90  S   UNL A   1      48.760  27.010  23.449  1.00  0.00     0.127 S 
ATOM     91  O   UNL A   1      48.252  28.201  22.773  1.00  0.00    -0.237 OA
ATOM     92  O   UNL A   1      50.209  26.831  23.378  1.00  0.00    -0.237 OA
ATOM     93  O   UNL A   1      47.993  25.790  23.243  1.00  0.00    -0.744 OA
ENDBRANCH  87  90
ENDBRANCH  59  83
BRANCH  71  94
ATOM     94  C   UNL A   1      44.716  34.044  29.697  1.00  0.00     0.023 A 
ATOM     95  C   UNL A   1      45.507  34.298  30.836  1.00  0.00     0.012 A 
ATOM     96  C   UNL A   1      44.585  35.043  28.712  1.00  0.00     0.148 A 
ATOM     97  C   UNL A   1      46.124  35.537  31.008  1.00  0.00     0.002 A 
ATOM     98  C   UNL A   1      45.246  36.256  28.864  1.00  0.00     0.091 A 
ATOM     99  F   UNL A   1      43.818  34.787  27.641  1.00  0.00    -0.205 F 
ATOM    100  C   UNL A   1      46.004  36.510  30.019  1.00  0.00     0.022 A 
BRANCH  98 101
ATOM    101  S   UNL A   1      45.226  37.533  27.601  1.00  0.00     0.127 S 
ATOM    102  O   UNL A   1      45.721  38.692  28.341  1.00  0.00    -0.237 OA
ATOM    103  O   UNL A   1      46.160  36.999  26.609  1.00  0.00    -0.237 OA
ATOM    104  O   UNL A   1      43.847  37.627  27.143  1.00  0.00    -0.744 OA
ENDBRANCH  98 101
ENDBRANCH  71  94
ENDBRANCH  45  46
ENDBRANCH  38  40
ENDBRANCH  37  38
ENDBRANCH  36  37
ENDBRANCH  35  36
ENDBRANCH  34  35
ENDBRANCH  33  34
ENDBRANCH  32  33
ENDBRANCH   1  32
TORSDOF 26
ENDMDL
MODEL 2
REMARK VINA RESULT:     -10.9      1.651      7.631
REMARK SMILES CCCOC(=O)c1c(NC(=O)[C@@H]2CC=CC[C@H]2C(=O)OCCOCCOCCOC(=O)c2ccc(-c3c4nc(c(-c5cccc(S(=O)(=O)[O-])c5F)c5ccc([nH]5)c(-c5cccc(S(=O)(=O)[O-])c5F)c5nc(c(-c6cccc(S(=O)(=O)[O-])c6F)c6ccc3[nH]6)C=C5)C=C4)cc2)sc2c1CCCC2
REMARK SMILES IDX 23 1 22 2 21 3 20 4 18 5 19 6 17 7 12 8 13 9 14 10 16 11
REMARK SMILES IDX 15 12 10 13 9 14 11 16 8 17 7 18 97 19 95 20 96 21 98 22
REMARK SMILES IDX 101 23 99 24 100 25 5 26 6 27 4 28 3 29 2 30 1 31 24 32
REMARK SMILES IDX 25 33 26 34 27 35 28 36 29 37 30 38 31 39 32 40 33 41 94 42
REMARK SMILES IDX 34 43 93 44 35 45 36 46 37 47 87 48 38 49 92 50 86 51 88 52
REMARK SMILES IDX 39 53 91 54 85 55 84 56 40 58 72 59 52 60 71 61 53 62 56 63
REMARK SMILES IDX 70 64 89 65 54 66 55 67 69 69 90 70 57 71 41 72 42 73 50 74
REMARK SMILES IDX 43 75 45 76 51 77 44 78 46 79 47 80 48 81 49 82 73 83 74 84
REMARK SMILES IDX 82 85 75 86 77 87 83 88 76 89 78 90 79 91 80 92 81 93 58 94
REMARK SMILES IDX 59 95 67 96 60 97 62 98 68 99 61 100 63 101 64 102 65 103
REMARK SMILES IDX 66 104
REMARK H PARENT 9 15 88 57 56 68
REMARK Flexibility Score: inf
ROOT
ATOM      1  O   UNL A   1      32.416  21.047  25.039  1.00  0.00    -0.376 OA
ENDROOT
BRANCH   1   2
ATOM      2  C   UNL A   1      33.164  21.450  26.179  1.00  0.00     0.202 C 
BRANCH   2   3
ATOM      3  C   UNL A   1      33.022  22.912  26.624  1.00  0.00     0.261 C 
BRANCH   3   4
ATOM      4  O   UNL A   1      33.627  23.855  25.692  1.00  0.00    -0.463 OA
BRANCH   4   5
ATOM      5  C   UNL A   1      32.741  24.623  25.023  1.00  0.00     0.310 C 
ATOM      6  O   UNL A   1      31.848  24.111  24.342  1.00  0.00    -0.252 OA
BRANCH   5   7
ATOM      7  C   UNL A   1      32.776  26.159  25.230  1.00  0.00     0.116 C 
ATOM      8  C   UNL A   1      33.047  26.948  26.502  1.00  0.00     0.097 C 
ATOM      9  C   UNL A   1      34.203  28.018  26.512  1.00  0.00     0.041 C 
ATOM     10  C   UNL A   1      34.368  28.734  25.216  1.00  0.00    -0.030 C 
ATOM     11  C   UNL A   1      33.832  26.577  24.232  1.00  0.00     0.043 C 
ATOM     12  C   UNL A   1      34.165  28.028  24.111  1.00  0.00    -0.030 C 
BRANCH   8  13
ATOM     13  C   UNL A   1      31.886  27.824  26.891  1.00  0.00     0.229 C 
ATOM     14  N   UNL A   1      31.241  28.734  26.133  1.00  0.00    -0.317 N 
ATOM     15  H   UNL A   1      30.933  29.446  26.739  1.00  0.00     0.170 HD
ATOM     16  O   UNL A   1      31.650  27.920  28.108  1.00  0.00    -0.274 OA
BRANCH  14  17
ATOM     17  C   UNL A   1      30.833  29.083  24.862  1.00  0.00     0.110 A 
ATOM     18  C   UNL A   1      30.396  28.681  23.588  1.00  0.00     0.098 A 
ATOM     19  C   UNL A   1      29.530  29.780  23.074  1.00  0.00    -0.017 A 
ATOM     20  S   UNL A   1      30.807  30.822  24.985  1.00  0.00    -0.122 S 
ATOM     21  C   UNL A   1      29.608  30.937  23.823  1.00  0.00     0.011 A 
ATOM     22  C   UNL A   1      28.520  29.690  21.957  1.00  0.00     0.038 C 
ATOM     23  C   UNL A   1      28.788  32.184  23.667  1.00  0.00     0.047 C 
ATOM     24  C   UNL A   1      28.011  31.080  21.524  1.00  0.00     0.005 C 
ATOM     25  C   UNL A   1      27.607  31.937  22.729  1.00  0.00     0.006 C 
BRANCH  18  26
ATOM     26  C   UNL A   1      30.342  27.348  22.923  1.00  0.00     0.341 C 
ATOM     27  O   UNL A   1      29.591  26.473  23.339  1.00  0.00    -0.246 OA
BRANCH  26  28
ATOM     28  O   UNL A   1      31.096  27.198  21.755  1.00  0.00    -0.462 OA
BRANCH  28  29
ATOM     29  C   UNL A   1      31.612  25.851  21.426  1.00  0.00     0.233 C 
BRANCH  29  30
ATOM     30  C   UNL A   1      32.669  25.723  20.259  1.00  0.00     0.038 C 
ATOM     31  C   UNL A   1      32.347  25.036  18.915  1.00  0.00     0.007 C 
ENDBRANCH  29  30
ENDBRANCH  28  29
ENDBRANCH  26  28
ENDBRANCH  18  26
ENDBRANCH  14  17
ENDBRANCH   8  13
ENDBRANCH   5   7
ENDBRANCH   4   5
ENDBRANCH   3   4
ENDBRANCH   2   3
ENDBRANCH   1   2
BRANCH   1  32
ATOM     32  C   UNL A   1      32.933  19.976  24.267  1.00  0.00     0.188 C 
BRANCH  32  33
ATOM     33  C   UNL A   1      33.956  19.086  24.972  1.00  0.00     0.188 C 
BRANCH  33  34
ATOM     34  O   UNL A   1      35.312  19.081  24.553  1.00  0.00    -0.376 OA
BRANCH  34  35
ATOM     35  C   UNL A   1      36.257  20.016  25.058  1.00  0.00     0.202 C 
BRANCH  35  36
ATOM     36  C   UNL A   1      37.761  19.694  25.129  1.00  0.00     0.261 C 
BRANCH  36  37
ATOM     37  O   UNL A   1      38.620  20.820  25.306  1.00  0.00    -0.460 OA
BRANCH  37  38
ATOM     38  C   UNL A   1      39.668  20.616  26.135  1.00  0.00     0.338 C 
ATOM     39  O   UNL A   1      40.294  19.574  26.278  1.00  0.00    -0.246 OA
BRANCH  38  40
ATOM     40  C   UNL A   1      40.053  21.916  26.719  1.00  0.00     0.060 A 
ATOM     41  C   UNL A   1      39.263  23.030  26.423  1.00  0.00     0.016 A 
ATOM     42  C   UNL A   1      41.151  22.055  27.566  1.00  0.00     0.016 A 
ATOM     43  C   UNL A   1      39.552  24.283  26.951  1.00  0.00     0.010 A 
ATOM     44  C   UNL A   1      41.482  23.328  28.053  1.00  0.00     0.010 A 
ATOM     45  C   UNL A   1      40.703  24.454  27.722  1.00  0.00    -0.014 A 
BRANCH  45  46
ATOM     46  C   UNL A   1      41.211  25.831  27.948  1.00  0.00     0.031 A 
ATOM     47  C   UNL A   1      42.561  26.182  27.385  1.00  0.00     0.074 A 
ATOM     48  C   UNL A   1      40.486  26.774  28.576  1.00  0.00     0.049 A 
ATOM     49  N   UNL A   1      43.268  27.270  27.537  1.00  0.00    -0.248 NA
ATOM     50  C   UNL A   1      43.201  25.161  26.538  1.00  0.00     0.031 C 
ATOM     51  C   UNL A   1      39.137  26.595  29.105  1.00  0.00     0.029 A 
ATOM     52  N   UNL A   1      40.797  28.079  28.878  1.00  0.00    -0.354 N 
ATOM     53  C   UNL A   1      44.467  27.033  26.877  1.00  0.00     0.074 A 
ATOM     54  C   UNL A   1      44.381  25.711  26.298  1.00  0.00     0.031 C 
ATOM     55  C   UNL A   1      38.738  27.746  29.675  1.00  0.00     0.029 A 
ATOM     56  C   UNL A   1      39.819  28.728  29.595  1.00  0.00     0.049 A 
ATOM     57  H   UNL A   1      41.640  28.509  28.605  1.00  0.00     0.167 HD
ATOM     58  C   UNL A   1      45.550  27.839  26.770  1.00  0.00     0.034 A 
ATOM     59  C   UNL A   1      39.812  29.960  30.150  1.00  0.00     0.034 A 
ATOM     60  C   UNL A   1      45.625  29.167  27.315  1.00  0.00     0.049 A 
ATOM     61  C   UNL A   1      41.035  30.836  30.029  1.00  0.00     0.074 A 
ATOM     62  C   UNL A   1      46.680  30.059  27.256  1.00  0.00     0.029 A 
ATOM     63  N   UNL A   1      44.610  29.793  28.021  1.00  0.00    -0.354 N 
ATOM     64  N   UNL A   1      42.155  30.611  29.386  1.00  0.00    -0.248 NA
ATOM     65  C   UNL A   1      40.991  32.140  30.709  1.00  0.00     0.031 C 
ATOM     66  C   UNL A   1      46.315  31.212  27.958  1.00  0.00     0.029 A 
ATOM     67  C   UNL A   1      45.015  31.057  28.411  1.00  0.00     0.049 A 
ATOM     68  H   UNL A   1      43.730  29.395  28.215  1.00  0.00     0.167 HD
ATOM     69  C   UNL A   1      42.940  31.746  29.571  1.00  0.00     0.074 A 
ATOM     70  C   UNL A   1      42.151  32.674  30.355  1.00  0.00     0.031 C 
ATOM     71  C   UNL A   1      44.206  31.991  29.151  1.00  0.00     0.034 A 
BRANCH  58  72
ATOM     72  C   UNL A   1      46.758  27.288  26.060  1.00  0.00     0.023 A 
ATOM     73  C   UNL A   1      46.879  27.407  24.662  1.00  0.00     0.012 A 
ATOM     74  C   UNL A   1      47.793  26.675  26.794  1.00  0.00     0.148 A 
ATOM     75  C   UNL A   1      47.995  26.892  24.001  1.00  0.00     0.002 A 
ATOM     76  C   UNL A   1      48.924  26.213  26.137  1.00  0.00     0.091 A 
ATOM     77  F   UNL A   1      47.647  26.550  28.121  1.00  0.00    -0.205 F 
ATOM     78  C   UNL A   1      49.020  26.306  24.739  1.00  0.00     0.022 A 
BRANCH  76  79
ATOM     79  S   UNL A   1      50.334  25.521  27.007  1.00  0.00     0.127 S 
ATOM     80  O   UNL A   1      49.755  24.313  27.595  1.00  0.00    -0.237 OA
ATOM     81  O   UNL A   1      51.276  25.274  25.915  1.00  0.00    -0.237 OA
ATOM     82  O   UNL A   1      50.759  26.536  27.960  1.00  0.00    -0.744 OA
ENDBRANCH  76  79
ENDBRANCH  58  72
BRANCH  59  83
ATOM     83  C   UNL A   1      38.610  30.441  30.893  1.00  0.00     0.023 A 
ATOM     84  C   UNL A   1      38.470  30.152  32.265  1.00  0.00     0.012 A 
ATOM     85  C   UNL A   1      37.604  31.183  30.245  1.00  0.00     0.148 A 
ATOM     86  C   UNL A   1      37.339  30.570  32.970  1.00  0.00     0.002 A 
ATOM     87  C   UNL A   1      36.516  31.658  30.968  1.00  0.00     0.091 A 
ATOM     88  F   UNL A   1      37.734  31.417  28.932  1.00  0.00    -0.205 F 
ATOM     89  C   UNL A   1      36.371  31.336  32.326  1.00  0.00     0.022 A 
BRANCH  87  90
ATOM     90  S   UNL A   1      35.304  32.772  30.253  1.00  0.00     0.127 S 
ATOM     91  O   UNL A   1      36.143  33.883  29.811  1.00  0.00    -0.237 OA
ATOM     92  O   UNL A   1      34.746  31.955  29.176  1.00  0.00    -0.237 OA
ATOM     93  O   UNL A   1      34.366  33.074  31.325  1.00  0.00    -0.744 OA
ENDBRANCH  87  90
ENDBRANCH  59  83
BRANCH  71  94
ATOM     94  C   UNL A   1      44.817  33.329  29.489  1.00  0.00     0.023 A 
ATOM     95  C   UNL A   1      45.583  33.482  30.662  1.00  0.00     0.012 A 
ATOM     96  C   UNL A   1      44.698  34.414  28.598  1.00  0.00     0.148 A 
ATOM     97  C   UNL A   1      46.187  34.703  30.961  1.00  0.00     0.002 A 
ATOM     98  C   UNL A   1      45.346  35.612  28.875  1.00  0.00     0.091 A 
ATOM     99  F   UNL A   1      43.955  34.254  27.492  1.00  0.00    -0.205 F 
ATOM    100  C   UNL A   1      46.080  35.762  30.063  1.00  0.00     0.022 A 
BRANCH  98 101
ATOM    101  S   UNL A   1      45.342  37.000  27.734  1.00  0.00     0.127 S 
ATOM    102  O   UNL A   1      45.951  36.409  26.544  1.00  0.00    -0.237 OA
ATOM    103  O   UNL A   1      43.914  37.291  27.608  1.00  0.00    -0.237 OA
ATOM    104  O   UNL A   1      46.120  38.051  28.376  1.00  0.00    -0.744 OA
ENDBRANCH  98 101
ENDBRANCH  71  94
ENDBRANCH  45  46
ENDBRANCH  38  40
ENDBRANCH  37  38
ENDBRANCH  36  37
ENDBRANCH  35  36
ENDBRANCH  34  35
ENDBRANCH  33  34
ENDBRANCH  32  33
ENDBRANCH   1  32
TORSDOF 26
ENDMDL
MODEL 3
REMARK VINA RESULT:     -10.4      1.687      2.794
REMARK SMILES CCCOC(=O)c1c(NC(=O)[C@@H]2CC=CC[C@H]2C(=O)OCCOCCOCCOC(=O)c2ccc(-c3c4nc(c(-c5cccc(S(=O)(=O)[O-])c5F)c5ccc([nH]5)c(-c5cccc(S(=O)(=O)[O-])c5F)c5nc(c(-c6cccc(S(=O)(=O)[O-])c6F)c6ccc3[nH]6)C=C5)C=C4)cc2)sc2c1CCCC2
REMARK SMILES IDX 23 1 22 2 21 3 20 4 18 5 19 6 17 7 12 8 13 9 14 10 16 11
REMARK SMILES IDX 15 12 10 13 9 14 11 16 8 17 7 18 97 19 95 20 96 21 98 22
REMARK SMILES IDX 101 23 99 24 100 25 5 26 6 27 4 28 3 29 2 30 1 31 24 32
REMARK SMILES IDX 25 33 26 34 27 35 28 36 29 37 30 38 31 39 32 40 33 41 94 42
REMARK SMILES IDX 34 43 93 44 35 45 36 46 37 47 87 48 38 49 92 50 86 51 88 52
REMARK SMILES IDX 39 53 91 54 85 55 84 56 40 58 72 59 52 60 71 61 53 62 56 63
REMARK SMILES IDX 70 64 89 65 54 66 55 67 69 69 90 70 57 71 41 72 42 73 50 74
REMARK SMILES IDX 43 75 45 76 51 77 44 78 46 79 47 80 48 81 49 82 73 83 74 84
REMARK SMILES IDX 82 85 75 86 77 87 83 88 76 89 78 90 79 91 80 92 81 93 58 94
REMARK SMILES IDX 59 95 67 96 60 97 62 98 68 99 61 100 63 101 64 102 65 103
REMARK SMILES IDX 66 104
REMARK H PARENT 9 15 88 57 56 68
REMARK Flexibility Score: inf
ROOT
ATOM      1  O   UNL A   1      32.212  20.947  25.926  1.00  0.00    -0.376 OA
ENDROOT
BRANCH   1   2
ATOM      2  C   UNL A   1      33.181  21.170  26.941  1.00  0.00     0.202 C 
BRANCH   2   3
ATOM      3  C   UNL A   1      33.056  22.465  27.752  1.00  0.00     0.261 C 
BRANCH   3   4
ATOM      4  O   UNL A   1      33.251  23.665  26.948  1.00  0.00    -0.463 OA
BRANCH   4   5
ATOM      5  C   UNL A   1      32.128  24.132  26.363  1.00  0.00     0.310 C 
ATOM      6  O   UNL A   1      31.096  24.300  27.019  1.00  0.00    -0.252 OA
BRANCH   5   7
ATOM      7  C   UNL A   1      32.188  24.584  24.881  1.00  0.00     0.116 C 
ATOM      8  C   UNL A   1      32.122  25.991  24.306  1.00  0.00     0.097 C 
ATOM      9  C   UNL A   1      33.284  26.495  23.370  1.00  0.00     0.041 C 
ATOM     10  C   UNL A   1      33.858  25.428  22.501  1.00  0.00    -0.030 C 
ATOM     11  C   UNL A   1      33.510  24.001  24.437  1.00  0.00     0.043 C 
ATOM     12  C   UNL A   1      33.946  24.212  23.024  1.00  0.00    -0.030 C 
BRANCH   8  13
ATOM     13  C   UNL A   1      30.950  26.178  23.380  1.00  0.00     0.229 C 
ATOM     14  N   UNL A   1      30.020  27.153  23.403  1.00  0.00    -0.317 N 
ATOM     15  H   UNL A   1      29.182  26.759  23.069  1.00  0.00     0.170 HD
ATOM     16  O   UNL A   1      30.642  25.202  22.675  1.00  0.00    -0.274 OA
BRANCH  14  17
ATOM     17  C   UNL A   1      29.752  28.474  23.700  1.00  0.00     0.110 A 
ATOM     18  C   UNL A   1      30.192  29.699  24.230  1.00  0.00     0.098 A 
ATOM     19  C   UNL A   1      29.448  30.765  23.500  1.00  0.00    -0.017 A 
ATOM     20  S   UNL A   1      28.154  28.651  23.025  1.00  0.00    -0.122 S 
ATOM     21  C   UNL A   1      28.398  30.283  22.744  1.00  0.00     0.011 A 
ATOM     22  C   UNL A   1      29.817  32.225  23.406  1.00  0.00     0.038 C 
ATOM     23  C   UNL A   1      27.526  31.052  21.796  1.00  0.00     0.047 C 
ATOM     24  C   UNL A   1      28.679  33.071  22.800  1.00  0.00     0.005 C 
ATOM     25  C   UNL A   1      28.117  32.436  21.524  1.00  0.00     0.006 C 
BRANCH  18  26
ATOM     26  C   UNL A   1      31.402  30.072  25.017  1.00  0.00     0.341 C 
ATOM     27  O   UNL A   1      31.337  30.925  25.894  1.00  0.00    -0.246 OA
BRANCH  26  28
ATOM     28  O   UNL A   1      32.561  29.328  24.777  1.00  0.00    -0.462 OA
BRANCH  28  29
ATOM     29  C   UNL A   1      33.502  29.123  25.900  1.00  0.00     0.233 C 
BRANCH  29  30
ATOM     30  C   UNL A   1      32.907  28.719  27.307  1.00  0.00     0.038 C 
ATOM     31  C   UNL A   1      31.682  27.791  27.457  1.00  0.00     0.007 C 
ENDBRANCH  29  30
ENDBRANCH  28  29
ENDBRANCH  26  28
ENDBRANCH  18  26
ENDBRANCH  14  17
ENDBRANCH   8  13
ENDBRANCH   5   7
ENDBRANCH   4   5
ENDBRANCH   3   4
ENDBRANCH   2   3
ENDBRANCH   1   2
BRANCH   1  32
ATOM     32  C   UNL A   1      32.644  20.290  24.746  1.00  0.00     0.188 C 
BRANCH  32  33
ATOM     33  C   UNL A   1      34.010  19.609  24.830  1.00  0.00     0.188 C 
BRANCH  33  34
ATOM     34  O   UNL A   1      35.172  20.269  24.354  1.00  0.00    -0.376 OA
BRANCH  34  35
ATOM     35  C   UNL A   1      36.137  20.822  25.242  1.00  0.00     0.202 C 
BRANCH  35  36
ATOM     36  C   UNL A   1      37.635  20.484  25.126  1.00  0.00     0.261 C 
BRANCH  36  37
ATOM     37  O   UNL A   1      38.528  21.572  25.364  1.00  0.00    -0.460 OA
BRANCH  37  38
ATOM     38  C   UNL A   1      39.593  21.279  26.142  1.00  0.00     0.338 C 
ATOM     39  O   UNL A   1      40.171  20.203  26.214  1.00  0.00    -0.246 OA
BRANCH  38  40
ATOM     40  C   UNL A   1      40.063  22.531  26.770  1.00  0.00     0.060 A 
ATOM     41  C   UNL A   1      39.569  23.740  26.274  1.00  0.00     0.016 A 
ATOM     42  C   UNL A   1      40.952  22.537  27.843  1.00  0.00     0.016 A 
ATOM     43  C   UNL A   1      39.951  24.958  26.826  1.00  0.00     0.010 A 
ATOM     44  C   UNL A   1      41.387  23.764  28.363  1.00  0.00     0.010 A 
ATOM     45  C   UNL A   1      40.913  24.981  27.837  1.00  0.00    -0.014 A 
BRANCH  45  46
ATOM     46  C   UNL A   1      41.594  26.266  28.143  1.00  0.00     0.031 A 
ATOM     47  C   UNL A   1      40.816  27.311  28.894  1.00  0.00     0.074 A 
ATOM     48  C   UNL A   1      42.883  26.492  27.830  1.00  0.00     0.049 A 
ATOM     49  N   UNL A   1      41.143  28.542  29.183  1.00  0.00    -0.248 NA
ATOM     50  C   UNL A   1      39.483  26.911  29.378  1.00  0.00     0.031 C 
ATOM     51  C   UNL A   1      43.775  25.542  27.171  1.00  0.00     0.029 A 
ATOM     52  N   UNL A   1      43.661  27.608  28.025  1.00  0.00    -0.354 N 
ATOM     53  C   UNL A   1      40.029  29.088  29.809  1.00  0.00     0.074 A 
ATOM     54  C   UNL A   1      39.029  28.047  29.883  1.00  0.00     0.031 C 
ATOM     55  C   UNL A   1      44.979  26.120  27.008  1.00  0.00     0.029 A 
ATOM     56  C   UNL A   1      44.930  27.494  27.507  1.00  0.00     0.049 A 
ATOM     57  H   UNL A   1      43.341  28.413  28.494  1.00  0.00     0.167 HD
ATOM     58  C   UNL A   1      39.847  30.348  30.271  1.00  0.00     0.034 A 
ATOM     59  C   UNL A   1      45.924  28.404  27.416  1.00  0.00     0.034 A 
ATOM     60  C   UNL A   1      40.853  31.375  30.230  1.00  0.00     0.049 A 
ATOM     61  C   UNL A   1      45.696  29.807  27.927  1.00  0.00     0.074 A 
ATOM     62  C   UNL A   1      40.762  32.681  30.675  1.00  0.00     0.029 A 
ATOM     63  N   UNL A   1      42.128  31.216  29.711  1.00  0.00    -0.354 N 
ATOM     64  N   UNL A   1      44.647  30.306  28.534  1.00  0.00    -0.248 NA
ATOM     65  C   UNL A   1      46.792  30.770  27.742  1.00  0.00     0.031 C 
ATOM     66  C   UNL A   1      41.972  33.323  30.393  1.00  0.00     0.029 A 
ATOM     67  C   UNL A   1      42.832  32.402  29.817  1.00  0.00     0.049 A 
ATOM     68  H   UNL A   1      42.480  30.381  29.324  1.00  0.00     0.167 HD
ATOM     69  C   UNL A   1      44.961  31.633  28.816  1.00  0.00     0.074 A 
ATOM     70  C   UNL A   1      46.314  31.849  28.347  1.00  0.00     0.031 C 
ATOM     71  C   UNL A   1      44.194  32.594  29.390  1.00  0.00     0.034 A 
BRANCH  58  72
ATOM     72  C   UNL A   1      38.495  30.693  30.835  1.00  0.00     0.023 A 
ATOM     73  C   UNL A   1      38.179  30.383  32.172  1.00  0.00     0.012 A 
ATOM     74  C   UNL A   1      37.544  31.358  30.035  1.00  0.00     0.148 A 
ATOM     75  C   UNL A   1      36.924  30.697  32.694  1.00  0.00     0.002 A 
ATOM     76  C   UNL A   1      36.317  31.715  30.577  1.00  0.00     0.091 A 
ATOM     77  F   UNL A   1      37.855  31.622  28.758  1.00  0.00    -0.205 F 
ATOM     78  C   UNL A   1      35.999  31.372  31.901  1.00  0.00     0.022 A 
BRANCH  76  79
ATOM     79  S   UNL A   1      35.094  32.659  29.663  1.00  0.00     0.127 S 
ATOM     80  O   UNL A   1      34.647  31.683  28.671  1.00  0.00    -0.237 OA
ATOM     81  O   UNL A   1      34.109  32.968  30.700  1.00  0.00    -0.237 OA
ATOM     82  O   UNL A   1      35.795  33.817  29.126  1.00  0.00    -0.744 OA
ENDBRANCH  76  79
ENDBRANCH  58  72
BRANCH  59  83
ATOM     83  C   UNL A   1      47.231  28.030  26.799  1.00  0.00     0.023 A 
ATOM     84  C   UNL A   1      48.339  27.743  27.620  1.00  0.00     0.012 A 
ATOM     85  C   UNL A   1      47.380  27.961  25.401  1.00  0.00     0.148 A 
ATOM     86  C   UNL A   1      49.576  27.419  27.059  1.00  0.00     0.002 A 
ATOM     87  C   UNL A   1      48.594  27.568  24.850  1.00  0.00     0.091 A 
ATOM     88  F   UNL A   1      46.327  28.274  24.633  1.00  0.00    -0.205 F 
ATOM     89  C   UNL A   1      49.700  27.317  25.676  1.00  0.00     0.022 A 
BRANCH  87  90
ATOM     90  S   UNL A   1      48.796  27.268  23.092  1.00  0.00     0.127 S 
ATOM     91  O   UNL A   1      48.257  25.917  22.955  1.00  0.00    -0.237 OA
ATOM     92  O   UNL A   1      47.967  28.324  22.512  1.00  0.00    -0.237 OA
ATOM     93  O   UNL A   1      50.221  27.411  22.829  1.00  0.00    -0.744 OA
ENDBRANCH  87  90
ENDBRANCH  59  83
BRANCH  71  94
ATOM     94  C   UNL A   1      44.802  33.961  29.585  1.00  0.00     0.023 A 
ATOM     95  C   UNL A   1      44.657  34.949  28.591  1.00  0.00     0.012 A 
ATOM     96  C   UNL A   1      45.447  34.290  30.795  1.00  0.00     0.148 A 
ATOM     97  C   UNL A   1      45.178  36.229  28.782  1.00  0.00     0.002 A 
ATOM     98  C   UNL A   1      45.916  35.582  31.000  1.00  0.00     0.091 A 
ATOM     99  F   UNL A   1      45.586  33.333  31.725  1.00  0.00    -0.205 F 
ATOM    100  C   UNL A   1      45.796  36.549  29.989  1.00  0.00     0.022 A 
BRANCH  98 101
ATOM    101  S   UNL A   1      46.641  36.111  32.556  1.00  0.00     0.127 S 
ATOM    102  O   UNL A   1      45.676  35.594  33.525  1.00  0.00    -0.237 OA
ATOM    103  O   UNL A   1      47.929  35.417  32.549  1.00  0.00    -0.237 OA
ATOM    104  O   UNL A   1      46.735  37.563  32.484  1.00  0.00    -0.744 OA
ENDBRANCH  98 101
ENDBRANCH  71  94
ENDBRANCH  45  46
ENDBRANCH  38  40
ENDBRANCH  37  38
ENDBRANCH  36  37
ENDBRANCH  35  36
ENDBRANCH  34  35
ENDBRANCH  33  34
ENDBRANCH  32  33
ENDBRANCH   1  32
TORSDOF 26
ENDMDL
