MODEL 1
REMARK VINA RESULT:      -9.3      0.000      0.000
REMARK SMILES Cc1ccc(S(=O)(=O)N(c2ccccc2)[C@H](C)C(=O)OCCOCCOCCOC(=O)c2ccc(-c3c4nc(c(-c5cccc(S(=O)(=O)[O-])c5F)c5ccc([nH]5)c(-c5cccc(S(=O)(=O)[O-])c5F)c5nc(c(-c6cccc(S(=O)(=O)[O-])c6F)c6ccc3[nH]6)C=C5)C=C4)cc2)cc1
REMARK SMILES IDX 24 1 23 2 22 3 21 4 20 5 18 6 19 7 16 8 17 9 9 10 6 11 7 12
REMARK SMILES IDX 8 13 5 14 1 15 2 16 3 17 96 18 4 19 95 20 10 21 11 22 15 23
REMARK SMILES IDX 12 24 14 25 13 26 25 27 26 28 27 29 28 30 29 31 30 32 31 33
REMARK SMILES IDX 32 34 33 35 94 36 34 37 93 38 35 39 36 40 37 41 87 42 38 43
REMARK SMILES IDX 92 44 86 45 88 46 39 47 91 48 85 49 84 50 40 52 72 53 52 54
REMARK SMILES IDX 71 55 53 56 56 57 70 58 89 59 54 60 55 61 69 63 90 64 57 65
REMARK SMILES IDX 41 66 42 67 50 68 43 69 45 70 51 71 44 72 46 73 47 74 48 75
REMARK SMILES IDX 49 76 73 77 74 78 82 79 75 80 77 81 83 82 76 83 78 84 79 85
REMARK SMILES IDX 80 86 81 87 58 88 59 89 67 90 60 91 62 92 68 93 61 94 63 95
REMARK SMILES IDX 64 96 65 97 66 98
REMARK H PARENT 88 51 56 62
REMARK Flexibility Score: inf
ROOT
ATOM      1  C   UNL A   1      37.146  30.366  29.592  1.00  0.00     0.188 C 
ENDROOT
BRANCH   1   2
ATOM      2  O   UNL A   1      36.694  29.426  28.643  1.00  0.00    -0.376 OA
BRANCH   2   3
ATOM      3  C   UNL A   1      35.318  29.682  28.371  1.00  0.00     0.202 C 
BRANCH   3   4
ATOM      4  C   UNL A   1      34.752  29.301  26.936  1.00  0.00     0.261 C 
BRANCH   4   5
ATOM      5  O   UNL A   1      33.290  29.035  26.284  1.00  0.00    -0.462 OA
BRANCH   5   6
ATOM      6  C   UNL A   1      32.216  28.167  26.498  1.00  0.00     0.329 C 
ATOM      7  O   UNL A   1      31.572  28.306  27.535  1.00  0.00    -0.250 OA
BRANCH   6   8
ATOM      8  C   UNL A   1      31.698  26.939  25.635  1.00  0.00     0.206 C 
ATOM      9  C   UNL A   1      30.609  25.980  26.101  1.00  0.00     0.045 C 
BRANCH   8  10
ATOM     10  N   UNL A   1      31.420  27.358  24.132  1.00  0.00    -0.252 N 
BRANCH  10  11
ATOM     11  S   UNL A   1      32.305  26.641  22.829  1.00  0.00     0.265 S 
ATOM     12  O   UNL A   1      33.336  27.602  22.466  1.00  0.00    -0.201 OA
ATOM     13  O   UNL A   1      31.366  26.199  21.815  1.00  0.00    -0.201 OA
BRANCH  11  14
ATOM     14  C   UNL A   1      33.279  25.150  23.243  1.00  0.00     0.088 A 
ATOM     15  C   UNL A   1      35.419  21.560  24.518  1.00  0.00     0.044 C 
ATOM     16  C   UNL A   1      34.715  22.820  24.096  1.00  0.00    -0.051 A 
ATOM     17  C   UNL A   1      35.066  24.090  24.564  1.00  0.00     0.005 A 
ATOM     18  C   UNL A   1      33.710  22.747  23.139  1.00  0.00     0.005 A 
ATOM     19  C   UNL A   1      34.342  25.241  24.159  1.00  0.00     0.022 A 
ATOM     20  C   UNL A   1      33.043  23.903  22.702  1.00  0.00     0.022 A 
ENDBRANCH  11  14
ENDBRANCH  10  11
BRANCH  10  21
ATOM     21  C   UNL A   1      30.319  28.219  23.870  1.00  0.00     0.053 A 
ATOM     22  C   UNL A   1      28.775  27.533  23.513  1.00  0.00     0.027 A 
ATOM     23  C   UNL A   1      30.645  29.846  23.981  1.00  0.00     0.027 A 
ATOM     24  C   UNL A   1      27.329  28.446  23.124  1.00  0.00     0.002 A 
ATOM     25  C   UNL A   1      29.327  30.935  23.693  1.00  0.00     0.002 A 
ATOM     26  C   UNL A   1      27.468  30.204  23.126  1.00  0.00     0.000 A 
ENDBRANCH  10  21
ENDBRANCH   8  10
ENDBRANCH   6   8
ENDBRANCH   5   6
ENDBRANCH   4   5
ENDBRANCH   3   4
ENDBRANCH   2   3
ENDBRANCH   1   2
BRANCH   1  27
ATOM     27  C   UNL A   1      36.175  30.512  30.755  1.00  0.00     0.188 C 
BRANCH  27  28
ATOM     28  O   UNL A   1      36.504  29.756  31.895  1.00  0.00    -0.376 OA
BRANCH  28  29
ATOM     29  C   UNL A   1      37.745  29.142  32.118  1.00  0.00     0.202 C 
BRANCH  29  30
ATOM     30  C   UNL A   1      38.380  30.002  33.192  1.00  0.00     0.261 C 
BRANCH  30  31
ATOM     31  O   UNL A   1      37.586  31.212  33.415  1.00  0.00    -0.460 OA
BRANCH  31  32
ATOM     32  C   UNL A   1      38.131  32.185  34.216  1.00  0.00     0.338 C 
ATOM     33  O   UNL A   1      37.986  32.230  35.428  1.00  0.00    -0.246 OA
BRANCH  32  34
ATOM     34  C   UNL A   1      38.793  33.255  33.369  1.00  0.00     0.060 A 
ATOM     35  C   UNL A   1      38.257  33.610  32.137  1.00  0.00     0.016 A 
ATOM     36  C   UNL A   1      40.094  33.697  33.648  1.00  0.00     0.016 A 
ATOM     37  C   UNL A   1      39.096  34.213  31.171  1.00  0.00     0.010 A 
ATOM     38  C   UNL A   1      40.951  34.140  32.612  1.00  0.00     0.010 A 
ATOM     39  C   UNL A   1      40.487  34.252  31.299  1.00  0.00    -0.014 A 
BRANCH  39  40
ATOM     40  C   UNL A   1      41.408  34.420  30.057  1.00  0.00     0.031 A 
ATOM     41  C   UNL A   1      42.216  33.001  30.042  1.00  0.00     0.074 A 
ATOM     42  C   UNL A   1      41.510  35.542  29.143  1.00  0.00     0.049 A 
ATOM     43  N   UNL A   1      43.836  32.398  29.479  1.00  0.00    -0.248 NA
ATOM     44  C   UNL A   1      40.974  31.413  29.792  1.00  0.00     0.031 C 
ATOM     45  C   UNL A   1      41.527  35.704  27.662  1.00  0.00     0.029 A 
ATOM     46  N   UNL A   1      42.012  36.858  29.413  1.00  0.00    -0.354 N 
ATOM     47  C   UNL A   1      43.705  30.710  28.755  1.00  0.00     0.074 A 
ATOM     48  C   UNL A   1      41.857  30.196  29.095  1.00  0.00     0.031 C 
ATOM     49  C   UNL A   1      42.204  36.820  27.265  1.00  0.00     0.029 A 
ATOM     50  C   UNL A   1      42.629  37.591  28.415  1.00  0.00     0.049 A 
ATOM     51  H   UNL A   1      41.920  37.241  30.316  1.00  0.00     0.167 HD
ATOM     52  C   UNL A   1      44.241  30.540  27.466  1.00  0.00     0.034 A 
ATOM     53  C   UNL A   1      43.683  38.462  28.629  1.00  0.00     0.034 A 
ATOM     54  C   UNL A   1      44.696  31.810  26.717  1.00  0.00     0.049 A 
ATOM     55  C   UNL A   1      44.923  37.833  27.991  1.00  0.00     0.074 A 
ATOM     56  C   UNL A   1      44.132  32.495  25.629  1.00  0.00     0.029 A 
ATOM     57  N   UNL A   1      45.693  32.714  27.162  1.00  0.00    -0.354 N 
ATOM     58  N   UNL A   1      44.954  36.674  27.366  1.00  0.00    -0.248 NA
ATOM     59  C   UNL A   1      46.225  38.484  28.024  1.00  0.00     0.031 C 
ATOM     60  C   UNL A   1      44.700  33.810  25.506  1.00  0.00     0.029 A 
ATOM     61  C   UNL A   1      45.664  33.972  26.486  1.00  0.00     0.049 A 
ATOM     62  H   UNL A   1      46.342  32.497  27.869  1.00  0.00     0.167 HD
ATOM     63  C   UNL A   1      46.262  36.322  27.101  1.00  0.00     0.074 A 
ATOM     64  C   UNL A   1      46.982  37.567  27.399  1.00  0.00     0.031 C 
ATOM     65  C   UNL A   1      46.675  35.052  26.720  1.00  0.00     0.034 A 
BRANCH  52  66
ATOM     66  C   UNL A   1      43.724  29.287  26.772  1.00  0.00     0.023 A 
ATOM     67  C   UNL A   1      42.398  29.223  26.307  1.00  0.00     0.012 A 
ATOM     68  C   UNL A   1      44.503  28.111  26.625  1.00  0.00     0.148 A 
ATOM     69  C   UNL A   1      41.834  28.031  25.839  1.00  0.00     0.002 A 
ATOM     70  C   UNL A   1      43.920  26.904  26.232  1.00  0.00     0.091 A 
ATOM     71  F   UNL A   1      45.816  28.155  26.906  1.00  0.00    -0.205 F 
ATOM     72  C   UNL A   1      42.583  26.862  25.835  1.00  0.00     0.022 A 
BRANCH  70  73
ATOM     73  S   UNL A   1      44.808  25.345  26.399  1.00  0.00     0.127 S 
ATOM     74  O   UNL A   1      45.513  25.237  25.119  1.00  0.00    -0.237 OA
ATOM     75  O   UNL A   1      45.671  25.592  27.549  1.00  0.00    -0.237 OA
ATOM     76  O   UNL A   1      43.767  24.338  26.574  1.00  0.00    -0.744 OA
ENDBRANCH  70  73
ENDBRANCH  52  66
BRANCH  53  77
ATOM     77  C   UNL A   1      43.721  39.445  29.872  1.00  0.00     0.023 A 
ATOM     78  C   UNL A   1      43.929  38.863  31.149  1.00  0.00     0.012 A 
ATOM     79  C   UNL A   1      43.795  40.872  29.856  1.00  0.00     0.148 A 
ATOM     80  C   UNL A   1      44.348  39.608  32.277  1.00  0.00     0.002 A 
ATOM     81  C   UNL A   1      44.377  41.588  30.937  1.00  0.00     0.091 A 
ATOM     82  F   UNL A   1      43.384  41.537  28.767  1.00  0.00    -0.205 F 
ATOM     83  C   UNL A   1      44.634  40.959  32.154  1.00  0.00     0.022 A 
BRANCH  81  84
ATOM     84  S   UNL A   1      45.145  43.233  30.747  1.00  0.00     0.127 S 
ATOM     85  O   UNL A   1      44.881  43.880  32.032  1.00  0.00    -0.237 OA
ATOM     86  O   UNL A   1      46.551  42.886  30.547  1.00  0.00    -0.237 OA
ATOM     87  O   UNL A   1      44.478  43.838  29.607  1.00  0.00    -0.744 OA
ENDBRANCH  81  84
ENDBRANCH  53  77
BRANCH  65  88
ATOM     88  C   UNL A   1      48.131  34.675  26.432  1.00  0.00     0.023 A 
ATOM     89  C   UNL A   1      48.826  34.968  25.245  1.00  0.00     0.012 A 
ATOM     90  C   UNL A   1      48.894  34.021  27.433  1.00  0.00     0.148 A 
ATOM     91  C   UNL A   1      50.164  34.604  25.044  1.00  0.00     0.002 A 
ATOM     92  C   UNL A   1      50.259  33.822  27.299  1.00  0.00     0.091 A 
ATOM     93  F   UNL A   1      48.300  33.500  28.513  1.00  0.00    -0.205 F 
ATOM     94  C   UNL A   1      50.897  34.074  26.091  1.00  0.00     0.022 A 
BRANCH  92  95
ATOM     95  S   UNL A   1      51.250  33.373  28.724  1.00  0.00     0.127 S 
ATOM     96  O   UNL A   1      50.876  31.974  28.918  1.00  0.00    -0.237 OA
ATOM     97  O   UNL A   1      52.612  33.581  28.229  1.00  0.00    -0.237 OA
ATOM     98  O   UNL A   1      50.856  34.296  29.780  1.00  0.00    -0.744 OA
ENDBRANCH  92  95
ENDBRANCH  65  88
ENDBRANCH  39  40
ENDBRANCH  32  34
ENDBRANCH  31  32
ENDBRANCH  30  31
ENDBRANCH  29  30
ENDBRANCH  28  29
ENDBRANCH  27  28
ENDBRANCH   1  27
TORSDOF 24
ENDMDL
MODEL 2
REMARK VINA RESULT:      -8.9      6.313     11.122
REMARK SMILES Cc1ccc(S(=O)(=O)N(c2ccccc2)[C@H](C)C(=O)OCCOCCOCCOC(=O)c2ccc(-c3c4nc(c(-c5cccc(S(=O)(=O)[O-])c5F)c5ccc([nH]5)c(-c5cccc(S(=O)(=O)[O-])c5F)c5nc(c(-c6cccc(S(=O)(=O)[O-])c6F)c6ccc3[nH]6)C=C5)C=C4)cc2)cc1
REMARK SMILES IDX 24 1 23 2 22 3 21 4 20 5 18 6 19 7 16 8 17 9 9 10 6 11 7 12
REMARK SMILES IDX 8 13 5 14 1 15 2 16 3 17 96 18 4 19 95 20 10 21 11 22 15 23
REMARK SMILES IDX 12 24 14 25 13 26 25 27 26 28 27 29 28 30 29 31 30 32 31 33
REMARK SMILES IDX 32 34 33 35 94 36 34 37 93 38 35 39 36 40 37 41 87 42 38 43
REMARK SMILES IDX 92 44 86 45 88 46 39 47 91 48 85 49 84 50 40 52 72 53 52 54
REMARK SMILES IDX 71 55 53 56 56 57 70 58 89 59 54 60 55 61 69 63 90 64 57 65
REMARK SMILES IDX 41 66 42 67 50 68 43 69 45 70 51 71 44 72 46 73 47 74 48 75
REMARK SMILES IDX 49 76 73 77 74 78 82 79 75 80 77 81 83 82 76 83 78 84 79 85
REMARK SMILES IDX 80 86 81 87 58 88 59 89 67 90 60 91 62 92 68 93 61 94 63 95
REMARK SMILES IDX 64 96 65 97 66 98
REMARK H PARENT 88 51 56 62
REMARK Flexibility Score: inf
ROOT
ATOM      1  C   UNL A   1      34.228  36.409  33.510  1.00  0.00     0.188 C 
ENDROOT
BRANCH   1   2
ATOM      2  O   UNL A   1      34.719  35.087  33.474  1.00  0.00    -0.376 OA
BRANCH   2   3
ATOM      3  C   UNL A   1      35.977  35.091  32.803  1.00  0.00     0.202 C 
BRANCH   3   4
ATOM      4  C   UNL A   1      37.203  34.358  33.501  1.00  0.00     0.261 C 
BRANCH   4   5
ATOM      5  O   UNL A   1      37.695  34.088  35.024  1.00  0.00    -0.462 OA
BRANCH   5   6
ATOM      6  C   UNL A   1      37.262  33.343  36.123  1.00  0.00     0.329 C 
ATOM      7  O   UNL A   1      36.178  33.639  36.618  1.00  0.00    -0.250 OA
BRANCH   6   8
ATOM      8  C   UNL A   1      37.982  32.172  36.920  1.00  0.00     0.206 C 
ATOM      9  C   UNL A   1      39.373  31.651  36.578  1.00  0.00     0.045 C 
BRANCH   8  10
ATOM     10  N   UNL A   1      37.870  32.379  38.487  1.00  0.00    -0.252 N 
BRANCH  10  11
ATOM     11  S   UNL A   1      36.784  31.420  39.436  1.00  0.00     0.265 S 
ATOM     12  O   UNL A   1      36.929  30.053  38.955  1.00  0.00    -0.201 OA
ATOM     13  O   UNL A   1      35.473  32.039  39.411  1.00  0.00    -0.201 OA
BRANCH  11  14
ATOM     14  C   UNL A   1      37.191  31.263  41.211  1.00  0.00     0.088 A 
ATOM     15  C   UNL A   1      37.853  30.748  45.500  1.00  0.00     0.044 C 
ATOM     16  C   UNL A   1      37.614  30.967  44.031  1.00  0.00    -0.051 A 
ATOM     17  C   UNL A   1      36.933  32.077  43.521  1.00  0.00     0.005 A 
ATOM     18  C   UNL A   1      38.150  30.070  43.115  1.00  0.00     0.005 A 
ATOM     19  C   UNL A   1      36.705  32.213  42.127  1.00  0.00     0.022 A 
ATOM     20  C   UNL A   1      37.968  30.251  41.735  1.00  0.00     0.022 A 
ENDBRANCH  11  14
ENDBRANCH  10  11
BRANCH  10  21
ATOM     21  C   UNL A   1      38.794  33.257  39.116  1.00  0.00     0.053 A 
ATOM     22  C   UNL A   1      40.233  32.609  39.818  1.00  0.00     0.027 A 
ATOM     23  C   UNL A   1      38.392  34.869  39.065  1.00  0.00     0.027 A 
ATOM     24  C   UNL A   1      41.451  33.542  40.667  1.00  0.00     0.002 A 
ATOM     25  C   UNL A   1      39.502  35.982  39.797  1.00  0.00     0.002 A 
ATOM     26  C   UNL A   1      41.190  35.282  40.783  1.00  0.00     0.000 A 
ENDBRANCH  10  21
ENDBRANCH   8  10
ENDBRANCH   6   8
ENDBRANCH   5   6
ENDBRANCH   4   5
ENDBRANCH   3   4
ENDBRANCH   2   3
ENDBRANCH   1   2
BRANCH   1  27
ATOM     27  C   UNL A   1      33.128  36.636  32.484  1.00  0.00     0.188 C 
BRANCH  27  28
ATOM     28  O   UNL A   1      33.516  36.432  31.148  1.00  0.00    -0.376 OA
BRANCH  28  29
ATOM     29  C   UNL A   1      32.861  35.583  30.244  1.00  0.00     0.202 C 
BRANCH  29  30
ATOM     30  C   UNL A   1      33.967  35.136  29.310  1.00  0.00     0.261 C 
BRANCH  30  31
ATOM     31  O   UNL A   1      34.010  33.675  29.228  1.00  0.00    -0.460 OA
BRANCH  31  32
ATOM     32  C   UNL A   1      35.103  33.109  28.618  1.00  0.00     0.338 C 
ATOM     33  O   UNL A   1      35.058  32.523  27.547  1.00  0.00    -0.246 OA
BRANCH  32  34
ATOM     34  C   UNL A   1      36.313  33.186  29.530  1.00  0.00     0.060 A 
ATOM     35  C   UNL A   1      37.401  33.980  29.191  1.00  0.00     0.016 A 
ATOM     36  C   UNL A   1      36.499  32.258  30.564  1.00  0.00     0.016 A 
ATOM     37  C   UNL A   1      38.667  33.686  29.751  1.00  0.00     0.010 A 
ATOM     38  C   UNL A   1      37.800  31.878  30.975  1.00  0.00     0.010 A 
ATOM     39  C   UNL A   1      38.930  32.498  30.438  1.00  0.00    -0.014 A 
BRANCH  39  40
ATOM     40  C   UNL A   1      40.380  31.953  30.579  1.00  0.00     0.031 A 
ATOM     41  C   UNL A   1      40.148  30.341  30.449  1.00  0.00     0.074 A 
ATOM     42  C   UNL A   1      41.616  32.689  30.766  1.00  0.00     0.049 A 
ATOM     43  N   UNL A   1      40.961  28.827  31.042  1.00  0.00    -0.248 NA
ATOM     44  C   UNL A   1      39.371  29.821  28.645  1.00  0.00     0.031 C 
ATOM     45  C   UNL A   1      42.968  32.665  30.139  1.00  0.00     0.029 A 
ATOM     46  N   UNL A   1      42.029  33.445  31.912  1.00  0.00    -0.354 N 
ATOM     47  C   UNL A   1      40.933  27.509  29.757  1.00  0.00     0.074 A 
ATOM     48  C   UNL A   1      39.830  28.260  28.338  1.00  0.00     0.031 C 
ATOM     49  C   UNL A   1      43.946  33.095  30.988  1.00  0.00     0.029 A 
ATOM     50  C   UNL A   1      43.370  33.553  32.236  1.00  0.00     0.049 A 
ATOM     51  H   UNL A   1      41.353  33.889  32.475  1.00  0.00     0.167 HD
ATOM     52  C   UNL A   1      42.171  26.926  29.432  1.00  0.00     0.034 A 
ATOM     53  C   UNL A   1      43.854  33.619  33.530  1.00  0.00     0.034 A 
ATOM     54  C   UNL A   1      43.436  27.579  30.026  1.00  0.00     0.049 A 
ATOM     55  C   UNL A   1      44.596  32.309  33.799  1.00  0.00     0.074 A 
ATOM     56  C   UNL A   1      44.441  28.359  29.432  1.00  0.00     0.029 A 
ATOM     57  N   UNL A   1      43.713  27.728  31.408  1.00  0.00    -0.354 N 
ATOM     58  N   UNL A   1      44.728  31.317  32.942  1.00  0.00    -0.248 NA
ATOM     59  C   UNL A   1      45.241  32.032  35.075  1.00  0.00     0.031 C 
ATOM     60  C   UNL A   1      45.217  29.038  30.434  1.00  0.00     0.029 A 
ATOM     61  C   UNL A   1      44.748  28.672  31.684  1.00  0.00     0.049 A 
ATOM     62  H   UNL A   1      43.238  27.229  32.111  1.00  0.00     0.167 HD
ATOM     63  C   UNL A   1      45.270  30.219  33.580  1.00  0.00     0.074 A 
ATOM     64  C   UNL A   1      45.705  30.790  34.860  1.00  0.00     0.031 C 
ATOM     65  C   UNL A   1      45.277  28.931  33.061  1.00  0.00     0.034 A 
BRANCH  52  66
ATOM     66  C   UNL A   1      42.145  26.187  28.100  1.00  0.00     0.023 A 
ATOM     67  C   UNL A   1      42.319  26.885  26.892  1.00  0.00     0.012 A 
ATOM     68  C   UNL A   1      41.871  24.799  27.995  1.00  0.00     0.148 A 
ATOM     69  C   UNL A   1      42.114  26.277  25.649  1.00  0.00     0.002 A 
ATOM     70  C   UNL A   1      41.590  24.211  26.760  1.00  0.00     0.091 A 
ATOM     71  F   UNL A   1      41.848  24.049  29.110  1.00  0.00    -0.205 F 
ATOM     72  C   UNL A   1      41.713  24.949  25.582  1.00  0.00     0.022 A 
BRANCH  70  73
ATOM     73  S   UNL A   1      40.888  22.555  26.658  1.00  0.00     0.127 S 
ATOM     74  O   UNL A   1      39.484  22.819  26.332  1.00  0.00    -0.237 OA
ATOM     75  O   UNL A   1      41.659  21.949  25.577  1.00  0.00    -0.237 OA
ATOM     76  O   UNL A   1      41.078  21.985  27.987  1.00  0.00    -0.744 OA
ENDBRANCH  70  73
ENDBRANCH  52  66
BRANCH  53  77
ATOM     77  C   UNL A   1      43.145  34.488  34.649  1.00  0.00     0.023 A 
ATOM     78  C   UNL A   1      42.094  33.871  35.376  1.00  0.00     0.012 A 
ATOM     79  C   UNL A   1      43.569  35.746  35.180  1.00  0.00     0.148 A 
ATOM     80  C   UNL A   1      41.622  34.362  36.617  1.00  0.00     0.002 A 
ATOM     81  C   UNL A   1      43.218  36.139  36.500  1.00  0.00     0.091 A 
ATOM     82  F   UNL A   1      44.380  36.524  34.451  1.00  0.00    -0.205 F 
ATOM     83  C   UNL A   1      42.230  35.460  37.209  1.00  0.00     0.022 A 
BRANCH  81  84
ATOM     84  S   UNL A   1      44.219  37.295  37.496  1.00  0.00     0.127 S 
ATOM     85  O   UNL A   1      43.538  37.304  38.791  1.00  0.00    -0.237 OA
ATOM     86  O   UNL A   1      45.516  36.621  37.525  1.00  0.00    -0.237 OA
ATOM     87  O   UNL A   1      44.181  38.556  36.775  1.00  0.00    -0.744 OA
ENDBRANCH  81  84
ENDBRANCH  53  77
BRANCH  65  88
ATOM     88  C   UNL A   1      45.879  27.721  33.782  1.00  0.00     0.023 A 
ATOM     89  C   UNL A   1      47.129  27.144  33.493  1.00  0.00     0.012 A 
ATOM     90  C   UNL A   1      45.177  27.132  34.864  1.00  0.00     0.148 A 
ATOM     91  C   UNL A   1      47.631  26.040  34.196  1.00  0.00     0.002 A 
ATOM     92  C   UNL A   1      45.753  26.160  35.667  1.00  0.00     0.091 A 
ATOM     93  F   UNL A   1      43.898  27.445  35.099  1.00  0.00    -0.205 F 
ATOM     94  C   UNL A   1      46.964  25.577  35.317  1.00  0.00     0.022 A 
BRANCH  92  95
ATOM     95  S   UNL A   1      45.013  25.738  37.245  1.00  0.00     0.127 S 
ATOM     96  O   UNL A   1      44.048  24.712  36.857  1.00  0.00    -0.237 OA
ATOM     97  O   UNL A   1      46.165  25.242  38.001  1.00  0.00    -0.237 OA
ATOM     98  O   UNL A   1      44.457  26.983  37.760  1.00  0.00    -0.744 OA
ENDBRANCH  92  95
ENDBRANCH  65  88
ENDBRANCH  39  40
ENDBRANCH  32  34
ENDBRANCH  31  32
ENDBRANCH  30  31
ENDBRANCH  29  30
ENDBRANCH  28  29
ENDBRANCH  27  28
ENDBRANCH   1  27
TORSDOF 24
ENDMDL
MODEL 3
REMARK VINA RESULT:      -8.8      1.047      3.211
REMARK SMILES Cc1ccc(S(=O)(=O)N(c2ccccc2)[C@H](C)C(=O)OCCOCCOCCOC(=O)c2ccc(-c3c4nc(c(-c5cccc(S(=O)(=O)[O-])c5F)c5ccc([nH]5)c(-c5cccc(S(=O)(=O)[O-])c5F)c5nc(c(-c6cccc(S(=O)(=O)[O-])c6F)c6ccc3[nH]6)C=C5)C=C4)cc2)cc1
REMARK SMILES IDX 24 1 23 2 22 3 21 4 20 5 18 6 19 7 16 8 17 9 9 10 6 11 7 12
REMARK SMILES IDX 8 13 5 14 1 15 2 16 3 17 96 18 4 19 95 20 10 21 11 22 15 23
REMARK SMILES IDX 12 24 14 25 13 26 25 27 26 28 27 29 28 30 29 31 30 32 31 33
REMARK SMILES IDX 32 34 33 35 94 36 34 37 93 38 35 39 36 40 37 41 87 42 38 43
REMARK SMILES IDX 92 44 86 45 88 46 39 47 91 48 85 49 84 50 40 52 72 53 52 54
REMARK SMILES IDX 71 55 53 56 56 57 70 58 89 59 54 60 55 61 69 63 90 64 57 65
REMARK SMILES IDX 41 66 42 67 50 68 43 69 45 70 51 71 44 72 46 73 47 74 48 75
REMARK SMILES IDX 49 76 73 77 74 78 82 79 75 80 77 81 83 82 76 83 78 84 79 85
REMARK SMILES IDX 80 86 81 87 58 88 59 89 67 90 60 91 62 92 68 93 61 94 63 95
REMARK SMILES IDX 64 96 65 97 66 98
REMARK H PARENT 88 51 56 62
REMARK Flexibility Score: inf
ROOT
ATOM      1  C   UNL A   1      37.204  30.664  30.171  1.00  0.00     0.188 C 
ENDROOT
BRANCH   1   2
ATOM      2  O   UNL A   1      37.050  29.587  29.274  1.00  0.00    -0.376 OA
BRANCH   2   3
ATOM      3  C   UNL A   1      35.731  29.633  28.735  1.00  0.00     0.202 C 
BRANCH   3   4
ATOM      4  C   UNL A   1      35.564  29.579  27.155  1.00  0.00     0.261 C 
BRANCH   4   5
ATOM      5  O   UNL A   1      34.377  29.205  26.113  1.00  0.00    -0.462 OA
BRANCH   5   6
ATOM      6  C   UNL A   1      33.567  28.101  25.837  1.00  0.00     0.329 C 
ATOM      7  O   UNL A   1      33.160  27.444  26.792  1.00  0.00    -0.250 OA
BRANCH   6   8
ATOM      8  C   UNL A   1      33.112  27.481  24.448  1.00  0.00     0.206 C 
ATOM      9  C   UNL A   1      33.991  27.465  23.203  1.00  0.00     0.045 C 
BRANCH   8  10
ATOM     10  N   UNL A   1      32.444  26.056  24.636  1.00  0.00    -0.252 N 
BRANCH  10  11
ATOM     11  S   UNL A   1      30.726  25.860  24.549  1.00  0.00     0.265 S 
ATOM     12  O   UNL A   1      30.268  25.715  25.924  1.00  0.00    -0.201 OA
ATOM     13  O   UNL A   1      30.424  24.812  23.593  1.00  0.00    -0.201 OA
BRANCH  11  14
ATOM     14  C   UNL A   1      29.779  27.311  23.965  1.00  0.00     0.088 A 
ATOM     15  C   UNL A   1      27.653  30.726  22.258  1.00  0.00     0.044 C 
ATOM     16  C   UNL A   1      28.416  29.578  22.860  1.00  0.00    -0.051 A 
ATOM     17  C   UNL A   1      29.733  29.685  23.315  1.00  0.00     0.005 A 
ATOM     18  C   UNL A   1      27.773  28.361  23.048  1.00  0.00     0.005 A 
ATOM     19  C   UNL A   1      30.416  28.559  23.842  1.00  0.00     0.022 A 
ATOM     20  C   UNL A   1      28.443  27.271  23.628  1.00  0.00     0.022 A 
ENDBRANCH  11  14
ENDBRANCH  10  11
BRANCH  10  21
ATOM     21  C   UNL A   1      33.297  24.922  24.718  1.00  0.00     0.053 A 
ATOM     22  C   UNL A   1      34.065  24.335  23.287  1.00  0.00     0.027 A 
ATOM     23  C   UNL A   1      33.499  24.292  26.244  1.00  0.00     0.027 A 
ATOM     24  C   UNL A   1      35.107  22.927  23.205  1.00  0.00     0.002 A 
ATOM     25  C   UNL A   1      34.550  22.923  26.398  1.00  0.00     0.002 A 
ATOM     26  C   UNL A   1      35.410  22.066  24.714  1.00  0.00     0.000 A 
ENDBRANCH  10  21
ENDBRANCH   8  10
ENDBRANCH   6   8
ENDBRANCH   5   6
ENDBRANCH   4   5
ENDBRANCH   3   4
ENDBRANCH   2   3
ENDBRANCH   1   2
BRANCH   1  27
ATOM     27  C   UNL A   1      36.213  30.592  31.323  1.00  0.00     0.188 C 
BRANCH  27  28
ATOM     28  O   UNL A   1      36.645  29.833  32.425  1.00  0.00    -0.376 OA
BRANCH  28  29
ATOM     29  C   UNL A   1      37.947  29.340  32.597  1.00  0.00     0.202 C 
BRANCH  29  30
ATOM     30  C   UNL A   1      38.547  30.271  33.630  1.00  0.00     0.261 C 
BRANCH  30  31
ATOM     31  O   UNL A   1      37.662  31.413  33.866  1.00  0.00    -0.460 OA
BRANCH  31  32
ATOM     32  C   UNL A   1      38.165  32.460  34.598  1.00  0.00     0.338 C 
ATOM     33  O   UNL A   1      38.001  32.593  35.801  1.00  0.00    -0.246 OA
BRANCH  32  34
ATOM     34  C   UNL A   1      38.807  33.483  33.680  1.00  0.00     0.060 A 
ATOM     35  C   UNL A   1      38.294  33.709  32.409  1.00  0.00     0.016 A 
ATOM     36  C   UNL A   1      40.079  34.005  33.954  1.00  0.00     0.016 A 
ATOM     37  C   UNL A   1      39.135  34.265  31.416  1.00  0.00     0.010 A 
ATOM     38  C   UNL A   1      40.947  34.397  32.906  1.00  0.00     0.010 A 
ATOM     39  C   UNL A   1      40.519  34.377  31.577  1.00  0.00    -0.014 A 
BRANCH  39  40
ATOM     40  C   UNL A   1      41.468  34.480  30.350  1.00  0.00     0.031 A 
ATOM     41  C   UNL A   1      42.198  33.019  30.365  1.00  0.00     0.074 A 
ATOM     42  C   UNL A   1      41.647  35.585  29.426  1.00  0.00     0.049 A 
ATOM     43  N   UNL A   1      43.792  32.322  29.837  1.00  0.00    -0.248 NA
ATOM     44  C   UNL A   1      40.875  31.498  30.109  1.00  0.00     0.031 C 
ATOM     45  C   UNL A   1      41.698  35.728  27.944  1.00  0.00     0.029 A 
ATOM     46  N   UNL A   1      42.216  36.874  29.691  1.00  0.00    -0.354 N 
ATOM     47  C   UNL A   1      43.581  30.636  29.128  1.00  0.00     0.074 A 
ATOM     48  C   UNL A   1      41.702  30.227  29.441  1.00  0.00     0.031 C 
ATOM     49  C   UNL A   1      42.442  36.801  27.547  1.00  0.00     0.029 A 
ATOM     50  C   UNL A   1      42.889  37.561  28.697  1.00  0.00     0.049 A 
ATOM     51  H   UNL A   1      42.129  37.272  30.588  1.00  0.00     0.167 HD
ATOM     52  C   UNL A   1      44.129  30.422  27.850  1.00  0.00     0.034 A 
ATOM     53  C   UNL A   1      43.985  38.375  28.921  1.00  0.00     0.034 A 
ATOM     54  C   UNL A   1      44.665  31.656  27.097  1.00  0.00     0.049 A 
ATOM     55  C   UNL A   1      45.199  37.673  28.310  1.00  0.00     0.074 A 
ATOM     56  C   UNL A   1      44.158  32.359  25.992  1.00  0.00     0.029 A 
ATOM     57  N   UNL A   1      45.702  32.510  27.549  1.00  0.00    -0.354 N 
ATOM     58  N   UNL A   1      45.177  36.507  27.699  1.00  0.00    -0.248 NA
ATOM     59  C   UNL A   1      46.535  38.252  28.360  1.00  0.00     0.031 C 
ATOM     60  C   UNL A   1      44.799  33.640  25.865  1.00  0.00     0.029 A 
ATOM     61  C   UNL A   1      45.754  33.760  26.860  1.00  0.00     0.049 A 
ATOM     62  H   UNL A   1      46.326  32.266  28.270  1.00  0.00     0.167 HD
ATOM     63  C   UNL A   1      46.469  36.081  27.460  1.00  0.00     0.074 A 
ATOM     64  C   UNL A   1      47.250  37.287  27.758  1.00  0.00     0.031 C 
ATOM     65  C   UNL A   1      46.818  34.786  27.101  1.00  0.00     0.034 A 
BRANCH  52  66
ATOM     66  C   UNL A   1      43.555  29.191  27.161  1.00  0.00     0.023 A 
ATOM     67  C   UNL A   1      42.501  29.315  26.238  1.00  0.00     0.012 A 
ATOM     68  C   UNL A   1      43.985  27.872  27.457  1.00  0.00     0.148 A 
ATOM     69  C   UNL A   1      41.826  28.199  25.731  1.00  0.00     0.002 A 
ATOM     70  C   UNL A   1      43.264  26.762  27.013  1.00  0.00     0.091 A 
ATOM     71  F   UNL A   1      45.085  27.694  28.208  1.00  0.00    -0.205 F 
ATOM     72  C   UNL A   1      42.182  26.923  26.146  1.00  0.00     0.022 A 
BRANCH  70  73
ATOM     73  S   UNL A   1      43.582  25.119  27.682  1.00  0.00     0.127 S 
ATOM     74  O   UNL A   1      44.956  24.853  27.246  1.00  0.00    -0.237 OA
ATOM     75  O   UNL A   1      43.430  25.325  29.119  1.00  0.00    -0.237 OA
ATOM     76  O   UNL A   1      42.593  24.257  27.043  1.00  0.00    -0.744 OA
ENDBRANCH  70  73
ENDBRANCH  52  66
BRANCH  53  77
ATOM     77  C   UNL A   1      44.056  39.369  30.153  1.00  0.00     0.023 A 
ATOM     78  C   UNL A   1      44.863  38.978  31.252  1.00  0.00     0.012 A 
ATOM     79  C   UNL A   1      43.588  40.718  30.217  1.00  0.00     0.148 A 
ATOM     80  C   UNL A   1      45.317  39.886  32.238  1.00  0.00     0.002 A 
ATOM     81  C   UNL A   1      44.180  41.657  31.104  1.00  0.00     0.091 A 
ATOM     82  F   UNL A   1      42.633  41.121  29.367  1.00  0.00    -0.205 F 
ATOM     83  C   UNL A   1      45.028  41.238  32.127  1.00  0.00     0.022 A 
BRANCH  81  84
ATOM     84  S   UNL A   1      44.180  43.457  30.797  1.00  0.00     0.127 S 
ATOM     85  O   UNL A   1      44.967  43.990  31.909  1.00  0.00    -0.237 OA
ATOM     86  O   UNL A   1      44.863  43.541  29.507  1.00  0.00    -0.237 OA
ATOM     87  O   UNL A   1      42.781  43.846  30.796  1.00  0.00    -0.744 OA
ENDBRANCH  81  84
ENDBRANCH  53  77
BRANCH  65  88
ATOM     88  C   UNL A   1      48.256  34.327  26.842  1.00  0.00     0.023 A 
ATOM     89  C   UNL A   1      48.938  34.444  25.618  1.00  0.00     0.012 A 
ATOM     90  C   UNL A   1      49.016  33.778  27.907  1.00  0.00     0.148 A 
ATOM     91  C   UNL A   1      50.261  34.013  25.446  1.00  0.00     0.002 A 
ATOM     92  C   UNL A   1      50.372  33.519  27.781  1.00  0.00     0.091 A 
ATOM     93  F   UNL A   1      48.425  33.418  29.052  1.00  0.00    -0.205 F 
ATOM     94  C   UNL A   1      50.995  33.594  26.541  1.00  0.00     0.022 A 
BRANCH  92  95
ATOM     95  S   UNL A   1      51.373  33.219  29.237  1.00  0.00     0.127 S 
ATOM     96  O   UNL A   1      50.527  32.303  29.998  1.00  0.00    -0.237 OA
ATOM     97  O   UNL A   1      52.575  32.611  28.664  1.00  0.00    -0.237 OA
ATOM     98  O   UNL A   1      51.598  34.530  29.832  1.00  0.00    -0.744 OA
ENDBRANCH  92  95
ENDBRANCH  65  88
ENDBRANCH  39  40
ENDBRANCH  32  34
ENDBRANCH  31  32
ENDBRANCH  30  31
ENDBRANCH  29  30
ENDBRANCH  28  29
ENDBRANCH  27  28
ENDBRANCH   1  27
TORSDOF 24
ENDMDL
