MODEL 1
REMARK VINA RESULT:     -10.1      0.000      0.000
REMARK SMILES [NH3+][C@@H]1C=C[C@H](C(=O)NC[C@H](O)C(=O)OCCOCCOCCOC(=O)c2ccc(-c3c4nc(c(-c5cccc(S(=O)(=O)[O-])c5F)c5ccc([nH]5)c(-c5cccc(S(=O)(=O)[O-])c5F)c5nc(c(-c6cccc(S(=O)(=O)[O-])c6F)c6ccc3[nH]6)C=C5)C=C4)cc2)C1
REMARK SMILES IDX 18 1 17 2 16 3 15 4 14 5 12 6 13 7 10 8 9 9 8 10 6 11 7 12
REMARK SMILES IDX 5 14 2 15 3 16 89 17 4 18 1 19 11 23 19 25 20 26 21 27 22 28
REMARK SMILES IDX 23 29 24 30 25 31 26 32 27 33 88 34 28 35 87 36 29 37 30 38
REMARK SMILES IDX 31 39 81 40 32 41 86 42 80 43 82 44 33 45 85 46 79 47 78 48
REMARK SMILES IDX 34 50 66 51 46 52 65 53 47 54 50 55 64 56 83 57 48 58 49 59
REMARK SMILES IDX 63 61 84 62 51 63 35 64 36 65 44 66 37 67 39 68 45 69 38 70
REMARK SMILES IDX 40 71 41 72 42 73 43 74 67 75 68 76 76 77 69 78 71 79 77 80
REMARK SMILES IDX 70 81 72 82 73 83 74 84 75 85 52 86 53 87 61 88 54 89 56 90
REMARK SMILES IDX 62 91 55 92 57 93 58 94 59 95 60 96
REMARK H PARENT 8 13 1 20 1 21 1 22 11 24 82 49 50 60
REMARK Flexibility Score: inf
ROOT
ATOM      1  C   UNL A   1      31.311  27.990  24.438  1.00  0.00     0.188 C 
ENDROOT
BRANCH   1   2
ATOM      2  O   UNL A   1      30.255  27.057  24.637  1.00  0.00    -0.376 OA
BRANCH   2   3
ATOM      3  C   UNL A   1      30.054  26.070  23.628  1.00  0.00     0.202 C 
BRANCH   3   4
ATOM      4  C   UNL A   1      30.324  24.620  24.043  1.00  0.00     0.261 C 
BRANCH   4   5
ATOM      5  O   UNL A   1      31.517  24.511  24.855  1.00  0.00    -0.461 OA
BRANCH   5   6
ATOM      6  C   UNL A   1      31.350  24.234  26.175  1.00  0.00     0.336 C 
ATOM      7  O   UNL A   1      31.283  25.086  27.053  1.00  0.00    -0.249 OA
BRANCH   6   8
ATOM      8  C   UNL A   1      31.239  22.718  26.484  1.00  0.00     0.243 C 
BRANCH   8   9
ATOM      9  C   UNL A   1      32.406  21.997  25.779  1.00  0.00     0.159 C 
BRANCH   9  10
ATOM     10  N   UNL A   1      32.289  21.856  24.333  1.00  0.00    -0.352 N 
ATOM     11  C   UNL A   1      32.219  20.766  23.528  1.00  0.00     0.227 C 
ATOM     12  O   UNL A   1      32.155  20.983  22.310  1.00  0.00    -0.274 OA
ATOM     13  H   UNL A   1      32.256  22.714  23.849  1.00  0.00     0.163 HD
BRANCH  11  14
ATOM     14  C   UNL A   1      32.255  19.318  24.029  1.00  0.00     0.107 C 
ATOM     15  C   UNL A   1      33.937  17.608  24.584  1.00  0.00     0.205 C 
ATOM     16  C   UNL A   1      33.368  17.420  23.221  1.00  0.00     0.033 C 
ATOM     17  C   UNL A   1      33.309  18.927  25.071  1.00  0.00     0.087 C 
ATOM     18  C   UNL A   1      32.452  18.343  22.917  1.00  0.00    -0.012 C 
BRANCH  15  19
ATOM     19  N   UNL A   1      35.384  17.639  24.622  1.00  0.00    -0.352 N 
ATOM     20  H   UNL A   1      35.698  17.652  25.593  1.00  0.00     0.345 HD
ATOM     21  H   UNL A   1      35.718  18.476  24.145  1.00  0.00     0.345 HD
ATOM     22  H   UNL A   1      35.753  16.810  24.155  1.00  0.00     0.345 HD
ENDBRANCH  15  19
ENDBRANCH  11  14
ENDBRANCH   9  10
ENDBRANCH   8   9
BRANCH   8  23
ATOM     23  O   UNL A   1      30.024  22.022  26.250  1.00  0.00    -0.380 OA
ATOM     24  H   UNL A   1      29.751  22.148  25.327  1.00  0.00     0.211 HD
ENDBRANCH   8  23
ENDBRANCH   6   8
ENDBRANCH   5   6
ENDBRANCH   4   5
ENDBRANCH   3   4
ENDBRANCH   2   3
ENDBRANCH   1   2
BRANCH   1  25
ATOM     25  C   UNL A   1      31.653  28.909  25.623  1.00  0.00     0.188 C 
BRANCH  25  26
ATOM     26  O   UNL A   1      31.947  30.240  25.249  1.00  0.00    -0.376 OA
BRANCH  26  27
ATOM     27  C   UNL A   1      31.020  31.228  25.672  1.00  0.00     0.202 C 
BRANCH  27  28
ATOM     28  C   UNL A   1      31.495  32.239  26.730  1.00  0.00     0.261 C 
BRANCH  28  29
ATOM     29  O   UNL A   1      32.688  31.896  27.459  1.00  0.00    -0.460 OA
BRANCH  29  30
ATOM     30  C   UNL A   1      33.601  32.865  27.699  1.00  0.00     0.338 C 
ATOM     31  O   UNL A   1      33.390  34.064  27.760  1.00  0.00    -0.246 OA
BRANCH  30  32
ATOM     32  C   UNL A   1      34.842  32.189  28.168  1.00  0.00     0.060 A 
ATOM     33  C   UNL A   1      34.839  30.794  28.328  1.00  0.00     0.016 A 
ATOM     34  C   UNL A   1      36.026  32.908  28.351  1.00  0.00     0.016 A 
ATOM     35  C   UNL A   1      36.011  30.122  28.691  1.00  0.00     0.010 A 
ATOM     36  C   UNL A   1      37.191  32.238  28.740  1.00  0.00     0.010 A 
ATOM     37  C   UNL A   1      37.182  30.848  28.945  1.00  0.00    -0.014 A 
BRANCH  37  38
ATOM     38  C   UNL A   1      38.309  30.211  29.675  1.00  0.00     0.031 A 
ATOM     39  C   UNL A   1      38.546  30.655  31.096  1.00  0.00     0.074 A 
ATOM     40  C   UNL A   1      39.117  29.293  29.114  1.00  0.00     0.049 A 
ATOM     41  N   UNL A   1      39.494  30.313  31.928  1.00  0.00    -0.248 NA
ATOM     42  C   UNL A   1      37.578  31.621  31.648  1.00  0.00     0.031 C 
ATOM     43  C   UNL A   1      38.994  28.764  27.758  1.00  0.00     0.029 A 
ATOM     44  N   UNL A   1      40.228  28.662  29.621  1.00  0.00    -0.354 N 
ATOM     45  C   UNL A   1      39.254  31.040  33.089  1.00  0.00     0.074 A 
ATOM     46  C   UNL A   1      38.079  31.849  32.852  1.00  0.00     0.031 C 
ATOM     47  C   UNL A   1      40.009  27.910  27.529  1.00  0.00     0.029 A 
ATOM     48  C   UNL A   1      40.869  27.852  28.712  1.00  0.00     0.049 A 
ATOM     49  H   UNL A   1      40.536  28.778  30.550  1.00  0.00     0.167 HD
ATOM     50  C   UNL A   1      39.935  31.026  34.257  1.00  0.00     0.034 A 
ATOM     51  C   UNL A   1      42.026  27.165  28.819  1.00  0.00     0.034 A 
ATOM     52  C   UNL A   1      41.099  30.223  34.502  1.00  0.00     0.049 A 
ATOM     53  C   UNL A   1      42.796  27.205  30.118  1.00  0.00     0.074 A 
ATOM     54  C   UNL A   1      41.846  30.127  35.662  1.00  0.00     0.029 A 
ATOM     55  N   UNL A   1      41.693  29.389  33.570  1.00  0.00    -0.354 N 
ATOM     56  N   UNL A   1      42.495  27.809  31.242  1.00  0.00    -0.248 NA
ATOM     57  C   UNL A   1      44.055  26.442  30.171  1.00  0.00     0.031 C 
ATOM     58  C   UNL A   1      42.908  29.248  35.424  1.00  0.00     0.029 A 
ATOM     59  C   UNL A   1      42.802  28.776  34.125  1.00  0.00     0.049 A 
ATOM     60  H   UNL A   1      41.373  29.253  32.649  1.00  0.00     0.167 HD
ATOM     61  C   UNL A   1      43.498  27.463  32.145  1.00  0.00     0.074 A 
ATOM     62  C   UNL A   1      44.408  26.584  31.442  1.00  0.00     0.031 C 
ATOM     63  C   UNL A   1      43.660  27.848  33.436  1.00  0.00     0.034 A 
BRANCH  50  64
ATOM     64  C   UNL A   1      39.417  31.896  35.369  1.00  0.00     0.023 A 
ATOM     65  C   UNL A   1      38.492  31.365  36.293  1.00  0.00     0.012 A 
ATOM     66  C   UNL A   1      39.872  33.218  35.526  1.00  0.00     0.148 A 
ATOM     67  C   UNL A   1      38.006  32.147  37.338  1.00  0.00     0.002 A 
ATOM     68  C   UNL A   1      39.418  33.977  36.597  1.00  0.00     0.091 A 
ATOM     69  F   UNL A   1      40.729  33.711  34.621  1.00  0.00    -0.205 F 
ATOM     70  C   UNL A   1      38.477  33.448  37.497  1.00  0.00     0.022 A 
BRANCH  68  71
ATOM     71  S   UNL A   1      40.018  35.636  36.932  1.00  0.00     0.127 S 
ATOM     72  O   UNL A   1      41.461  35.415  37.024  1.00  0.00    -0.237 OA
ATOM     73  O   UNL A   1      39.588  36.364  35.738  1.00  0.00    -0.237 OA
ATOM     74  O   UNL A   1      39.372  36.056  38.167  1.00  0.00    -0.744 OA
ENDBRANCH  68  71
ENDBRANCH  50  64
BRANCH  51  75
ATOM     75  C   UNL A   1      42.532  26.347  27.677  1.00  0.00     0.023 A 
ATOM     76  C   UNL A   1      43.386  26.937  26.725  1.00  0.00     0.012 A 
ATOM     77  C   UNL A   1      42.151  25.000  27.512  1.00  0.00     0.148 A 
ATOM     78  C   UNL A   1      43.820  26.217  25.610  1.00  0.00     0.002 A 
ATOM     79  C   UNL A   1      42.630  24.272  26.427  1.00  0.00     0.091 A 
ATOM     80  F   UNL A   1      41.318  24.461  28.412  1.00  0.00    -0.205 F 
ATOM     81  C   UNL A   1      43.448  24.883  25.465  1.00  0.00     0.022 A 
BRANCH  79  82
ATOM     82  S   UNL A   1      42.296  22.519  26.221  1.00  0.00     0.127 S 
ATOM     83  O   UNL A   1      40.841  22.500  26.115  1.00  0.00    -0.237 OA
ATOM     84  O   UNL A   1      43.009  22.222  24.978  1.00  0.00    -0.237 OA
ATOM     85  O   UNL A   1      42.855  21.873  27.401  1.00  0.00    -0.744 OA
ENDBRANCH  79  82
ENDBRANCH  51  75
BRANCH  63  86
ATOM     86  C   UNL A   1      44.828  27.284  34.204  1.00  0.00     0.023 A 
ATOM     87  C   UNL A   1      46.044  27.993  34.261  1.00  0.00     0.012 A 
ATOM     88  C   UNL A   1      44.688  26.093  34.946  1.00  0.00     0.148 A 
ATOM     89  C   UNL A   1      47.111  27.511  35.018  1.00  0.00     0.002 A 
ATOM     90  C   UNL A   1      45.738  25.645  35.738  1.00  0.00     0.091 A 
ATOM     91  F   UNL A   1      43.528  25.425  34.869  1.00  0.00    -0.205 F 
ATOM     92  C   UNL A   1      46.955  26.345  35.765  1.00  0.00     0.022 A 
BRANCH  90  93
ATOM     93  S   UNL A   1      45.592  24.210  36.810  1.00  0.00     0.127 S 
ATOM     94  O   UNL A   1      46.986  23.973  37.182  1.00  0.00    -0.237 OA
ATOM     95  O   UNL A   1      44.749  24.717  37.893  1.00  0.00    -0.237 OA
ATOM     96  O   UNL A   1      44.974  23.168  36.002  1.00  0.00    -0.744 OA
ENDBRANCH  90  93
ENDBRANCH  63  86
ENDBRANCH  37  38
ENDBRANCH  30  32
ENDBRANCH  29  30
ENDBRANCH  28  29
ENDBRANCH  27  28
ENDBRANCH  26  27
ENDBRANCH  25  26
ENDBRANCH   1  25
TORSDOF 25
ENDMDL
MODEL 2
REMARK VINA RESULT:      -9.7      5.374      8.666
REMARK SMILES [NH3+][C@@H]1C=C[C@H](C(=O)NC[C@H](O)C(=O)OCCOCCOCCOC(=O)c2ccc(-c3c4nc(c(-c5cccc(S(=O)(=O)[O-])c5F)c5ccc([nH]5)c(-c5cccc(S(=O)(=O)[O-])c5F)c5nc(c(-c6cccc(S(=O)(=O)[O-])c6F)c6ccc3[nH]6)C=C5)C=C4)cc2)C1
REMARK SMILES IDX 18 1 17 2 16 3 15 4 14 5 12 6 13 7 10 8 9 9 8 10 6 11 7 12
REMARK SMILES IDX 5 14 2 15 3 16 89 17 4 18 1 19 11 23 19 25 20 26 21 27 22 28
REMARK SMILES IDX 23 29 24 30 25 31 26 32 27 33 88 34 28 35 87 36 29 37 30 38
REMARK SMILES IDX 31 39 81 40 32 41 86 42 80 43 82 44 33 45 85 46 79 47 78 48
REMARK SMILES IDX 34 50 66 51 46 52 65 53 47 54 50 55 64 56 83 57 48 58 49 59
REMARK SMILES IDX 63 61 84 62 51 63 35 64 36 65 44 66 37 67 39 68 45 69 38 70
REMARK SMILES IDX 40 71 41 72 42 73 43 74 67 75 68 76 76 77 69 78 71 79 77 80
REMARK SMILES IDX 70 81 72 82 73 83 74 84 75 85 52 86 53 87 61 88 54 89 56 90
REMARK SMILES IDX 62 91 55 92 57 93 58 94 59 95 60 96
REMARK H PARENT 8 13 1 20 1 21 1 22 11 24 82 49 50 60
REMARK Flexibility Score: inf
ROOT
ATOM      1  C   UNL A   1      35.228  23.198  25.391  1.00  0.00     0.188 C 
ENDROOT
BRANCH   1   2
ATOM      2  O   UNL A   1      34.167  22.935  24.481  1.00  0.00    -0.376 OA
BRANCH   2   3
ATOM      3  C   UNL A   1      34.428  23.137  23.093  1.00  0.00     0.202 C 
BRANCH   3   4
ATOM      4  C   UNL A   1      33.198  23.307  22.196  1.00  0.00     0.261 C 
BRANCH   4   5
ATOM      5  O   UNL A   1      32.436  24.485  22.552  1.00  0.00    -0.461 OA
BRANCH   5   6
ATOM      6  C   UNL A   1      31.351  24.308  23.350  1.00  0.00     0.336 C 
ATOM      7  O   UNL A   1      30.410  23.571  23.076  1.00  0.00    -0.249 OA
BRANCH   6   8
ATOM      8  C   UNL A   1      31.405  25.125  24.667  1.00  0.00     0.243 C 
BRANCH   8   9
ATOM      9  C   UNL A   1      30.642  26.446  24.445  1.00  0.00     0.159 C 
BRANCH   9  10
ATOM     10  N   UNL A   1      29.188  26.352  24.451  1.00  0.00    -0.352 N 
ATOM     11  C   UNL A   1      28.226  27.085  23.835  1.00  0.00     0.227 C 
ATOM     12  O   UNL A   1      27.053  26.766  24.072  1.00  0.00    -0.274 OA
ATOM     13  H   UNL A   1      28.837  25.620  25.008  1.00  0.00     0.163 HD
BRANCH  11  14
ATOM     14  C   UNL A   1      28.506  28.281  22.918  1.00  0.00     0.107 C 
ATOM     15  C   UNL A   1      29.172  30.642  23.130  1.00  0.00     0.205 C 
ATOM     16  C   UNL A   1      27.703  30.483  22.945  1.00  0.00     0.033 C 
ATOM     17  C   UNL A   1      29.691  29.197  23.245  1.00  0.00     0.087 C 
ATOM     18  C   UNL A   1      27.337  29.204  22.826  1.00  0.00    -0.012 C 
BRANCH  15  19
ATOM     19  N   UNL A   1      29.539  31.453  24.272  1.00  0.00    -0.352 N 
ATOM     20  H   UNL A   1      30.412  31.944  24.072  1.00  0.00     0.345 HD
ATOM     21  H   UNL A   1      29.665  30.855  25.087  1.00  0.00     0.345 HD
ATOM     22  H   UNL A   1      28.801  32.132  24.458  1.00  0.00     0.345 HD
ENDBRANCH  15  19
ENDBRANCH  11  14
ENDBRANCH   9  10
ENDBRANCH   8   9
BRANCH   8  23
ATOM     23  O   UNL A   1      32.648  25.380  25.305  1.00  0.00    -0.380 OA
ATOM     24  H   UNL A   1      32.490  25.814  26.159  1.00  0.00     0.211 HD
ENDBRANCH   8  23
ENDBRANCH   6   8
ENDBRANCH   5   6
ENDBRANCH   4   5
ENDBRANCH   3   4
ENDBRANCH   2   3
ENDBRANCH   1   2
BRANCH   1  25
ATOM     25  C   UNL A   1      35.387  22.219  26.567  1.00  0.00     0.188 C 
BRANCH  25  26
ATOM     26  O   UNL A   1      35.303  20.858  26.195  1.00  0.00    -0.376 OA
BRANCH  26  27
ATOM     27  C   UNL A   1      35.959  20.496  24.990  1.00  0.00     0.202 C 
BRANCH  27  28
ATOM     28  C   UNL A   1      37.424  20.035  25.091  1.00  0.00     0.261 C 
BRANCH  28  29
ATOM     29  O   UNL A   1      38.406  21.059  25.334  1.00  0.00    -0.460 OA
BRANCH  29  30
ATOM     30  C   UNL A   1      39.458  20.769  26.133  1.00  0.00     0.338 C 
ATOM     31  O   UNL A   1      40.013  19.690  26.244  1.00  0.00    -0.246 OA
BRANCH  30  32
ATOM     32  C   UNL A   1      40.003  22.065  26.624  1.00  0.00     0.060 A 
ATOM     33  C   UNL A   1      39.429  23.262  26.167  1.00  0.00     0.016 A 
ATOM     34  C   UNL A   1      41.002  22.100  27.600  1.00  0.00     0.016 A 
ATOM     35  C   UNL A   1      39.866  24.493  26.669  1.00  0.00     0.010 A 
ATOM     36  C   UNL A   1      41.457  23.333  28.082  1.00  0.00     0.010 A 
ATOM     37  C   UNL A   1      40.916  24.535  27.596  1.00  0.00    -0.014 A 
BRANCH  37  38
ATOM     38  C   UNL A   1      41.630  25.813  27.854  1.00  0.00     0.031 A 
ATOM     39  C   UNL A   1      40.870  26.891  28.583  1.00  0.00     0.074 A 
ATOM     40  C   UNL A   1      42.892  26.039  27.447  1.00  0.00     0.049 A 
ATOM     41  N   UNL A   1      41.230  28.113  28.873  1.00  0.00    -0.248 NA
ATOM     42  C   UNL A   1      39.514  26.537  29.043  1.00  0.00     0.031 C 
ATOM     43  C   UNL A   1      43.746  25.083  26.746  1.00  0.00     0.029 A 
ATOM     44  N   UNL A   1      43.666  27.171  27.545  1.00  0.00    -0.354 N 
ATOM     45  C   UNL A   1      40.140  28.681  29.524  1.00  0.00     0.074 A 
ATOM     46  C   UNL A   1      39.102  27.675  29.576  1.00  0.00     0.031 C 
ATOM     47  C   UNL A   1      44.916  25.679  26.450  1.00  0.00     0.029 A 
ATOM     48  C   UNL A   1      44.885  27.065  26.916  1.00  0.00     0.049 A 
ATOM     49  H   UNL A   1      43.375  27.982  28.022  1.00  0.00     0.167 HD
ATOM     50  C   UNL A   1      40.014  29.921  30.048  1.00  0.00     0.034 A 
ATOM     51  C   UNL A   1      45.850  27.990  26.721  1.00  0.00     0.034 A 
ATOM     52  C   UNL A   1      41.040  30.923  30.005  1.00  0.00     0.049 A 
ATOM     53  C   UNL A   1      45.664  29.384  27.274  1.00  0.00     0.074 A 
ATOM     54  C   UNL A   1      41.013  32.203  30.527  1.00  0.00     0.029 A 
ATOM     55  N   UNL A   1      42.273  30.764  29.393  1.00  0.00    -0.354 N 
ATOM     56  N   UNL A   1      44.675  29.870  27.983  1.00  0.00    -0.248 NA
ATOM     57  C   UNL A   1      46.747  30.350  27.022  1.00  0.00     0.031 C 
ATOM     58  C   UNL A   1      42.224  32.828  30.212  1.00  0.00     0.029 A 
ATOM     59  C   UNL A   1      43.015  31.924  29.520  1.00  0.00     0.049 A 
ATOM     60  H   UNL A   1      42.575  29.946  28.936  1.00  0.00     0.167 HD
ATOM     61  C   UNL A   1      45.035  31.178  28.300  1.00  0.00     0.074 A 
ATOM     62  C   UNL A   1      46.341  31.404  27.718  1.00  0.00     0.031 C 
ATOM     63  C   UNL A   1      44.342  32.113  28.997  1.00  0.00     0.034 A 
BRANCH  50  64
ATOM     64  C   UNL A   1      38.719  30.250  30.739  1.00  0.00     0.023 A 
ATOM     65  C   UNL A   1      38.509  29.819  32.065  1.00  0.00     0.012 A 
ATOM     66  C   UNL A   1      37.731  31.019  30.095  1.00  0.00     0.148 A 
ATOM     67  C   UNL A   1      37.323  30.122  32.730  1.00  0.00     0.002 A 
ATOM     68  C   UNL A   1      36.570  31.356  30.780  1.00  0.00     0.091 A 
ATOM     69  F   UNL A   1      37.939  31.395  28.825  1.00  0.00    -0.205 F 
ATOM     70  C   UNL A   1      36.359  30.899  32.092  1.00  0.00     0.022 A 
BRANCH  68  71
ATOM     71  S   UNL A   1      35.302  32.412  30.074  1.00  0.00     0.127 S 
ATOM     72  O   UNL A   1      34.827  31.598  28.956  1.00  0.00    -0.237 OA
ATOM     73  O   UNL A   1      34.355  32.537  31.183  1.00  0.00    -0.237 OA
ATOM     74  O   UNL A   1      35.971  33.651  29.703  1.00  0.00    -0.744 OA
ENDBRANCH  68  71
ENDBRANCH  50  64
BRANCH  51  75
ATOM     75  C   UNL A   1      47.104  27.637  25.992  1.00  0.00     0.023 A 
ATOM     76  C   UNL A   1      48.212  27.150  26.713  1.00  0.00     0.012 A 
ATOM     77  C   UNL A   1      47.216  27.807  24.598  1.00  0.00     0.148 A 
ATOM     78  C   UNL A   1      49.420  26.877  26.068  1.00  0.00     0.002 A 
ATOM     79  C   UNL A   1      48.405  27.482  23.954  1.00  0.00     0.091 A 
ATOM     80  F   UNL A   1      46.161  28.295  23.931  1.00  0.00    -0.205 F 
ATOM     81  C   UNL A   1      49.515  27.035  24.688  1.00  0.00     0.022 A 
BRANCH  79  82
ATOM     82  S   UNL A   1      48.582  27.546  22.167  1.00  0.00     0.127 S 
ATOM     83  O   UNL A   1      49.790  28.351  22.013  1.00  0.00    -0.237 OA
ATOM     84  O   UNL A   1      48.736  26.130  21.830  1.00  0.00    -0.237 OA
ATOM     85  O   UNL A   1      47.350  28.149  21.674  1.00  0.00    -0.744 OA
ENDBRANCH  79  82
ENDBRANCH  51  75
BRANCH  63  86
ATOM     86  C   UNL A   1      44.994  33.453  29.229  1.00  0.00     0.023 A 
ATOM     87  C   UNL A   1      45.844  33.641  30.336  1.00  0.00     0.012 A 
ATOM     88  C   UNL A   1      44.835  34.497  28.296  1.00  0.00     0.148 A 
ATOM     89  C   UNL A   1      46.500  34.856  30.529  1.00  0.00     0.002 A 
ATOM     90  C   UNL A   1      45.530  35.688  28.467  1.00  0.00     0.091 A 
ATOM     91  F   UNL A   1      44.011  34.305  27.256  1.00  0.00    -0.205 F 
ATOM     92  C   UNL A   1      46.353  35.874  29.589  1.00  0.00     0.022 A 
BRANCH  90  93
ATOM     93  S   UNL A   1      45.480  37.015  27.256  1.00  0.00     0.127 S 
ATOM     94  O   UNL A   1      46.186  38.086  27.958  1.00  0.00    -0.237 OA
ATOM     95  O   UNL A   1      46.214  36.436  26.130  1.00  0.00    -0.237 OA
ATOM     96  O   UNL A   1      44.070  37.264  26.992  1.00  0.00    -0.744 OA
ENDBRANCH  90  93
ENDBRANCH  63  86
ENDBRANCH  37  38
ENDBRANCH  30  32
ENDBRANCH  29  30
ENDBRANCH  28  29
ENDBRANCH  27  28
ENDBRANCH  26  27
ENDBRANCH  25  26
ENDBRANCH   1  25
TORSDOF 25
ENDMDL
MODEL 3
REMARK VINA RESULT:      -9.7      4.941     10.599
REMARK SMILES [NH3+][C@@H]1C=C[C@H](C(=O)NC[C@H](O)C(=O)OCCOCCOCCOC(=O)c2ccc(-c3c4nc(c(-c5cccc(S(=O)(=O)[O-])c5F)c5ccc([nH]5)c(-c5cccc(S(=O)(=O)[O-])c5F)c5nc(c(-c6cccc(S(=O)(=O)[O-])c6F)c6ccc3[nH]6)C=C5)C=C4)cc2)C1
REMARK SMILES IDX 18 1 17 2 16 3 15 4 14 5 12 6 13 7 10 8 9 9 8 10 6 11 7 12
REMARK SMILES IDX 5 14 2 15 3 16 89 17 4 18 1 19 11 23 19 25 20 26 21 27 22 28
REMARK SMILES IDX 23 29 24 30 25 31 26 32 27 33 88 34 28 35 87 36 29 37 30 38
REMARK SMILES IDX 31 39 81 40 32 41 86 42 80 43 82 44 33 45 85 46 79 47 78 48
REMARK SMILES IDX 34 50 66 51 46 52 65 53 47 54 50 55 64 56 83 57 48 58 49 59
REMARK SMILES IDX 63 61 84 62 51 63 35 64 36 65 44 66 37 67 39 68 45 69 38 70
REMARK SMILES IDX 40 71 41 72 42 73 43 74 67 75 68 76 76 77 69 78 71 79 77 80
REMARK SMILES IDX 70 81 72 82 73 83 74 84 75 85 52 86 53 87 61 88 54 89 56 90
REMARK SMILES IDX 62 91 55 92 57 93 58 94 59 95 60 96
REMARK H PARENT 8 13 1 20 1 21 1 22 11 24 82 49 50 60
REMARK Flexibility Score: inf
ROOT
ATOM      1  C   UNL A   1      35.565  22.294  24.109  1.00  0.00     0.188 C 
ENDROOT
BRANCH   1   2
ATOM      2  O   UNL A   1      34.554  21.457  24.659  1.00  0.00    -0.376 OA
BRANCH   2   3
ATOM      3  C   UNL A   1      33.265  22.034  24.861  1.00  0.00     0.202 C 
BRANCH   3   4
ATOM      4  C   UNL A   1      32.121  21.047  25.119  1.00  0.00     0.261 C 
BRANCH   4   5
ATOM      5  O   UNL A   1      31.049  21.659  25.874  1.00  0.00    -0.461 OA
BRANCH   5   6
ATOM      6  C   UNL A   1      31.364  22.729  26.650  1.00  0.00     0.336 C 
ATOM      7  O   UNL A   1      32.115  22.678  27.618  1.00  0.00    -0.249 OA
BRANCH   6   8
ATOM      8  C   UNL A   1      30.689  24.049  26.197  1.00  0.00     0.243 C 
BRANCH   8   9
ATOM      9  C   UNL A   1      31.698  25.198  26.395  1.00  0.00     0.159 C 
BRANCH   9  10
ATOM     10  N   UNL A   1      32.469  25.580  25.219  1.00  0.00    -0.352 N 
ATOM     11  C   UNL A   1      32.246  26.497  24.243  1.00  0.00     0.227 C 
ATOM     12  O   UNL A   1      33.095  26.561  23.343  1.00  0.00    -0.274 OA
ATOM     13  H   UNL A   1      33.309  25.078  25.112  1.00  0.00     0.163 HD
BRANCH  11  14
ATOM     14  C   UNL A   1      31.012  27.403  24.175  1.00  0.00     0.107 C 
ATOM     15  C   UNL A   1      30.183  29.278  22.811  1.00  0.00     0.205 C 
ATOM     16  C   UNL A   1      30.799  29.736  24.087  1.00  0.00     0.033 C 
ATOM     17  C   UNL A   1      30.436  27.759  22.801  1.00  0.00     0.087 C 
ATOM     18  C   UNL A   1      31.247  28.722  24.832  1.00  0.00    -0.012 C 
BRANCH  15  19
ATOM     19  N   UNL A   1      30.708  29.933  21.632  1.00  0.00    -0.352 N 
ATOM     20  H   UNL A   1      31.552  30.452  21.879  1.00  0.00     0.345 HD
ATOM     21  H   UNL A   1      30.010  30.578  21.263  1.00  0.00     0.345 HD
ATOM     22  H   UNL A   1      30.933  29.233  20.926  1.00  0.00     0.345 HD
ENDBRANCH  15  19
ENDBRANCH  11  14
ENDBRANCH   9  10
ENDBRANCH   8   9
BRANCH   8  23
ATOM     23  O   UNL A   1      29.418  24.422  26.712  1.00  0.00    -0.380 OA
ATOM     24  H   UNL A   1      28.916  24.890  26.026  1.00  0.00     0.211 HD
ENDBRANCH   8  23
ENDBRANCH   6   8
ENDBRANCH   5   6
ENDBRANCH   4   5
ENDBRANCH   3   4
ENDBRANCH   2   3
ENDBRANCH   1   2
BRANCH   1  25
ATOM     25  C   UNL A   1      37.021  21.931  24.447  1.00  0.00     0.188 C 
BRANCH  25  26
ATOM     26  O   UNL A   1      37.147  20.911  25.418  1.00  0.00    -0.376 OA
BRANCH  26  27
ATOM     27  C   UNL A   1      37.807  19.727  25.000  1.00  0.00     0.202 C 
BRANCH  27  28
ATOM     28  C   UNL A   1      39.254  19.517  25.476  1.00  0.00     0.261 C 
BRANCH  28  29
ATOM     29  O   UNL A   1      39.990  20.699  25.842  1.00  0.00    -0.460 OA
BRANCH  29  30
ATOM     30  C   UNL A   1      40.758  20.663  26.955  1.00  0.00     0.338 C 
ATOM     31  O   UNL A   1      41.361  19.699  27.393  1.00  0.00    -0.246 OA
BRANCH  30  32
ATOM     32  C   UNL A   1      40.977  22.074  27.380  1.00  0.00     0.060 A 
ATOM     33  C   UNL A   1      40.215  23.091  26.782  1.00  0.00     0.016 A 
ATOM     34  C   UNL A   1      41.849  22.382  28.427  1.00  0.00     0.016 A 
ATOM     35  C   UNL A   1      40.340  24.415  27.214  1.00  0.00     0.010 A 
ATOM     36  C   UNL A   1      41.993  23.710  28.841  1.00  0.00     0.010 A 
ATOM     37  C   UNL A   1      41.266  24.738  28.216  1.00  0.00    -0.014 A 
BRANCH  37  38
ATOM     38  C   UNL A   1      41.674  26.151  28.424  1.00  0.00     0.031 A 
ATOM     39  C   UNL A   1      43.080  26.527  28.032  1.00  0.00     0.074 A 
ATOM     40  C   UNL A   1      40.856  27.076  28.960  1.00  0.00     0.049 A 
ATOM     41  N   UNL A   1      43.708  27.664  28.171  1.00  0.00    -0.248 NA
ATOM     42  C   UNL A   1      43.886  25.466  27.400  1.00  0.00     0.031 C 
ATOM     43  C   UNL A   1      39.472  26.855  29.370  1.00  0.00     0.029 A 
ATOM     44  N   UNL A   1      41.094  28.393  29.276  1.00  0.00    -0.354 N 
ATOM     45  C   UNL A   1      44.987  27.450  27.669  1.00  0.00     0.074 A 
ATOM     46  C   UNL A   1      45.051  26.072  27.234  1.00  0.00     0.031 C 
ATOM     47  C   UNL A   1      38.991  27.989  29.913  1.00  0.00     0.029 A 
ATOM     48  C   UNL A   1      40.041  29.008  29.913  1.00  0.00     0.049 A 
ATOM     49  H   UNL A   1      41.940  28.853  29.066  1.00  0.00     0.167 HD
ATOM     50  C   UNL A   1      46.016  28.322  27.562  1.00  0.00     0.034 A 
ATOM     51  C   UNL A   1      39.948  30.243  30.452  1.00  0.00     0.034 A 
ATOM     52  C   UNL A   1      45.959  29.691  27.987  1.00  0.00     0.049 A 
ATOM     53  C   UNL A   1      41.129  31.182  30.364  1.00  0.00     0.074 A 
ATOM     54  C   UNL A   1      46.945  30.658  27.900  1.00  0.00     0.029 A 
ATOM     55  N   UNL A   1      44.864  30.286  28.591  1.00  0.00    -0.354 N 
ATOM     56  N   UNL A   1      42.292  31.000  29.787  1.00  0.00    -0.248 NA
ATOM     57  C   UNL A   1      40.971  32.512  30.977  1.00  0.00     0.031 C 
ATOM     58  C   UNL A   1      46.452  31.834  28.472  1.00  0.00     0.029 A 
ATOM     59  C   UNL A   1      45.149  31.606  28.888  1.00  0.00     0.049 A 
ATOM     60  H   UNL A   1      44.010  29.835  28.780  1.00  0.00     0.167 HD
ATOM     61  C   UNL A   1      42.983  32.202  29.928  1.00  0.00     0.074 A 
ATOM     62  C   UNL A   1      42.102  33.110  30.631  1.00  0.00     0.031 C 
ATOM     63  C   UNL A   1      44.239  32.521  29.525  1.00  0.00     0.034 A 
BRANCH  50  64
ATOM     64  C   UNL A   1      47.286  27.817  26.934  1.00  0.00     0.023 A 
ATOM     65  C   UNL A   1      48.327  27.341  27.757  1.00  0.00     0.012 A 
ATOM     66  C   UNL A   1      47.434  27.775  25.534  1.00  0.00     0.148 A 
ATOM     67  C   UNL A   1      49.508  26.857  27.199  1.00  0.00     0.002 A 
ATOM     68  C   UNL A   1      48.595  27.249  24.984  1.00  0.00     0.091 A 
ATOM     69  F   UNL A   1      46.443  28.258  24.771  1.00  0.00    -0.205 F 
ATOM     70  C   UNL A   1      49.638  26.801  25.813  1.00  0.00     0.022 A 
BRANCH  68  71
ATOM     71  S   UNL A   1      48.830  27.065  23.214  1.00  0.00     0.127 S 
ATOM     72  O   UNL A   1      48.162  28.260  22.701  1.00  0.00    -0.237 OA
ATOM     73  O   UNL A   1      50.288  27.084  23.094  1.00  0.00    -0.237 OA
ATOM     74  O   UNL A   1      48.207  25.799  22.855  1.00  0.00    -0.744 OA
ENDBRANCH  68  71
ENDBRANCH  50  64
BRANCH  51  75
ATOM     75  C   UNL A   1      38.685  30.693  31.107  1.00  0.00     0.023 A 
ATOM     76  C   UNL A   1      38.487  30.445  32.479  1.00  0.00     0.012 A 
ATOM     77  C   UNL A   1      37.667  31.337  30.375  1.00  0.00     0.148 A 
ATOM     78  C   UNL A   1      37.287  30.794  33.103  1.00  0.00     0.002 A 
ATOM     79  C   UNL A   1      36.495  31.729  31.014  1.00  0.00     0.091 A 
ATOM     80  F   UNL A   1      37.860  31.543  29.065  1.00  0.00    -0.205 F 
ATOM     81  C   UNL A   1      36.295  31.442  32.373  1.00  0.00     0.022 A 
BRANCH  79  82
ATOM     82  S   UNL A   1      35.212  32.670  30.181  1.00  0.00     0.127 S 
ATOM     83  O   UNL A   1      35.930  33.881  29.794  1.00  0.00    -0.237 OA
ATOM     84  O   UNL A   1      34.858  31.782  29.074  1.00  0.00    -0.237 OA
ATOM     85  O   UNL A   1      34.155  32.849  31.168  1.00  0.00    -0.744 OA
ENDBRANCH  79  82
ENDBRANCH  51  75
BRANCH  63  86
ATOM     86  C   UNL A   1      44.728  33.925  29.773  1.00  0.00     0.023 A 
ATOM     87  C   UNL A   1      45.302  34.263  31.014  1.00  0.00     0.012 A 
ATOM     88  C   UNL A   1      44.703  34.884  28.740  1.00  0.00     0.148 A 
ATOM     89  C   UNL A   1      45.813  35.541  31.235  1.00  0.00     0.002 A 
ATOM     90  C   UNL A   1      45.259  36.141  28.951  1.00  0.00     0.091 A 
ATOM     91  F   UNL A   1      44.141  34.550  27.570  1.00  0.00    -0.205 F 
ATOM     92  C   UNL A   1      45.803  36.475  30.201  1.00  0.00     0.022 A 
BRANCH  90  93
ATOM     93  S   UNL A   1      45.380  37.371  27.646  1.00  0.00     0.127 S 
ATOM     94  O   UNL A   1      44.354  38.332  28.046  1.00  0.00    -0.237 OA
ATOM     95  O   UNL A   1      46.755  37.849  27.798  1.00  0.00    -0.237 OA
ATOM     96  O   UNL A   1      45.122  36.662  26.401  1.00  0.00    -0.744 OA
ENDBRANCH  90  93
ENDBRANCH  63  86
ENDBRANCH  37  38
ENDBRANCH  30  32
ENDBRANCH  29  30
ENDBRANCH  28  29
ENDBRANCH  27  28
ENDBRANCH  26  27
ENDBRANCH  25  26
ENDBRANCH   1  25
TORSDOF 25
ENDMDL
