MODEL 1
REMARK VINA RESULT:      -9.9      0.000      0.000
REMARK SMILES O=C(N/N=C/c1ccccc1O)C(=O)Nc1cccc(C(=O)OCCOCCOCCOC(=O)c2ccc(-c3c4nc(c(-c5cccc(S(=O)(=O)[O-])c5F)c5ccc([nH]5)c(-c5cccc(S(=O)(=O)[O-])c5F)c5nc(c(-c6cccc(S(=O)(=O)[O-])c6F)c6ccc3[nH]6)C=C5)C=C4)cc2)c1
REMARK SMILES IDX 27 1 26 2 25 3 24 4 23 5 21 6 22 7 20 8 16 9 17 10 98 11
REMARK SMILES IDX 18 12 19 13 15 14 13 15 14 16 2 18 1 19 3 20 4 22 5 23 6 24
REMARK SMILES IDX 7 25 11 26 8 27 10 28 9 29 12 30 28 32 29 33 30 34 31 35
REMARK SMILES IDX 32 36 33 37 34 38 35 39 36 40 97 41 37 42 96 43 38 44 39 45
REMARK SMILES IDX 40 46 90 47 41 48 95 49 89 50 91 51 42 52 94 53 88 54 87 55
REMARK SMILES IDX 43 57 75 58 55 59 74 60 56 61 59 62 73 63 92 64 57 65 58 66
REMARK SMILES IDX 72 68 93 69 60 70 44 71 45 72 53 73 46 74 48 75 54 76 47 77
REMARK SMILES IDX 49 78 50 79 51 80 52 81 76 82 77 83 85 84 78 85 80 86 86 87
REMARK SMILES IDX 79 88 81 89 82 90 83 91 84 92 61 93 62 94 70 95 63 96 65 97
REMARK SMILES IDX 71 98 64 99 66 100 67 101 68 102 69 103
REMARK H PARENT 15 17 3 21 12 31 91 56 59 67
REMARK Flexibility Score: inf
ROOT
ATOM      1  C   UNL A   1      34.491  34.818  28.309  1.00  0.00     0.188 C 
ENDROOT
BRANCH   1   2
ATOM      2  O   UNL A   1      34.469  33.584  27.614  1.00  0.00    -0.376 OA
BRANCH   2   3
ATOM      3  C   UNL A   1      35.401  32.572  27.938  1.00  0.00     0.202 C 
BRANCH   3   4
ATOM      4  C   UNL A   1      35.005  31.098  27.841  1.00  0.00     0.261 C 
BRANCH   4   5
ATOM      5  O   UNL A   1      33.689  30.858  27.320  1.00  0.00    -0.460 OA
BRANCH   5   6
ATOM      6  C   UNL A   1      33.521  29.634  26.765  1.00  0.00     0.338 C 
ATOM      7  O   UNL A   1      33.778  28.558  27.284  1.00  0.00    -0.246 OA
BRANCH   6   8
ATOM      8  C   UNL A   1      33.011  29.712  25.376  1.00  0.00     0.062 A 
ATOM      9  C   UNL A   1      32.923  28.351  22.547  1.00  0.00     0.042 A 
ATOM     10  C   UNL A   1      31.114  28.680  22.424  1.00  0.00     0.026 A 
ATOM     11  C   UNL A   1      33.893  28.965  23.959  1.00  0.00     0.041 A 
ATOM     12  C   UNL A   1      30.280  29.583  23.771  1.00  0.00     0.003 A 
ATOM     13  C   UNL A   1      31.205  30.021  25.264  1.00  0.00     0.016 A 
BRANCH   9  14
ATOM     14  N   UNL A   1      33.333  27.196  21.889  1.00  0.00    -0.318 N 
ATOM     15  C   UNL A   1      32.969  25.899  22.222  1.00  0.00     0.315 C 
ATOM     16  O   UNL A   1      33.264  25.008  21.419  1.00  0.00    -0.263 OA
ATOM     17  H   UNL A   1      33.935  27.309  21.118  1.00  0.00     0.170 HD
BRANCH  15  18
ATOM     18  C   UNL A   1      32.150  25.485  23.471  1.00  0.00     0.329 C 
ATOM     19  O   UNL A   1      30.922  25.533  23.409  1.00  0.00    -0.262 OA
ATOM     20  N   UNL A   1      32.784  25.243  24.698  1.00  0.00    -0.239 N 
ATOM     21  H   UNL A   1      32.732  25.878  25.449  1.00  0.00     0.194 HD
BRANCH  20  22
ATOM     22  N   UNL A   1      33.477  24.065  24.784  1.00  0.00    -0.180 NA
ATOM     23  C   UNL A   1      32.992  23.026  24.030  1.00  0.00     0.145 C 
BRANCH  23  24
ATOM     24  C   UNL A   1      32.742  20.911  24.287  1.00  0.00     0.036 A 
ATOM     25  C   UNL A   1      32.323  19.887  23.203  1.00  0.00     0.013 A 
ATOM     26  C   UNL A   1      32.961  19.944  25.442  1.00  0.00     0.124 A 
ATOM     27  C   UNL A   1      32.309  18.462  23.180  1.00  0.00     0.001 A 
ATOM     28  C   UNL A   1      32.906  18.503  25.418  1.00  0.00     0.047 A 
ATOM     29  C   UNL A   1      32.630  17.762  24.298  1.00  0.00     0.004 A 
BRANCH  26  30
ATOM     30  O   UNL A   1      33.245  20.280  26.766  1.00  0.00    -0.507 OA
ATOM     31  H   UNL A   1      32.652  20.035  27.449  1.00  0.00     0.293 HD
ENDBRANCH  26  30
ENDBRANCH  23  24
ENDBRANCH  20  22
ENDBRANCH  15  18
ENDBRANCH   9  14
ENDBRANCH   6   8
ENDBRANCH   5   6
ENDBRANCH   4   5
ENDBRANCH   3   4
ENDBRANCH   2   3
ENDBRANCH   1   2
BRANCH   1  32
ATOM     32  C   UNL A   1      33.279  35.280  29.150  1.00  0.00     0.188 C 
BRANCH  32  33
ATOM     33  O   UNL A   1      33.197  34.950  30.527  1.00  0.00    -0.376 OA
BRANCH  33  34
ATOM     34  C   UNL A   1      34.320  34.335  31.139  1.00  0.00     0.202 C 
BRANCH  34  35
ATOM     35  C   UNL A   1      34.411  32.805  31.151  1.00  0.00     0.261 C 
BRANCH  35  36
ATOM     36  O   UNL A   1      34.757  32.251  32.433  1.00  0.00    -0.460 OA
BRANCH  36  37
ATOM     37  C   UNL A   1      35.928  31.570  32.480  1.00  0.00     0.338 C 
ATOM     38  O   UNL A   1      36.311  30.710  31.705  1.00  0.00    -0.246 OA
BRANCH  37  39
ATOM     39  C   UNL A   1      36.795  32.100  33.551  1.00  0.00     0.060 A 
ATOM     40  C   UNL A   1      36.505  33.360  34.083  1.00  0.00     0.016 A 
ATOM     41  C   UNL A   1      37.964  31.441  33.926  1.00  0.00     0.016 A 
ATOM     42  C   UNL A   1      37.389  33.970  34.974  1.00  0.00     0.010 A 
ATOM     43  C   UNL A   1      38.858  32.065  34.810  1.00  0.00     0.010 A 
ATOM     44  C   UNL A   1      38.590  33.349  35.317  1.00  0.00    -0.014 A 
BRANCH  44  45
ATOM     45  C   UNL A   1      39.612  34.114  36.080  1.00  0.00     0.031 A 
ATOM     46  C   UNL A   1      39.558  34.104  37.583  1.00  0.00     0.074 A 
ATOM     47  C   UNL A   1      40.608  34.773  35.457  1.00  0.00     0.049 A 
ATOM     48  N   UNL A   1      40.239  34.816  38.442  1.00  0.00    -0.248 NA
ATOM     49  C   UNL A   1      38.617  33.155  38.199  1.00  0.00     0.031 C 
ATOM     50  C   UNL A   1      40.843  34.785  34.015  1.00  0.00     0.029 A 
ATOM     51  N   UNL A   1      41.592  35.586  35.966  1.00  0.00    -0.354 N 
ATOM     52  C   UNL A   1      39.758  34.458  39.696  1.00  0.00     0.074 A 
ATOM     53  C   UNL A   1      38.750  33.441  39.486  1.00  0.00     0.031 C 
ATOM     54  C   UNL A   1      41.880  35.599  33.748  1.00  0.00     0.029 A 
ATOM     55  C   UNL A   1      42.336  36.214  34.993  1.00  0.00     0.049 A 
ATOM     56  H   UNL A   1      41.751  35.706  36.930  1.00  0.00     0.167 HD
ATOM     57  C   UNL A   1      40.117  34.937  40.911  1.00  0.00     0.034 A 
ATOM     58  C   UNL A   1      43.234  37.217  35.087  1.00  0.00     0.034 A 
ATOM     59  C   UNL A   1      41.141  35.926  41.119  1.00  0.00     0.049 A 
ATOM     60  C   UNL A   1      43.563  37.791  36.441  1.00  0.00     0.074 A 
ATOM     61  C   UNL A   1      41.587  36.464  42.314  1.00  0.00     0.029 A 
ATOM     62  N   UNL A   1      41.868  36.537  40.110  1.00  0.00    -0.354 N 
ATOM     63  N   UNL A   1      43.128  37.425  37.623  1.00  0.00    -0.248 NA
ATOM     64  C   UNL A   1      44.519  38.909  36.477  1.00  0.00     0.031 C 
ATOM     65  C   UNL A   1      42.558  37.427  42.023  1.00  0.00     0.029 A 
ATOM     66  C   UNL A   1      42.749  37.459  40.652  1.00  0.00     0.049 A 
ATOM     67  H   UNL A   1      41.775  36.344  39.150  1.00  0.00     0.167 HD
ATOM     68  C   UNL A   1      43.779  38.244  38.541  1.00  0.00     0.074 A 
ATOM     69  C   UNL A   1      44.653  39.112  37.780  1.00  0.00     0.031 C 
ATOM     70  C   UNL A   1      43.652  38.284  39.891  1.00  0.00     0.034 A 
BRANCH  57  71
ATOM     71  C   UNL A   1      39.375  34.416  42.113  1.00  0.00     0.023 A 
ATOM     72  C   UNL A   1      38.190  35.044  42.545  1.00  0.00     0.012 A 
ATOM     73  C   UNL A   1      39.840  33.273  42.794  1.00  0.00     0.148 A 
ATOM     74  C   UNL A   1      37.500  34.565  43.659  1.00  0.00     0.002 A 
ATOM     75  C   UNL A   1      39.122  32.773  43.873  1.00  0.00     0.091 A 
ATOM     76  F   UNL A   1      40.981  32.703  42.380  1.00  0.00    -0.205 F 
ATOM     77  C   UNL A   1      37.960  33.426  44.315  1.00  0.00     0.022 A 
BRANCH  75  78
ATOM     78  S   UNL A   1      39.589  31.268  44.732  1.00  0.00     0.127 S 
ATOM     79  O   UNL A   1      38.491  31.120  45.687  1.00  0.00    -0.237 OA
ATOM     80  O   UNL A   1      39.593  30.285  43.649  1.00  0.00    -0.237 OA
ATOM     81  O   UNL A   1      40.896  31.530  45.320  1.00  0.00    -0.744 OA
ENDBRANCH  75  78
ENDBRANCH  57  71
BRANCH  58  82
ATOM     82  C   UNL A   1      43.867  37.771  33.854  1.00  0.00     0.023 A 
ATOM     83  C   UNL A   1      44.864  37.032  33.188  1.00  0.00     0.012 A 
ATOM     84  C   UNL A   1      43.482  39.025  33.340  1.00  0.00     0.148 A 
ATOM     85  C   UNL A   1      45.483  37.544  32.046  1.00  0.00     0.002 A 
ATOM     86  C   UNL A   1      44.059  39.500  32.169  1.00  0.00     0.091 A 
ATOM     87  F   UNL A   1      42.549  39.723  34.002  1.00  0.00    -0.205 F 
ATOM     88  C   UNL A   1      45.073  38.770  31.530  1.00  0.00     0.022 A 
BRANCH  86  89
ATOM     89  S   UNL A   1      43.507  41.008  31.363  1.00  0.00     0.127 S 
ATOM     90  O   UNL A   1      44.048  42.035  32.249  1.00  0.00    -0.237 OA
ATOM     91  O   UNL A   1      44.165  40.906  30.060  1.00  0.00    -0.237 OA
ATOM     92  O   UNL A   1      42.054  40.920  31.314  1.00  0.00    -0.744 OA
ENDBRANCH  86  89
ENDBRANCH  58  82
BRANCH  70  93
ATOM     93  C   UNL A   1      44.511  39.262  40.652  1.00  0.00     0.023 A 
ATOM     94  C   UNL A   1      45.781  38.871  41.121  1.00  0.00     0.012 A 
ATOM     95  C   UNL A   1      44.089  40.596  40.830  1.00  0.00     0.148 A 
ATOM     96  C   UNL A   1      46.604  39.784  41.781  1.00  0.00     0.002 A 
ATOM     97  C   UNL A   1      44.936  41.512  41.441  1.00  0.00     0.091 A 
ATOM     98  F   UNL A   1      42.871  40.944  40.391  1.00  0.00    -0.205 F 
ATOM     99  C   UNL A   1      46.188  41.106  41.929  1.00  0.00     0.022 A 
BRANCH  97 100
ATOM    100  S   UNL A   1      44.527  43.256  41.588  1.00  0.00     0.127 S 
ATOM    101  O   UNL A   1      45.683  43.772  42.320  1.00  0.00    -0.237 OA
ATOM    102  O   UNL A   1      44.452  43.675  40.189  1.00  0.00    -0.237 OA
ATOM    103  O   UNL A   1      43.260  43.313  42.306  1.00  0.00    -0.744 OA
ENDBRANCH  97 100
ENDBRANCH  70  93
ENDBRANCH  44  45
ENDBRANCH  37  39
ENDBRANCH  36  37
ENDBRANCH  35  36
ENDBRANCH  34  35
ENDBRANCH  33  34
ENDBRANCH  32  33
ENDBRANCH   1  32
TORSDOF 25
ENDMDL
MODEL 2
REMARK VINA RESULT:      -9.7      7.981     11.289
REMARK SMILES O=C(N/N=C/c1ccccc1O)C(=O)Nc1cccc(C(=O)OCCOCCOCCOC(=O)c2ccc(-c3c4nc(c(-c5cccc(S(=O)(=O)[O-])c5F)c5ccc([nH]5)c(-c5cccc(S(=O)(=O)[O-])c5F)c5nc(c(-c6cccc(S(=O)(=O)[O-])c6F)c6ccc3[nH]6)C=C5)C=C4)cc2)c1
REMARK SMILES IDX 27 1 26 2 25 3 24 4 23 5 21 6 22 7 20 8 16 9 17 10 98 11
REMARK SMILES IDX 18 12 19 13 15 14 13 15 14 16 2 18 1 19 3 20 4 22 5 23 6 24
REMARK SMILES IDX 7 25 11 26 8 27 10 28 9 29 12 30 28 32 29 33 30 34 31 35
REMARK SMILES IDX 32 36 33 37 34 38 35 39 36 40 97 41 37 42 96 43 38 44 39 45
REMARK SMILES IDX 40 46 90 47 41 48 95 49 89 50 91 51 42 52 94 53 88 54 87 55
REMARK SMILES IDX 43 57 75 58 55 59 74 60 56 61 59 62 73 63 92 64 57 65 58 66
REMARK SMILES IDX 72 68 93 69 60 70 44 71 45 72 53 73 46 74 48 75 54 76 47 77
REMARK SMILES IDX 49 78 50 79 51 80 52 81 76 82 77 83 85 84 78 85 80 86 86 87
REMARK SMILES IDX 79 88 81 89 82 90 83 91 84 92 61 93 62 94 70 95 63 96 65 97
REMARK SMILES IDX 71 98 64 99 66 100 67 101 68 102 69 103
REMARK H PARENT 15 17 3 21 12 31 91 56 59 67
REMARK Flexibility Score: inf
ROOT
ATOM      1  C   UNL A   1      38.818  22.188  26.117  1.00  0.00     0.188 C 
ENDROOT
BRANCH   1   2
ATOM      2  O   UNL A   1      38.731  23.561  26.453  1.00  0.00    -0.376 OA
BRANCH   2   3
ATOM      3  C   UNL A   1      39.828  24.213  27.061  1.00  0.00     0.202 C 
BRANCH   3   4
ATOM      4  C   UNL A   1      39.987  25.730  26.944  1.00  0.00     0.261 C 
BRANCH   4   5
ATOM      5  O   UNL A   1      40.661  26.355  28.046  1.00  0.00    -0.460 OA
BRANCH   5   6
ATOM      6  C   UNL A   1      39.839  26.796  29.027  1.00  0.00     0.338 C 
ATOM      7  O   UNL A   1      38.872  26.208  29.486  1.00  0.00    -0.246 OA
BRANCH   6   8
ATOM      8  C   UNL A   1      40.203  28.153  29.499  1.00  0.00     0.062 A 
ATOM      9  C   UNL A   1      39.277  31.134  29.843  1.00  0.00     0.042 A 
ATOM     10  C   UNL A   1      39.985  31.178  31.544  1.00  0.00     0.026 A 
ATOM     11  C   UNL A   1      39.485  29.673  28.778  1.00  0.00     0.041 A 
ATOM     12  C   UNL A   1      40.855  29.708  32.184  1.00  0.00     0.003 A 
ATOM     13  C   UNL A   1      40.890  28.188  31.201  1.00  0.00     0.016 A 
BRANCH   9  14
ATOM     14  N   UNL A   1      38.159  31.945  29.676  1.00  0.00    -0.318 N 
ATOM     15  C   UNL A   1      36.847  31.508  29.564  1.00  0.00     0.315 C 
ATOM     16  O   UNL A   1      35.961  32.367  29.616  1.00  0.00    -0.263 OA
ATOM     17  H   UNL A   1      38.313  32.916  29.634  1.00  0.00     0.170 HD
BRANCH  15  18
ATOM     18  C   UNL A   1      36.396  30.028  29.466  1.00  0.00     0.329 C 
ATOM     19  O   UNL A   1      36.430  29.336  30.484  1.00  0.00    -0.262 OA
ATOM     20  N   UNL A   1      36.134  29.438  28.222  1.00  0.00    -0.239 N 
ATOM     21  H   UNL A   1      36.751  28.792  27.808  1.00  0.00     0.194 HD
BRANCH  20  22
ATOM     22  N   UNL A   1      34.963  29.817  27.622  1.00  0.00    -0.180 NA
ATOM     23  C   UNL A   1      34.204  28.804  27.091  1.00  0.00     0.145 C 
BRANCH  23  24
ATOM     24  C   UNL A   1      33.018  28.519  25.326  1.00  0.00     0.036 A 
ATOM     25  C   UNL A   1      31.588  27.927  25.253  1.00  0.00     0.013 A 
ATOM     26  C   UNL A   1      33.200  28.856  23.853  1.00  0.00     0.124 A 
ATOM     27  C   UNL A   1      30.626  27.862  24.204  1.00  0.00     0.001 A 
ATOM     28  C   UNL A   1      32.231  28.750  22.790  1.00  0.00     0.047 A 
ATOM     29  C   UNL A   1      30.946  28.304  22.961  1.00  0.00     0.004 A 
BRANCH  26  30
ATOM     30  O   UNL A   1      34.366  29.324  23.244  1.00  0.00    -0.507 OA
ATOM     31  H   UNL A   1      35.200  28.990  23.511  1.00  0.00     0.293 HD
ENDBRANCH  26  30
ENDBRANCH  23  24
ENDBRANCH  20  22
ENDBRANCH  15  18
ENDBRANCH   9  14
ENDBRANCH   6   8
ENDBRANCH   5   6
ENDBRANCH   4   5
ENDBRANCH   3   4
ENDBRANCH   2   3
ENDBRANCH   1   2
BRANCH   1  32
ATOM     32  C   UNL A   1      40.187  21.478  26.015  1.00  0.00     0.188 C 
BRANCH  32  33
ATOM     33  O   UNL A   1      40.865  21.062  27.189  1.00  0.00    -0.376 OA
BRANCH  33  34
ATOM     34  C   UNL A   1      42.261  20.817  27.108  1.00  0.00     0.202 C 
BRANCH  34  35
ATOM     35  C   UNL A   1      42.877  20.486  25.745  1.00  0.00     0.261 C 
BRANCH  35  36
ATOM     36  O   UNL A   1      44.236  20.934  25.595  1.00  0.00    -0.460 OA
BRANCH  36  37
ATOM     37  C   UNL A   1      44.425  21.941  24.705  1.00  0.00     0.338 C 
ATOM     38  O   UNL A   1      44.387  21.863  23.489  1.00  0.00    -0.246 OA
BRANCH  37  39
ATOM     39  C   UNL A   1      44.560  23.234  25.404  1.00  0.00     0.060 A 
ATOM     40  C   UNL A   1      45.781  23.541  26.011  1.00  0.00     0.016 A 
ATOM     41  C   UNL A   1      43.462  24.070  25.593  1.00  0.00     0.016 A 
ATOM     42  C   UNL A   1      45.903  24.671  26.820  1.00  0.00     0.010 A 
ATOM     43  C   UNL A   1      43.584  25.197  26.421  1.00  0.00     0.010 A 
ATOM     44  C   UNL A   1      44.799  25.488  27.065  1.00  0.00    -0.014 A 
BRANCH  44  45
ATOM     45  C   UNL A   1      44.895  26.546  28.106  1.00  0.00     0.031 A 
ATOM     46  C   UNL A   1      44.786  26.155  29.554  1.00  0.00     0.074 A 
ATOM     47  C   UNL A   1      45.124  27.833  27.783  1.00  0.00     0.049 A 
ATOM     48  N   UNL A   1      44.683  26.915  30.613  1.00  0.00    -0.248 NA
ATOM     49  C   UNL A   1      44.806  24.713  29.848  1.00  0.00     0.031 C 
ATOM     50  C   UNL A   1      45.353  28.339  26.431  1.00  0.00     0.029 A 
ATOM     51  N   UNL A   1      45.174  28.955  28.575  1.00  0.00    -0.354 N 
ATOM     52  C   UNL A   1      44.551  26.047  31.691  1.00  0.00     0.074 A 
ATOM     53  C   UNL A   1      44.618  24.702  31.159  1.00  0.00     0.031 C 
ATOM     54  C   UNL A   1      45.478  29.677  26.481  1.00  0.00     0.029 A 
ATOM     55  C   UNL A   1      45.273  30.124  27.857  1.00  0.00     0.049 A 
ATOM     56  H   UNL A   1      45.143  28.925  29.559  1.00  0.00     0.167 HD
ATOM     57  C   UNL A   1      44.381  26.342  33.001  1.00  0.00     0.034 A 
ATOM     58  C   UNL A   1      45.147  31.409  28.251  1.00  0.00     0.034 A 
ATOM     59  C   UNL A   1      44.344  27.679  33.531  1.00  0.00     0.049 A 
ATOM     60  C   UNL A   1      44.881  31.714  29.703  1.00  0.00     0.074 A 
ATOM     61  C   UNL A   1      44.192  28.079  34.847  1.00  0.00     0.029 A 
ATOM     62  N   UNL A   1      44.447  28.834  32.772  1.00  0.00    -0.354 N 
ATOM     63  N   UNL A   1      44.789  30.890  30.718  1.00  0.00    -0.248 NA
ATOM     64  C   UNL A   1      44.713  33.130  30.066  1.00  0.00     0.031 C 
ATOM     65  C   UNL A   1      44.165  29.476  34.878  1.00  0.00     0.029 A 
ATOM     66  C   UNL A   1      44.344  29.948  33.588  1.00  0.00     0.049 A 
ATOM     67  H   UNL A   1      44.575  28.860  31.797  1.00  0.00     0.167 HD
ATOM     68  C   UNL A   1      44.585  31.687  31.841  1.00  0.00     0.074 A 
ATOM     69  C   UNL A   1      44.586  33.061  31.384  1.00  0.00     0.031 C 
ATOM     70  C   UNL A   1      44.398  31.313  33.132  1.00  0.00     0.034 A 
BRANCH  57  71
ATOM     71  C   UNL A   1      44.192  25.192  33.956  1.00  0.00     0.023 A 
ATOM     72  C   UNL A   1      42.897  24.776  34.323  1.00  0.00     0.012 A 
ATOM     73  C   UNL A   1      45.310  24.498  34.462  1.00  0.00     0.148 A 
ATOM     74  C   UNL A   1      42.718  23.712  35.207  1.00  0.00     0.002 A 
ATOM     75  C   UNL A   1      45.123  23.410  35.304  1.00  0.00     0.091 A 
ATOM     76  F   UNL A   1      46.534  24.923  34.118  1.00  0.00    -0.205 F 
ATOM     77  C   UNL A   1      43.829  23.024  35.689  1.00  0.00     0.022 A 
BRANCH  75  78
ATOM     78  S   UNL A   1      46.486  22.413  35.913  1.00  0.00     0.127 S 
ATOM     79  O   UNL A   1      45.799  21.506  36.833  1.00  0.00    -0.237 OA
ATOM     80  O   UNL A   1      46.976  21.782  34.688  1.00  0.00    -0.237 OA
ATOM     81  O   UNL A   1      47.420  23.343  36.534  1.00  0.00    -0.744 OA
ENDBRANCH  75  78
ENDBRANCH  57  71
BRANCH  58  82
ATOM     82  C   UNL A   1      45.239  32.511  27.249  1.00  0.00     0.023 A 
ATOM     83  C   UNL A   1      44.109  32.854  26.482  1.00  0.00     0.012 A 
ATOM     84  C   UNL A   1      46.441  33.221  27.059  1.00  0.00     0.148 A 
ATOM     85  C   UNL A   1      44.182  33.869  25.526  1.00  0.00     0.002 A 
ATOM     86  C   UNL A   1      46.489  34.269  26.147  1.00  0.00     0.091 A 
ATOM     87  F   UNL A   1      47.512  32.862  27.780  1.00  0.00    -0.205 F 
ATOM     88  C   UNL A   1      45.367  34.583  25.367  1.00  0.00     0.022 A 
BRANCH  86  89
ATOM     89  S   UNL A   1      47.932  35.325  25.965  1.00  0.00     0.127 S 
ATOM     90  O   UNL A   1      47.327  36.586  25.546  1.00  0.00    -0.237 OA
ATOM     91  O   UNL A   1      48.476  35.321  27.324  1.00  0.00    -0.237 OA
ATOM     92  O   UNL A   1      48.776  34.671  24.975  1.00  0.00    -0.744 OA
ENDBRANCH  86  89
ENDBRANCH  58  82
BRANCH  70  93
ATOM     93  C   UNL A   1      44.228  32.400  34.164  1.00  0.00     0.023 A 
ATOM     94  C   UNL A   1      45.358  33.000  34.751  1.00  0.00     0.012 A 
ATOM     95  C   UNL A   1      42.943  32.882  34.489  1.00  0.00     0.148 A 
ATOM     96  C   UNL A   1      45.213  34.041  35.668  1.00  0.00     0.002 A 
ATOM     97  C   UNL A   1      42.808  33.954  35.363  1.00  0.00     0.091 A 
ATOM     98  F   UNL A   1      41.878  32.287  33.932  1.00  0.00    -0.205 F 
ATOM     99  C   UNL A   1      43.940  34.527  35.964  1.00  0.00     0.022 A 
BRANCH  97 100
ATOM    100  S   UNL A   1      41.218  34.708  35.727  1.00  0.00     0.127 S 
ATOM    101  O   UNL A   1      40.421  33.548  36.121  1.00  0.00    -0.237 OA
ATOM    102  O   UNL A   1      41.553  35.620  36.820  1.00  0.00    -0.237 OA
ATOM    103  O   UNL A   1      40.794  35.367  34.498  1.00  0.00    -0.744 OA
ENDBRANCH  97 100
ENDBRANCH  70  93
ENDBRANCH  44  45
ENDBRANCH  37  39
ENDBRANCH  36  37
ENDBRANCH  35  36
ENDBRANCH  34  35
ENDBRANCH  33  34
ENDBRANCH  32  33
ENDBRANCH   1  32
TORSDOF 25
ENDMDL
MODEL 3
REMARK VINA RESULT:      -9.5      6.837     13.310
REMARK SMILES O=C(N/N=C/c1ccccc1O)C(=O)Nc1cccc(C(=O)OCCOCCOCCOC(=O)c2ccc(-c3c4nc(c(-c5cccc(S(=O)(=O)[O-])c5F)c5ccc([nH]5)c(-c5cccc(S(=O)(=O)[O-])c5F)c5nc(c(-c6cccc(S(=O)(=O)[O-])c6F)c6ccc3[nH]6)C=C5)C=C4)cc2)c1
REMARK SMILES IDX 27 1 26 2 25 3 24 4 23 5 21 6 22 7 20 8 16 9 17 10 98 11
REMARK SMILES IDX 18 12 19 13 15 14 13 15 14 16 2 18 1 19 3 20 4 22 5 23 6 24
REMARK SMILES IDX 7 25 11 26 8 27 10 28 9 29 12 30 28 32 29 33 30 34 31 35
REMARK SMILES IDX 32 36 33 37 34 38 35 39 36 40 97 41 37 42 96 43 38 44 39 45
REMARK SMILES IDX 40 46 90 47 41 48 95 49 89 50 91 51 42 52 94 53 88 54 87 55
REMARK SMILES IDX 43 57 75 58 55 59 74 60 56 61 59 62 73 63 92 64 57 65 58 66
REMARK SMILES IDX 72 68 93 69 60 70 44 71 45 72 53 73 46 74 48 75 54 76 47 77
REMARK SMILES IDX 49 78 50 79 51 80 52 81 76 82 77 83 85 84 78 85 80 86 86 87
REMARK SMILES IDX 79 88 81 89 82 90 83 91 84 92 61 93 62 94 70 95 63 96 65 97
REMARK SMILES IDX 71 98 64 99 66 100 67 101 68 102 69 103
REMARK H PARENT 15 17 3 21 12 31 91 56 59 67
REMARK Flexibility Score: inf
ROOT
ATOM      1  C   UNL A   1      35.754  35.015  33.058  1.00  0.00     0.188 C 
ENDROOT
BRANCH   1   2
ATOM      2  O   UNL A   1      35.939  34.459  34.347  1.00  0.00    -0.376 OA
BRANCH   2   3
ATOM      3  C   UNL A   1      37.219  34.013  34.750  1.00  0.00     0.202 C 
BRANCH   3   4
ATOM      4  C   UNL A   1      37.547  32.519  34.766  1.00  0.00     0.261 C 
BRANCH   4   5
ATOM      5  O   UNL A   1      38.657  32.152  35.598  1.00  0.00    -0.460 OA
BRANCH   5   6
ATOM      6  C   UNL A   1      38.735  30.829  35.874  1.00  0.00     0.338 C 
ATOM      7  O   UNL A   1      38.063  30.214  36.688  1.00  0.00    -0.246 OA
BRANCH   6   8
ATOM      8  C   UNL A   1      39.798  30.153  35.094  1.00  0.00     0.062 A 
ATOM      9  C   UNL A   1      41.809  27.745  34.959  1.00  0.00     0.042 A 
ATOM     10  C   UNL A   1      41.381  27.461  33.189  1.00  0.00     0.026 A 
ATOM     11  C   UNL A   1      41.113  29.153  35.878  1.00  0.00     0.041 A 
ATOM     12  C   UNL A   1      40.196  28.579  32.370  1.00  0.00     0.003 A 
ATOM     13  C   UNL A   1      39.355  29.859  33.336  1.00  0.00     0.016 A 
BRANCH   9  14
ATOM     14  N   UNL A   1      42.158  26.588  35.647  1.00  0.00    -0.318 N 
ATOM     15  C   UNL A   1      43.441  26.071  35.771  1.00  0.00     0.315 C 
ATOM     16  O   UNL A   1      43.600  25.148  36.576  1.00  0.00    -0.263 OA
ATOM     17  H   UNL A   1      41.431  26.092  36.087  1.00  0.00     0.170 HD
BRANCH  15  18
ATOM     18  C   UNL A   1      44.702  26.610  35.050  1.00  0.00     0.329 C 
ATOM     19  O   UNL A   1      44.961  26.183  33.925  1.00  0.00    -0.262 OA
ATOM     20  N   UNL A   1      45.627  27.417  35.727  1.00  0.00    -0.239 N 
ATOM     21  H   UNL A   1      46.506  27.079  36.016  1.00  0.00     0.194 HD
BRANCH  20  22
ATOM     22  N   UNL A   1      45.229  28.707  35.957  1.00  0.00    -0.180 NA
ATOM     23  C   UNL A   1      45.983  29.685  35.359  1.00  0.00     0.145 C 
BRANCH  23  24
ATOM     24  C   UNL A   1      46.714  31.628  35.903  1.00  0.00     0.036 A 
ATOM     25  C   UNL A   1      45.941  32.729  36.671  1.00  0.00     0.013 A 
ATOM     26  C   UNL A   1      48.053  32.338  35.773  1.00  0.00     0.124 A 
ATOM     27  C   UNL A   1      46.352  33.959  37.260  1.00  0.00     0.001 A 
ATOM     28  C   UNL A   1      48.448  33.603  36.341  1.00  0.00     0.047 A 
ATOM     29  C   UNL A   1      47.631  34.389  37.113  1.00  0.00     0.004 A 
BRANCH  26  30
ATOM     30  O   UNL A   1      49.164  31.895  35.052  1.00  0.00    -0.507 OA
ATOM     31  H   UNL A   1      49.120  31.826  34.118  1.00  0.00     0.293 HD
ENDBRANCH  26  30
ENDBRANCH  23  24
ENDBRANCH  20  22
ENDBRANCH  15  18
ENDBRANCH   9  14
ENDBRANCH   6   8
ENDBRANCH   5   6
ENDBRANCH   4   5
ENDBRANCH   3   4
ENDBRANCH   2   3
ENDBRANCH   1   2
BRANCH   1  32
ATOM     32  C   UNL A   1      34.676  36.093  32.804  1.00  0.00     0.188 C 
BRANCH  32  33
ATOM     33  O   UNL A   1      33.323  35.718  32.602  1.00  0.00    -0.376 OA
BRANCH  33  34
ATOM     34  C   UNL A   1      32.686  36.118  31.398  1.00  0.00     0.202 C 
BRANCH  34  35
ATOM     35  C   UNL A   1      33.149  35.499  30.075  1.00  0.00     0.261 C 
BRANCH  35  36
ATOM     36  O   UNL A   1      33.322  34.072  30.128  1.00  0.00    -0.460 OA
BRANCH  36  37
ATOM     37  C   UNL A   1      34.116  33.542  29.164  1.00  0.00     0.338 C 
ATOM     38  O   UNL A   1      33.825  33.350  27.996  1.00  0.00    -0.246 OA
BRANCH  37  39
ATOM     39  C   UNL A   1      35.485  33.332  29.675  1.00  0.00     0.060 A 
ATOM     40  C   UNL A   1      36.537  34.027  29.072  1.00  0.00     0.016 A 
ATOM     41  C   UNL A   1      35.756  32.356  30.631  1.00  0.00     0.016 A 
ATOM     42  C   UNL A   1      37.859  33.736  29.409  1.00  0.00     0.010 A 
ATOM     43  C   UNL A   1      37.088  32.055  30.955  1.00  0.00     0.010 A 
ATOM     44  C   UNL A   1      38.151  32.724  30.323  1.00  0.00    -0.014 A 
BRANCH  44  45
ATOM     45  C   UNL A   1      39.560  32.280  30.490  1.00  0.00     0.031 A 
ATOM     46  C   UNL A   1      40.461  33.048  31.418  1.00  0.00     0.074 A 
ATOM     47  C   UNL A   1      40.032  31.182  29.869  1.00  0.00     0.049 A 
ATOM     48  N   UNL A   1      41.752  32.943  31.598  1.00  0.00    -0.248 NA
ATOM     49  C   UNL A   1      39.817  34.066  32.264  1.00  0.00     0.031 C 
ATOM     50  C   UNL A   1      39.246  30.284  29.025  1.00  0.00     0.029 A 
ATOM     51  N   UNL A   1      41.300  30.654  29.834  1.00  0.00    -0.354 N 
ATOM     52  C   UNL A   1      42.088  33.928  32.520  1.00  0.00     0.074 A 
ATOM     53  C   UNL A   1      40.859  34.600  32.885  1.00  0.00     0.031 C 
ATOM     54  C   UNL A   1      40.057  29.338  28.520  1.00  0.00     0.029 A 
ATOM     55  C   UNL A   1      41.427  29.603  28.954  1.00  0.00     0.049 A 
ATOM     56  H   UNL A   1      42.043  30.991  30.384  1.00  0.00     0.167 HD
ATOM     57  C   UNL A   1      43.308  34.249  33.011  1.00  0.00     0.034 A 
ATOM     58  C   UNL A   1      42.528  28.970  28.499  1.00  0.00     0.034 A 
ATOM     59  C   UNL A   1      44.524  33.560  32.668  1.00  0.00     0.049 A 
ATOM     60  C   UNL A   1      43.885  29.394  28.999  1.00  0.00     0.074 A 
ATOM     61  C   UNL A   1      45.808  33.802  33.126  1.00  0.00     0.029 A 
ATOM     62  N   UNL A   1      44.611  32.504  31.774  1.00  0.00    -0.354 N 
ATOM     63  N   UNL A   1      44.191  30.303  29.893  1.00  0.00    -0.248 NA
ATOM     64  C   UNL A   1      45.052  28.694  28.436  1.00  0.00     0.031 C 
ATOM     65  C   UNL A   1      46.676  32.916  32.479  1.00  0.00     0.029 A 
ATOM     66  C   UNL A   1      45.928  32.094  31.652  1.00  0.00     0.049 A 
ATOM     67  H   UNL A   1      43.850  32.104  31.297  1.00  0.00     0.167 HD
ATOM     68  C   UNL A   1      45.576  30.263  30.022  1.00  0.00     0.074 A 
ATOM     69  C   UNL A   1      46.049  29.226  29.130  1.00  0.00     0.031 C 
ATOM     70  C   UNL A   1      46.385  31.027  30.799  1.00  0.00     0.034 A 
BRANCH  57  71
ATOM     71  C   UNL A   1      43.394  35.419  33.954  1.00  0.00     0.023 A 
ATOM     72  C   UNL A   1      43.378  35.214  35.348  1.00  0.00     0.012 A 
ATOM     73  C   UNL A   1      43.529  36.729  33.450  1.00  0.00     0.148 A 
ATOM     74  C   UNL A   1      43.457  36.296  36.225  1.00  0.00     0.002 A 
ATOM     75  C   UNL A   1      43.655  37.797  34.328  1.00  0.00     0.091 A 
ATOM     76  F   UNL A   1      43.520  36.905  32.120  1.00  0.00    -0.205 F 
ATOM     77  C   UNL A   1      43.605  37.584  35.716  1.00  0.00     0.022 A 
BRANCH  75  78
ATOM     78  S   UNL A   1      43.929  39.481  33.771  1.00  0.00     0.127 S 
ATOM     79  O   UNL A   1      42.651  39.790  33.129  1.00  0.00    -0.237 OA
ATOM     80  O   UNL A   1      44.164  40.187  35.030  1.00  0.00    -0.237 OA
ATOM     81  O   UNL A   1      45.079  39.428  32.879  1.00  0.00    -0.744 OA
ENDBRANCH  75  78
ENDBRANCH  57  71
BRANCH  58  82
ATOM     82  C   UNL A   1      42.400  27.883  27.484  1.00  0.00     0.023 A 
ATOM     83  C   UNL A   1      42.405  28.203  26.113  1.00  0.00     0.012 A 
ATOM     84  C   UNL A   1      42.277  26.535  27.875  1.00  0.00     0.148 A 
ATOM     85  C   UNL A   1      42.265  27.202  25.150  1.00  0.00     0.002 A 
ATOM     86  C   UNL A   1      42.199  25.538  26.910  1.00  0.00     0.091 A 
ATOM     87  F   UNL A   1      42.250  26.254  29.185  1.00  0.00    -0.205 F 
ATOM     88  C   UNL A   1      42.175  25.871  25.547  1.00  0.00     0.022 A 
BRANCH  86  89
ATOM     89  S   UNL A   1      42.206  23.790  27.324  1.00  0.00     0.127 S 
ATOM     90  O   UNL A   1      42.363  23.173  26.010  1.00  0.00    -0.237 OA
ATOM     91  O   UNL A   1      43.378  23.696  28.195  1.00  0.00    -0.237 OA
ATOM     92  O   UNL A   1      40.936  23.538  27.991  1.00  0.00    -0.744 OA
ENDBRANCH  86  89
ENDBRANCH  58  82
BRANCH  70  93
ATOM     93  C   UNL A   1      47.866  30.746  30.766  1.00  0.00     0.023 A 
ATOM     94  C   UNL A   1      48.696  31.438  29.863  1.00  0.00     0.012 A 
ATOM     95  C   UNL A   1      48.445  29.852  31.691  1.00  0.00     0.148 A 
ATOM     96  C   UNL A   1      50.075  31.223  29.861  1.00  0.00     0.002 A 
ATOM     97  C   UNL A   1      49.823  29.683  31.718  1.00  0.00     0.091 A 
ATOM     98  F   UNL A   1      47.636  29.191  32.532  1.00  0.00    -0.205 F 
ATOM     99  C   UNL A   1      50.640  30.356  30.795  1.00  0.00     0.022 A 
BRANCH  97 100
ATOM    100  S   UNL A   1      50.648  28.664  32.948  1.00  0.00     0.127 S 
ATOM    101  O   UNL A   1      52.052  28.819  32.571  1.00  0.00    -0.237 OA
ATOM    102  O   UNL A   1      50.274  29.326  34.197  1.00  0.00    -0.237 OA
ATOM    103  O   UNL A   1      50.105  27.322  32.788  1.00  0.00    -0.744 OA
ENDBRANCH  97 100
ENDBRANCH  70  93
ENDBRANCH  44  45
ENDBRANCH  37  39
ENDBRANCH  36  37
ENDBRANCH  35  36
ENDBRANCH  34  35
ENDBRANCH  33  34
ENDBRANCH  32  33
ENDBRANCH   1  32
TORSDOF 25
ENDMDL
