MODEL 1
REMARK VINA RESULT:     -10.2      0.000      0.000
REMARK SMILES O=C(CSc1nnc(-c2cccc(C(F)(F)F)c2F)o1)OCCOCCOCCOC(=O)c1ccc(-c2c3nc(c(-c4cccc(S(=O)(=O)[O-])c4F)c4ccc([nH]4)c(-c4cccc(S(=O)(=O)[O-])c4F)c4nc(c(-c5cccc(S(=O)(=O)[O-])c5F)c5ccc2[nH]5)C=C4)C=C3)cc1
REMARK SMILES IDX 25 1 24 2 23 3 22 4 21 5 2 6 1 7 3 8 4 9 5 10 6 11 20 12
REMARK SMILES IDX 7 13 8 14 9 15 10 16 18 17 11 18 13 19 19 20 12 21 14 22
REMARK SMILES IDX 15 23 16 24 17 25 26 26 27 27 28 28 29 29 30 30 31 31 32 32
REMARK SMILES IDX 33 33 34 34 95 35 35 36 94 37 36 38 37 39 38 40 88 41 39 42
REMARK SMILES IDX 93 43 87 44 89 45 40 46 92 47 86 48 85 49 41 51 73 52 53 53
REMARK SMILES IDX 72 54 54 55 57 56 71 57 90 58 55 59 56 60 70 62 91 63 58 64
REMARK SMILES IDX 42 65 43 66 51 67 44 68 46 69 52 70 45 71 47 72 48 73 49 74
REMARK SMILES IDX 50 75 74 76 75 77 83 78 76 79 78 80 84 81 77 82 79 83 80 84
REMARK SMILES IDX 81 85 82 86 59 87 60 88 68 89 61 90 63 91 69 92 62 93 64 94
REMARK SMILES IDX 65 95 66 96 67 97
REMARK H PARENT 89 50 57 61
REMARK Flexibility Score: inf
ROOT
ATOM      1  C   UNL A   1      36.645  23.654  25.384  1.00  0.00     0.188 C 
ENDROOT
BRANCH   1   2
ATOM      2  O   UNL A   1      35.369  24.049  24.918  1.00  0.00    -0.376 OA
BRANCH   2   3
ATOM      3  C   UNL A   1      35.132  24.051  23.524  1.00  0.00     0.202 C 
BRANCH   3   4
ATOM      4  C   UNL A   1      33.953  23.162  23.133  1.00  0.00     0.261 C 
BRANCH   4   5
ATOM      5  O   UNL A   1      33.811  21.903  23.834  1.00  0.00    -0.463 OA
BRANCH   5   6
ATOM      6  C   UNL A   1      32.724  21.114  23.982  1.00  0.00     0.316 C 
ATOM      7  O   UNL A   1      32.179  20.653  22.980  1.00  0.00    -0.251 OA
BRANCH   6   8
ATOM      8  C   UNL A   1      32.155  20.850  25.354  1.00  0.00     0.202 C 
BRANCH   8   9
ATOM      9  S   UNL A   1      33.024  21.806  26.622  1.00  0.00    -0.054 SA
BRANCH   9  10
ATOM     10  C   UNL A   1      31.919  23.138  26.634  1.00  0.00     0.277 A 
ATOM     11  N   UNL A   1      30.696  23.105  27.117  1.00  0.00    -0.101 NA
ATOM     12  O   UNL A   1      32.215  24.316  26.018  1.00  0.00    -0.411 OA
ATOM     13  N   UNL A   1      30.145  24.347  26.854  1.00  0.00    -0.107 NA
ATOM     14  C   UNL A   1      31.066  25.022  26.194  1.00  0.00     0.251 A 
BRANCH  14  15
ATOM     15  C   UNL A   1      31.140  26.416  25.832  1.00  0.00     0.075 A 
ATOM     16  C   UNL A   1      31.982  27.257  26.568  1.00  0.00     0.017 A 
ATOM     17  C   UNL A   1      30.454  26.928  24.724  1.00  0.00     0.148 A 
ATOM     18  C   UNL A   1      32.159  28.582  26.186  1.00  0.00     0.002 A 
ATOM     19  C   UNL A   1      30.608  28.260  24.336  1.00  0.00     0.092 A 
ATOM     20  F   UNL A   1      29.629  26.128  24.033  1.00  0.00    -0.205 F 
ATOM     21  C   UNL A   1      31.478  29.081  25.075  1.00  0.00     0.016 A 
BRANCH  19  22
ATOM     22  C   UNL A   1      29.862  28.831  23.165  1.00  0.00     0.419 C 
ATOM     23  F   UNL A   1      29.865  30.197  23.194  1.00  0.00    -0.166 F 
ATOM     24  F   UNL A   1      30.434  28.497  21.975  1.00  0.00    -0.166 F 
ATOM     25  F   UNL A   1      28.556  28.471  23.067  1.00  0.00    -0.166 F 
ENDBRANCH  19  22
ENDBRANCH  14  15
ENDBRANCH   9  10
ENDBRANCH   8   9
ENDBRANCH   6   8
ENDBRANCH   5   6
ENDBRANCH   4   5
ENDBRANCH   3   4
ENDBRANCH   2   3
ENDBRANCH   1   2
BRANCH   1  26
ATOM     26  C   UNL A   1      36.600  22.301  26.118  1.00  0.00     0.188 C 
BRANCH  26  27
ATOM     27  O   UNL A   1      36.474  21.111  25.347  1.00  0.00    -0.376 OA
BRANCH  27  28
ATOM     28  C   UNL A   1      37.660  20.401  24.996  1.00  0.00     0.202 C 
BRANCH  28  29
ATOM     29  C   UNL A   1      39.003  20.944  25.501  1.00  0.00     0.261 C 
BRANCH  29  30
ATOM     30  O   UNL A   1      39.677  20.096  26.453  1.00  0.00    -0.460 OA
BRANCH  30  31
ATOM     31  C   UNL A   1      41.008  19.944  26.230  1.00  0.00     0.338 C 
ATOM     32  O   UNL A   1      41.567  18.968  25.760  1.00  0.00    -0.246 OA
BRANCH  31  33
ATOM     33  C   UNL A   1      41.744  21.190  26.518  1.00  0.00     0.060 A 
ATOM     34  C   UNL A   1      41.943  21.543  27.860  1.00  0.00     0.016 A 
ATOM     35  C   UNL A   1      42.067  22.083  25.496  1.00  0.00     0.016 A 
ATOM     36  C   UNL A   1      42.421  22.814  28.184  1.00  0.00     0.010 A 
ATOM     37  C   UNL A   1      42.537  23.362  25.825  1.00  0.00     0.010 A 
ATOM     38  C   UNL A   1      42.675  23.748  27.170  1.00  0.00    -0.014 A 
BRANCH  38  39
ATOM     39  C   UNL A   1      42.954  25.163  27.527  1.00  0.00     0.031 A 
ATOM     40  C   UNL A   1      44.348  25.707  27.363  1.00  0.00     0.074 A 
ATOM     41  C   UNL A   1      41.976  25.964  27.983  1.00  0.00     0.049 A 
ATOM     42  N   UNL A   1      44.793  26.916  27.588  1.00  0.00    -0.248 NA
ATOM     43  C   UNL A   1      45.375  24.768  26.882  1.00  0.00     0.031 C 
ATOM     44  C   UNL A   1      40.587  25.562  28.186  1.00  0.00     0.029 A 
ATOM     45  N   UNL A   1      42.009  27.281  28.373  1.00  0.00    -0.354 N 
ATOM     46  C   UNL A   1      46.149  26.883  27.292  1.00  0.00     0.074 A 
ATOM     47  C   UNL A   1      46.461  25.529  26.888  1.00  0.00     0.031 C 
ATOM     48  C   UNL A   1      39.901  26.605  28.682  1.00  0.00     0.029 A 
ATOM     49  C   UNL A   1      40.805  27.745  28.846  1.00  0.00     0.049 A 
ATOM     50  H   UNL A   1      42.818  27.839  28.319  1.00  0.00     0.167 HD
ATOM     51  C   UNL A   1      47.052  27.892  27.330  1.00  0.00     0.034 A 
ATOM     52  C   UNL A   1      40.467  28.946  29.358  1.00  0.00     0.034 A 
ATOM     53  C   UNL A   1      46.743  29.245  27.707  1.00  0.00     0.049 A 
ATOM     54  C   UNL A   1      41.492  30.050  29.412  1.00  0.00     0.074 A 
ATOM     55  C   UNL A   1      47.583  30.344  27.716  1.00  0.00     0.029 A 
ATOM     56  N   UNL A   1      45.506  29.683  28.151  1.00  0.00    -0.354 N 
ATOM     57  N   UNL A   1      42.736  30.037  29.003  1.00  0.00    -0.248 NA
ATOM     58  C   UNL A   1      41.059  31.344  29.966  1.00  0.00     0.031 C 
ATOM     59  C   UNL A   1      46.860  31.442  28.189  1.00  0.00     0.029 A 
ATOM     60  C   UNL A   1      45.563  31.032  28.453  1.00  0.00     0.049 A 
ATOM     61  H   UNL A   1      44.704  29.117  28.239  1.00  0.00     0.167 HD
ATOM     62  C   UNL A   1      43.225  31.323  29.214  1.00  0.00     0.074 A 
ATOM     63  C   UNL A   1      42.140  32.094  29.783  1.00  0.00     0.031 C 
ATOM     64  C   UNL A   1      44.464  31.812  28.965  1.00  0.00     0.034 A 
BRANCH  51  65
ATOM     65  C   UNL A   1      48.463  27.589  26.906  1.00  0.00     0.023 A 
ATOM     66  C   UNL A   1      49.371  27.070  27.851  1.00  0.00     0.012 A 
ATOM     67  C   UNL A   1      48.867  27.734  25.566  1.00  0.00     0.148 A 
ATOM     68  C   UNL A   1      50.666  26.721  27.473  1.00  0.00     0.002 A 
ATOM     69  C   UNL A   1      50.147  27.347  25.188  1.00  0.00     0.091 A 
ATOM     70  F   UNL A   1      47.996  28.253  24.687  1.00  0.00    -0.205 F 
ATOM     71  C   UNL A   1      51.050  26.848  26.140  1.00  0.00     0.022 A 
BRANCH  69  72
ATOM     72  S   UNL A   1      50.702  27.403  23.479  1.00  0.00     0.127 S 
ATOM     73  O   UNL A   1      51.974  26.687  23.558  1.00  0.00    -0.237 OA
ATOM     74  O   UNL A   1      49.638  26.680  22.781  1.00  0.00    -0.237 OA
ATOM     75  O   UNL A   1      50.794  28.816  23.139  1.00  0.00    -0.744 OA
ENDBRANCH  69  72
ENDBRANCH  51  65
BRANCH  52  76
ATOM     76  C   UNL A   1      39.060  29.176  29.794  1.00  0.00     0.023 A 
ATOM     77  C   UNL A   1      38.673  28.814  31.098  1.00  0.00     0.012 A 
ATOM     78  C   UNL A   1      38.135  29.830  28.958  1.00  0.00     0.148 A 
ATOM     79  C   UNL A   1      37.387  29.094  31.560  1.00  0.00     0.002 A 
ATOM     80  C   UNL A   1      36.875  30.159  29.445  1.00  0.00     0.091 A 
ATOM     81  F   UNL A   1      38.522  30.156  27.716  1.00  0.00    -0.205 F 
ATOM     82  C   UNL A   1      36.494  29.778  30.740  1.00  0.00     0.022 A 
BRANCH  80  83
ATOM     83  S   UNL A   1      35.714  31.174  28.521  1.00  0.00     0.127 S 
ATOM     84  O   UNL A   1      36.587  32.208  27.975  1.00  0.00    -0.237 OA
ATOM     85  O   UNL A   1      35.200  30.217  27.540  1.00  0.00    -0.237 OA
ATOM     86  O   UNL A   1      34.727  31.631  29.490  1.00  0.00    -0.744 OA
ENDBRANCH  80  83
ENDBRANCH  52  76
BRANCH  64  87
ATOM     87  C   UNL A   1      44.747  33.260  29.277  1.00  0.00     0.023 A 
ATOM     88  C   UNL A   1      45.211  33.615  30.558  1.00  0.00     0.012 A 
ATOM     89  C   UNL A   1      44.700  34.237  28.262  1.00  0.00     0.148 A 
ATOM     90  C   UNL A   1      45.618  34.922  30.827  1.00  0.00     0.002 A 
ATOM     91  C   UNL A   1      45.150  35.527  28.524  1.00  0.00     0.091 A 
ATOM     92  F   UNL A   1      44.243  33.880  27.053  1.00  0.00    -0.205 F 
ATOM     93  C   UNL A   1      45.602  35.872  29.808  1.00  0.00     0.022 A 
BRANCH  91  94
ATOM     94  S   UNL A   1      45.261  36.791  27.251  1.00  0.00     0.127 S 
ATOM     95  O   UNL A   1      43.851  37.070  26.983  1.00  0.00    -0.237 OA
ATOM     96  O   UNL A   1      45.973  37.866  27.943  1.00  0.00    -0.237 OA
ATOM     97  O   UNL A   1      45.998  36.188  26.149  1.00  0.00    -0.744 OA
ENDBRANCH  91  94
ENDBRANCH  64  87
ENDBRANCH  38  39
ENDBRANCH  31  33
ENDBRANCH  30  31
ENDBRANCH  29  30
ENDBRANCH  28  29
ENDBRANCH  27  28
ENDBRANCH  26  27
ENDBRANCH   1  26
TORSDOF 24
ENDMDL
MODEL 2
REMARK VINA RESULT:     -10.1      0.509      7.266
REMARK SMILES O=C(CSc1nnc(-c2cccc(C(F)(F)F)c2F)o1)OCCOCCOCCOC(=O)c1ccc(-c2c3nc(c(-c4cccc(S(=O)(=O)[O-])c4F)c4ccc([nH]4)c(-c4cccc(S(=O)(=O)[O-])c4F)c4nc(c(-c5cccc(S(=O)(=O)[O-])c5F)c5ccc2[nH]5)C=C4)C=C3)cc1
REMARK SMILES IDX 25 1 24 2 23 3 22 4 21 5 2 6 1 7 3 8 4 9 5 10 6 11 20 12
REMARK SMILES IDX 7 13 8 14 9 15 10 16 18 17 11 18 13 19 19 20 12 21 14 22
REMARK SMILES IDX 15 23 16 24 17 25 26 26 27 27 28 28 29 29 30 30 31 31 32 32
REMARK SMILES IDX 33 33 34 34 95 35 35 36 94 37 36 38 37 39 38 40 88 41 39 42
REMARK SMILES IDX 93 43 87 44 89 45 40 46 92 47 86 48 85 49 41 51 73 52 53 53
REMARK SMILES IDX 72 54 54 55 57 56 71 57 90 58 55 59 56 60 70 62 91 63 58 64
REMARK SMILES IDX 42 65 43 66 51 67 44 68 46 69 52 70 45 71 47 72 48 73 49 74
REMARK SMILES IDX 50 75 74 76 75 77 83 78 76 79 78 80 84 81 77 82 79 83 80 84
REMARK SMILES IDX 81 85 82 86 59 87 60 88 68 89 61 90 63 91 69 92 62 93 64 94
REMARK SMILES IDX 65 95 66 96 67 97
REMARK H PARENT 89 50 57 61
REMARK Flexibility Score: inf
ROOT
ATOM      1  C   UNL A   1      36.490  23.760  25.422  1.00  0.00     0.188 C 
ENDROOT
BRANCH   1   2
ATOM      2  O   UNL A   1      35.189  24.118  24.996  1.00  0.00    -0.376 OA
BRANCH   2   3
ATOM      3  C   UNL A   1      34.946  24.249  23.609  1.00  0.00     0.202 C 
BRANCH   3   4
ATOM      4  C   UNL A   1      33.910  23.248  23.103  1.00  0.00     0.261 C 
BRANCH   4   5
ATOM      5  O   UNL A   1      33.738  22.029  23.867  1.00  0.00    -0.463 OA
BRANCH   5   6
ATOM      6  C   UNL A   1      32.655  21.229  23.984  1.00  0.00     0.316 C 
ATOM      7  O   UNL A   1      32.162  20.737  22.971  1.00  0.00    -0.251 OA
BRANCH   6   8
ATOM      8  C   UNL A   1      32.029  20.989  25.335  1.00  0.00     0.202 C 
BRANCH   8   9
ATOM      9  S   UNL A   1      32.872  21.933  26.630  1.00  0.00    -0.054 SA
BRANCH   9  10
ATOM     10  C   UNL A   1      31.773  23.269  26.625  1.00  0.00     0.277 A 
ATOM     11  N   UNL A   1      30.562  23.258  27.138  1.00  0.00    -0.101 NA
ATOM     12  O   UNL A   1      32.059  24.425  25.964  1.00  0.00    -0.411 OA
ATOM     13  N   UNL A   1      30.010  24.493  26.848  1.00  0.00    -0.107 NA
ATOM     14  C   UNL A   1      30.917  25.142  26.145  1.00  0.00     0.251 A 
BRANCH  14  15
ATOM     15  C   UNL A   1      30.987  26.524  25.736  1.00  0.00     0.075 A 
ATOM     16  C   UNL A   1      31.725  27.418  26.520  1.00  0.00     0.017 A 
ATOM     17  C   UNL A   1      30.404  26.971  24.544  1.00  0.00     0.148 A 
ATOM     18  C   UNL A   1      31.902  28.734  26.104  1.00  0.00     0.002 A 
ATOM     19  C   UNL A   1      30.559  28.292  24.121  1.00  0.00     0.092 A 
ATOM     20  F   UNL A   1      29.678  26.119  23.806  1.00  0.00    -0.205 F 
ATOM     21  C   UNL A   1      31.324  29.168  24.911  1.00  0.00     0.016 A 
BRANCH  19  22
ATOM     22  C   UNL A   1      29.921  28.794  22.858  1.00  0.00     0.419 C 
ATOM     23  F   UNL A   1      30.109  27.920  21.825  1.00  0.00    -0.166 F 
ATOM     24  F   UNL A   1      28.571  28.924  22.976  1.00  0.00    -0.166 F 
ATOM     25  F   UNL A   1      30.375  29.993  22.407  1.00  0.00    -0.166 F 
ENDBRANCH  19  22
ENDBRANCH  14  15
ENDBRANCH   9  10
ENDBRANCH   8   9
ENDBRANCH   6   8
ENDBRANCH   5   6
ENDBRANCH   4   5
ENDBRANCH   3   4
ENDBRANCH   2   3
ENDBRANCH   1   2
BRANCH   1  26
ATOM     26  C   UNL A   1      36.542  22.328  25.984  1.00  0.00     0.188 C 
BRANCH  26  27
ATOM     27  O   UNL A   1      36.620  21.240  25.069  1.00  0.00    -0.376 OA
BRANCH  27  28
ATOM     28  C   UNL A   1      37.827  20.483  25.017  1.00  0.00     0.202 C 
BRANCH  28  29
ATOM     29  C   UNL A   1      39.059  21.036  25.745  1.00  0.00     0.261 C 
BRANCH  29  30
ATOM     30  O   UNL A   1      39.715  20.097  26.620  1.00  0.00    -0.460 OA
BRANCH  30  31
ATOM     31  C   UNL A   1      41.019  19.863  26.322  1.00  0.00     0.338 C 
ATOM     32  O   UNL A   1      41.491  18.850  25.834  1.00  0.00    -0.246 OA
BRANCH  31  33
ATOM     33  C   UNL A   1      41.843  21.065  26.548  1.00  0.00     0.060 A 
ATOM     34  C   UNL A   1      42.027  21.501  27.868  1.00  0.00     0.016 A 
ATOM     35  C   UNL A   1      42.269  21.853  25.478  1.00  0.00     0.016 A 
ATOM     36  C   UNL A   1      42.594  22.752  28.118  1.00  0.00     0.010 A 
ATOM     37  C   UNL A   1      42.829  23.113  25.732  1.00  0.00     0.010 A 
ATOM     38  C   UNL A   1      42.955  23.585  27.050  1.00  0.00    -0.014 A 
BRANCH  38  39
ATOM     39  C   UNL A   1      43.334  24.997  27.315  1.00  0.00     0.031 A 
ATOM     40  C   UNL A   1      42.319  25.938  27.907  1.00  0.00     0.074 A 
ATOM     41  C   UNL A   1      44.574  25.440  27.045  1.00  0.00     0.049 A 
ATOM     42  N   UNL A   1      42.456  27.195  28.241  1.00  0.00    -0.248 NA
ATOM     43  C   UNL A   1      40.974  25.393  28.155  1.00  0.00     0.031 C 
ATOM     44  C   UNL A   1      45.648  24.632  26.473  1.00  0.00     0.029 A 
ATOM     45  N   UNL A   1      45.132  26.685  27.201  1.00  0.00    -0.354 N 
ATOM     46  C   UNL A   1      41.218  27.598  28.724  1.00  0.00     0.074 A 
ATOM     47  C   UNL A   1      40.334  26.456  28.624  1.00  0.00     0.031 C 
ATOM     48  C   UNL A   1      46.733  25.406  26.308  1.00  0.00     0.029 A 
ATOM     49  C   UNL A   1      46.427  26.769  26.748  1.00  0.00     0.049 A 
ATOM     50  H   UNL A   1      44.650  27.446  27.600  1.00  0.00     0.167 HD
ATOM     51  C   UNL A   1      40.853  28.800  29.228  1.00  0.00     0.034 A 
ATOM     52  C   UNL A   1      47.269  27.821  26.687  1.00  0.00     0.034 A 
ATOM     53  C   UNL A   1      41.733  29.930  29.353  1.00  0.00     0.049 A 
ATOM     54  C   UNL A   1      46.836  29.157  27.234  1.00  0.00     0.074 A 
ATOM     55  C   UNL A   1      41.463  31.169  29.908  1.00  0.00     0.029 A 
ATOM     56  N   UNL A   1      43.045  29.967  28.911  1.00  0.00    -0.354 N 
ATOM     57  N   UNL A   1      45.705  29.482  27.809  1.00  0.00    -0.248 NA
ATOM     58  C   UNL A   1      47.806  30.262  27.154  1.00  0.00     0.031 C 
ATOM     59  C   UNL A   1      42.606  31.963  29.778  1.00  0.00     0.029 A 
ATOM     60  C   UNL A   1      43.594  31.212  29.164  1.00  0.00     0.049 A 
ATOM     61  H   UNL A   1      43.518  29.218  28.479  1.00  0.00     0.167 HD
ATOM     62  C   UNL A   1      45.837  30.814  28.193  1.00  0.00     0.074 A 
ATOM     63  C   UNL A   1      47.162  31.235  27.790  1.00  0.00     0.031 C 
ATOM     64  C   UNL A   1      44.934  31.612  28.814  1.00  0.00     0.034 A 
BRANCH  51  65
ATOM     65  C   UNL A   1      39.443  28.952  29.733  1.00  0.00     0.023 A 
ATOM     66  C   UNL A   1      39.123  28.505  31.031  1.00  0.00     0.012 A 
ATOM     67  C   UNL A   1      38.463  29.607  28.964  1.00  0.00     0.148 A 
ATOM     68  C   UNL A   1      37.842  28.689  31.548  1.00  0.00     0.002 A 
ATOM     69  C   UNL A   1      37.199  29.822  29.502  1.00  0.00     0.091 A 
ATOM     70  F   UNL A   1      38.780  30.002  27.722  1.00  0.00    -0.205 F 
ATOM     71  C   UNL A   1      36.885  29.357  30.789  1.00  0.00     0.022 A 
BRANCH  69  72
ATOM     72  S   UNL A   1      35.927  30.742  28.626  1.00  0.00     0.127 S 
ATOM     73  O   UNL A   1      36.721  31.760  27.938  1.00  0.00    -0.237 OA
ATOM     74  O   UNL A   1      35.352  29.722  27.748  1.00  0.00    -0.237 OA
ATOM     75  O   UNL A   1      35.020  31.236  29.651  1.00  0.00    -0.744 OA
ENDBRANCH  69  72
ENDBRANCH  51  65
BRANCH  52  76
ATOM     76  C   UNL A   1      48.642  27.616  26.144  1.00  0.00     0.023 A 
ATOM     77  C   UNL A   1      49.667  27.176  27.002  1.00  0.00     0.012 A 
ATOM     78  C   UNL A   1      48.912  27.767  24.769  1.00  0.00     0.148 A 
ATOM     79  C   UNL A   1      50.939  26.895  26.503  1.00  0.00     0.002 A 
ATOM     80  C   UNL A   1      50.165  27.429  24.270  1.00  0.00     0.091 A 
ATOM     81  F   UNL A   1      47.924  28.198  23.972  1.00  0.00    -0.205 F 
ATOM     82  C   UNL A   1      51.184  27.008  25.138  1.00  0.00     0.022 A 
BRANCH  80  83
ATOM     83  S   UNL A   1      50.528  27.392  22.511  1.00  0.00     0.127 S 
ATOM     84  O   UNL A   1      51.893  26.874  22.495  1.00  0.00    -0.237 OA
ATOM     85  O   UNL A   1      49.509  26.465  22.017  1.00  0.00    -0.237 OA
ATOM     86  O   UNL A   1      50.371  28.763  22.043  1.00  0.00    -0.744 OA
ENDBRANCH  80  83
ENDBRANCH  52  76
BRANCH  64  87
ATOM     87  C   UNL A   1      45.324  33.033  29.133  1.00  0.00     0.023 A 
ATOM     88  C   UNL A   1      46.006  33.312  30.333  1.00  0.00     0.012 A 
ATOM     89  C   UNL A   1      45.151  34.058  28.181  1.00  0.00     0.148 A 
ATOM     90  C   UNL A   1      46.506  34.589  30.583  1.00  0.00     0.002 A 
ATOM     91  C   UNL A   1      45.690  35.318  28.417  1.00  0.00     0.091 A 
ATOM     92  F   UNL A   1      44.487  33.774  27.051  1.00  0.00    -0.205 F 
ATOM     93  C   UNL A   1      46.361  35.587  29.621  1.00  0.00     0.022 A 
BRANCH  91  94
ATOM     94  S   UNL A   1      45.643  36.637  27.196  1.00  0.00     0.127 S 
ATOM     95  O   UNL A   1      46.355  36.029  26.074  1.00  0.00    -0.237 OA
ATOM     96  O   UNL A   1      44.206  36.811  26.984  1.00  0.00    -0.237 OA
ATOM     97  O   UNL A   1      46.307  37.778  27.811  1.00  0.00    -0.744 OA
ENDBRANCH  91  94
ENDBRANCH  64  87
ENDBRANCH  38  39
ENDBRANCH  31  33
ENDBRANCH  30  31
ENDBRANCH  29  30
ENDBRANCH  28  29
ENDBRANCH  27  28
ENDBRANCH  26  27
ENDBRANCH   1  26
TORSDOF 24
ENDMDL
MODEL 3
REMARK VINA RESULT:      -9.6      2.890      8.457
REMARK SMILES O=C(CSc1nnc(-c2cccc(C(F)(F)F)c2F)o1)OCCOCCOCCOC(=O)c1ccc(-c2c3nc(c(-c4cccc(S(=O)(=O)[O-])c4F)c4ccc([nH]4)c(-c4cccc(S(=O)(=O)[O-])c4F)c4nc(c(-c5cccc(S(=O)(=O)[O-])c5F)c5ccc2[nH]5)C=C4)C=C3)cc1
REMARK SMILES IDX 25 1 24 2 23 3 22 4 21 5 2 6 1 7 3 8 4 9 5 10 6 11 20 12
REMARK SMILES IDX 7 13 8 14 9 15 10 16 18 17 11 18 13 19 19 20 12 21 14 22
REMARK SMILES IDX 15 23 16 24 17 25 26 26 27 27 28 28 29 29 30 30 31 31 32 32
REMARK SMILES IDX 33 33 34 34 95 35 35 36 94 37 36 38 37 39 38 40 88 41 39 42
REMARK SMILES IDX 93 43 87 44 89 45 40 46 92 47 86 48 85 49 41 51 73 52 53 53
REMARK SMILES IDX 72 54 54 55 57 56 71 57 90 58 55 59 56 60 70 62 91 63 58 64
REMARK SMILES IDX 42 65 43 66 51 67 44 68 46 69 52 70 45 71 47 72 48 73 49 74
REMARK SMILES IDX 50 75 74 76 75 77 83 78 76 79 78 80 84 81 77 82 79 83 80 84
REMARK SMILES IDX 81 85 82 86 59 87 60 88 68 89 61 90 63 91 69 92 62 93 64 94
REMARK SMILES IDX 65 95 66 96 67 97
REMARK H PARENT 89 50 57 61
REMARK Flexibility Score: inf
ROOT
ATOM      1  C   UNL A   1      36.666  23.651  25.103  1.00  0.00     0.188 C 
ENDROOT
BRANCH   1   2
ATOM      2  O   UNL A   1      35.396  24.167  24.754  1.00  0.00    -0.376 OA
BRANCH   2   3
ATOM      3  C   UNL A   1      34.786  23.709  23.563  1.00  0.00     0.202 C 
BRANCH   3   4
ATOM      4  C   UNL A   1      33.959  24.795  22.878  1.00  0.00     0.261 C 
BRANCH   4   5
ATOM      5  O   UNL A   1      33.633  25.971  23.659  1.00  0.00    -0.463 OA
BRANCH   5   6
ATOM      6  C   UNL A   1      32.433  26.409  24.099  1.00  0.00     0.316 C 
ATOM      7  O   UNL A   1      31.719  27.063  23.341  1.00  0.00    -0.251 OA
BRANCH   6   8
ATOM      8  C   UNL A   1      32.001  26.145  25.520  1.00  0.00     0.202 C 
BRANCH   8   9
ATOM      9  S   UNL A   1      30.580  25.024  25.580  1.00  0.00    -0.054 SA
BRANCH   9  10
ATOM     10  C   UNL A   1      31.504  23.565  25.684  1.00  0.00     0.277 A 
ATOM     11  N   UNL A   1      32.385  23.289  26.621  1.00  0.00    -0.101 NA
ATOM     12  O   UNL A   1      31.461  22.622  24.701  1.00  0.00    -0.411 OA
ATOM     13  N   UNL A   1      32.939  22.068  26.280  1.00  0.00    -0.107 NA
ATOM     14  C   UNL A   1      32.379  21.718  25.139  1.00  0.00     0.251 A 
BRANCH  14  15
ATOM     15  C   UNL A   1      32.412  20.474  24.410  1.00  0.00     0.075 A 
ATOM     16  C   UNL A   1      32.094  20.487  23.047  1.00  0.00     0.017 A 
ATOM     17  C   UNL A   1      32.823  19.278  25.009  1.00  0.00     0.148 A 
ATOM     18  C   UNL A   1      32.214  19.327  22.288  1.00  0.00     0.002 A 
ATOM     19  C   UNL A   1      32.933  18.103  24.266  1.00  0.00     0.092 A 
ATOM     20  F   UNL A   1      33.105  19.261  26.320  1.00  0.00    -0.205 F 
ATOM     21  C   UNL A   1      32.633  18.143  22.893  1.00  0.00     0.016 A 
BRANCH  19  22
ATOM     22  C   UNL A   1      33.351  16.806  24.898  1.00  0.00     0.419 C 
ATOM     23  F   UNL A   1      33.082  15.746  24.079  1.00  0.00    -0.166 F 
ATOM     24  F   UNL A   1      34.693  16.750  25.127  1.00  0.00    -0.166 F 
ATOM     25  F   UNL A   1      32.756  16.512  26.083  1.00  0.00    -0.166 F 
ENDBRANCH  19  22
ENDBRANCH  14  15
ENDBRANCH   9  10
ENDBRANCH   8   9
ENDBRANCH   6   8
ENDBRANCH   5   6
ENDBRANCH   4   5
ENDBRANCH   3   4
ENDBRANCH   2   3
ENDBRANCH   1   2
BRANCH   1  26
ATOM     26  C   UNL A   1      36.565  22.269  25.772  1.00  0.00     0.188 C 
BRANCH  26  27
ATOM     27  O   UNL A   1      36.882  21.113  25.004  1.00  0.00    -0.376 OA
BRANCH  27  28
ATOM     28  C   UNL A   1      38.071  20.393  25.319  1.00  0.00     0.202 C 
BRANCH  28  29
ATOM     29  C   UNL A   1      39.210  21.150  26.014  1.00  0.00     0.261 C 
BRANCH  29  30
ATOM     30  O   UNL A   1      40.060  20.331  26.844  1.00  0.00    -0.460 OA
BRANCH  30  31
ATOM     31  C   UNL A   1      41.260  20.021  26.291  1.00  0.00     0.338 C 
ATOM     32  O   UNL A   1      41.543  19.012  25.667  1.00  0.00    -0.246 OA
BRANCH  31  33
ATOM     33  C   UNL A   1      42.214  21.139  26.421  1.00  0.00     0.060 A 
ATOM     34  C   UNL A   1      42.632  21.503  27.709  1.00  0.00     0.016 A 
ATOM     35  C   UNL A   1      42.543  21.931  25.320  1.00  0.00     0.016 A 
ATOM     36  C   UNL A   1      43.340  22.690  27.904  1.00  0.00     0.010 A 
ATOM     37  C   UNL A   1      43.246  23.127  25.521  1.00  0.00     0.010 A 
ATOM     38  C   UNL A   1      43.610  23.533  26.817  1.00  0.00    -0.014 A 
BRANCH  38  39
ATOM     39  C   UNL A   1      44.150  24.895  27.060  1.00  0.00     0.031 A 
ATOM     40  C   UNL A   1      43.234  25.975  27.571  1.00  0.00     0.074 A 
ATOM     41  C   UNL A   1      45.448  25.172  26.840  1.00  0.00     0.049 A 
ATOM     42  N   UNL A   1      43.512  27.217  27.875  1.00  0.00    -0.248 NA
ATOM     43  C   UNL A   1      41.822  25.610  27.766  1.00  0.00     0.031 C 
ATOM     44  C   UNL A   1      46.437  24.217  26.348  1.00  0.00     0.029 A 
ATOM     45  N   UNL A   1      46.149  26.343  26.989  1.00  0.00    -0.354 N 
ATOM     46  C   UNL A   1      42.313  27.786  28.282  1.00  0.00     0.074 A 
ATOM     47  C   UNL A   1      41.299  26.759  28.170  1.00  0.00     0.031 C 
ATOM     48  C   UNL A   1      47.617  24.845  26.216  1.00  0.00     0.029 A 
ATOM     49  C   UNL A   1      47.464  26.250  26.600  1.00  0.00     0.049 A 
ATOM     50  H   UNL A   1      45.748  27.171  27.340  1.00  0.00     0.167 HD
ATOM     51  C   UNL A   1      42.078  29.042  28.732  1.00  0.00     0.034 A 
ATOM     52  C   UNL A   1      48.434  27.187  26.552  1.00  0.00     0.034 A 
ATOM     53  C   UNL A   1      43.086  30.058  28.868  1.00  0.00     0.049 A 
ATOM     54  C   UNL A   1      48.146  28.585  27.036  1.00  0.00     0.074 A 
ATOM     55  C   UNL A   1      42.947  31.339  29.371  1.00  0.00     0.029 A 
ATOM     56  N   UNL A   1      44.412  29.916  28.493  1.00  0.00    -0.354 N 
ATOM     57  N   UNL A   1      47.039  29.068  27.543  1.00  0.00    -0.248 NA
ATOM     58  C   UNL A   1      49.249  29.558  26.974  1.00  0.00     0.031 C 
ATOM     59  C   UNL A   1      44.185  31.981  29.278  1.00  0.00     0.029 A 
ATOM     60  C   UNL A   1      45.100  31.092  28.737  1.00  0.00     0.049 A 
ATOM     61  H   UNL A   1      44.806  29.100  28.108  1.00  0.00     0.167 HD
ATOM     62  C   UNL A   1      47.318  30.385  27.894  1.00  0.00     0.074 A 
ATOM     63  C   UNL A   1      48.703  30.625  27.548  1.00  0.00     0.031 C 
ATOM     64  C   UNL A   1      46.494  31.310  28.444  1.00  0.00     0.034 A 
BRANCH  51  65
ATOM     65  C   UNL A   1      40.676  29.384  29.159  1.00  0.00     0.023 A 
ATOM     66  C   UNL A   1      39.713  29.698  28.179  1.00  0.00     0.012 A 
ATOM     67  C   UNL A   1      40.292  29.314  30.511  1.00  0.00     0.148 A 
ATOM     68  C   UNL A   1      38.392  29.958  28.541  1.00  0.00     0.002 A 
ATOM     69  C   UNL A   1      38.964  29.536  30.860  1.00  0.00     0.091 A 
ATOM     70  F   UNL A   1      41.228  29.039  31.431  1.00  0.00    -0.205 F 
ATOM     71  C   UNL A   1      38.016  29.865  29.878  1.00  0.00     0.022 A 
BRANCH  69  72
ATOM     72  S   UNL A   1      38.374  29.362  32.549  1.00  0.00     0.127 S 
ATOM     73  O   UNL A   1      38.600  30.705  33.080  1.00  0.00    -0.237 OA
ATOM     74  O   UNL A   1      36.966  29.013  32.353  1.00  0.00    -0.237 OA
ATOM     75  O   UNL A   1      39.180  28.305  33.143  1.00  0.00    -0.744 OA
ENDBRANCH  69  72
ENDBRANCH  51  65
BRANCH  52  76
ATOM     76  C   UNL A   1      49.794  26.794  26.085  1.00  0.00     0.023 A 
ATOM     77  C   UNL A   1      50.573  25.930  26.876  1.00  0.00     0.012 A 
ATOM     78  C   UNL A   1      50.278  27.200  24.826  1.00  0.00     0.148 A 
ATOM     79  C   UNL A   1      51.814  25.480  26.425  1.00  0.00     0.002 A 
ATOM     80  C   UNL A   1      51.488  26.701  24.357  1.00  0.00     0.091 A 
ATOM     81  F   UNL A   1      49.523  28.032  24.094  1.00  0.00    -0.205 F 
ATOM     82  C   UNL A   1      52.264  25.853  25.162  1.00  0.00     0.022 A 
BRANCH  80  83
ATOM     83  S   UNL A   1      52.076  26.998  22.686  1.00  0.00     0.127 S 
ATOM     84  O   UNL A   1      53.186  26.056  22.584  1.00  0.00    -0.237 OA
ATOM     85  O   UNL A   1      50.896  26.652  21.891  1.00  0.00    -0.237 OA
ATOM     86  O   UNL A   1      52.441  28.408  22.637  1.00  0.00    -0.744 OA
ENDBRANCH  80  83
ENDBRANCH  52  76
BRANCH  64  87
ATOM     87  C   UNL A   1      47.044  32.683  28.742  1.00  0.00     0.023 A 
ATOM     88  C   UNL A   1      47.750  32.902  29.940  1.00  0.00     0.012 A 
ATOM     89  C   UNL A   1      46.992  33.704  27.771  1.00  0.00     0.148 A 
ATOM     90  C   UNL A   1      48.392  34.118  30.171  1.00  0.00     0.002 A 
ATOM     91  C   UNL A   1      47.671  34.898  27.989  1.00  0.00     0.091 A 
ATOM     92  F   UNL A   1      46.302  33.479  26.644  1.00  0.00    -0.205 F 
ATOM     93  C   UNL A   1      48.365  35.109  29.191  1.00  0.00     0.022 A 
BRANCH  91  94
ATOM     94  S   UNL A   1      47.778  36.192  26.746  1.00  0.00     0.127 S 
ATOM     95  O   UNL A   1      46.371  36.538  26.554  1.00  0.00    -0.237 OA
ATOM     96  O   UNL A   1      48.569  37.215  27.431  1.00  0.00    -0.237 OA
ATOM     97  O   UNL A   1      48.436  35.590  25.595  1.00  0.00    -0.744 OA
ENDBRANCH  91  94
ENDBRANCH  64  87
ENDBRANCH  38  39
ENDBRANCH  31  33
ENDBRANCH  30  31
ENDBRANCH  29  30
ENDBRANCH  28  29
ENDBRANCH  27  28
ENDBRANCH  26  27
ENDBRANCH   1  26
TORSDOF 24
ENDMDL
