MODEL 1
REMARK VINA RESULT:     -10.3      0.000      0.000
REMARK SMILES C[N@H+](Cc1ncccc1C(=O)OCCOCCOCCOC(=O)c1ccc(-c2c3nc(c(-c4cccc(S(=O)(=O)[O-])c4F)c4ccc([nH]4)c(-c4cccc(S(=O)(=O)[O-])c4F)c4nc(c(-c5cccc(S(=O)(=O)[O-])c5F)c5ccc2[nH]5)C=C4)C=C3)cc1)C[C@@H]1CCN(c2ccccc2)C1
REMARK SMILES IDX 16 1 15 2 14 3 13 4 12 5 10 6 11 7 9 8 4 9 5 10 6 11 8 12
REMARK SMILES IDX 7 13 3 14 2 15 1 16 87 18 88 19 89 20 98 21 90 22 91 23
REMARK SMILES IDX 92 24 93 25 97 26 94 27 96 28 95 29 17 30 18 31 19 32 20 33
REMARK SMILES IDX 21 34 22 35 23 36 24 37 25 38 86 39 26 40 85 41 27 42 28 43
REMARK SMILES IDX 29 44 79 45 30 46 84 47 78 48 80 49 31 50 83 51 77 52 76 53
REMARK SMILES IDX 32 55 64 56 44 57 63 58 45 59 48 60 62 61 81 62 46 63 47 64
REMARK SMILES IDX 61 66 82 67 49 68 33 69 34 70 42 71 35 72 37 73 43 74 36 75
REMARK SMILES IDX 38 76 39 77 40 78 41 79 65 80 66 81 74 82 67 83 69 84 75 85
REMARK SMILES IDX 68 86 70 87 71 88 72 89 73 90 50 91 51 92 59 93 52 94 54 95
REMARK SMILES IDX 60 96 53 97 55 98 56 99 57 100 58 101
REMARK H PARENT 2 17 80 54 48 65
REMARK Flexibility Score: inf
ROOT
ATOM      1  C   UNL A   1      35.058  31.832  27.970  1.00  0.00     0.188 C 
ENDROOT
BRANCH   1   2
ATOM      2  O   UNL A   1      35.440  30.538  28.426  1.00  0.00    -0.376 OA
BRANCH   2   3
ATOM      3  C   UNL A   1      35.128  29.457  27.560  1.00  0.00     0.202 C 
BRANCH   3   4
ATOM      4  C   UNL A   1      33.649  29.423  27.144  1.00  0.00     0.261 C 
BRANCH   4   5
ATOM      5  O   UNL A   1      33.277  28.288  26.341  1.00  0.00    -0.460 OA
BRANCH   5   6
ATOM      6  C   UNL A   1      31.997  27.861  26.482  1.00  0.00     0.340 C 
ATOM      7  O   UNL A   1      31.495  27.611  27.561  1.00  0.00    -0.246 OA
BRANCH   6   8
ATOM      8  C   UNL A   1      31.315  27.852  25.150  1.00  0.00     0.087 A 
ATOM      9  C   UNL A   1      30.908  26.674  24.494  1.00  0.00     0.109 A 
ATOM     10  N   UNL A   1      30.305  26.716  23.266  1.00  0.00    -0.254 NA
ATOM     11  C   UNL A   1      30.135  27.915  22.669  1.00  0.00     0.111 A 
ATOM     12  C   UNL A   1      31.127  29.078  24.485  1.00  0.00     0.019 A 
ATOM     13  C   UNL A   1      30.532  29.112  23.229  1.00  0.00     0.021 A 
BRANCH   9  14
ATOM     14  C   UNL A   1      31.150  25.265  25.034  1.00  0.00     0.320 C 
BRANCH  14  15
ATOM     15  N   UNL A   1      32.467  24.716  24.715  1.00  0.00    -0.332 N 
ATOM     16  C   UNL A   1      33.074  25.186  23.483  1.00  0.00     0.333 C 
ATOM     17  H   UNL A   1      32.122  23.774  24.535  1.00  0.00     0.348 HD
BRANCH  15  18
ATOM     18  C   UNL A   1      33.424  24.384  25.768  1.00  0.00     0.267 C 
BRANCH  18  19
ATOM     19  C   UNL A   1      33.160  23.035  26.464  1.00  0.00     0.065 C 
ATOM     20  C   UNL A   1      34.366  22.422  27.191  1.00  0.00     0.032 C 
ATOM     21  C   UNL A   1      32.766  21.926  25.502  1.00  0.00     0.126 C 
ATOM     22  C   UNL A   1      34.989  21.409  26.215  1.00  0.00     0.117 C 
ATOM     23  N   UNL A   1      33.904  21.048  25.334  1.00  0.00    -0.371 N 
BRANCH  23  24
ATOM     24  C   UNL A   1      33.587  19.857  24.727  1.00  0.00     0.037 A 
ATOM     25  C   UNL A   1      34.524  18.803  24.737  1.00  0.00     0.026 A 
ATOM     26  C   UNL A   1      32.467  19.718  23.911  1.00  0.00     0.026 A 
ATOM     27  C   UNL A   1      34.373  17.674  23.930  1.00  0.00     0.002 A 
ATOM     28  C   UNL A   1      32.313  18.592  23.091  1.00  0.00     0.002 A 
ATOM     29  C   UNL A   1      33.268  17.576  23.094  1.00  0.00     0.000 A 
ENDBRANCH  23  24
ENDBRANCH  18  19
ENDBRANCH  15  18
ENDBRANCH  14  15
ENDBRANCH   9  14
ENDBRANCH   6   8
ENDBRANCH   5   6
ENDBRANCH   4   5
ENDBRANCH   3   4
ENDBRANCH   2   3
ENDBRANCH   1   2
BRANCH   1  30
ATOM     30  C   UNL A   1      35.971  32.973  28.464  1.00  0.00     0.188 C 
BRANCH  30  31
ATOM     31  O   UNL A   1      35.418  34.244  28.778  1.00  0.00    -0.376 OA
BRANCH  31  32
ATOM     32  C   UNL A   1      34.175  34.596  28.193  1.00  0.00     0.202 C 
BRANCH  32  33
ATOM     33  C   UNL A   1      33.199  35.413  29.047  1.00  0.00     0.261 C 
BRANCH  33  34
ATOM     34  O   UNL A   1      32.771  34.754  30.254  1.00  0.00    -0.460 OA
BRANCH  34  35
ATOM     35  C   UNL A   1      32.932  35.472  31.395  1.00  0.00     0.338 C 
ATOM     36  O   UNL A   1      32.202  36.359  31.807  1.00  0.00    -0.246 OA
BRANCH  35  37
ATOM     37  C   UNL A   1      34.031  34.910  32.216  1.00  0.00     0.060 A 
ATOM     38  C   UNL A   1      35.306  35.482  32.082  1.00  0.00     0.016 A 
ATOM     39  C   UNL A   1      33.847  33.789  33.027  1.00  0.00     0.016 A 
ATOM     40  C   UNL A   1      36.411  34.901  32.703  1.00  0.00     0.010 A 
ATOM     41  C   UNL A   1      34.964  33.189  33.630  1.00  0.00     0.010 A 
ATOM     42  C   UNL A   1      36.256  33.713  33.426  1.00  0.00    -0.014 A 
BRANCH  42  43
ATOM     43  C   UNL A   1      37.457  32.895  33.740  1.00  0.00     0.031 A 
ATOM     44  C   UNL A   1      38.272  33.266  34.954  1.00  0.00     0.074 A 
ATOM     45  C   UNL A   1      37.817  31.836  32.994  1.00  0.00     0.049 A 
ATOM     46  N   UNL A   1      39.357  32.711  35.428  1.00  0.00    -0.248 NA
ATOM     47  C   UNL A   1      37.795  34.419  35.736  1.00  0.00     0.031 C 
ATOM     48  C   UNL A   1      37.115  31.354  31.807  1.00  0.00     0.029 A 
ATOM     49  N   UNL A   1      38.889  30.986  33.120  1.00  0.00    -0.354 N 
ATOM     50  C   UNL A   1      39.706  33.460  36.546  1.00  0.00     0.074 A 
ATOM     51  C   UNL A   1      38.726  34.516  36.673  1.00  0.00     0.031 C 
ATOM     52  C   UNL A   1      37.794  30.312  31.293  1.00  0.00     0.029 A 
ATOM     53  C   UNL A   1      38.985  30.062  32.106  1.00  0.00     0.049 A 
ATOM     54  H   UNL A   1      39.529  31.034  33.866  1.00  0.00     0.167 HD
ATOM     55  C   UNL A   1      40.736  33.278  37.406  1.00  0.00     0.034 A 
ATOM     56  C   UNL A   1      39.932  29.135  31.857  1.00  0.00     0.034 A 
ATOM     57  C   UNL A   1      41.703  32.223  37.302  1.00  0.00     0.049 A 
ATOM     58  C   UNL A   1      41.089  28.971  32.813  1.00  0.00     0.074 A 
ATOM     59  C   UNL A   1      42.760  31.938  38.149  1.00  0.00     0.029 A 
ATOM     60  N   UNL A   1      41.742  31.283  36.285  1.00  0.00    -0.354 N 
ATOM     61  N   UNL A   1      41.334  29.605  33.934  1.00  0.00    -0.248 NA
ATOM     62  C   UNL A   1      42.083  27.936  32.485  1.00  0.00     0.031 C 
ATOM     63  C   UNL A   1      43.450  30.836  37.633  1.00  0.00     0.029 A 
ATOM     64  C   UNL A   1      42.809  30.422  36.476  1.00  0.00     0.049 A 
ATOM     65  H   UNL A   1      41.104  31.235  35.536  1.00  0.00     0.167 HD
ATOM     66  C   UNL A   1      42.481  29.021  34.464  1.00  0.00     0.074 A 
ATOM     67  C   UNL A   1      42.874  27.970  33.549  1.00  0.00     0.031 C 
ATOM     68  C   UNL A   1      43.157  29.336  35.597  1.00  0.00     0.034 A 
BRANCH  55  69
ATOM     69  C   UNL A   1      40.850  34.236  38.561  1.00  0.00     0.023 A 
ATOM     70  C   UNL A   1      41.723  35.339  38.466  1.00  0.00     0.012 A 
ATOM     71  C   UNL A   1      40.063  34.073  39.718  1.00  0.00     0.148 A 
ATOM     72  C   UNL A   1      41.834  36.248  39.516  1.00  0.00     0.002 A 
ATOM     73  C   UNL A   1      40.149  35.007  40.744  1.00  0.00     0.091 A 
ATOM     74  F   UNL A   1      39.259  33.003  39.799  1.00  0.00    -0.205 F 
ATOM     75  C   UNL A   1      41.041  36.088  40.649  1.00  0.00     0.022 A 
BRANCH  73  76
ATOM     76  S   UNL A   1      39.115  34.926  42.210  1.00  0.00     0.127 S 
ATOM     77  O   UNL A   1      39.821  33.928  43.014  1.00  0.00    -0.237 OA
ATOM     78  O   UNL A   1      39.199  36.294  42.723  1.00  0.00    -0.237 OA
ATOM     79  O   UNL A   1      37.792  34.534  41.746  1.00  0.00    -0.744 OA
ENDBRANCH  73  76
ENDBRANCH  55  69
BRANCH  56  80
ATOM     80  C   UNL A   1      39.815  28.249  30.663  1.00  0.00     0.023 A 
ATOM     81  C   UNL A   1      38.939  27.147  30.699  1.00  0.00     0.012 A 
ATOM     82  C   UNL A   1      40.571  28.486  29.498  1.00  0.00     0.148 A 
ATOM     83  C   UNL A   1      38.840  26.279  29.611  1.00  0.00     0.002 A 
ATOM     84  C   UNL A   1      40.430  27.649  28.399  1.00  0.00     0.091 A 
ATOM     85  F   UNL A   1      41.416  29.527  29.491  1.00  0.00    -0.205 F 
ATOM     86  C   UNL A   1      39.578  26.535  28.458  1.00  0.00     0.022 A 
BRANCH  84  87
ATOM     87  S   UNL A   1      41.252  27.966  26.833  1.00  0.00     0.127 S 
ATOM     88  O   UNL A   1      40.650  29.235  26.431  1.00  0.00    -0.237 OA
ATOM     89  O   UNL A   1      42.655  28.050  27.239  1.00  0.00    -0.237 OA
ATOM     90  O   UNL A   1      40.939  26.821  25.989  1.00  0.00    -0.744 OA
ENDBRANCH  84  87
ENDBRANCH  56  80
BRANCH  68  91
ATOM     91  C   UNL A   1      44.371  28.515  35.951  1.00  0.00     0.023 A 
ATOM     92  C   UNL A   1      45.645  28.927  35.516  1.00  0.00     0.012 A 
ATOM     93  C   UNL A   1      44.260  27.385  36.787  1.00  0.00     0.148 A 
ATOM     94  C   UNL A   1      46.786  28.212  35.881  1.00  0.00     0.002 A 
ATOM     95  C   UNL A   1      45.405  26.704  37.185  1.00  0.00     0.091 A 
ATOM     96  F   UNL A   1      43.037  26.995  37.178  1.00  0.00    -0.205 F 
ATOM     97  C   UNL A   1      46.668  27.109  36.724  1.00  0.00     0.022 A 
BRANCH  95  98
ATOM     98  S   UNL A   1      45.352  25.333  38.345  1.00  0.00     0.127 S 
ATOM     99  O   UNL A   1      46.772  25.099  38.597  1.00  0.00    -0.237 OA
ATOM    100  O   UNL A   1      44.619  25.907  39.476  1.00  0.00    -0.237 OA
ATOM    101  O   UNL A   1      44.648  24.258  37.659  1.00  0.00    -0.744 OA
ENDBRANCH  95  98
ENDBRANCH  68  91
ENDBRANCH  42  43
ENDBRANCH  35  37
ENDBRANCH  34  35
ENDBRANCH  33  34
ENDBRANCH  32  33
ENDBRANCH  31  32
ENDBRANCH  30  31
ENDBRANCH   1  30
TORSDOF 25
ENDMDL
MODEL 2
REMARK VINA RESULT:      -9.6      1.524      2.145
REMARK SMILES C[N@H+](Cc1ncccc1C(=O)OCCOCCOCCOC(=O)c1ccc(-c2c3nc(c(-c4cccc(S(=O)(=O)[O-])c4F)c4ccc([nH]4)c(-c4cccc(S(=O)(=O)[O-])c4F)c4nc(c(-c5cccc(S(=O)(=O)[O-])c5F)c5ccc2[nH]5)C=C4)C=C3)cc1)C[C@@H]1CCN(c2ccccc2)C1
REMARK SMILES IDX 16 1 15 2 14 3 13 4 12 5 10 6 11 7 9 8 4 9 5 10 6 11 8 12
REMARK SMILES IDX 7 13 3 14 2 15 1 16 87 18 88 19 89 20 98 21 90 22 91 23
REMARK SMILES IDX 92 24 93 25 97 26 94 27 96 28 95 29 17 30 18 31 19 32 20 33
REMARK SMILES IDX 21 34 22 35 23 36 24 37 25 38 86 39 26 40 85 41 27 42 28 43
REMARK SMILES IDX 29 44 79 45 30 46 84 47 78 48 80 49 31 50 83 51 77 52 76 53
REMARK SMILES IDX 32 55 64 56 44 57 63 58 45 59 48 60 62 61 81 62 46 63 47 64
REMARK SMILES IDX 61 66 82 67 49 68 33 69 34 70 42 71 35 72 37 73 43 74 36 75
REMARK SMILES IDX 38 76 39 77 40 78 41 79 65 80 66 81 74 82 67 83 69 84 75 85
REMARK SMILES IDX 68 86 70 87 71 88 72 89 73 90 50 91 51 92 59 93 52 94 54 95
REMARK SMILES IDX 60 96 53 97 55 98 56 99 57 100 58 101
REMARK H PARENT 2 17 80 54 48 65
REMARK Flexibility Score: inf
ROOT
ATOM      1  C   UNL A   1      35.205  31.977  27.991  1.00  0.00     0.188 C 
ENDROOT
BRANCH   1   2
ATOM      2  O   UNL A   1      35.375  30.698  28.593  1.00  0.00    -0.376 OA
BRANCH   2   3
ATOM      3  C   UNL A   1      35.034  29.580  27.785  1.00  0.00     0.202 C 
BRANCH   3   4
ATOM      4  C   UNL A   1      33.813  29.834  26.888  1.00  0.00     0.261 C 
BRANCH   4   5
ATOM      5  O   UNL A   1      33.359  28.684  26.151  1.00  0.00    -0.460 OA
BRANCH   5   6
ATOM      6  C   UNL A   1      32.060  28.340  26.337  1.00  0.00     0.340 C 
ATOM      7  O   UNL A   1      31.539  28.279  27.434  1.00  0.00    -0.246 OA
BRANCH   6   8
ATOM      8  C   UNL A   1      31.388  28.159  25.012  1.00  0.00     0.087 A 
ATOM      9  C   UNL A   1      30.512  27.095  24.724  1.00  0.00     0.109 A 
ATOM     10  N   UNL A   1      29.937  26.961  23.490  1.00  0.00    -0.254 NA
ATOM     11  C   UNL A   1      30.252  27.855  22.529  1.00  0.00     0.111 A 
ATOM     12  C   UNL A   1      31.696  29.061  23.975  1.00  0.00     0.019 A 
ATOM     13  C   UNL A   1      31.124  28.907  22.718  1.00  0.00     0.021 A 
BRANCH   9  14
ATOM     14  C   UNL A   1      30.174  25.973  25.707  1.00  0.00     0.320 C 
BRANCH  14  15
ATOM     15  N   UNL A   1      31.058  24.812  25.621  1.00  0.00    -0.332 N 
ATOM     16  C   UNL A   1      31.743  24.437  26.845  1.00  0.00     0.333 C 
ATOM     17  H   UNL A   1      31.744  25.275  25.026  1.00  0.00     0.348 HD
BRANCH  15  18
ATOM     18  C   UNL A   1      30.747  23.690  24.738  1.00  0.00     0.267 C 
BRANCH  18  19
ATOM     19  C   UNL A   1      31.769  23.472  23.605  1.00  0.00     0.065 C 
ATOM     20  C   UNL A   1      31.647  22.137  22.857  1.00  0.00     0.032 C 
ATOM     21  C   UNL A   1      33.209  23.441  24.087  1.00  0.00     0.126 C 
ATOM     22  C   UNL A   1      32.672  21.187  23.501  1.00  0.00     0.117 C 
ATOM     23  N   UNL A   1      33.659  22.066  24.080  1.00  0.00    -0.371 N 
BRANCH  23  24
ATOM     24  C   UNL A   1      35.021  21.939  24.212  1.00  0.00     0.037 A 
ATOM     25  C   UNL A   1      35.552  20.809  24.869  1.00  0.00     0.026 A 
ATOM     26  C   UNL A   1      35.894  22.985  23.919  1.00  0.00     0.026 A 
ATOM     27  C   UNL A   1      36.889  20.744  25.260  1.00  0.00     0.002 A 
ATOM     28  C   UNL A   1      37.236  22.930  24.316  1.00  0.00     0.002 A 
ATOM     29  C   UNL A   1      37.731  21.816  24.993  1.00  0.00     0.000 A 
ENDBRANCH  23  24
ENDBRANCH  18  19
ENDBRANCH  15  18
ENDBRANCH  14  15
ENDBRANCH   9  14
ENDBRANCH   6   8
ENDBRANCH   5   6
ENDBRANCH   4   5
ENDBRANCH   3   4
ENDBRANCH   2   3
ENDBRANCH   1   2
BRANCH   1  30
ATOM     30  C   UNL A   1      35.977  33.115  28.691  1.00  0.00     0.188 C 
BRANCH  30  31
ATOM     31  O   UNL A   1      35.392  34.403  28.814  1.00  0.00    -0.376 OA
BRANCH  31  32
ATOM     32  C   UNL A   1      34.143  34.634  28.184  1.00  0.00     0.202 C 
BRANCH  32  33
ATOM     33  C   UNL A   1      33.079  35.395  28.983  1.00  0.00     0.261 C 
BRANCH  33  34
ATOM     34  O   UNL A   1      32.703  34.763  30.221  1.00  0.00    -0.460 OA
BRANCH  34  35
ATOM     35  C   UNL A   1      32.909  35.506  31.339  1.00  0.00     0.338 C 
ATOM     36  O   UNL A   1      32.230  36.443  31.726  1.00  0.00    -0.246 OA
BRANCH  35  37
ATOM     37  C   UNL A   1      33.982  34.912  32.171  1.00  0.00     0.060 A 
ATOM     38  C   UNL A   1      35.248  35.518  32.137  1.00  0.00     0.016 A 
ATOM     39  C   UNL A   1      33.788  33.735  32.896  1.00  0.00     0.016 A 
ATOM     40  C   UNL A   1      36.337  34.918  32.769  1.00  0.00     0.010 A 
ATOM     41  C   UNL A   1      34.889  33.118  33.508  1.00  0.00     0.010 A 
ATOM     42  C   UNL A   1      36.177  33.681  33.402  1.00  0.00    -0.014 A 
BRANCH  42  43
ATOM     43  C   UNL A   1      37.381  32.867  33.717  1.00  0.00     0.031 A 
ATOM     44  C   UNL A   1      38.191  33.239  34.934  1.00  0.00     0.074 A 
ATOM     45  C   UNL A   1      37.748  31.813  32.968  1.00  0.00     0.049 A 
ATOM     46  N   UNL A   1      39.277  32.689  35.410  1.00  0.00    -0.248 NA
ATOM     47  C   UNL A   1      37.707  34.388  35.719  1.00  0.00     0.031 C 
ATOM     48  C   UNL A   1      37.051  31.331  31.778  1.00  0.00     0.029 A 
ATOM     49  N   UNL A   1      38.824  30.968  33.095  1.00  0.00    -0.354 N 
ATOM     50  C   UNL A   1      39.619  33.436  36.531  1.00  0.00     0.074 A 
ATOM     51  C   UNL A   1      38.634  34.486  36.658  1.00  0.00     0.031 C 
ATOM     52  C   UNL A   1      37.738  30.294  31.263  1.00  0.00     0.029 A 
ATOM     53  C   UNL A   1      38.928  30.047  32.079  1.00  0.00     0.049 A 
ATOM     54  H   UNL A   1      39.462  31.017  33.843  1.00  0.00     0.167 HD
ATOM     55  C   UNL A   1      40.648  33.257  37.393  1.00  0.00     0.034 A 
ATOM     56  C   UNL A   1      39.879  29.125  31.830  1.00  0.00     0.034 A 
ATOM     57  C   UNL A   1      41.621  32.206  37.288  1.00  0.00     0.049 A 
ATOM     58  C   UNL A   1      41.035  28.965  32.788  1.00  0.00     0.074 A 
ATOM     59  C   UNL A   1      42.677  31.924  38.138  1.00  0.00     0.029 A 
ATOM     60  N   UNL A   1      41.668  31.270  36.269  1.00  0.00    -0.354 N 
ATOM     61  N   UNL A   1      41.274  29.597  33.912  1.00  0.00    -0.248 NA
ATOM     62  C   UNL A   1      42.035  27.936  32.461  1.00  0.00     0.031 C 
ATOM     63  C   UNL A   1      43.373  30.827  37.620  1.00  0.00     0.029 A 
ATOM     64  C   UNL A   1      42.738  30.414  36.461  1.00  0.00     0.049 A 
ATOM     65  H   UNL A   1      41.032  31.221  35.518  1.00  0.00     0.167 HD
ATOM     66  C   UNL A   1      42.422  29.016  34.444  1.00  0.00     0.074 A 
ATOM     67  C   UNL A   1      42.822  27.970  33.527  1.00  0.00     0.031 C 
ATOM     68  C   UNL A   1      43.093  29.331  35.580  1.00  0.00     0.034 A 
BRANCH  55  69
ATOM     69  C   UNL A   1      40.754  34.212  38.551  1.00  0.00     0.023 A 
ATOM     70  C   UNL A   1      41.633  35.310  38.468  1.00  0.00     0.012 A 
ATOM     71  C   UNL A   1      39.954  34.050  39.699  1.00  0.00     0.148 A 
ATOM     72  C   UNL A   1      41.737  36.217  39.521  1.00  0.00     0.002 A 
ATOM     73  C   UNL A   1      40.033  34.981  40.728  1.00  0.00     0.091 A 
ATOM     74  F   UNL A   1      39.145  32.984  39.770  1.00  0.00    -0.205 F 
ATOM     75  C   UNL A   1      40.932  36.058  40.645  1.00  0.00     0.022 A 
BRANCH  73  76
ATOM     76  S   UNL A   1      38.984  34.902  42.183  1.00  0.00     0.127 S 
ATOM     77  O   UNL A   1      39.710  35.762  43.117  1.00  0.00    -0.237 OA
ATOM     78  O   UNL A   1      37.726  35.463  41.688  1.00  0.00    -0.237 OA
ATOM     79  O   UNL A   1      38.916  33.495  42.551  1.00  0.00    -0.744 OA
ENDBRANCH  73  76
ENDBRANCH  55  69
BRANCH  56  80
ATOM     80  C   UNL A   1      39.770  28.242  30.633  1.00  0.00     0.023 A 
ATOM     81  C   UNL A   1      38.918  27.122  30.673  1.00  0.00     0.012 A 
ATOM     82  C   UNL A   1      40.509  28.501  29.462  1.00  0.00     0.148 A 
ATOM     83  C   UNL A   1      38.828  26.257  29.581  1.00  0.00     0.002 A 
ATOM     84  C   UNL A   1      40.376  27.666  28.360  1.00  0.00     0.091 A 
ATOM     85  F   UNL A   1      41.332  29.560  29.452  1.00  0.00    -0.205 F 
ATOM     86  C   UNL A   1      39.549  26.533  28.422  1.00  0.00     0.022 A 
BRANCH  84  87
ATOM     87  S   UNL A   1      41.176  28.007  26.788  1.00  0.00     0.127 S 
ATOM     88  O   UNL A   1      42.575  28.138  27.187  1.00  0.00    -0.237 OA
ATOM     89  O   UNL A   1      40.863  26.802  26.021  1.00  0.00    -0.237 OA
ATOM     90  O   UNL A   1      40.545  29.220  26.284  1.00  0.00    -0.744 OA
ENDBRANCH  84  87
ENDBRANCH  56  80
BRANCH  68  91
ATOM     91  C   UNL A   1      44.311  28.516  35.934  1.00  0.00     0.023 A 
ATOM     92  C   UNL A   1      44.170  27.347  36.706  1.00  0.00     0.012 A 
ATOM     93  C   UNL A   1      45.581  28.860  35.427  1.00  0.00     0.148 A 
ATOM     94  C   UNL A   1      45.278  26.550  36.995  1.00  0.00     0.002 A 
ATOM     95  C   UNL A   1      46.672  28.036  35.681  1.00  0.00     0.091 A 
ATOM     96  F   UNL A   1      45.701  29.987  34.709  1.00  0.00    -0.205 F 
ATOM     97  C   UNL A   1      46.525  26.887  36.474  1.00  0.00     0.022 A 
BRANCH  95  98
ATOM     98  S   UNL A   1      48.294  28.345  34.969  1.00  0.00     0.127 S 
ATOM     99  O   UNL A   1      49.062  27.208  35.473  1.00  0.00    -0.237 OA
ATOM    100  O   UNL A   1      48.018  28.305  33.531  1.00  0.00    -0.237 OA
ATOM    101  O   UNL A   1      48.704  29.651  35.465  1.00  0.00    -0.744 OA
ENDBRANCH  95  98
ENDBRANCH  68  91
ENDBRANCH  42  43
ENDBRANCH  35  37
ENDBRANCH  34  35
ENDBRANCH  33  34
ENDBRANCH  32  33
ENDBRANCH  31  32
ENDBRANCH  30  31
ENDBRANCH   1  30
TORSDOF 25
ENDMDL
MODEL 3
REMARK VINA RESULT:      -9.3      1.652      2.196
REMARK SMILES C[N@H+](Cc1ncccc1C(=O)OCCOCCOCCOC(=O)c1ccc(-c2c3nc(c(-c4cccc(S(=O)(=O)[O-])c4F)c4ccc([nH]4)c(-c4cccc(S(=O)(=O)[O-])c4F)c4nc(c(-c5cccc(S(=O)(=O)[O-])c5F)c5ccc2[nH]5)C=C4)C=C3)cc1)C[C@@H]1CCN(c2ccccc2)C1
REMARK SMILES IDX 16 1 15 2 14 3 13 4 12 5 10 6 11 7 9 8 4 9 5 10 6 11 8 12
REMARK SMILES IDX 7 13 3 14 2 15 1 16 87 18 88 19 89 20 98 21 90 22 91 23
REMARK SMILES IDX 92 24 93 25 97 26 94 27 96 28 95 29 17 30 18 31 19 32 20 33
REMARK SMILES IDX 21 34 22 35 23 36 24 37 25 38 86 39 26 40 85 41 27 42 28 43
REMARK SMILES IDX 29 44 79 45 30 46 84 47 78 48 80 49 31 50 83 51 77 52 76 53
REMARK SMILES IDX 32 55 64 56 44 57 63 58 45 59 48 60 62 61 81 62 46 63 47 64
REMARK SMILES IDX 61 66 82 67 49 68 33 69 34 70 42 71 35 72 37 73 43 74 36 75
REMARK SMILES IDX 38 76 39 77 40 78 41 79 65 80 66 81 74 82 67 83 69 84 75 85
REMARK SMILES IDX 68 86 70 87 71 88 72 89 73 90 50 91 51 92 59 93 52 94 54 95
REMARK SMILES IDX 60 96 53 97 55 98 56 99 57 100 58 101
REMARK H PARENT 2 17 80 54 48 65
REMARK Flexibility Score: inf
ROOT
ATOM      1  C   UNL A   1      35.312  31.871  27.812  1.00  0.00     0.188 C 
ENDROOT
BRANCH   1   2
ATOM      2  O   UNL A   1      35.368  30.593  28.437  1.00  0.00    -0.376 OA
BRANCH   2   3
ATOM      3  C   UNL A   1      35.160  29.475  27.586  1.00  0.00     0.202 C 
BRANCH   3   4
ATOM      4  C   UNL A   1      33.695  29.309  27.155  1.00  0.00     0.261 C 
BRANCH   4   5
ATOM      5  O   UNL A   1      33.270  27.944  26.985  1.00  0.00    -0.460 OA
BRANCH   5   6
ATOM      6  C   UNL A   1      31.934  27.757  26.842  1.00  0.00     0.340 C 
ATOM      7  O   UNL A   1      31.144  27.878  27.759  1.00  0.00    -0.246 OA
BRANCH   6   8
ATOM      8  C   UNL A   1      31.609  27.489  25.406  1.00  0.00     0.087 A 
ATOM      9  C   UNL A   1      31.770  26.230  24.795  1.00  0.00     0.109 A 
ATOM     10  N   UNL A   1      31.478  26.040  23.472  1.00  0.00    -0.254 NA
ATOM     11  C   UNL A   1      31.061  27.096  22.742  1.00  0.00     0.111 A 
ATOM     12  C   UNL A   1      31.181  28.564  24.604  1.00  0.00     0.019 A 
ATOM     13  C   UNL A   1      30.906  28.367  23.256  1.00  0.00     0.021 A 
BRANCH   9  14
ATOM     14  C   UNL A   1      32.336  25.000  25.504  1.00  0.00     0.320 C 
BRANCH  14  15
ATOM     15  N   UNL A   1      31.337  23.988  25.841  1.00  0.00    -0.332 N 
ATOM     16  C   UNL A   1      30.089  24.481  26.397  1.00  0.00     0.333 C 
ATOM     17  H   UNL A   1      31.873  23.598  26.616  1.00  0.00     0.348 HD
BRANCH  15  18
ATOM     18  C   UNL A   1      31.202  22.766  25.052  1.00  0.00     0.267 C 
BRANCH  18  19
ATOM     19  C   UNL A   1      32.541  22.145  24.608  1.00  0.00     0.065 C 
ATOM     20  C   UNL A   1      32.615  21.724  23.133  1.00  0.00     0.032 C 
ATOM     21  C   UNL A   1      32.876  20.851  25.330  1.00  0.00     0.126 C 
ATOM     22  C   UNL A   1      32.297  20.218  23.099  1.00  0.00     0.117 C 
ATOM     23  N   UNL A   1      32.638  19.751  24.421  1.00  0.00    -0.371 N 
BRANCH  23  24
ATOM     24  C   UNL A   1      33.177  18.562  24.852  1.00  0.00     0.037 A 
ATOM     25  C   UNL A   1      34.443  18.163  24.376  1.00  0.00     0.026 A 
ATOM     26  C   UNL A   1      32.432  17.628  25.568  1.00  0.00     0.026 A 
ATOM     27  C   UNL A   1      34.928  16.869  24.567  1.00  0.00     0.002 A 
ATOM     28  C   UNL A   1      32.908  16.324  25.755  1.00  0.00     0.002 A 
ATOM     29  C   UNL A   1      34.150  15.942  25.249  1.00  0.00     0.000 A 
ENDBRANCH  23  24
ENDBRANCH  18  19
ENDBRANCH  15  18
ENDBRANCH  14  15
ENDBRANCH   9  14
ENDBRANCH   6   8
ENDBRANCH   5   6
ENDBRANCH   4   5
ENDBRANCH   3   4
ENDBRANCH   2   3
ENDBRANCH   1   2
BRANCH   1  30
ATOM     30  C   UNL A   1      36.087  32.977  28.559  1.00  0.00     0.188 C 
BRANCH  30  31
ATOM     31  O   UNL A   1      35.629  34.321  28.516  1.00  0.00    -0.376 OA
BRANCH  31  32
ATOM     32  C   UNL A   1      34.397  34.589  27.867  1.00  0.00     0.202 C 
BRANCH  32  33
ATOM     33  C   UNL A   1      33.316  35.315  28.676  1.00  0.00     0.261 C 
BRANCH  33  34
ATOM     34  O   UNL A   1      32.887  34.613  29.858  1.00  0.00    -0.460 OA
BRANCH  34  35
ATOM     35  C   UNL A   1      33.015  35.300  31.021  1.00  0.00     0.338 C 
ATOM     36  O   UNL A   1      32.323  36.234  31.395  1.00  0.00    -0.246 OA
BRANCH  35  37
ATOM     37  C   UNL A   1      34.006  34.647  31.908  1.00  0.00     0.060 A 
ATOM     38  C   UNL A   1      34.826  35.474  32.693  1.00  0.00     0.016 A 
ATOM     39  C   UNL A   1      34.200  33.265  31.908  1.00  0.00     0.016 A 
ATOM     40  C   UNL A   1      35.882  34.932  33.427  1.00  0.00     0.010 A 
ATOM     41  C   UNL A   1      35.278  32.724  32.624  1.00  0.00     0.010 A 
ATOM     42  C   UNL A   1      36.153  33.562  33.343  1.00  0.00    -0.014 A 
BRANCH  42  43
ATOM     43  C   UNL A   1      37.481  33.060  33.787  1.00  0.00     0.031 A 
ATOM     44  C   UNL A   1      37.883  33.287  35.222  1.00  0.00     0.074 A 
ATOM     45  C   UNL A   1      38.309  32.399  32.959  1.00  0.00     0.049 A 
ATOM     46  N   UNL A   1      38.984  32.949  35.841  1.00  0.00    -0.248 NA
ATOM     47  C   UNL A   1      36.909  33.993  36.073  1.00  0.00     0.031 C 
ATOM     48  C   UNL A   1      38.043  32.094  31.555  1.00  0.00     0.029 A 
ATOM     49  N   UNL A   1      39.563  31.884  33.185  1.00  0.00    -0.354 N 
ATOM     50  C   UNL A   1      38.846  33.420  37.142  1.00  0.00     0.074 A 
ATOM     51  C   UNL A   1      37.561  34.078  37.221  1.00  0.00     0.031 C 
ATOM     52  C   UNL A   1      39.118  31.472  31.035  1.00  0.00     0.029 A 
ATOM     53  C   UNL A   1      40.151  31.348  32.063  1.00  0.00     0.049 A 
ATOM     54  H   UNL A   1      39.999  31.898  34.067  1.00  0.00     0.167 HD
ATOM     55  C   UNL A   1      39.700  33.300  38.186  1.00  0.00     0.034 A 
ATOM     56  C   UNL A   1      41.384  30.832  31.887  1.00  0.00     0.034 A 
ATOM     57  C   UNL A   1      40.969  32.632  38.124  1.00  0.00     0.049 A 
ATOM     58  C   UNL A   1      42.331  30.738  33.059  1.00  0.00     0.074 A 
ATOM     59  C   UNL A   1      41.884  32.428  39.143  1.00  0.00     0.029 A 
ATOM     60  N   UNL A   1      41.511  32.066  36.982  1.00  0.00    -0.354 N 
ATOM     61  N   UNL A   1      42.135  31.073  34.312  1.00  0.00    -0.248 NA
ATOM     62  C   UNL A   1      43.659  30.159  32.799  1.00  0.00     0.031 C 
ATOM     63  C   UNL A   1      42.989  31.756  38.610  1.00  0.00     0.029 A 
ATOM     64  C   UNL A   1      42.751  31.522  37.266  1.00  0.00     0.049 A 
ATOM     65  H   UNL A   1      41.076  32.054  36.098  1.00  0.00     0.167 HD
ATOM     66  C   UNL A   1      43.294  30.709  34.993  1.00  0.00     0.074 A 
ATOM     67  C   UNL A   1      44.181  30.112  34.017  1.00  0.00     0.031 C 
ATOM     68  C   UNL A   1      43.602  30.869  36.304  1.00  0.00     0.034 A 
BRANCH  55  69
ATOM     69  C   UNL A   1      39.267  33.886  39.503  1.00  0.00     0.023 A 
ATOM     70  C   UNL A   1      39.501  35.251  39.766  1.00  0.00     0.012 A 
ATOM     71  C   UNL A   1      38.593  33.102  40.458  1.00  0.00     0.148 A 
ATOM     72  C   UNL A   1      39.095  35.821  40.972  1.00  0.00     0.002 A 
ATOM     73  C   UNL A   1      38.155  33.686  41.641  1.00  0.00     0.091 A 
ATOM     74  F   UNL A   1      38.405  31.800  40.200  1.00  0.00    -0.205 F 
ATOM     75  C   UNL A   1      38.415  35.042  41.904  1.00  0.00     0.022 A 
BRANCH  73  76
ATOM     76  S   UNL A   1      37.207  32.783  42.870  1.00  0.00     0.127 S 
ATOM     77  O   UNL A   1      36.834  33.850  43.797  1.00  0.00    -0.237 OA
ATOM     78  O   UNL A   1      36.100  32.250  42.075  1.00  0.00    -0.237 OA
ATOM     79  O   UNL A   1      38.108  31.773  43.407  1.00  0.00    -0.744 OA
ENDBRANCH  73  76
ENDBRANCH  55  69
BRANCH  56  80
ATOM     80  C   UNL A   1      41.797  30.322  30.547  1.00  0.00     0.023 A 
ATOM     81  C   UNL A   1      42.535  31.155  29.684  1.00  0.00     0.012 A 
ATOM     82  C   UNL A   1      41.455  29.024  30.122  1.00  0.00     0.148 A 
ATOM     83  C   UNL A   1      42.898  30.717  28.410  1.00  0.00     0.002 A 
ATOM     84  C   UNL A   1      41.864  28.574  28.872  1.00  0.00     0.091 A 
ATOM     85  F   UNL A   1      40.733  28.254  30.948  1.00  0.00    -0.205 F 
ATOM     86  C   UNL A   1      42.572  29.425  28.007  1.00  0.00     0.022 A 
BRANCH  84  87
ATOM     87  S   UNL A   1      41.589  26.889  28.316  1.00  0.00     0.127 S 
ATOM     88  O   UNL A   1      42.455  26.132  29.215  1.00  0.00    -0.237 OA
ATOM     89  O   UNL A   1      40.155  26.722  28.555  1.00  0.00    -0.237 OA
ATOM     90  O   UNL A   1      41.968  26.875  26.909  1.00  0.00    -0.744 OA
ENDBRANCH  84  87
ENDBRANCH  56  80
BRANCH  68  91
ATOM     91  C   UNL A   1      44.935  30.357  36.788  1.00  0.00     0.023 A 
ATOM     92  C   UNL A   1      46.058  31.205  36.770  1.00  0.00     0.012 A 
ATOM     93  C   UNL A   1      45.054  29.066  37.341  1.00  0.00     0.148 A 
ATOM     94  C   UNL A   1      47.286  30.767  37.267  1.00  0.00     0.002 A 
ATOM     95  C   UNL A   1      46.269  28.652  37.875  1.00  0.00     0.091 A 
ATOM     96  F   UNL A   1      43.978  28.263  37.333  1.00  0.00    -0.205 F 
ATOM     97  C   UNL A   1      47.389  29.497  37.830  1.00  0.00     0.022 A 
BRANCH  95  98
ATOM     98  S   UNL A   1      46.463  27.069  38.705  1.00  0.00     0.127 S 
ATOM     99  O   UNL A   1      47.867  27.114  39.108  1.00  0.00    -0.237 OA
ATOM    100  O   UNL A   1      45.508  27.174  39.809  1.00  0.00    -0.237 OA
ATOM    101  O   UNL A   1      46.126  26.057  37.714  1.00  0.00    -0.744 OA
ENDBRANCH  95  98
ENDBRANCH  68  91
ENDBRANCH  42  43
ENDBRANCH  35  37
ENDBRANCH  34  35
ENDBRANCH  33  34
ENDBRANCH  32  33
ENDBRANCH  31  32
ENDBRANCH  30  31
ENDBRANCH   1  30
TORSDOF 25
ENDMDL
