MODEL 1
REMARK VINA RESULT:      -9.4      0.000      0.000
REMARK SMILES C=CCSc1ccccc1C(=O)OCCOCCOCCOC(=O)c1ccc(-c2c3nc(c(-c4cccc(S(=O)(=O)[O-])c4F)c4ccc([nH]4)c(-c4cccc(S(=O)(=O)[O-])c4F)c4nc(c(-c5cccc(S(=O)(=O)[O-])c5F)c5ccc2[nH]5)C=C4)C=C3)cc1
REMARK SMILES IDX 17 1 16 2 15 3 14 4 13 5 11 6 12 7 10 8 5 9 6 10 7 11 9 12
REMARK SMILES IDX 8 13 4 14 3 15 2 16 1 17 18 18 19 19 20 20 21 21 22 22 23 23
REMARK SMILES IDX 24 24 25 25 26 26 87 27 27 28 86 29 28 30 29 31 30 32 80 33
REMARK SMILES IDX 31 34 85 35 79 36 81 37 32 38 84 39 78 40 77 41 33 43 65 44
REMARK SMILES IDX 45 45 64 46 46 47 49 48 63 49 82 50 47 51 48 52 62 54 83 55
REMARK SMILES IDX 50 56 34 57 35 58 43 59 36 60 38 61 44 62 37 63 39 64 40 65
REMARK SMILES IDX 41 66 42 67 66 68 67 69 75 70 68 71 70 72 76 73 69 74 71 75
REMARK SMILES IDX 72 76 73 77 74 78 51 79 52 80 60 81 53 82 55 83 61 84 54 85
REMARK SMILES IDX 56 86 57 87 58 88 59 89
REMARK H PARENT 81 42 49 53
REMARK Flexibility Score: inf
ROOT
ATOM      1  C   UNL A   1      36.196  23.294  25.302  1.00  0.00     0.188 C 
ENDROOT
BRANCH   1   2
ATOM      2  O   UNL A   1      35.584  23.467  24.037  1.00  0.00    -0.376 OA
BRANCH   2   3
ATOM      3  C   UNL A   1      34.237  23.913  23.960  1.00  0.00     0.202 C 
BRANCH   3   4
ATOM      4  C   UNL A   1      33.837  25.114  23.098  1.00  0.00     0.261 C 
BRANCH   4   5
ATOM      5  O   UNL A   1      33.037  26.067  23.806  1.00  0.00    -0.460 OA
BRANCH   5   6
ATOM      6  C   UNL A   1      33.145  27.351  23.398  1.00  0.00     0.339 C 
ATOM      7  O   UNL A   1      33.272  27.736  22.240  1.00  0.00    -0.246 OA
BRANCH   6   8
ATOM      8  C   UNL A   1      32.882  28.281  24.518  1.00  0.00     0.073 A 
ATOM      9  C   UNL A   1      31.750  29.112  24.614  1.00  0.00     0.022 A 
ATOM     10  C   UNL A   1      31.629  29.937  25.747  1.00  0.00     0.016 A 
ATOM     11  C   UNL A   1      32.603  29.942  26.751  1.00  0.00     0.001 A 
ATOM     12  C   UNL A   1      33.867  28.302  25.526  1.00  0.00     0.017 A 
ATOM     13  C   UNL A   1      33.730  29.135  26.634  1.00  0.00     0.001 A 
BRANCH   9  14
ATOM     14  S   UNL A   1      30.527  29.242  23.304  1.00  0.00    -0.121 SA
BRANCH  14  15
ATOM     15  C   UNL A   1      29.646  30.767  23.736  1.00  0.00     0.101 C 
BRANCH  15  16
ATOM     16  C   UNL A   1      28.200  30.655  23.374  1.00  0.00    -0.024 C 
ATOM     17  C   UNL A   1      27.267  31.548  23.728  1.00  0.00     0.005 C 
ENDBRANCH  15  16
ENDBRANCH  14  15
ENDBRANCH   9  14
ENDBRANCH   6   8
ENDBRANCH   5   6
ENDBRANCH   4   5
ENDBRANCH   3   4
ENDBRANCH   2   3
ENDBRANCH   1   2
BRANCH   1  18
ATOM     18  C   UNL A   1      36.956  21.988  25.613  1.00  0.00     0.188 C 
BRANCH  18  19
ATOM     19  O   UNL A   1      37.365  21.122  24.577  1.00  0.00    -0.376 OA
BRANCH  19  20
ATOM     20  C   UNL A   1      37.686  19.770  24.846  1.00  0.00     0.202 C 
BRANCH  20  21
ATOM     21  C   UNL A   1      38.932  19.301  25.614  1.00  0.00     0.261 C 
BRANCH  21  22
ATOM     22  O   UNL A   1      40.100  20.119  25.524  1.00  0.00    -0.460 OA
BRANCH  22  23
ATOM     23  C   UNL A   1      40.858  20.152  26.643  1.00  0.00     0.338 C 
ATOM     24  O   UNL A   1      41.496  19.225  27.135  1.00  0.00    -0.246 OA
BRANCH  23  25
ATOM     25  C   UNL A   1      40.975  21.538  27.118  1.00  0.00     0.060 A 
ATOM     26  C   UNL A   1      40.463  22.563  26.310  1.00  0.00     0.016 A 
ATOM     27  C   UNL A   1      41.633  21.833  28.313  1.00  0.00     0.016 A 
ATOM     28  C   UNL A   1      40.646  23.893  26.673  1.00  0.00     0.010 A 
ATOM     29  C   UNL A   1      41.832  23.170  28.667  1.00  0.00     0.010 A 
ATOM     30  C   UNL A   1      41.375  24.204  27.828  1.00  0.00    -0.014 A 
BRANCH  30  31
ATOM     31  C   UNL A   1      41.820  25.600  28.046  1.00  0.00     0.031 A 
ATOM     32  C   UNL A   1      43.192  25.999  27.574  1.00  0.00     0.074 A 
ATOM     33  C   UNL A   1      41.017  26.503  28.634  1.00  0.00     0.049 A 
ATOM     34  N   UNL A   1      43.790  27.159  27.649  1.00  0.00    -0.248 NA
ATOM     35  C   UNL A   1      43.999  24.947  26.930  1.00  0.00     0.031 C 
ATOM     36  C   UNL A   1      39.669  26.240  29.132  1.00  0.00     0.029 A 
ATOM     37  N   UNL A   1      41.235  27.825  28.930  1.00  0.00    -0.354 N 
ATOM     38  C   UNL A   1      45.048  26.973  27.090  1.00  0.00     0.074 A 
ATOM     39  C   UNL A   1      45.135  25.585  26.692  1.00  0.00     0.031 C 
ATOM     40  C   UNL A   1      39.187  27.360  29.698  1.00  0.00     0.029 A 
ATOM     41  C   UNL A   1      40.200  28.412  29.619  1.00  0.00     0.049 A 
ATOM     42  H   UNL A   1      42.054  28.308  28.675  1.00  0.00     0.167 HD
ATOM     43  C   UNL A   1      46.039  27.878  26.908  1.00  0.00     0.034 A 
ATOM     44  C   UNL A   1      40.093  29.651  30.139  1.00  0.00     0.034 A 
ATOM     45  C   UNL A   1      45.947  29.261  27.290  1.00  0.00     0.049 A 
ATOM     46  C   UNL A   1      41.217  30.635  29.940  1.00  0.00     0.074 A 
ATOM     47  C   UNL A   1      46.878  30.267  27.107  1.00  0.00     0.029 A 
ATOM     48  N   UNL A   1      44.868  29.830  27.947  1.00  0.00    -0.354 N 
ATOM     49  N   UNL A   1      42.350  30.479  29.297  1.00  0.00    -0.248 NA
ATOM     50  C   UNL A   1      41.032  31.980  30.507  1.00  0.00     0.031 C 
ATOM     51  C   UNL A   1      46.374  31.439  27.679  1.00  0.00     0.029 A 
ATOM     52  C   UNL A   1      45.112  31.170  28.187  1.00  0.00     0.049 A 
ATOM     53  H   UNL A   1      44.047  29.350  28.205  1.00  0.00     0.167 HD
ATOM     54  C   UNL A   1      42.993  31.713  29.349  1.00  0.00     0.074 A 
ATOM     55  C   UNL A   1      42.113  32.611  30.067  1.00  0.00     0.031 C 
ATOM     56  C   UNL A   1      44.205  32.068  28.856  1.00  0.00     0.034 A 
BRANCH  43  57
ATOM     57  C   UNL A   1      47.304  27.402  26.245  1.00  0.00     0.023 A 
ATOM     58  C   UNL A   1      47.494  27.617  24.865  1.00  0.00     0.012 A 
ATOM     59  C   UNL A   1      48.324  26.786  26.995  1.00  0.00     0.148 A 
ATOM     60  C   UNL A   1      48.664  27.197  24.234  1.00  0.00     0.002 A 
ATOM     61  C   UNL A   1      49.507  26.411  26.369  1.00  0.00     0.091 A 
ATOM     62  F   UNL A   1      48.114  26.568  28.302  1.00  0.00    -0.205 F 
ATOM     63  C   UNL A   1      49.674  26.604  24.988  1.00  0.00     0.022 A 
BRANCH  61  64
ATOM     64  S   UNL A   1      50.898  25.714  27.268  1.00  0.00     0.127 S 
ATOM     65  O   UNL A   1      51.061  26.681  28.353  1.00  0.00    -0.237 OA
ATOM     66  O   UNL A   1      50.373  24.413  27.683  1.00  0.00    -0.237 OA
ATOM     67  O   UNL A   1      51.999  25.650  26.318  1.00  0.00    -0.744 OA
ENDBRANCH  61  64
ENDBRANCH  43  57
BRANCH  44  68
ATOM     68  C   UNL A   1      38.856  30.050  30.869  1.00  0.00     0.023 A 
ATOM     69  C   UNL A   1      38.685  29.661  32.212  1.00  0.00     0.012 A 
ATOM     70  C   UNL A   1      37.851  30.811  30.240  1.00  0.00     0.148 A 
ATOM     71  C   UNL A   1      37.521  29.995  32.906  1.00  0.00     0.002 A 
ATOM     72  C   UNL A   1      36.719  31.187  30.954  1.00  0.00     0.091 A 
ATOM     73  F   UNL A   1      38.025  31.155  28.957  1.00  0.00    -0.205 F 
ATOM     74  C   UNL A   1      36.543  30.765  32.281  1.00  0.00     0.022 A 
BRANCH  72  75
ATOM     75  S   UNL A   1      35.466  32.276  30.270  1.00  0.00     0.127 S 
ATOM     76  O   UNL A   1      35.038  31.534  29.088  1.00  0.00    -0.237 OA
ATOM     77  O   UNL A   1      34.487  32.325  31.357  1.00  0.00    -0.237 OA
ATOM     78  O   UNL A   1      36.141  33.541  30.013  1.00  0.00    -0.744 OA
ENDBRANCH  72  75
ENDBRANCH  44  68
BRANCH  56  79
ATOM     79  C   UNL A   1      44.643  33.500  29.031  1.00  0.00     0.023 A 
ATOM     80  C   UNL A   1      45.709  33.811  29.899  1.00  0.00     0.012 A 
ATOM     81  C   UNL A   1      44.042  34.531  28.281  1.00  0.00     0.148 A 
ATOM     82  C   UNL A   1      46.143  35.129  30.047  1.00  0.00     0.002 A 
ATOM     83  C   UNL A   1      44.513  35.833  28.395  1.00  0.00     0.091 A 
ATOM     84  F   UNL A   1      43.018  34.221  27.473  1.00  0.00    -0.205 F 
ATOM     85  C   UNL A   1      45.554  36.137  29.288  1.00  0.00     0.022 A 
BRANCH  83  86
ATOM     86  S   UNL A   1      43.880  37.177  27.383  1.00  0.00     0.127 S 
ATOM     87  O   UNL A   1      45.105  37.901  27.048  1.00  0.00    -0.237 OA
ATOM     88  O   UNL A   1      43.268  36.461  26.263  1.00  0.00    -0.237 OA
ATOM     89  O   UNL A   1      42.935  37.899  28.224  1.00  0.00    -0.744 OA
ENDBRANCH  83  86
ENDBRANCH  56  79
ENDBRANCH  30  31
ENDBRANCH  23  25
ENDBRANCH  22  23
ENDBRANCH  21  22
ENDBRANCH  20  21
ENDBRANCH  19  20
ENDBRANCH  18  19
ENDBRANCH   1  18
TORSDOF 23
ENDMDL
MODEL 2
REMARK VINA RESULT:      -9.2      1.652      2.196
REMARK SMILES C=CCSc1ccccc1C(=O)OCCOCCOCCOC(=O)c1ccc(-c2c3nc(c(-c4cccc(S(=O)(=O)[O-])c4F)c4ccc([nH]4)c(-c4cccc(S(=O)(=O)[O-])c4F)c4nc(c(-c5cccc(S(=O)(=O)[O-])c5F)c5ccc2[nH]5)C=C4)C=C3)cc1
REMARK SMILES IDX 17 1 16 2 15 3 14 4 13 5 11 6 12 7 10 8 5 9 6 10 7 11 9 12
REMARK SMILES IDX 8 13 4 14 3 15 2 16 1 17 18 18 19 19 20 20 21 21 22 22 23 23
REMARK SMILES IDX 24 24 25 25 26 26 87 27 27 28 86 29 28 30 29 31 30 32 80 33
REMARK SMILES IDX 31 34 85 35 79 36 81 37 32 38 84 39 78 40 77 41 33 43 65 44
REMARK SMILES IDX 45 45 64 46 46 47 49 48 63 49 82 50 47 51 48 52 62 54 83 55
REMARK SMILES IDX 50 56 34 57 35 58 43 59 36 60 38 61 44 62 37 63 39 64 40 65
REMARK SMILES IDX 41 66 42 67 66 68 67 69 75 70 68 71 70 72 76 73 69 74 71 75
REMARK SMILES IDX 72 76 73 77 74 78 51 79 52 80 60 81 53 82 55 83 61 84 54 85
REMARK SMILES IDX 56 86 57 87 58 88 59 89
REMARK H PARENT 81 42 49 53
REMARK Flexibility Score: inf
ROOT
ATOM      1  C   UNL A   1      36.362  23.279  25.442  1.00  0.00     0.188 C 
ENDROOT
BRANCH   1   2
ATOM      2  O   UNL A   1      35.449  23.255  24.360  1.00  0.00    -0.376 OA
BRANCH   2   3
ATOM      3  C   UNL A   1      34.052  23.337  24.616  1.00  0.00     0.202 C 
BRANCH   3   4
ATOM      4  C   UNL A   1      33.372  24.670  24.938  1.00  0.00     0.261 C 
BRANCH   4   5
ATOM      5  O   UNL A   1      31.944  24.590  24.906  1.00  0.00    -0.460 OA
BRANCH   5   6
ATOM      6  C   UNL A   1      31.282  25.478  25.681  1.00  0.00     0.339 C 
ATOM      7  O   UNL A   1      31.183  25.441  26.903  1.00  0.00    -0.246 OA
BRANCH   6   8
ATOM      8  C   UNL A   1      30.848  26.648  24.886  1.00  0.00     0.073 A 
ATOM      9  C   UNL A   1      31.568  27.853  24.786  1.00  0.00     0.022 A 
ATOM     10  C   UNL A   1      31.036  28.876  23.980  1.00  0.00     0.016 A 
ATOM     11  C   UNL A   1      29.825  28.711  23.300  1.00  0.00     0.001 A 
ATOM     12  C   UNL A   1      29.621  26.494  24.211  1.00  0.00     0.017 A 
ATOM     13  C   UNL A   1      29.109  27.525  23.427  1.00  0.00     0.001 A 
BRANCH   9  14
ATOM     14  S   UNL A   1      33.065  28.172  25.728  1.00  0.00    -0.121 SA
BRANCH  14  15
ATOM     15  C   UNL A   1      33.091  29.983  25.824  1.00  0.00     0.101 C 
BRANCH  15  16
ATOM     16  C   UNL A   1      31.701  30.519  25.945  1.00  0.00    -0.024 C 
ATOM     17  C   UNL A   1      31.376  31.608  26.654  1.00  0.00     0.005 C 
ENDBRANCH  15  16
ENDBRANCH  14  15
ENDBRANCH   9  14
ENDBRANCH   6   8
ENDBRANCH   5   6
ENDBRANCH   4   5
ENDBRANCH   3   4
ENDBRANCH   2   3
ENDBRANCH   1   2
BRANCH   1  18
ATOM     18  C   UNL A   1      37.331  22.098  25.653  1.00  0.00     0.188 C 
BRANCH  18  19
ATOM     19  O   UNL A   1      37.581  21.170  24.620  1.00  0.00    -0.376 OA
BRANCH  19  20
ATOM     20  C   UNL A   1      37.920  19.828  24.915  1.00  0.00     0.202 C 
BRANCH  20  21
ATOM     21  C   UNL A   1      39.147  19.394  25.733  1.00  0.00     0.261 C 
BRANCH  21  22
ATOM     22  O   UNL A   1      40.352  20.138  25.546  1.00  0.00    -0.460 OA
BRANCH  22  23
ATOM     23  C   UNL A   1      41.134  20.237  26.645  1.00  0.00     0.338 C 
ATOM     24  O   UNL A   1      41.837  19.359  27.137  1.00  0.00    -0.246 OA
BRANCH  23  25
ATOM     25  C   UNL A   1      41.182  21.638  27.090  1.00  0.00     0.060 A 
ATOM     26  C   UNL A   1      40.829  22.638  26.174  1.00  0.00     0.016 A 
ATOM     27  C   UNL A   1      41.624  21.967  28.372  1.00  0.00     0.016 A 
ATOM     28  C   UNL A   1      40.959  23.979  26.524  1.00  0.00     0.010 A 
ATOM     29  C   UNL A   1      41.773  23.314  28.714  1.00  0.00     0.010 A 
ATOM     30  C   UNL A   1      41.480  24.322  27.778  1.00  0.00    -0.014 A 
BRANCH  30  31
ATOM     31  C   UNL A   1      41.895  25.722  28.027  1.00  0.00     0.031 A 
ATOM     32  C   UNL A   1      43.264  26.158  27.578  1.00  0.00     0.074 A 
ATOM     33  C   UNL A   1      41.067  26.598  28.624  1.00  0.00     0.049 A 
ATOM     34  N   UNL A   1      43.837  27.328  27.681  1.00  0.00    -0.248 NA
ATOM     35  C   UNL A   1      44.097  25.134  26.923  1.00  0.00     0.031 C 
ATOM     36  C   UNL A   1      39.720  26.298  29.102  1.00  0.00     0.029 A 
ATOM     37  N   UNL A   1      41.256  27.918  28.947  1.00  0.00    -0.354 N 
ATOM     38  C   UNL A   1      45.105  27.177  27.132  1.00  0.00     0.074 A 
ATOM     39  C   UNL A   1      45.224  25.799  26.709  1.00  0.00     0.031 C 
ATOM     40  C   UNL A   1      39.211  27.398  29.684  1.00  0.00     0.029 A 
ATOM     41  C   UNL A   1      40.203  28.471  29.636  1.00  0.00     0.049 A 
ATOM     42  H   UNL A   1      42.068  28.422  28.710  1.00  0.00     0.167 HD
ATOM     43  C   UNL A   1      46.079  28.105  26.979  1.00  0.00     0.034 A 
ATOM     44  C   UNL A   1      40.065  29.698  30.178  1.00  0.00     0.034 A 
ATOM     45  C   UNL A   1      45.956  29.478  27.386  1.00  0.00     0.049 A 
ATOM     46  C   UNL A   1      41.172  30.707  30.011  1.00  0.00     0.074 A 
ATOM     47  C   UNL A   1      46.869  30.505  27.232  1.00  0.00     0.029 A 
ATOM     48  N   UNL A   1      44.859  30.012  28.043  1.00  0.00    -0.354 N 
ATOM     49  N   UNL A   1      42.315  30.586  29.378  1.00  0.00    -0.248 NA
ATOM     50  C   UNL A   1      40.955  32.036  30.602  1.00  0.00     0.031 C 
ATOM     51  C   UNL A   1      46.335  31.655  27.822  1.00  0.00     0.029 A 
ATOM     52  C   UNL A   1      45.074  31.353  28.311  1.00  0.00     0.049 A 
ATOM     53  H   UNL A   1      44.045  29.512  28.282  1.00  0.00     0.167 HD
ATOM     54  C   UNL A   1      42.932  31.831  29.460  1.00  0.00     0.074 A 
ATOM     55  C   UNL A   1      42.027  32.697  30.186  1.00  0.00     0.031 C 
ATOM     56  C   UNL A   1      44.142  32.219  28.987  1.00  0.00     0.034 A 
BRANCH  43  57
ATOM     57  C   UNL A   1      47.361  27.666  26.320  1.00  0.00     0.023 A 
ATOM     58  C   UNL A   1      48.388  27.098  27.100  1.00  0.00     0.012 A 
ATOM     59  C   UNL A   1      47.528  27.773  24.927  1.00  0.00     0.148 A 
ATOM     60  C   UNL A   1      49.577  26.672  26.508  1.00  0.00     0.002 A 
ATOM     61  C   UNL A   1      48.698  27.305  24.337  1.00  0.00     0.091 A 
ATOM     62  F   UNL A   1      46.550  28.339  24.206  1.00  0.00    -0.205 F 
ATOM     63  C   UNL A   1      49.727  26.766  25.127  1.00  0.00     0.022 A 
BRANCH  61  64
ATOM     64  S   UNL A   1      48.952  27.307  22.560  1.00  0.00     0.127 S 
ATOM     65  O   UNL A   1      48.002  28.332  22.128  1.00  0.00    -0.237 OA
ATOM     66  O   UNL A   1      50.359  27.695  22.452  1.00  0.00    -0.237 OA
ATOM     67  O   UNL A   1      48.659  25.955  22.108  1.00  0.00    -0.744 OA
ENDBRANCH  61  64
ENDBRANCH  43  57
BRANCH  44  68
ATOM     68  C   UNL A   1      38.814  30.057  30.903  1.00  0.00     0.023 A 
ATOM     69  C   UNL A   1      38.627  29.621  32.229  1.00  0.00     0.012 A 
ATOM     70  C   UNL A   1      37.810  30.829  30.285  1.00  0.00     0.148 A 
ATOM     71  C   UNL A   1      37.449  29.919  32.916  1.00  0.00     0.002 A 
ATOM     72  C   UNL A   1      36.663  31.168  30.994  1.00  0.00     0.091 A 
ATOM     73  F   UNL A   1      37.999  31.219  29.017  1.00  0.00    -0.205 F 
ATOM     74  C   UNL A   1      36.472  30.699  32.303  1.00  0.00     0.022 A 
BRANCH  72  75
ATOM     75  S   UNL A   1      35.408  32.267  30.329  1.00  0.00     0.127 S 
ATOM     76  O   UNL A   1      34.983  31.545  29.133  1.00  0.00    -0.237 OA
ATOM     77  O   UNL A   1      34.428  32.294  31.415  1.00  0.00    -0.237 OA
ATOM     78  O   UNL A   1      36.081  33.537  30.095  1.00  0.00    -0.744 OA
ENDBRANCH  72  75
ENDBRANCH  44  68
BRANCH  56  79
ATOM     79  C   UNL A   1      44.550  33.656  29.194  1.00  0.00     0.023 A 
ATOM     80  C   UNL A   1      45.320  34.016  30.318  1.00  0.00     0.012 A 
ATOM     81  C   UNL A   1      44.227  34.639  28.237  1.00  0.00     0.148 A 
ATOM     82  C   UNL A   1      45.729  35.337  30.506  1.00  0.00     0.002 A 
ATOM     83  C   UNL A   1      44.681  35.941  28.403  1.00  0.00     0.091 A 
ATOM     84  F   UNL A   1      43.480  34.283  27.181  1.00  0.00    -0.205 F 
ATOM     85  C   UNL A   1      45.419  36.296  29.545  1.00  0.00     0.022 A 
BRANCH  83  86
ATOM     86  S   UNL A   1      44.415  37.218  27.167  1.00  0.00     0.127 S 
ATOM     87  O   UNL A   1      45.583  37.048  26.305  1.00  0.00    -0.237 OA
ATOM     88  O   UNL A   1      43.146  36.807  26.563  1.00  0.00    -0.237 OA
ATOM     89  O   UNL A   1      44.353  38.476  27.898  1.00  0.00    -0.744 OA
ENDBRANCH  83  86
ENDBRANCH  56  79
ENDBRANCH  30  31
ENDBRANCH  23  25
ENDBRANCH  22  23
ENDBRANCH  21  22
ENDBRANCH  20  21
ENDBRANCH  19  20
ENDBRANCH  18  19
ENDBRANCH   1  18
TORSDOF 23
ENDMDL
MODEL 3
REMARK VINA RESULT:      -8.8      4.711      7.178
REMARK SMILES C=CCSc1ccccc1C(=O)OCCOCCOCCOC(=O)c1ccc(-c2c3nc(c(-c4cccc(S(=O)(=O)[O-])c4F)c4ccc([nH]4)c(-c4cccc(S(=O)(=O)[O-])c4F)c4nc(c(-c5cccc(S(=O)(=O)[O-])c5F)c5ccc2[nH]5)C=C4)C=C3)cc1
REMARK SMILES IDX 17 1 16 2 15 3 14 4 13 5 11 6 12 7 10 8 5 9 6 10 7 11 9 12
REMARK SMILES IDX 8 13 4 14 3 15 2 16 1 17 18 18 19 19 20 20 21 21 22 22 23 23
REMARK SMILES IDX 24 24 25 25 26 26 87 27 27 28 86 29 28 30 29 31 30 32 80 33
REMARK SMILES IDX 31 34 85 35 79 36 81 37 32 38 84 39 78 40 77 41 33 43 65 44
REMARK SMILES IDX 45 45 64 46 46 47 49 48 63 49 82 50 47 51 48 52 62 54 83 55
REMARK SMILES IDX 50 56 34 57 35 58 43 59 36 60 38 61 44 62 37 63 39 64 40 65
REMARK SMILES IDX 41 66 42 67 66 68 67 69 75 70 68 71 70 72 76 73 69 74 71 75
REMARK SMILES IDX 72 76 73 77 74 78 51 79 52 80 60 81 53 82 55 83 61 84 54 85
REMARK SMILES IDX 56 86 57 87 58 88 59 89
REMARK H PARENT 81 42 49 53
REMARK Flexibility Score: inf
ROOT
ATOM      1  C   UNL A   1      39.893  22.184  26.869  1.00  0.00     0.188 C 
ENDROOT
BRANCH   1   2
ATOM      2  O   UNL A   1      38.944  21.628  25.977  1.00  0.00    -0.376 OA
BRANCH   2   3
ATOM      3  C   UNL A   1      38.040  22.482  25.288  1.00  0.00     0.202 C 
BRANCH   3   4
ATOM      4  C   UNL A   1      36.919  23.224  26.023  1.00  0.00     0.261 C 
BRANCH   4   5
ATOM      5  O   UNL A   1      36.028  23.907  25.135  1.00  0.00    -0.460 OA
BRANCH   5   6
ATOM      6  C   UNL A   1      35.638  23.218  24.040  1.00  0.00     0.339 C 
ATOM      7  O   UNL A   1      36.351  22.508  23.338  1.00  0.00    -0.246 OA
BRANCH   6   8
ATOM      8  C   UNL A   1      34.166  23.254  23.894  1.00  0.00     0.073 A 
ATOM      9  C   UNL A   1      33.270  22.493  24.668  1.00  0.00     0.022 A 
ATOM     10  C   UNL A   1      31.893  22.642  24.424  1.00  0.00     0.016 A 
ATOM     11  C   UNL A   1      31.419  23.514  23.438  1.00  0.00     0.001 A 
ATOM     12  C   UNL A   1      33.683  24.118  22.892  1.00  0.00     0.017 A 
ATOM     13  C   UNL A   1      32.315  24.242  22.661  1.00  0.00     0.001 A 
BRANCH   9  14
ATOM     14  S   UNL A   1      33.818  21.268  25.864  1.00  0.00    -0.121 SA
BRANCH  14  15
ATOM     15  C   UNL A   1      34.190  19.834  24.818  1.00  0.00     0.101 C 
BRANCH  15  16
ATOM     16  C   UNL A   1      32.930  19.123  24.442  1.00  0.00    -0.024 C 
ATOM     17  C   UNL A   1      32.398  19.139  23.212  1.00  0.00     0.005 C 
ENDBRANCH  15  16
ENDBRANCH  14  15
ENDBRANCH   9  14
ENDBRANCH   6   8
ENDBRANCH   5   6
ENDBRANCH   4   5
ENDBRANCH   3   4
ENDBRANCH   2   3
ENDBRANCH   1   2
BRANCH   1  18
ATOM     18  C   UNL A   1      41.321  21.603  26.927  1.00  0.00     0.188 C 
BRANCH  18  19
ATOM     19  O   UNL A   1      41.939  21.079  25.772  1.00  0.00    -0.376 OA
BRANCH  19  20
ATOM     20  C   UNL A   1      42.932  21.815  25.083  1.00  0.00     0.202 C 
BRANCH  20  21
ATOM     21  C   UNL A   1      44.412  21.885  25.489  1.00  0.00     0.261 C 
BRANCH  21  22
ATOM     22  O   UNL A   1      44.806  22.964  26.339  1.00  0.00    -0.460 OA
BRANCH  22  23
ATOM     23  C   UNL A   1      44.765  24.185  25.761  1.00  0.00     0.338 C 
ATOM     24  O   UNL A   1      45.219  24.503  24.665  1.00  0.00    -0.246 OA
BRANCH  23  25
ATOM     25  C   UNL A   1      43.917  25.081  26.561  1.00  0.00     0.060 A 
ATOM     26  C   UNL A   1      44.262  26.438  26.628  1.00  0.00     0.016 A 
ATOM     27  C   UNL A   1      42.832  24.584  27.284  1.00  0.00     0.016 A 
ATOM     28  C   UNL A   1      43.546  27.298  27.455  1.00  0.00     0.010 A 
ATOM     29  C   UNL A   1      42.127  25.445  28.128  1.00  0.00     0.010 A 
ATOM     30  C   UNL A   1      42.507  26.794  28.247  1.00  0.00    -0.014 A 
BRANCH  30  31
ATOM     31  C   UNL A   1      41.955  27.637  29.334  1.00  0.00     0.031 A 
ATOM     32  C   UNL A   1      42.619  27.594  30.684  1.00  0.00     0.074 A 
ATOM     33  C   UNL A   1      40.898  28.440  29.124  1.00  0.00     0.049 A 
ATOM     34  N   UNL A   1      42.319  28.246  31.777  1.00  0.00    -0.248 NA
ATOM     35  C   UNL A   1      43.779  26.695  30.819  1.00  0.00     0.031 C 
ATOM     36  C   UNL A   1      40.171  28.570  27.863  1.00  0.00     0.029 A 
ATOM     37  N   UNL A   1      40.240  29.283  29.984  1.00  0.00    -0.354 N 
ATOM     38  C   UNL A   1      43.230  27.818  32.734  1.00  0.00     0.074 A 
ATOM     39  C   UNL A   1      44.086  26.840  32.100  1.00  0.00     0.031 C 
ATOM     40  C   UNL A   1      39.147  29.424  28.038  1.00  0.00     0.029 A 
ATOM     41  C   UNL A   1      39.136  29.884  29.426  1.00  0.00     0.049 A 
ATOM     42  H   UNL A   1      40.529  29.442  30.911  1.00  0.00     0.167 HD
ATOM     43  C   UNL A   1      43.355  28.214  34.023  1.00  0.00     0.034 A 
ATOM     44  C   UNL A   1      38.216  30.699  29.980  1.00  0.00     0.034 A 
ATOM     45  C   UNL A   1      42.514  29.197  34.650  1.00  0.00     0.049 A 
ATOM     46  C   UNL A   1      38.366  31.110  31.422  1.00  0.00     0.074 A 
ATOM     47  C   UNL A   1      42.590  29.699  35.937  1.00  0.00     0.029 A 
ATOM     48  N   UNL A   1      41.433  29.816  34.042  1.00  0.00    -0.354 N 
ATOM     49  N   UNL A   1      39.308  30.794  32.279  1.00  0.00    -0.248 NA
ATOM     50  C   UNL A   1      37.346  32.021  31.963  1.00  0.00     0.031 C 
ATOM     51  C   UNL A   1      41.536  30.601  36.117  1.00  0.00     0.029 A 
ATOM     52  C   UNL A   1      40.826  30.687  34.929  1.00  0.00     0.049 A 
ATOM     53  H   UNL A   1      41.141  29.659  33.115  1.00  0.00     0.167 HD
ATOM     54  C   UNL A   1      39.016  31.497  33.445  1.00  0.00     0.074 A 
ATOM     55  C   UNL A   1      37.822  32.271  33.176  1.00  0.00     0.031 C 
ATOM     56  C   UNL A   1      39.669  31.494  34.633  1.00  0.00     0.034 A 
BRANCH  43  57
ATOM     57  C   UNL A   1      44.461  27.595  34.838  1.00  0.00     0.023 A 
ATOM     58  C   UNL A   1      44.227  26.391  35.533  1.00  0.00     0.012 A 
ATOM     59  C   UNL A   1      45.741  28.179  34.876  1.00  0.00     0.148 A 
ATOM     60  C   UNL A   1      45.241  25.794  36.281  1.00  0.00     0.002 A 
ATOM     61  C   UNL A   1      46.760  27.554  35.586  1.00  0.00     0.091 A 
ATOM     62  F   UNL A   1      45.937  29.336  34.228  1.00  0.00    -0.205 F 
ATOM     63  C   UNL A   1      46.509  26.370  36.299  1.00  0.00     0.022 A 
BRANCH  61  64
ATOM     64  S   UNL A   1      48.446  28.172  35.604  1.00  0.00     0.127 S 
ATOM     65  O   UNL A   1      49.113  27.184  36.452  1.00  0.00    -0.237 OA
ATOM     66  O   UNL A   1      48.812  28.107  34.189  1.00  0.00    -0.237 OA
ATOM     67  O   UNL A   1      48.376  29.519  36.153  1.00  0.00    -0.744 OA
ENDBRANCH  61  64
ENDBRANCH  43  57
BRANCH  44  68
ATOM     68  C   UNL A   1      37.085  31.214  29.158  1.00  0.00     0.023 A 
ATOM     69  C   UNL A   1      37.022  32.585  28.841  1.00  0.00     0.012 A 
ATOM     70  C   UNL A   1      36.073  30.353  28.688  1.00  0.00     0.148 A 
ATOM     71  C   UNL A   1      35.955  33.095  28.100  1.00  0.00     0.002 A 
ATOM     72  C   UNL A   1      35.043  30.859  27.904  1.00  0.00     0.091 A 
ATOM     73  F   UNL A   1      36.143  29.056  29.014  1.00  0.00    -0.205 F 
ATOM     74  C   UNL A   1      34.971  32.232  27.624  1.00  0.00     0.022 A 
BRANCH  72  75
ATOM     75  S   UNL A   1      33.801  29.805  27.148  1.00  0.00     0.127 S 
ATOM     76  O   UNL A   1      32.844  30.786  26.643  1.00  0.00    -0.237 OA
ATOM     77  O   UNL A   1      34.579  29.116  26.118  1.00  0.00    -0.237 OA
ATOM     78  O   UNL A   1      33.317  28.940  28.215  1.00  0.00    -0.744 OA
ENDBRANCH  72  75
ENDBRANCH  44  68
BRANCH  56  79
ATOM     79  C   UNL A   1      39.142  32.387  35.728  1.00  0.00     0.023 A 
ATOM     80  C   UNL A   1      38.128  31.923  36.590  1.00  0.00     0.012 A 
ATOM     81  C   UNL A   1      39.702  33.662  35.945  1.00  0.00     0.148 A 
ATOM     82  C   UNL A   1      37.653  32.728  37.625  1.00  0.00     0.002 A 
ATOM     83  C   UNL A   1      39.260  34.438  37.009  1.00  0.00     0.091 A 
ATOM     84  F   UNL A   1      40.654  34.095  35.105  1.00  0.00    -0.205 F 
ATOM     85  C   UNL A   1      38.225  33.979  37.842  1.00  0.00     0.022 A 
BRANCH  83  86
ATOM     86  S   UNL A   1      40.007  36.019  37.422  1.00  0.00     0.127 S 
ATOM     87  O   UNL A   1      39.775  36.788  36.201  1.00  0.00    -0.237 OA
ATOM     88  O   UNL A   1      39.212  36.449  38.573  1.00  0.00    -0.237 OA
ATOM     89  O   UNL A   1      41.402  35.734  37.728  1.00  0.00    -0.744 OA
ENDBRANCH  83  86
ENDBRANCH  56  79
ENDBRANCH  30  31
ENDBRANCH  23  25
ENDBRANCH  22  23
ENDBRANCH  21  22
ENDBRANCH  20  21
ENDBRANCH  19  20
ENDBRANCH  18  19
ENDBRANCH   1  18
TORSDOF 23
ENDMDL
