MODEL 1
REMARK VINA RESULT:      -8.8      0.000      0.000
REMARK SMILES CC(C)N(CC(F)(F)F)C(=O)N(CC(=O)OCCOCCOCCOC(=O)c1ccc(-c2c3nc(c(-c4cccc(S(=O)(=O)[O-])c4F)c4ccc([nH]4)c(-c4cccc(S(=O)(=O)[O-])c4F)c4nc(c(-c5cccc(S(=O)(=O)[O-])c5F)c5ccc2[nH]5)C=C4)C=C3)cc1)C(C)(C)C
REMARK SMILES IDX 20 1 19 2 18 3 17 4 16 5 14 6 15 7 13 8 12 9 10 10 11 11
REMARK SMILES IDX 4 12 2 13 1 14 3 15 5 16 6 17 7 18 8 19 9 20 91 21 92 22
REMARK SMILES IDX 93 23 94 24 21 25 22 26 23 27 24 28 25 29 26 30 27 31 28 32
REMARK SMILES IDX 29 33 90 34 30 35 89 36 31 37 32 38 33 39 83 40 34 41 88 42
REMARK SMILES IDX 82 43 84 44 35 45 87 46 81 47 80 48 36 50 68 51 48 52 67 53
REMARK SMILES IDX 49 54 52 55 66 56 85 57 50 58 51 59 65 61 86 62 53 63 37 64
REMARK SMILES IDX 38 65 46 66 39 67 41 68 47 69 40 70 42 71 43 72 44 73 45 74
REMARK SMILES IDX 69 75 70 76 78 77 71 78 73 79 79 80 72 81 74 82 75 83 76 84
REMARK SMILES IDX 77 85 54 86 55 87 63 88 56 89 58 90 64 91 57 92 59 93 60 94
REMARK SMILES IDX 61 95 62 96
REMARK H PARENT 84 49 52 60
REMARK Flexibility Score: inf
ROOT
ATOM      1  C   UNL A   1      38.912  22.207  26.110  1.00  0.00     0.188 C 
ENDROOT
BRANCH   1   2
ATOM      2  O   UNL A   1      38.103  21.338  25.320  1.00  0.00    -0.376 OA
BRANCH   2   3
ATOM      3  C   UNL A   1      36.834  21.846  24.910  1.00  0.00     0.202 C 
BRANCH   3   4
ATOM      4  C   UNL A   1      35.891  22.195  26.066  1.00  0.00     0.261 C 
BRANCH   4   5
ATOM      5  O   UNL A   1      34.509  22.296  25.636  1.00  0.00    -0.462 OA
BRANCH   5   6
ATOM      6  C   UNL A   1      33.929  23.509  25.831  1.00  0.00     0.325 C 
ATOM      7  O   UNL A   1      34.517  24.484  26.290  1.00  0.00    -0.250 OA
BRANCH   6   8
ATOM      8  C   UNL A   1      32.442  23.589  25.431  1.00  0.00     0.244 C 
BRANCH   8   9
ATOM      9  N   UNL A   1      32.027  24.394  24.263  1.00  0.00    -0.309 N 
BRANCH   9  10
ATOM     10  C   UNL A   1      31.251  25.550  24.315  1.00  0.00     0.321 C 
ATOM     11  O   UNL A   1      30.021  25.447  24.249  1.00  0.00    -0.248 OA
BRANCH  10  12
ATOM     12  N   UNL A   1      31.784  26.832  24.328  1.00  0.00    -0.313 N 
BRANCH  12  13
ATOM     13  C   UNL A   1      32.686  27.163  25.467  1.00  0.00     0.081 C 
ATOM     14  C   UNL A   1      33.630  28.333  25.148  1.00  0.00     0.031 C 
ATOM     15  C   UNL A   1      31.961  27.373  26.803  1.00  0.00     0.031 C 
ENDBRANCH  12  13
BRANCH  12  16
ATOM     16  C   UNL A   1      31.854  27.809  23.217  1.00  0.00     0.237 C 
BRANCH  16  17
ATOM     17  C   UNL A   1      30.635  28.722  23.063  1.00  0.00     0.406 C 
ATOM     18  F   UNL A   1      30.364  29.420  24.184  1.00  0.00    -0.169 F 
ATOM     19  F   UNL A   1      30.847  29.618  22.069  1.00  0.00    -0.169 F 
ATOM     20  F   UNL A   1      29.533  28.014  22.731  1.00  0.00    -0.169 F 
ENDBRANCH  16  17
ENDBRANCH  12  16
ENDBRANCH  10  12
ENDBRANCH   9  10
BRANCH   9  21
ATOM     21  C   UNL A   1      32.747  24.143  22.936  1.00  0.00     0.037 C 
ATOM     22  C   UNL A   1      34.226  24.616  22.972  1.00  0.00     0.034 C 
ATOM     23  C   UNL A   1      32.710  22.632  22.589  1.00  0.00     0.034 C 
ATOM     24  C   UNL A   1      32.089  24.844  21.730  1.00  0.00     0.034 C 
ENDBRANCH   9  21
ENDBRANCH   8   9
ENDBRANCH   6   8
ENDBRANCH   5   6
ENDBRANCH   4   5
ENDBRANCH   3   4
ENDBRANCH   2   3
ENDBRANCH   1   2
BRANCH   1  25
ATOM     25  C   UNL A   1      40.400  21.842  26.157  1.00  0.00     0.188 C 
BRANCH  25  26
ATOM     26  O   UNL A   1      41.240  22.723  26.897  1.00  0.00    -0.376 OA
BRANCH  26  27
ATOM     27  C   UNL A   1      42.638  22.627  26.629  1.00  0.00     0.202 C 
BRANCH  27  28
ATOM     28  C   UNL A   1      42.971  22.690  25.140  1.00  0.00     0.261 C 
BRANCH  28  29
ATOM     29  O   UNL A   1      43.081  24.066  24.726  1.00  0.00    -0.460 OA
BRANCH  29  30
ATOM     30  C   UNL A   1      44.269  24.640  24.982  1.00  0.00     0.338 C 
ATOM     31  O   UNL A   1      45.363  24.331  24.497  1.00  0.00    -0.246 OA
BRANCH  30  32
ATOM     32  C   UNL A   1      44.097  25.775  25.893  1.00  0.00     0.060 A 
ATOM     33  C   UNL A   1      44.467  25.633  27.230  1.00  0.00     0.016 A 
ATOM     34  C   UNL A   1      43.422  26.916  25.472  1.00  0.00     0.016 A 
ATOM     35  C   UNL A   1      44.081  26.580  28.178  1.00  0.00     0.010 A 
ATOM     36  C   UNL A   1      43.092  27.898  26.409  1.00  0.00     0.010 A 
ATOM     37  C   UNL A   1      43.368  27.717  27.779  1.00  0.00    -0.014 A 
BRANCH  37  38
ATOM     38  C   UNL A   1      42.794  28.661  28.778  1.00  0.00     0.031 A 
ATOM     39  C   UNL A   1      43.648  29.101  29.938  1.00  0.00     0.074 A 
ATOM     40  C   UNL A   1      41.529  29.116  28.679  1.00  0.00     0.049 A 
ATOM     41  N   UNL A   1      43.295  29.674  31.058  1.00  0.00    -0.248 NA
ATOM     42  C   UNL A   1      45.095  28.847  29.822  1.00  0.00     0.031 C 
ATOM     43  C   UNL A   1      40.609  28.839  27.577  1.00  0.00     0.029 A 
ATOM     44  N   UNL A   1      40.793  29.895  29.539  1.00  0.00    -0.354 N 
ATOM     45  C   UNL A   1      44.456  29.759  31.820  1.00  0.00     0.074 A 
ATOM     46  C   UNL A   1      45.530  29.213  31.021  1.00  0.00     0.031 C 
ATOM     47  C   UNL A   1      39.432  29.435  27.828  1.00  0.00     0.029 A 
ATOM     48  C   UNL A   1      39.487  30.065  29.143  1.00  0.00     0.049 A 
ATOM     49  H   UNL A   1      41.165  30.294  30.359  1.00  0.00     0.167 HD
ATOM     50  C   UNL A   1      44.611  30.248  33.073  1.00  0.00     0.034 A 
ATOM     51  C   UNL A   1      38.438  30.614  29.790  1.00  0.00     0.034 A 
ATOM     52  C   UNL A   1      43.559  30.869  33.830  1.00  0.00     0.049 A 
ATOM     53  C   UNL A   1      38.630  31.148  31.184  1.00  0.00     0.074 A 
ATOM     54  C   UNL A   1      43.616  31.407  35.103  1.00  0.00     0.029 A 
ATOM     55  N   UNL A   1      42.265  31.057  33.372  1.00  0.00    -0.354 N 
ATOM     56  N   UNL A   1      39.729  31.214  31.898  1.00  0.00    -0.248 NA
ATOM     57  C   UNL A   1      37.440  31.680  31.864  1.00  0.00     0.031 C 
ATOM     58  C   UNL A   1      42.354  31.922  35.416  1.00  0.00     0.029 A 
ATOM     59  C   UNL A   1      41.514  31.711  34.333  1.00  0.00     0.049 A 
ATOM     60  H   UNL A   1      41.929  30.769  32.494  1.00  0.00     0.167 HD
ATOM     61  C   UNL A   1      39.365  31.810  33.101  1.00  0.00     0.074 A 
ATOM     62  C   UNL A   1      37.951  32.111  33.009  1.00  0.00     0.031 C 
ATOM     63  C   UNL A   1      40.124  32.058  34.197  1.00  0.00     0.034 A 
BRANCH  50  64
ATOM     64  C   UNL A   1      45.973  30.138  33.702  1.00  0.00     0.023 A 
ATOM     65  C   UNL A   1      46.315  28.988  34.438  1.00  0.00     0.012 A 
ATOM     66  C   UNL A   1      46.929  31.158  33.526  1.00  0.00     0.148 A 
ATOM     67  C   UNL A   1      47.581  28.864  35.010  1.00  0.00     0.002 A 
ATOM     68  C   UNL A   1      48.199  31.013  34.069  1.00  0.00     0.091 A 
ATOM     69  F   UNL A   1      46.572  32.258  32.847  1.00  0.00    -0.205 F 
ATOM     70  C   UNL A   1      48.525  29.872  34.818  1.00  0.00     0.022 A 
BRANCH  68  71
ATOM     71  S   UNL A   1      49.498  32.229  33.816  1.00  0.00     0.127 S 
ATOM     72  O   UNL A   1      49.300  32.583  32.412  1.00  0.00    -0.237 OA
ATOM     73  O   UNL A   1      49.132  33.279  34.767  1.00  0.00    -0.237 OA
ATOM     74  O   UNL A   1      50.747  31.546  34.123  1.00  0.00    -0.744 OA
ENDBRANCH  68  71
ENDBRANCH  50  64
BRANCH  51  75
ATOM     75  C   UNL A   1      37.105  30.683  29.123  1.00  0.00     0.023 A 
ATOM     76  C   UNL A   1      36.456  29.488  28.755  1.00  0.00     0.012 A 
ATOM     77  C   UNL A   1      36.463  31.913  28.883  1.00  0.00     0.148 A 
ATOM     78  C   UNL A   1      35.199  29.519  28.148  1.00  0.00     0.002 A 
ATOM     79  C   UNL A   1      35.185  31.934  28.334  1.00  0.00     0.091 A 
ATOM     80  F   UNL A   1      37.108  33.043  29.206  1.00  0.00    -0.205 F 
ATOM     81  C   UNL A   1      34.557  30.740  27.953  1.00  0.00     0.022 A 
BRANCH  79  82
ATOM     82  S   UNL A   1      34.240  33.456  28.192  1.00  0.00     0.127 S 
ATOM     83  O   UNL A   1      32.982  32.978  27.626  1.00  0.00    -0.237 OA
ATOM     84  O   UNL A   1      34.160  33.900  29.585  1.00  0.00    -0.237 OA
ATOM     85  O   UNL A   1      35.041  34.323  27.339  1.00  0.00    -0.744 OA
ENDBRANCH  79  82
ENDBRANCH  51  75
BRANCH  63  86
ATOM     86  C   UNL A   1      39.455  32.710  35.377  1.00  0.00     0.023 A 
ATOM     87  C   UNL A   1      39.372  34.115  35.435  1.00  0.00     0.012 A 
ATOM     88  C   UNL A   1      38.838  31.936  36.376  1.00  0.00     0.148 A 
ATOM     89  C   UNL A   1      38.700  34.741  36.484  1.00  0.00     0.002 A 
ATOM     90  C   UNL A   1      38.137  32.565  37.399  1.00  0.00     0.091 A 
ATOM     91  F   UNL A   1      38.948  30.600  36.314  1.00  0.00    -0.205 F 
ATOM     92  C   UNL A   1      38.073  33.967  37.459  1.00  0.00     0.022 A 
BRANCH  90  93
ATOM     93  S   UNL A   1      37.229  31.640  38.644  1.00  0.00     0.127 S 
ATOM     94  O   UNL A   1      37.151  30.315  38.032  1.00  0.00    -0.237 OA
ATOM     95  O   UNL A   1      38.114  31.724  39.806  1.00  0.00    -0.237 OA
ATOM     96  O   UNL A   1      35.960  32.336  38.806  1.00  0.00    -0.744 OA
ENDBRANCH  90  93
ENDBRANCH  63  86
ENDBRANCH  37  38
ENDBRANCH  30  32
ENDBRANCH  29  30
ENDBRANCH  28  29
ENDBRANCH  27  28
ENDBRANCH  26  27
ENDBRANCH  25  26
ENDBRANCH   1  25
TORSDOF 27
ENDMDL
MODEL 2
REMARK VINA RESULT:      -8.6      4.270     11.117
REMARK SMILES CC(C)N(CC(F)(F)F)C(=O)N(CC(=O)OCCOCCOCCOC(=O)c1ccc(-c2c3nc(c(-c4cccc(S(=O)(=O)[O-])c4F)c4ccc([nH]4)c(-c4cccc(S(=O)(=O)[O-])c4F)c4nc(c(-c5cccc(S(=O)(=O)[O-])c5F)c5ccc2[nH]5)C=C4)C=C3)cc1)C(C)(C)C
REMARK SMILES IDX 20 1 19 2 18 3 17 4 16 5 14 6 15 7 13 8 12 9 10 10 11 11
REMARK SMILES IDX 4 12 2 13 1 14 3 15 5 16 6 17 7 18 8 19 9 20 91 21 92 22
REMARK SMILES IDX 93 23 94 24 21 25 22 26 23 27 24 28 25 29 26 30 27 31 28 32
REMARK SMILES IDX 29 33 90 34 30 35 89 36 31 37 32 38 33 39 83 40 34 41 88 42
REMARK SMILES IDX 82 43 84 44 35 45 87 46 81 47 80 48 36 50 68 51 48 52 67 53
REMARK SMILES IDX 49 54 52 55 66 56 85 57 50 58 51 59 65 61 86 62 53 63 37 64
REMARK SMILES IDX 38 65 46 66 39 67 41 68 47 69 40 70 42 71 43 72 44 73 45 74
REMARK SMILES IDX 69 75 70 76 78 77 71 78 73 79 79 80 72 81 74 82 75 83 76 84
REMARK SMILES IDX 77 85 54 86 55 87 63 88 56 89 58 90 64 91 57 92 59 93 60 94
REMARK SMILES IDX 61 95 62 96
REMARK H PARENT 84 49 52 60
REMARK Flexibility Score: inf
ROOT
ATOM      1  C   UNL A   1      35.777  32.728  28.118  1.00  0.00     0.188 C 
ENDROOT
BRANCH   1   2
ATOM      2  O   UNL A   1      34.625  31.982  27.731  1.00  0.00    -0.376 OA
BRANCH   2   3
ATOM      3  C   UNL A   1      34.824  30.594  27.465  1.00  0.00     0.202 C 
BRANCH   3   4
ATOM      4  C   UNL A   1      33.651  29.915  26.750  1.00  0.00     0.261 C 
BRANCH   4   5
ATOM      5  O   UNL A   1      33.092  28.824  27.527  1.00  0.00    -0.462 OA
BRANCH   5   6
ATOM      6  C   UNL A   1      31.885  28.369  27.101  1.00  0.00     0.325 C 
ATOM      7  O   UNL A   1      31.125  27.695  27.791  1.00  0.00    -0.250 OA
BRANCH   6   8
ATOM      8  C   UNL A   1      31.516  28.762  25.657  1.00  0.00     0.244 C 
BRANCH   8   9
ATOM      9  N   UNL A   1      31.357  27.722  24.619  1.00  0.00    -0.309 N 
BRANCH   9  10
ATOM     10  C   UNL A   1      30.911  26.421  24.843  1.00  0.00     0.321 C 
ATOM     11  O   UNL A   1      29.697  26.192  24.805  1.00  0.00    -0.248 OA
BRANCH  10  12
ATOM     12  N   UNL A   1      31.746  25.377  25.216  1.00  0.00    -0.313 N 
BRANCH  12  13
ATOM     13  C   UNL A   1      33.163  25.467  24.763  1.00  0.00     0.081 C 
ATOM     14  C   UNL A   1      34.161  25.182  25.895  1.00  0.00     0.031 C 
ATOM     15  C   UNL A   1      33.478  24.635  23.513  1.00  0.00     0.031 C 
ENDBRANCH  12  13
BRANCH  12  16
ATOM     16  C   UNL A   1      31.526  24.355  26.264  1.00  0.00     0.237 C 
BRANCH  16  17
ATOM     17  C   UNL A   1      31.022  22.997  25.769  1.00  0.00     0.406 C 
ATOM     18  F   UNL A   1      31.940  22.020  25.905  1.00  0.00    -0.169 F 
ATOM     19  F   UNL A   1      29.925  22.623  26.470  1.00  0.00    -0.169 F 
ATOM     20  F   UNL A   1      30.660  23.056  24.468  1.00  0.00    -0.169 F 
ENDBRANCH  16  17
ENDBRANCH  12  16
ENDBRANCH  10  12
ENDBRANCH   9  10
BRANCH   9  21
ATOM     21  C   UNL A   1      31.374  28.170  23.155  1.00  0.00     0.037 C 
ATOM     22  C   UNL A   1      31.032  27.008  22.182  1.00  0.00     0.034 C 
ATOM     23  C   UNL A   1      30.359  29.322  22.941  1.00  0.00     0.034 C 
ATOM     24  C   UNL A   1      32.730  28.744  22.697  1.00  0.00     0.034 C 
ENDBRANCH   9  21
ENDBRANCH   8   9
ENDBRANCH   6   8
ENDBRANCH   5   6
ENDBRANCH   4   5
ENDBRANCH   3   4
ENDBRANCH   2   3
ENDBRANCH   1   2
BRANCH   1  25
ATOM     25  C   UNL A   1      35.584  33.627  29.345  1.00  0.00     0.188 C 
BRANCH  25  26
ATOM     26  O   UNL A   1      34.644  33.174  30.315  1.00  0.00    -0.376 OA
BRANCH  26  27
ATOM     27  C   UNL A   1      35.079  32.107  31.155  1.00  0.00     0.202 C 
BRANCH  27  28
ATOM     28  C   UNL A   1      36.506  32.289  31.669  1.00  0.00     0.261 C 
BRANCH  28  29
ATOM     29  O   UNL A   1      37.345  31.236  31.155  1.00  0.00    -0.460 OA
BRANCH  29  30
ATOM     30  C   UNL A   1      37.452  30.158  31.952  1.00  0.00     0.338 C 
ATOM     31  O   UNL A   1      36.540  29.403  32.306  1.00  0.00    -0.246 OA
BRANCH  30  32
ATOM     32  C   UNL A   1      38.854  29.933  32.312  1.00  0.00     0.060 A 
ATOM     33  C   UNL A   1      39.769  30.974  32.159  1.00  0.00     0.016 A 
ATOM     34  C   UNL A   1      39.296  28.655  32.640  1.00  0.00     0.016 A 
ATOM     35  C   UNL A   1      41.141  30.731  32.235  1.00  0.00     0.010 A 
ATOM     36  C   UNL A   1      40.667  28.424  32.781  1.00  0.00     0.010 A 
ATOM     37  C   UNL A   1      41.606  29.443  32.527  1.00  0.00    -0.014 A 
BRANCH  37  38
ATOM     38  C   UNL A   1      43.055  29.108  32.448  1.00  0.00     0.031 A 
ATOM     39  C   UNL A   1      43.588  28.473  31.190  1.00  0.00     0.074 A 
ATOM     40  C   UNL A   1      43.895  29.343  33.475  1.00  0.00     0.049 A 
ATOM     41  N   UNL A   1      44.717  27.847  30.990  1.00  0.00    -0.248 NA
ATOM     42  C   UNL A   1      42.721  28.543  30.000  1.00  0.00     0.031 C 
ATOM     43  C   UNL A   1      43.544  30.017  34.725  1.00  0.00     0.029 A 
ATOM     44  N   UNL A   1      45.220  29.015  33.635  1.00  0.00    -0.354 N 
ATOM     45  C   UNL A   1      44.655  27.364  29.687  1.00  0.00     0.074 A 
ATOM     46  C   UNL A   1      43.393  27.800  29.131  1.00  0.00     0.031 C 
ATOM     47  C   UNL A   1      44.622  30.050  35.524  1.00  0.00     0.029 A 
ATOM     48  C   UNL A   1      45.716  29.329  34.880  1.00  0.00     0.049 A 
ATOM     49  H   UNL A   1      45.763  28.596  32.928  1.00  0.00     0.167 HD
ATOM     50  C   UNL A   1      45.568  26.623  29.015  1.00  0.00     0.034 A 
ATOM     51  C   UNL A   1      46.895  29.022  35.458  1.00  0.00     0.034 A 
ATOM     52  C   UNL A   1      46.856  26.265  29.540  1.00  0.00     0.049 A 
ATOM     53  C   UNL A   1      47.895  28.192  34.696  1.00  0.00     0.074 A 
ATOM     54  C   UNL A   1      47.858  25.527  28.936  1.00  0.00     0.029 A 
ATOM     55  N   UNL A   1      47.332  26.641  30.786  1.00  0.00    -0.354 N 
ATOM     56  N   UNL A   1      47.822  27.733  33.469  1.00  0.00    -0.248 NA
ATOM     57  C   UNL A   1      49.137  27.837  35.397  1.00  0.00     0.031 C 
ATOM     58  C   UNL A   1      48.942  25.458  29.818  1.00  0.00     0.029 A 
ATOM     59  C   UNL A   1      48.616  26.159  30.968  1.00  0.00     0.049 A 
ATOM     60  H   UNL A   1      46.830  27.173  31.445  1.00  0.00     0.167 HD
ATOM     61  C   UNL A   1      49.013  27.051  33.247  1.00  0.00     0.074 A 
ATOM     62  C   UNL A   1      49.802  27.181  34.455  1.00  0.00     0.031 C 
ATOM     63  C   UNL A   1      49.408  26.353  32.154  1.00  0.00     0.034 A 
BRANCH  50  64
ATOM     64  C   UNL A   1      45.207  26.156  27.632  1.00  0.00     0.023 A 
ATOM     65  C   UNL A   1      45.489  26.971  26.520  1.00  0.00     0.012 A 
ATOM     66  C   UNL A   1      44.626  24.887  27.433  1.00  0.00     0.148 A 
ATOM     67  C   UNL A   1      45.177  26.541  25.230  1.00  0.00     0.002 A 
ATOM     68  C   UNL A   1      44.350  24.451  26.142  1.00  0.00     0.091 A 
ATOM     69  F   UNL A   1      44.339  24.139  28.508  1.00  0.00    -0.205 F 
ATOM     70  C   UNL A   1      44.617  25.279  25.041  1.00  0.00     0.022 A 
BRANCH  68  71
ATOM     71  S   UNL A   1      43.691  22.815  25.801  1.00  0.00     0.127 S 
ATOM     72  O   UNL A   1      43.422  22.899  24.366  1.00  0.00    -0.237 OA
ATOM     73  O   UNL A   1      44.812  21.946  26.161  1.00  0.00    -0.237 OA
ATOM     74  O   UNL A   1      42.519  22.672  26.654  1.00  0.00    -0.744 OA
ENDBRANCH  68  71
ENDBRANCH  50  64
BRANCH  51  75
ATOM     75  C   UNL A   1      47.195  29.499  36.839  1.00  0.00     0.023 A 
ATOM     76  C   UNL A   1      46.840  28.693  37.939  1.00  0.00     0.012 A 
ATOM     77  C   UNL A   1      47.856  30.721  37.070  1.00  0.00     0.148 A 
ATOM     78  C   UNL A   1      47.125  29.103  39.243  1.00  0.00     0.002 A 
ATOM     79  C   UNL A   1      48.191  31.095  38.368  1.00  0.00     0.091 A 
ATOM     80  F   UNL A   1      48.155  31.494  36.017  1.00  0.00    -0.205 F 
ATOM     81  C   UNL A   1      47.814  30.295  39.456  1.00  0.00     0.022 A 
BRANCH  79  82
ATOM     82  S   UNL A   1      49.206  32.538  38.704  1.00  0.00     0.127 S 
ATOM     83  O   UNL A   1      49.382  32.452  40.151  1.00  0.00    -0.237 OA
ATOM     84  O   UNL A   1      50.410  32.259  37.920  1.00  0.00    -0.237 OA
ATOM     85  O   UNL A   1      48.432  33.672  38.218  1.00  0.00    -0.744 OA
ENDBRANCH  79  82
ENDBRANCH  51  75
BRANCH  63  86
ATOM     86  C   UNL A   1      50.761  25.696  32.196  1.00  0.00     0.023 A 
ATOM     87  C   UNL A   1      51.913  26.470  31.955  1.00  0.00     0.012 A 
ATOM     88  C   UNL A   1      50.898  24.343  32.557  1.00  0.00     0.148 A 
ATOM     89  C   UNL A   1      53.182  25.900  32.052  1.00  0.00     0.002 A 
ATOM     90  C   UNL A   1      52.167  23.791  32.691  1.00  0.00     0.091 A 
ATOM     91  F   UNL A   1      49.787  23.619  32.762  1.00  0.00    -0.205 F 
ATOM     92  C   UNL A   1      53.309  24.566  32.431  1.00  0.00     0.022 A 
BRANCH  90  93
ATOM     93  S   UNL A   1      52.419  22.105  33.258  1.00  0.00     0.127 S 
ATOM     94  O   UNL A   1      51.463  22.015  34.360  1.00  0.00    -0.237 OA
ATOM     95  O   UNL A   1      52.064  21.318  32.076  1.00  0.00    -0.237 OA
ATOM     96  O   UNL A   1      53.824  22.021  33.633  1.00  0.00    -0.744 OA
ENDBRANCH  90  93
ENDBRANCH  63  86
ENDBRANCH  37  38
ENDBRANCH  30  32
ENDBRANCH  29  30
ENDBRANCH  28  29
ENDBRANCH  27  28
ENDBRANCH  26  27
ENDBRANCH  25  26
ENDBRANCH   1  25
TORSDOF 27
ENDMDL
MODEL 3
REMARK VINA RESULT:      -8.4      4.114      5.295
REMARK SMILES CC(C)N(CC(F)(F)F)C(=O)N(CC(=O)OCCOCCOCCOC(=O)c1ccc(-c2c3nc(c(-c4cccc(S(=O)(=O)[O-])c4F)c4ccc([nH]4)c(-c4cccc(S(=O)(=O)[O-])c4F)c4nc(c(-c5cccc(S(=O)(=O)[O-])c5F)c5ccc2[nH]5)C=C4)C=C3)cc1)C(C)(C)C
REMARK SMILES IDX 20 1 19 2 18 3 17 4 16 5 14 6 15 7 13 8 12 9 10 10 11 11
REMARK SMILES IDX 4 12 2 13 1 14 3 15 5 16 6 17 7 18 8 19 9 20 91 21 92 22
REMARK SMILES IDX 93 23 94 24 21 25 22 26 23 27 24 28 25 29 26 30 27 31 28 32
REMARK SMILES IDX 29 33 90 34 30 35 89 36 31 37 32 38 33 39 83 40 34 41 88 42
REMARK SMILES IDX 82 43 84 44 35 45 87 46 81 47 80 48 36 50 68 51 48 52 67 53
REMARK SMILES IDX 49 54 52 55 66 56 85 57 50 58 51 59 65 61 86 62 53 63 37 64
REMARK SMILES IDX 38 65 46 66 39 67 41 68 47 69 40 70 42 71 43 72 44 73 45 74
REMARK SMILES IDX 69 75 70 76 78 77 71 78 73 79 79 80 72 81 74 82 75 83 76 84
REMARK SMILES IDX 77 85 54 86 55 87 63 88 56 89 58 90 64 91 57 92 59 93 60 94
REMARK SMILES IDX 61 95 62 96
REMARK H PARENT 84 49 52 60
REMARK Flexibility Score: inf
ROOT
ATOM      1  C   UNL A   1      40.246  22.858  26.876  1.00  0.00     0.188 C 
ENDROOT
BRANCH   1   2
ATOM      2  O   UNL A   1      39.237  21.865  26.709  1.00  0.00    -0.376 OA
BRANCH   2   3
ATOM      3  C   UNL A   1      38.313  22.068  25.640  1.00  0.00     0.202 C 
BRANCH   3   4
ATOM      4  C   UNL A   1      37.484  23.351  25.760  1.00  0.00     0.261 C 
BRANCH   4   5
ATOM      5  O   UNL A   1      36.594  23.537  24.628  1.00  0.00    -0.462 OA
BRANCH   5   6
ATOM      6  C   UNL A   1      35.275  23.634  24.939  1.00  0.00     0.325 C 
ATOM      7  O   UNL A   1      34.850  23.827  26.074  1.00  0.00    -0.250 OA
BRANCH   6   8
ATOM      8  C   UNL A   1      34.314  23.480  23.742  1.00  0.00     0.244 C 
BRANCH   8   9
ATOM      9  N   UNL A   1      33.128  24.353  23.623  1.00  0.00    -0.309 N 
BRANCH   9  10
ATOM     10  C   UNL A   1      33.044  25.497  22.832  1.00  0.00     0.321 C 
ATOM     11  O   UNL A   1      33.694  25.546  21.783  1.00  0.00    -0.248 OA
BRANCH  10  12
ATOM     12  N   UNL A   1      32.353  26.641  23.208  1.00  0.00    -0.313 N 
BRANCH  12  13
ATOM     13  C   UNL A   1      33.125  27.662  23.972  1.00  0.00     0.081 C 
ATOM     14  C   UNL A   1      33.954  27.044  25.108  1.00  0.00     0.031 C 
ATOM     15  C   UNL A   1      33.975  28.592  23.097  1.00  0.00     0.031 C 
ENDBRANCH  12  13
BRANCH  12  16
ATOM     16  C   UNL A   1      31.062  27.146  22.688  1.00  0.00     0.237 C 
BRANCH  16  17
ATOM     17  C   UNL A   1      30.145  27.805  23.721  1.00  0.00     0.406 C 
ATOM     18  F   UNL A   1      29.937  29.113  23.472  1.00  0.00    -0.169 F 
ATOM     19  F   UNL A   1      28.936  27.196  23.727  1.00  0.00    -0.169 F 
ATOM     20  F   UNL A   1      30.654  27.690  24.968  1.00  0.00    -0.169 F 
ENDBRANCH  16  17
ENDBRANCH  12  16
ENDBRANCH  10  12
ENDBRANCH   9  10
BRANCH   9  21
ATOM     21  C   UNL A   1      31.792  23.812  24.140  1.00  0.00     0.037 C 
ATOM     22  C   UNL A   1      31.821  22.270  24.336  1.00  0.00     0.034 C 
ATOM     23  C   UNL A   1      31.433  24.484  25.490  1.00  0.00     0.034 C 
ATOM     24  C   UNL A   1      30.598  24.116  23.214  1.00  0.00     0.034 C 
ENDBRANCH   9  21
ENDBRANCH   8   9
ENDBRANCH   6   8
ENDBRANCH   5   6
ENDBRANCH   4   5
ENDBRANCH   3   4
ENDBRANCH   2   3
ENDBRANCH   1   2
BRANCH   1  25
ATOM     25  C   UNL A   1      41.555  22.585  26.127  1.00  0.00     0.188 C 
BRANCH  25  26
ATOM     26  O   UNL A   1      42.736  22.539  26.922  1.00  0.00    -0.376 OA
BRANCH  26  27
ATOM     27  C   UNL A   1      43.898  22.012  26.285  1.00  0.00     0.202 C 
BRANCH  27  28
ATOM     28  C   UNL A   1      43.945  22.298  24.785  1.00  0.00     0.261 C 
BRANCH  28  29
ATOM     29  O   UNL A   1      43.756  23.707  24.555  1.00  0.00    -0.460 OA
BRANCH  29  30
ATOM     30  C   UNL A   1      44.792  24.483  24.916  1.00  0.00     0.338 C 
ATOM     31  O   UNL A   1      45.976  24.340  24.591  1.00  0.00    -0.246 OA
BRANCH  30  32
ATOM     32  C   UNL A   1      44.321  25.613  25.722  1.00  0.00     0.060 A 
ATOM     33  C   UNL A   1      43.419  26.516  25.161  1.00  0.00     0.016 A 
ATOM     34  C   UNL A   1      44.891  25.874  26.964  1.00  0.00     0.016 A 
ATOM     35  C   UNL A   1      43.152  27.734  25.786  1.00  0.00     0.010 A 
ATOM     36  C   UNL A   1      44.574  27.065  27.623  1.00  0.00     0.010 A 
ATOM     37  C   UNL A   1      43.746  28.031  27.018  1.00  0.00    -0.014 A 
BRANCH  37  38
ATOM     38  C   UNL A   1      43.621  29.383  27.632  1.00  0.00     0.031 A 
ATOM     39  C   UNL A   1      44.759  30.359  27.478  1.00  0.00     0.074 A 
ATOM     40  C   UNL A   1      42.528  29.748  28.330  1.00  0.00     0.049 A 
ATOM     41  N   UNL A   1      45.003  31.460  28.139  1.00  0.00    -0.248 NA
ATOM     42  C   UNL A   1      45.763  30.042  26.447  1.00  0.00     0.031 C 
ATOM     43  C   UNL A   1      41.320  28.942  28.502  1.00  0.00     0.029 A 
ATOM     44  N   UNL A   1      42.271  30.890  29.049  1.00  0.00    -0.354 N 
ATOM     45  C   UNL A   1      46.234  31.912  27.676  1.00  0.00     0.074 A 
ATOM     46  C   UNL A   1      46.670  30.987  26.653  1.00  0.00     0.031 C 
ATOM     47  C   UNL A   1      40.452  29.612  29.277  1.00  0.00     0.029 A 
ATOM     48  C   UNL A   1      41.073  30.855  29.724  1.00  0.00     0.049 A 
ATOM     49  H   UNL A   1      42.884  31.660  29.078  1.00  0.00     0.167 HD
ATOM     50  C   UNL A   1      46.938  33.000  28.070  1.00  0.00     0.034 A 
ATOM     51  C   UNL A   1      40.558  31.698  30.643  1.00  0.00     0.034 A 
ATOM     52  C   UNL A   1      46.463  33.962  29.025  1.00  0.00     0.049 A 
ATOM     53  C   UNL A   1      41.359  32.899  31.071  1.00  0.00     0.074 A 
ATOM     54  C   UNL A   1      47.094  35.105  29.483  1.00  0.00     0.029 A 
ATOM     55  N   UNL A   1      45.227  33.909  29.649  1.00  0.00    -0.354 N 
ATOM     56  N   UNL A   1      42.525  33.312  30.634  1.00  0.00    -0.248 NA
ATOM     57  C   UNL A   1      40.775  33.749  32.119  1.00  0.00     0.031 C 
ATOM     58  C   UNL A   1      46.238  35.744  30.386  1.00  0.00     0.029 A 
ATOM     59  C   UNL A   1      45.071  35.002  30.484  1.00  0.00     0.049 A 
ATOM     60  H   UNL A   1      44.559  33.198  29.519  1.00  0.00     0.167 HD
ATOM     61  C   UNL A   1      42.805  34.476  31.341  1.00  0.00     0.074 A 
ATOM     62  C   UNL A   1      41.675  34.720  32.213  1.00  0.00     0.031 C 
ATOM     63  C   UNL A   1      43.911  35.259  31.296  1.00  0.00     0.034 A 
BRANCH  50  64
ATOM     64  C   UNL A   1      48.297  33.210  27.461  1.00  0.00     0.023 A 
ATOM     65  C   UNL A   1      48.430  33.986  26.293  1.00  0.00     0.012 A 
ATOM     66  C   UNL A   1      49.448  32.674  28.071  1.00  0.00     0.148 A 
ATOM     67  C   UNL A   1      49.686  34.206  25.729  1.00  0.00     0.002 A 
ATOM     68  C   UNL A   1      50.700  32.926  27.523  1.00  0.00     0.091 A 
ATOM     69  F   UNL A   1      49.295  31.913  29.165  1.00  0.00    -0.205 F 
ATOM     70  C   UNL A   1      50.821  33.684  26.349  1.00  0.00     0.022 A 
BRANCH  68  71
ATOM     71  S   UNL A   1      52.219  32.349  28.290  1.00  0.00     0.127 S 
ATOM     72  O   UNL A   1      52.138  32.974  29.610  1.00  0.00    -0.237 OA
ATOM     73  O   UNL A   1      52.037  30.897  28.291  1.00  0.00    -0.237 OA
ATOM     74  O   UNL A   1      53.300  32.820  27.436  1.00  0.00    -0.744 OA
ENDBRANCH  68  71
ENDBRANCH  50  64
BRANCH  51  75
ATOM     75  C   UNL A   1      39.211  31.431  31.227  1.00  0.00     0.023 A 
ATOM     76  C   UNL A   1      39.109  30.664  32.403  1.00  0.00     0.012 A 
ATOM     77  C   UNL A   1      38.040  31.958  30.648  1.00  0.00     0.148 A 
ATOM     78  C   UNL A   1      37.864  30.415  32.985  1.00  0.00     0.002 A 
ATOM     79  C   UNL A   1      36.809  31.757  31.266  1.00  0.00     0.091 A 
ATOM     80  F   UNL A   1      38.148  32.655  29.509  1.00  0.00    -0.205 F 
ATOM     81  C   UNL A   1      36.717  30.974  32.425  1.00  0.00     0.022 A 
BRANCH  79  82
ATOM     82  S   UNL A   1      35.315  32.569  30.686  1.00  0.00     0.127 S 
ATOM     83  O   UNL A   1      35.026  31.828  29.462  1.00  0.00    -0.237 OA
ATOM     84  O   UNL A   1      34.384  32.325  31.789  1.00  0.00    -0.237 OA
ATOM     85  O   UNL A   1      35.682  33.968  30.518  1.00  0.00    -0.744 OA
ENDBRANCH  79  82
ENDBRANCH  51  75
BRANCH  63  86
ATOM     86  C   UNL A   1      43.949  36.467  32.192  1.00  0.00     0.023 A 
ATOM     87  C   UNL A   1      44.293  36.310  33.549  1.00  0.00     0.012 A 
ATOM     88  C   UNL A   1      43.731  37.757  31.677  1.00  0.00     0.148 A 
ATOM     89  C   UNL A   1      44.399  37.421  34.385  1.00  0.00     0.002 A 
ATOM     90  C   UNL A   1      43.876  38.864  32.505  1.00  0.00     0.091 A 
ATOM     91  F   UNL A   1      43.383  37.882  30.387  1.00  0.00    -0.205 F 
ATOM     92  C   UNL A   1      44.203  38.697  33.861  1.00  0.00     0.022 A 
BRANCH  90  93
ATOM     93  S   UNL A   1      43.725  40.545  31.889  1.00  0.00     0.127 S 
ATOM     94  O   UNL A   1      43.582  40.323  30.452  1.00  0.00    -0.237 OA
ATOM     95  O   UNL A   1      42.512  41.018  32.557  1.00  0.00    -0.237 OA
ATOM     96  O   UNL A   1      44.942  41.228  32.304  1.00  0.00    -0.744 OA
ENDBRANCH  90  93
ENDBRANCH  63  86
ENDBRANCH  37  38
ENDBRANCH  30  32
ENDBRANCH  29  30
ENDBRANCH  28  29
ENDBRANCH  27  28
ENDBRANCH  26  27
ENDBRANCH  25  26
ENDBRANCH   1  25
TORSDOF 27
ENDMDL
