MODEL 1
REMARK VINA RESULT:      -8.0      0.000      0.000
REMARK SMILES CC1(C)CC[C@@]2(C(=O)OCCOCCOCCOC(=O)c3ccc(-c4c5nc(c(-c6cccc(S(=O)(=O)[O-])c6F)c6ccc([nH]6)c(-c6cccc(S(=O)(=O)[O-])c6F)c6nc(c(-c7cccc(S(=O)(=O)[O-])c7F)c7ccc4[nH]7)C=C6)C=C5)cc3)CC[C@@]3(C)C(=CC[C@H]4[C@@]5(C)CC[C@H](O)C(C)(C)[C@@H]5CC[C@]43C)[C@@H]2C1
REMARK SMILES IDX 14 1 13 2 12 3 11 4 10 5 9 6 7 7 8 8 6 9 1 10 2 11 3 12 4 13
REMARK SMILES IDX 107 14 5 15 106 16 88 17 84 18 86 19 89 20 85 21 87 22
REMARK SMILES IDX 104 23 90 24 91 25 103 26 105 27 92 28 102 29 93 30 94 31
REMARK SMILES IDX 101 32 95 33 98 34 96 35 99 36 100 37 97 38 15 40 16 41
REMARK SMILES IDX 17 42 18 43 19 44 20 45 21 46 22 47 83 48 23 49 82 50 24 51
REMARK SMILES IDX 25 52 26 53 76 54 27 55 81 56 75 57 77 58 28 59 80 60 74 61
REMARK SMILES IDX 73 62 29 64 61 65 41 66 60 67 42 68 45 69 59 70 78 71 43 72
REMARK SMILES IDX 44 73 58 75 79 76 46 77 30 78 31 79 39 80 32 81 34 82 40 83
REMARK SMILES IDX 33 84 35 85 36 86 37 87 38 88 62 89 63 90 71 91 64 92 66 93
REMARK SMILES IDX 72 94 65 95 67 96 68 97 69 98 70 99 47 100 48 101 56 102
REMARK SMILES IDX 49 103 51 104 57 105 50 106 52 107 53 108 54 109 55 110
REMARK H PARENT 97 39 77 63 45 74
REMARK Flexibility Score: inf
ROOT
ATOM      1  C   UNL A   1      45.584  23.480  27.380  1.00  0.00     0.188 C 
ENDROOT
BRANCH   1   2
ATOM      2  C   UNL A   1      45.747  24.173  28.727  1.00  0.00     0.188 C 
BRANCH   2   3
ATOM      3  O   UNL A   1      44.539  23.917  29.385  1.00  0.00    -0.376 OA
BRANCH   3   4
ATOM      4  C   UNL A   1      44.111  23.608  30.644  1.00  0.00     0.202 C 
BRANCH   4   5
ATOM      5  C   UNL A   1      44.574  24.407  31.765  1.00  0.00     0.261 C 
BRANCH   5   6
ATOM      6  O   UNL A   1      43.965  25.651  31.756  1.00  0.00    -0.463 OA
BRANCH   6   7
ATOM      7  C   UNL A   1      44.289  26.566  32.668  1.00  0.00     0.312 C 
ATOM      8  O   UNL A   1      45.031  26.442  33.636  1.00  0.00    -0.252 OA
BRANCH   7   9
ATOM      9  C   UNL A   1      43.766  27.874  32.318  1.00  0.00     0.075 C 
ATOM     10  C   UNL A   1      41.861  29.226  35.969  1.00  0.00     0.011 C 
ATOM     11  C   UNL A   1      42.920  28.321  35.286  1.00  0.00    -0.035 C 
ATOM     12  C   UNL A   1      43.498  27.580  36.550  1.00  0.00     0.011 C 
ATOM     13  C   UNL A   1      42.090  27.403  34.335  1.00  0.00     0.007 C 
ATOM     14  C   UNL A   1      44.079  29.182  34.553  1.00  0.00     0.015 C 
ATOM     15  C   UNL A   1      42.277  27.708  32.801  1.00  0.00     0.020 C 
ATOM     16  C   UNL A   1      44.607  28.937  33.027  1.00  0.00     0.033 C 
ATOM     17  C   UNL A   1      46.200  28.664  32.795  1.00  0.00    -0.063 C 
ATOM     18  C   UNL A   1      44.114  27.903  30.785  1.00  0.00     0.020 C 
ATOM     19  C   UNL A   1      46.843  28.101  31.449  1.00  0.00    -0.006 C 
ATOM     20  C   UNL A   1      47.083  29.166  33.674  1.00  0.00    -0.027 C 
ATOM     21  C   UNL A   1      45.699  27.511  30.445  1.00  0.00     0.013 C 
ATOM     22  C   UNL A   1      47.025  29.448  30.590  1.00  0.00     0.017 C 
ATOM     23  C   UNL A   1      48.528  27.344  31.791  1.00  0.00    -0.020 C 
ATOM     24  C   UNL A   1      48.430  28.650  34.073  1.00  0.00     0.032 C 
ATOM     25  C   UNL A   1      48.974  27.384  33.391  1.00  0.00     0.006 C 
ATOM     26  C   UNL A   1      49.101  25.906  31.285  1.00  0.00     0.008 C 
ATOM     27  C   UNL A   1      49.557  28.359  31.064  1.00  0.00     0.012 C 
ATOM     28  C   UNL A   1      49.359  26.030  34.426  1.00  0.00    -0.025 C 
ATOM     29  C   UNL A   1      50.058  24.987  32.283  1.00  0.00     0.005 C 
ATOM     30  C   UNL A   1      50.790  26.340  34.988  1.00  0.00     0.012 C 
ATOM     31  C   UNL A   1      48.549  25.902  35.756  1.00  0.00     0.010 C 
ATOM     32  C   UNL A   1      49.388  24.661  33.644  1.00  0.00     0.003 C 
ATOM     33  C   UNL A   1      48.558  24.559  36.522  1.00  0.00     0.033 C 
ATOM     34  C   UNL A   1      49.570  23.251  34.553  1.00  0.00    -0.006 C 
ATOM     35  C   UNL A   1      48.482  23.277  35.688  1.00  0.00     0.120 C 
ATOM     36  C   UNL A   1      50.926  22.969  35.237  1.00  0.00     0.014 C 
ATOM     37  C   UNL A   1      49.323  21.921  33.774  1.00  0.00     0.014 C 
BRANCH  35  38
ATOM     38  O   UNL A   1      48.531  22.118  36.532  1.00  0.00    -0.393 OA
ATOM     39  H   UNL A   1      47.629  21.821  36.728  1.00  0.00     0.210 HD
ENDBRANCH  35  38
ENDBRANCH   7   9
ENDBRANCH   6   7
ENDBRANCH   5   6
ENDBRANCH   4   5
ENDBRANCH   3   4
ENDBRANCH   2   3
ENDBRANCH   1   2
BRANCH   1  40
ATOM     40  O   UNL A   1      44.417  22.571  27.278  1.00  0.00    -0.376 OA
BRANCH  40  41
ATOM     41  C   UNL A   1      43.947  22.481  25.929  1.00  0.00     0.202 C 
BRANCH  41  42
ATOM     42  C   UNL A   1      42.543  22.397  25.386  1.00  0.00     0.261 C 
BRANCH  42  43
ATOM     43  O   UNL A   1      41.674  21.517  26.048  1.00  0.00    -0.460 OA
BRANCH  43  44
ATOM     44  C   UNL A   1      40.423  22.006  26.144  1.00  0.00     0.338 C 
ATOM     45  O   UNL A   1      39.450  21.484  25.634  1.00  0.00    -0.246 OA
BRANCH  44  46
ATOM     46  C   UNL A   1      40.387  23.267  26.910  1.00  0.00     0.060 A 
ATOM     47  C   UNL A   1      39.517  24.280  26.484  1.00  0.00     0.016 A 
ATOM     48  C   UNL A   1      41.073  23.349  28.132  1.00  0.00     0.016 A 
ATOM     49  C   UNL A   1      39.427  25.450  27.209  1.00  0.00     0.010 A 
ATOM     50  C   UNL A   1      41.040  24.545  28.826  1.00  0.00     0.010 A 
ATOM     51  C   UNL A   1      40.315  25.617  28.275  1.00  0.00    -0.014 A 
BRANCH  51  52
ATOM     52  C   UNL A   1      40.918  26.951  28.385  1.00  0.00     0.031 A 
ATOM     53  C   UNL A   1      42.259  27.119  27.715  1.00  0.00     0.074 A 
ATOM     54  C   UNL A   1      40.295  27.925  29.058  1.00  0.00     0.049 A 
ATOM     55  N   UNL A   1      43.068  28.139  27.723  1.00  0.00    -0.248 NA
ATOM     56  C   UNL A   1      42.776  25.974  26.934  1.00  0.00     0.031 C 
ATOM     57  C   UNL A   1      38.988  27.812  29.705  1.00  0.00     0.029 A 
ATOM     58  N   UNL A   1      40.714  29.191  29.342  1.00  0.00    -0.354 N 
ATOM     59  C   UNL A   1      44.186  27.733  27.000  1.00  0.00     0.074 A 
ATOM     60  C   UNL A   1      43.968  26.389  26.552  1.00  0.00     0.031 C 
ATOM     61  C   UNL A   1      38.740  28.953  30.373  1.00  0.00     0.029 A 
ATOM     62  C   UNL A   1      39.883  29.848  30.213  1.00  0.00     0.049 A 
ATOM     63  H   UNL A   1      41.529  29.592  28.962  1.00  0.00     0.167 HD
ATOM     64  C   UNL A   1      45.308  28.431  26.737  1.00  0.00     0.034 A 
ATOM     65  C   UNL A   1      40.076  31.023  30.837  1.00  0.00     0.034 A 
ATOM     66  C   UNL A   1      45.494  29.770  27.198  1.00  0.00     0.049 A 
ATOM     67  C   UNL A   1      41.341  31.780  30.527  1.00  0.00     0.074 A 
ATOM     68  C   UNL A   1      46.554  30.620  26.966  1.00  0.00     0.029 A 
ATOM     69  N   UNL A   1      44.593  30.440  28.011  1.00  0.00    -0.354 N 
ATOM     70  N   UNL A   1      42.338  31.441  29.743  1.00  0.00    -0.248 NA
ATOM     71  C   UNL A   1      41.494  33.096  31.157  1.00  0.00     0.031 C 
ATOM     72  C   UNL A   1      46.313  31.796  27.680  1.00  0.00     0.029 A 
ATOM     73  C   UNL A   1      45.080  31.692  28.310  1.00  0.00     0.049 A 
ATOM     74  H   UNL A   1      43.735  30.075  28.327  1.00  0.00     0.167 HD
ATOM     75  C   UNL A   1      43.216  32.517  29.750  1.00  0.00     0.074 A 
ATOM     76  C   UNL A   1      42.619  33.527  30.604  1.00  0.00     0.031 C 
ATOM     77  C   UNL A   1      44.409  32.671  29.124  1.00  0.00     0.034 A 
BRANCH  64  78
ATOM     78  C   UNL A   1      46.400  27.762  25.953  1.00  0.00     0.023 A 
ATOM     79  C   UNL A   1      46.423  27.846  24.546  1.00  0.00     0.012 A 
ATOM     80  C   UNL A   1      47.443  27.096  26.625  1.00  0.00     0.148 A 
ATOM     81  C   UNL A   1      47.467  27.274  23.820  1.00  0.00     0.002 A 
ATOM     82  C   UNL A   1      48.505  26.575  25.899  1.00  0.00     0.091 A 
ATOM     83  F   UNL A   1      47.374  26.990  27.959  1.00  0.00    -0.205 F 
ATOM     84  C   UNL A   1      48.515  26.654  24.497  1.00  0.00     0.022 A 
BRANCH  82  85
ATOM     85  S   UNL A   1      49.939  25.834  26.683  1.00  0.00     0.127 S 
ATOM     86  O   UNL A   1      49.380  24.593  27.219  1.00  0.00    -0.237 OA
ATOM     87  O   UNL A   1      50.845  25.655  25.548  1.00  0.00    -0.237 OA
ATOM     88  O   UNL A   1      50.394  26.788  27.686  1.00  0.00    -0.744 OA
ENDBRANCH  82  85
ENDBRANCH  64  78
BRANCH  65  89
ATOM     89  C   UNL A   1      39.063  31.543  31.793  1.00  0.00     0.023 A 
ATOM     90  C   UNL A   1      37.904  32.176  31.307  1.00  0.00     0.012 A 
ATOM     91  C   UNL A   1      39.241  31.411  33.185  1.00  0.00     0.148 A 
ATOM     92  C   UNL A   1      36.965  32.714  32.189  1.00  0.00     0.002 A 
ATOM     93  C   UNL A   1      38.274  31.897  34.057  1.00  0.00     0.091 A 
ATOM     94  F   UNL A   1      40.353  30.811  33.631  1.00  0.00    -0.205 F 
ATOM     95  C   UNL A   1      37.146  32.567  33.562  1.00  0.00     0.022 A 
BRANCH  93  96
ATOM     96  S   UNL A   1      38.365  31.634  35.831  1.00  0.00     0.127 S 
ATOM     97  O   UNL A   1      38.280  30.179  35.922  1.00  0.00    -0.237 OA
ATOM     98  O   UNL A   1      39.676  32.196  36.156  1.00  0.00    -0.237 OA
ATOM     99  O   UNL A   1      37.244  32.375  36.394  1.00  0.00    -0.744 OA
ENDBRANCH  93  96
ENDBRANCH  65  89
BRANCH  77 100
ATOM    100  C   UNL A   1      45.109  33.989  29.292  1.00  0.00     0.023 A 
ATOM    101  C   UNL A   1      45.955  34.202  30.396  1.00  0.00     0.012 A 
ATOM    102  C   UNL A   1      44.991  34.976  28.296  1.00  0.00     0.148 A 
ATOM    103  C   UNL A   1      46.645  35.403  30.527  1.00  0.00     0.002 A 
ATOM    104  C   UNL A   1      45.729  36.144  28.403  1.00  0.00     0.091 A 
ATOM    105  F   UNL A   1      44.170  34.748  27.260  1.00  0.00    -0.205 F 
ATOM    106  C   UNL A   1      46.542  36.367  29.526  1.00  0.00     0.022 A 
BRANCH 104 107
ATOM    107  S   UNL A   1      45.747  37.386  27.109  1.00  0.00     0.127 S 
ATOM    108  O   UNL A   1      46.661  38.382  27.664  1.00  0.00    -0.237 OA
ATOM    109  O   UNL A   1      46.279  36.636  25.969  1.00  0.00    -0.237 OA
ATOM    110  O   UNL A   1      44.367  37.827  26.951  1.00  0.00    -0.744 OA
ENDBRANCH 104 107
ENDBRANCH  77 100
ENDBRANCH  51  52
ENDBRANCH  44  46
ENDBRANCH  43  44
ENDBRANCH  42  43
ENDBRANCH  41  42
ENDBRANCH  40  41
ENDBRANCH   1  40
TORSDOF 21
ENDMDL
MODEL 2
REMARK VINA RESULT:      -7.7      2.682      5.059
REMARK SMILES CC1(C)CC[C@@]2(C(=O)OCCOCCOCCOC(=O)c3ccc(-c4c5nc(c(-c6cccc(S(=O)(=O)[O-])c6F)c6ccc([nH]6)c(-c6cccc(S(=O)(=O)[O-])c6F)c6nc(c(-c7cccc(S(=O)(=O)[O-])c7F)c7ccc4[nH]7)C=C6)C=C5)cc3)CC[C@@]3(C)C(=CC[C@H]4[C@@]5(C)CC[C@H](O)C(C)(C)[C@@H]5CC[C@]43C)[C@@H]2C1
REMARK SMILES IDX 14 1 13 2 12 3 11 4 10 5 9 6 7 7 8 8 6 9 1 10 2 11 3 12 4 13
REMARK SMILES IDX 107 14 5 15 106 16 88 17 84 18 86 19 89 20 85 21 87 22
REMARK SMILES IDX 104 23 90 24 91 25 103 26 105 27 92 28 102 29 93 30 94 31
REMARK SMILES IDX 101 32 95 33 98 34 96 35 99 36 100 37 97 38 15 40 16 41
REMARK SMILES IDX 17 42 18 43 19 44 20 45 21 46 22 47 83 48 23 49 82 50 24 51
REMARK SMILES IDX 25 52 26 53 76 54 27 55 81 56 75 57 77 58 28 59 80 60 74 61
REMARK SMILES IDX 73 62 29 64 61 65 41 66 60 67 42 68 45 69 59 70 78 71 43 72
REMARK SMILES IDX 44 73 58 75 79 76 46 77 30 78 31 79 39 80 32 81 34 82 40 83
REMARK SMILES IDX 33 84 35 85 36 86 37 87 38 88 62 89 63 90 71 91 64 92 66 93
REMARK SMILES IDX 72 94 65 95 67 96 68 97 69 98 70 99 47 100 48 101 56 102
REMARK SMILES IDX 49 103 51 104 57 105 50 106 52 107 53 108 54 109 55 110
REMARK H PARENT 97 39 77 63 45 74
REMARK Flexibility Score: inf
ROOT
ATOM      1  C   UNL A   1      46.216  24.502  26.505  1.00  0.00     0.188 C 
ENDROOT
BRANCH   1   2
ATOM      2  C   UNL A   1      47.102  24.468  27.744  1.00  0.00     0.188 C 
BRANCH   2   3
ATOM      3  O   UNL A   1      46.391  25.219  28.686  1.00  0.00    -0.376 OA
BRANCH   3   4
ATOM      4  C   UNL A   1      46.558  25.673  29.963  1.00  0.00     0.202 C 
BRANCH   4   5
ATOM      5  C   UNL A   1      45.730  25.126  31.023  1.00  0.00     0.261 C 
BRANCH   5   6
ATOM      6  O   UNL A   1      46.505  24.801  32.124  1.00  0.00    -0.463 OA
BRANCH   6   7
ATOM      7  C   UNL A   1      46.903  25.747  32.972  1.00  0.00     0.312 C 
ATOM      8  O   UNL A   1      46.382  26.835  33.190  1.00  0.00    -0.252 OA
BRANCH   7   9
ATOM      9  C   UNL A   1      48.012  25.295  33.792  1.00  0.00     0.075 C 
ATOM     10  C   UNL A   1      51.033  28.347  33.201  1.00  0.00     0.011 C 
ATOM     11  C   UNL A   1      49.533  27.948  33.181  1.00  0.00    -0.035 C 
ATOM     12  C   UNL A   1      48.899  29.306  32.699  1.00  0.00     0.011 C 
ATOM     13  C   UNL A   1      49.452  26.798  32.129  1.00  0.00     0.007 C 
ATOM     14  C   UNL A   1      48.985  27.556  34.654  1.00  0.00     0.015 C 
ATOM     15  C   UNL A   1      49.177  25.371  32.736  1.00  0.00     0.020 C 
ATOM     16  C   UNL A   1      48.121  26.216  35.008  1.00  0.00     0.033 C 
ATOM     17  C   UNL A   1      46.666  26.403  35.725  1.00  0.00    -0.063 C 
ATOM     18  C   UNL A   1      47.448  23.906  34.267  1.00  0.00     0.020 C 
ATOM     19  C   UNL A   1      45.561  25.261  35.857  1.00  0.00    -0.006 C 
ATOM     20  C   UNL A   1      46.447  27.489  36.484  1.00  0.00    -0.027 C 
ATOM     21  C   UNL A   1      45.908  23.984  34.901  1.00  0.00     0.013 C 
ATOM     22  C   UNL A   1      46.039  24.502  37.192  1.00  0.00     0.017 C 
ATOM     23  C   UNL A   1      43.865  26.017  36.140  1.00  0.00    -0.020 C 
ATOM     24  C   UNL A   1      45.168  28.216  36.760  1.00  0.00     0.032 C 
ATOM     25  C   UNL A   1      43.860  27.679  36.158  1.00  0.00     0.006 C 
ATOM     26  C   UNL A   1      42.468  25.654  35.385  1.00  0.00     0.008 C 
ATOM     27  C   UNL A   1      43.509  25.600  37.663  1.00  0.00     0.012 C 
ATOM     28  C   UNL A   1      42.970  28.755  35.108  1.00  0.00    -0.025 C 
ATOM     29  C   UNL A   1      41.378  26.850  35.017  1.00  0.00     0.005 C 
ATOM     30  C   UNL A   1      42.145  29.675  36.074  1.00  0.00     0.012 C 
ATOM     31  C   UNL A   1      43.796  29.826  34.326  1.00  0.00     0.010 C 
ATOM     32  C   UNL A   1      41.985  27.984  34.148  1.00  0.00     0.003 C 
ATOM     33  C   UNL A   1      43.153  30.545  33.119  1.00  0.00     0.033 C 
ATOM     34  C   UNL A   1      41.195  28.886  32.960  1.00  0.00    -0.006 C 
ATOM     35  C   UNL A   1      42.290  29.699  32.178  1.00  0.00     0.120 C 
ATOM     36  C   UNL A   1      40.104  29.894  33.385  1.00  0.00     0.014 C 
ATOM     37  C   UNL A   1      40.449  28.047  31.875  1.00  0.00     0.014 C 
BRANCH  35  38
ATOM     38  O   UNL A   1      41.739  30.507  31.129  1.00  0.00    -0.393 OA
ATOM     39  H   UNL A   1      40.917  30.106  30.809  1.00  0.00     0.210 HD
ENDBRANCH  35  38
ENDBRANCH   7   9
ENDBRANCH   6   7
ENDBRANCH   5   6
ENDBRANCH   4   5
ENDBRANCH   3   4
ENDBRANCH   2   3
ENDBRANCH   1   2
BRANCH   1  40
ATOM     40  O   UNL A   1      46.247  23.273  25.676  1.00  0.00    -0.376 OA
BRANCH  40  41
ATOM     41  C   UNL A   1      45.280  22.320  26.127  1.00  0.00     0.202 C 
BRANCH  41  42
ATOM     42  C   UNL A   1      43.795  22.236  25.873  1.00  0.00     0.261 C 
BRANCH  42  43
ATOM     43  O   UNL A   1      42.964  22.622  26.935  1.00  0.00    -0.460 OA
BRANCH  43  44
ATOM     44  C   UNL A   1      41.697  22.850  26.537  1.00  0.00     0.338 C 
ATOM     45  O   UNL A   1      41.070  22.102  25.811  1.00  0.00    -0.246 OA
BRANCH  44  46
ATOM     46  C   UNL A   1      41.183  24.131  27.059  1.00  0.00     0.060 A 
ATOM     47  C   UNL A   1      40.566  25.015  26.163  1.00  0.00     0.016 A 
ATOM     48  C   UNL A   1      41.157  24.347  28.446  1.00  0.00     0.016 A 
ATOM     49  C   UNL A   1      40.033  26.197  26.633  1.00  0.00     0.010 A 
ATOM     50  C   UNL A   1      40.687  25.561  28.913  1.00  0.00     0.010 A 
ATOM     51  C   UNL A   1      40.253  26.514  27.976  1.00  0.00    -0.014 A 
BRANCH  51  52
ATOM     52  C   UNL A   1      40.611  27.914  28.239  1.00  0.00     0.031 A 
ATOM     53  C   UNL A   1      42.085  28.233  28.175  1.00  0.00     0.074 A 
ATOM     54  C   UNL A   1      39.666  28.815  28.529  1.00  0.00     0.049 A 
ATOM     55  N   UNL A   1      42.705  29.344  28.450  1.00  0.00    -0.248 NA
ATOM     56  C   UNL A   1      42.997  27.147  27.754  1.00  0.00     0.031 C 
ATOM     57  C   UNL A   1      38.228  28.554  28.583  1.00  0.00     0.029 A 
ATOM     58  N   UNL A   1      39.794  30.127  28.878  1.00  0.00    -0.354 N 
ATOM     59  C   UNL A   1      44.058  29.066  28.283  1.00  0.00     0.074 A 
ATOM     60  C   UNL A   1      44.189  27.698  27.873  1.00  0.00     0.031 C 
ATOM     61  C   UNL A   1      37.606  29.667  29.013  1.00  0.00     0.029 A 
ATOM     62  C   UNL A   1      38.611  30.691  29.282  1.00  0.00     0.049 A 
ATOM     63  H   UNL A   1      40.647  30.618  28.844  1.00  0.00     0.167 HD
ATOM     64  C   UNL A   1      45.108  29.891  28.463  1.00  0.00     0.034 A 
ATOM     65  C   UNL A   1      38.402  31.890  29.853  1.00  0.00     0.034 A 
ATOM     66  C   UNL A   1      44.944  31.250  28.872  1.00  0.00     0.049 A 
ATOM     67  C   UNL A   1      39.594  32.791  30.046  1.00  0.00     0.074 A 
ATOM     68  C   UNL A   1      45.909  32.218  29.044  1.00  0.00     0.029 A 
ATOM     69  N   UNL A   1      43.721  31.817  29.194  1.00  0.00    -0.354 N 
ATOM     70  N   UNL A   1      40.858  32.564  29.768  1.00  0.00    -0.248 NA
ATOM     71  C   UNL A   1      39.332  34.126  30.596  1.00  0.00     0.031 C 
ATOM     72  C   UNL A   1      45.270  33.367  29.517  1.00  0.00     0.029 A 
ATOM     73  C   UNL A   1      43.904  33.124  29.585  1.00  0.00     0.049 A 
ATOM     74  H   UNL A   1      42.853  31.356  29.149  1.00  0.00     0.167 HD
ATOM     75  C   UNL A   1      41.534  33.739  30.068  1.00  0.00     0.074 A 
ATOM     76  C   UNL A   1      40.534  34.681  30.531  1.00  0.00     0.031 C 
ATOM     77  C   UNL A   1      42.857  34.027  29.984  1.00  0.00     0.034 A 
BRANCH  64  78
ATOM     78  C   UNL A   1      46.491  29.348  28.246  1.00  0.00     0.023 A 
ATOM     79  C   UNL A   1      47.362  29.154  29.338  1.00  0.00     0.012 A 
ATOM     80  C   UNL A   1      46.905  28.973  26.954  1.00  0.00     0.148 A 
ATOM     81  C   UNL A   1      48.626  28.596  29.145  1.00  0.00     0.002 A 
ATOM     82  C   UNL A   1      48.144  28.371  26.777  1.00  0.00     0.091 A 
ATOM     83  F   UNL A   1      46.078  29.210  25.927  1.00  0.00    -0.205 F 
ATOM     84  C   UNL A   1      49.009  28.190  27.869  1.00  0.00     0.022 A 
BRANCH  82  85
ATOM     85  S   UNL A   1      48.693  27.738  25.190  1.00  0.00     0.127 S 
ATOM     86  O   UNL A   1      49.823  28.617  24.893  1.00  0.00    -0.237 OA
ATOM     87  O   UNL A   1      49.061  26.362  25.524  1.00  0.00    -0.237 OA
ATOM     88  O   UNL A   1      47.558  27.866  24.286  1.00  0.00    -0.744 OA
ENDBRANCH  82  85
ENDBRANCH  64  78
BRANCH  65  89
ATOM     89  C   UNL A   1      37.034  32.299  30.268  1.00  0.00     0.023 A 
ATOM     90  C   UNL A   1      36.586  32.016  31.573  1.00  0.00     0.012 A 
ATOM     91  C   UNL A   1      36.173  32.971  29.378  1.00  0.00     0.148 A 
ATOM     92  C   UNL A   1      35.290  32.348  31.967  1.00  0.00     0.002 A 
ATOM     93  C   UNL A   1      34.903  33.351  29.795  1.00  0.00     0.091 A 
ATOM     94  F   UNL A   1      36.612  33.226  28.138  1.00  0.00    -0.205 F 
ATOM     95  C   UNL A   1      34.451  33.022  31.082  1.00  0.00     0.022 A 
BRANCH  93  96
ATOM     96  S   UNL A   1      33.811  34.335  28.764  1.00  0.00     0.127 S 
ATOM     97  O   UNL A   1      33.393  33.363  27.758  1.00  0.00    -0.237 OA
ATOM     98  O   UNL A   1      32.768  34.728  29.712  1.00  0.00    -0.237 OA
ATOM     99  O   UNL A   1      34.624  35.444  28.280  1.00  0.00    -0.744 OA
ENDBRANCH  93  96
ENDBRANCH  65  89
BRANCH  77 100
ATOM    100  C   UNL A   1      43.281  35.422  30.340  1.00  0.00     0.023 A 
ATOM    101  C   UNL A   1      43.789  35.698  31.623  1.00  0.00     0.012 A 
ATOM    102  C   UNL A   1      43.258  36.433  29.361  1.00  0.00     0.148 A 
ATOM    103  C   UNL A   1      44.230  36.980  31.940  1.00  0.00     0.002 A 
ATOM    104  C   UNL A   1      43.757  37.689  29.665  1.00  0.00     0.091 A 
ATOM    105  F   UNL A   1      42.760  36.141  28.150  1.00  0.00    -0.205 F 
ATOM    106  C   UNL A   1      44.226  37.970  30.959  1.00  0.00     0.022 A 
BRANCH 104 107
ATOM    107  S   UNL A   1      43.896  38.987  28.435  1.00  0.00     0.127 S 
ATOM    108  O   UNL A   1      44.352  40.116  29.244  1.00  0.00    -0.237 OA
ATOM    109  O   UNL A   1      44.904  38.441  27.524  1.00  0.00    -0.237 OA
ATOM    110  O   UNL A   1      42.570  39.135  27.850  1.00  0.00    -0.744 OA
ENDBRANCH 104 107
ENDBRANCH  77 100
ENDBRANCH  51  52
ENDBRANCH  44  46
ENDBRANCH  43  44
ENDBRANCH  42  43
ENDBRANCH  41  42
ENDBRANCH  40  41
ENDBRANCH   1  40
TORSDOF 21
ENDMDL
MODEL 3
REMARK VINA RESULT:      -7.7      3.071      7.648
REMARK SMILES CC1(C)CC[C@@]2(C(=O)OCCOCCOCCOC(=O)c3ccc(-c4c5nc(c(-c6cccc(S(=O)(=O)[O-])c6F)c6ccc([nH]6)c(-c6cccc(S(=O)(=O)[O-])c6F)c6nc(c(-c7cccc(S(=O)(=O)[O-])c7F)c7ccc4[nH]7)C=C6)C=C5)cc3)CC[C@@]3(C)C(=CC[C@H]4[C@@]5(C)CC[C@H](O)C(C)(C)[C@@H]5CC[C@]43C)[C@@H]2C1
REMARK SMILES IDX 14 1 13 2 12 3 11 4 10 5 9 6 7 7 8 8 6 9 1 10 2 11 3 12 4 13
REMARK SMILES IDX 107 14 5 15 106 16 88 17 84 18 86 19 89 20 85 21 87 22
REMARK SMILES IDX 104 23 90 24 91 25 103 26 105 27 92 28 102 29 93 30 94 31
REMARK SMILES IDX 101 32 95 33 98 34 96 35 99 36 100 37 97 38 15 40 16 41
REMARK SMILES IDX 17 42 18 43 19 44 20 45 21 46 22 47 83 48 23 49 82 50 24 51
REMARK SMILES IDX 25 52 26 53 76 54 27 55 81 56 75 57 77 58 28 59 80 60 74 61
REMARK SMILES IDX 73 62 29 64 61 65 41 66 60 67 42 68 45 69 59 70 78 71 43 72
REMARK SMILES IDX 44 73 58 75 79 76 46 77 30 78 31 79 39 80 32 81 34 82 40 83
REMARK SMILES IDX 33 84 35 85 36 86 37 87 38 88 62 89 63 90 71 91 64 92 66 93
REMARK SMILES IDX 72 94 65 95 67 96 68 97 69 98 70 99 47 100 48 101 56 102
REMARK SMILES IDX 49 103 51 104 57 105 50 106 52 107 53 108 54 109 55 110
REMARK H PARENT 97 39 77 63 45 74
REMARK Flexibility Score: inf
ROOT
ATOM      1  C   UNL A   1      46.026  22.966  25.855  1.00  0.00     0.188 C 
ENDROOT
BRANCH   1   2
ATOM      2  C   UNL A   1      45.615  23.763  24.623  1.00  0.00     0.188 C 
BRANCH   2   3
ATOM      3  O   UNL A   1      46.544  24.808  24.574  1.00  0.00    -0.376 OA
BRANCH   3   4
ATOM      4  C   UNL A   1      46.729  26.034  25.145  1.00  0.00     0.202 C 
BRANCH   4   5
ATOM      5  C   UNL A   1      47.043  26.116  26.560  1.00  0.00     0.261 C 
BRANCH   5   6
ATOM      6  O   UNL A   1      48.361  25.751  26.785  1.00  0.00    -0.463 OA
BRANCH   6   7
ATOM      7  C   UNL A   1      49.285  26.678  27.023  1.00  0.00     0.312 C 
ATOM      8  O   UNL A   1      49.163  27.898  26.984  1.00  0.00    -0.252 OA
BRANCH   7   9
ATOM      9  C   UNL A   1      50.517  26.087  27.514  1.00  0.00     0.075 C 
ATOM     10  C   UNL A   1      53.528  27.565  24.768  1.00  0.00     0.011 C 
ATOM     11  C   UNL A   1      52.135  27.747  25.428  1.00  0.00    -0.035 C 
ATOM     12  C   UNL A   1      51.664  29.065  24.705  1.00  0.00     0.011 C 
ATOM     13  C   UNL A   1      51.338  26.472  25.009  1.00  0.00     0.007 C 
ATOM     14  C   UNL A   1      52.242  27.983  27.026  1.00  0.00     0.015 C 
ATOM     15  C   UNL A   1      51.064  25.455  26.180  1.00  0.00     0.020 C 
ATOM     16  C   UNL A   1      51.362  27.192  28.152  1.00  0.00     0.033 C 
ATOM     17  C   UNL A   1      50.469  28.075  29.195  1.00  0.00    -0.063 C 
ATOM     18  C   UNL A   1      49.942  25.176  28.659  1.00  0.00     0.020 C 
ATOM     19  C   UNL A   1      49.324  27.489  30.138  1.00  0.00    -0.006 C 
ATOM     20  C   UNL A   1      50.859  29.325  29.493  1.00  0.00    -0.027 C 
ATOM     21  C   UNL A   1      48.913  25.970  29.703  1.00  0.00     0.013 C 
ATOM     22  C   UNL A   1      50.175  26.989  31.407  1.00  0.00     0.017 C 
ATOM     23  C   UNL A   1      48.149  28.855  30.672  1.00  0.00    -0.020 C 
ATOM     24  C   UNL A   1      50.037  30.512  29.887  1.00  0.00     0.032 C 
ATOM     25  C   UNL A   1      48.516  30.348  30.038  1.00  0.00     0.006 C 
ATOM     26  C   UNL A   1      46.521  28.839  30.655  1.00  0.00     0.008 C 
ATOM     27  C   UNL A   1      48.440  29.012  32.256  1.00  0.00     0.012 C 
ATOM     28  C   UNL A   1      47.506  31.356  29.031  1.00  0.00    -0.025 C 
ATOM     29  C   UNL A   1      45.672  30.207  30.251  1.00  0.00     0.005 C 
ATOM     30  C   UNL A   1      47.429  32.732  29.780  1.00  0.00     0.012 C 
ATOM     31  C   UNL A   1      48.100  31.808  27.659  1.00  0.00     0.010 C 
ATOM     32  C   UNL A   1      46.051  30.772  28.856  1.00  0.00     0.003 C 
ATOM     33  C   UNL A   1      47.154  32.367  26.571  1.00  0.00     0.033 C 
ATOM     34  C   UNL A   1      45.028  31.552  27.765  1.00  0.00    -0.006 C 
ATOM     35  C   UNL A   1      45.798  31.676  26.400  1.00  0.00     0.120 C 
ATOM     36  C   UNL A   1      44.496  32.961  28.110  1.00  0.00     0.014 C 
ATOM     37  C   UNL A   1      43.709  30.787  27.427  1.00  0.00     0.014 C 
BRANCH  35  38
ATOM     38  O   UNL A   1      45.023  32.322  25.381  1.00  0.00    -0.393 OA
ATOM     39  H   UNL A   1      44.366  31.701  25.031  1.00  0.00     0.210 HD
ENDBRANCH  35  38
ENDBRANCH   7   9
ENDBRANCH   6   7
ENDBRANCH   5   6
ENDBRANCH   4   5
ENDBRANCH   3   4
ENDBRANCH   2   3
ENDBRANCH   1   2
BRANCH   1  40
ATOM     40  O   UNL A   1      45.995  21.493  25.690  1.00  0.00    -0.376 OA
BRANCH  40  41
ATOM     41  C   UNL A   1      44.752  21.060  25.130  1.00  0.00     0.202 C 
BRANCH  41  42
ATOM     42  C   UNL A   1      43.387  20.933  25.759  1.00  0.00     0.261 C 
BRANCH  42  43
ATOM     43  O   UNL A   1      43.076  21.867  26.758  1.00  0.00    -0.460 OA
BRANCH  43  44
ATOM     44  C   UNL A   1      41.790  22.265  26.706  1.00  0.00     0.338 C 
ATOM     45  O   UNL A   1      40.875  21.553  26.338  1.00  0.00    -0.246 OA
BRANCH  44  46
ATOM     46  C   UNL A   1      41.637  23.675  27.112  1.00  0.00     0.060 A 
ATOM     47  C   UNL A   1      42.625  24.591  26.722  1.00  0.00     0.016 A 
ATOM     48  C   UNL A   1      40.437  24.093  27.708  1.00  0.00     0.016 A 
ATOM     49  C   UNL A   1      42.483  25.923  27.046  1.00  0.00     0.010 A 
ATOM     50  C   UNL A   1      40.321  25.415  28.097  1.00  0.00     0.010 A 
ATOM     51  C   UNL A   1      41.410  26.275  27.870  1.00  0.00    -0.014 A 
BRANCH  51  52
ATOM     52  C   UNL A   1      41.724  27.241  28.931  1.00  0.00     0.031 A 
ATOM     53  C   UNL A   1      42.757  26.794  29.936  1.00  0.00     0.074 A 
ATOM     54  C   UNL A   1      41.102  28.424  28.979  1.00  0.00     0.049 A 
ATOM     55  N   UNL A   1      43.165  27.383  31.022  1.00  0.00    -0.248 NA
ATOM     56  C   UNL A   1      43.419  25.493  29.695  1.00  0.00     0.031 C 
ATOM     57  C   UNL A   1      40.111  28.905  28.017  1.00  0.00     0.029 A 
ATOM     58  N   UNL A   1      41.190  29.415  29.912  1.00  0.00    -0.354 N 
ATOM     59  C   UNL A   1      44.078  26.505  31.600  1.00  0.00     0.074 A 
ATOM     60  C   UNL A   1      44.186  25.350  30.759  1.00  0.00     0.031 C 
ATOM     61  C   UNL A   1      39.630  30.084  28.451  1.00  0.00     0.029 A 
ATOM     62  C   UNL A   1      40.264  30.410  29.725  1.00  0.00     0.049 A 
ATOM     63  H   UNL A   1      41.849  29.416  30.643  1.00  0.00     0.167 HD
ATOM     64  C   UNL A   1      44.767  26.654  32.749  1.00  0.00     0.034 A 
ATOM     65  C   UNL A   1      39.951  31.432  30.539  1.00  0.00     0.034 A 
ATOM     66  C   UNL A   1      44.637  27.819  33.565  1.00  0.00     0.049 A 
ATOM     67  C   UNL A   1      40.735  31.573  31.819  1.00  0.00     0.074 A 
ATOM     68  C   UNL A   1      45.309  28.134  34.727  1.00  0.00     0.029 A 
ATOM     69  N   UNL A   1      43.749  28.851  33.304  1.00  0.00    -0.354 N 
ATOM     70  N   UNL A   1      41.685  30.803  32.297  1.00  0.00    -0.248 NA
ATOM     71  C   UNL A   1      40.432  32.741  32.653  1.00  0.00     0.031 C 
ATOM     72  C   UNL A   1      44.791  29.344  35.195  1.00  0.00     0.029 A 
ATOM     73  C   UNL A   1      43.838  29.802  34.295  1.00  0.00     0.049 A 
ATOM     74  H   UNL A   1      43.146  28.897  32.528  1.00  0.00     0.167 HD
ATOM     75  C   UNL A   1      42.124  31.414  33.464  1.00  0.00     0.074 A 
ATOM     76  C   UNL A   1      41.345  32.629  33.608  1.00  0.00     0.031 C 
ATOM     77  C   UNL A   1      43.071  31.018  34.350  1.00  0.00     0.034 A 
BRANCH  64  78
ATOM     78  C   UNL A   1      45.680  25.545  33.185  1.00  0.00     0.023 A 
ATOM     79  C   UNL A   1      47.059  25.600  32.896  1.00  0.00     0.012 A 
ATOM     80  C   UNL A   1      45.173  24.471  33.940  1.00  0.00     0.148 A 
ATOM     81  C   UNL A   1      47.918  24.599  33.350  1.00  0.00     0.002 A 
ATOM     82  C   UNL A   1      46.041  23.506  34.432  1.00  0.00     0.091 A 
ATOM     83  F   UNL A   1      43.852  24.417  34.162  1.00  0.00    -0.205 F 
ATOM     84  C   UNL A   1      47.411  23.563  34.132  1.00  0.00     0.022 A 
BRANCH  82  85
ATOM     85  S   UNL A   1      45.500  22.181  35.515  1.00  0.00     0.127 S 
ATOM     86  O   UNL A   1      46.758  21.489  35.792  1.00  0.00    -0.237 OA
ATOM     87  O   UNL A   1      44.950  22.923  36.649  1.00  0.00    -0.237 OA
ATOM     88  O   UNL A   1      44.525  21.408  34.758  1.00  0.00    -0.744 OA
ENDBRANCH  82  85
ENDBRANCH  64  78
BRANCH  65  89
ATOM     89  C   UNL A   1      38.869  32.384  30.172  1.00  0.00     0.023 A 
ATOM     90  C   UNL A   1      39.193  33.600  29.540  1.00  0.00     0.012 A 
ATOM     91  C   UNL A   1      37.519  32.090  30.443  1.00  0.00     0.148 A 
ATOM     92  C   UNL A   1      38.197  34.527  29.232  1.00  0.00     0.002 A 
ATOM     93  C   UNL A   1      36.526  32.992  30.080  1.00  0.00     0.091 A 
ATOM     94  F   UNL A   1      37.228  30.931  31.051  1.00  0.00    -0.205 F 
ATOM     95  C   UNL A   1      36.864  34.220  29.494  1.00  0.00     0.022 A 
BRANCH  93  96
ATOM     96  S   UNL A   1      34.778  32.618  30.262  1.00  0.00     0.127 S 
ATOM     97  O   UNL A   1      34.163  33.903  29.942  1.00  0.00    -0.237 OA
ATOM     98  O   UNL A   1      34.584  31.573  29.257  1.00  0.00    -0.237 OA
ATOM     99  O   UNL A   1      34.618  32.159  31.636  1.00  0.00    -0.744 OA
ENDBRANCH  93  96
ENDBRANCH  65  89
BRANCH  77 100
ATOM    100  C   UNL A   1      43.355  31.932  35.508  1.00  0.00     0.023 A 
ATOM    101  C   UNL A   1      44.303  32.963  35.376  1.00  0.00     0.012 A 
ATOM    102  C   UNL A   1      42.605  31.814  36.693  1.00  0.00     0.148 A 
ATOM    103  C   UNL A   1      44.530  33.843  36.430  1.00  0.00     0.002 A 
ATOM    104  C   UNL A   1      42.793  32.731  37.714  1.00  0.00     0.091 A 
ATOM    105  F   UNL A   1      41.714  30.814  36.792  1.00  0.00    -0.205 F 
ATOM    106  C   UNL A   1      43.768  33.735  37.592  1.00  0.00     0.022 A 
BRANCH 104 107
ATOM    107  S   UNL A   1      41.779  32.738  39.193  1.00  0.00     0.127 S 
ATOM    108  O   UNL A   1      40.439  32.562  38.636  1.00  0.00    -0.237 OA
ATOM    109  O   UNL A   1      42.293  31.578  39.924  1.00  0.00    -0.237 OA
ATOM    110  O   UNL A   1      42.020  34.018  39.845  1.00  0.00    -0.744 OA
ENDBRANCH 104 107
ENDBRANCH  77 100
ENDBRANCH  51  52
ENDBRANCH  44  46
ENDBRANCH  43  44
ENDBRANCH  42  43
ENDBRANCH  41  42
ENDBRANCH  40  41
ENDBRANCH   1  40
TORSDOF 21
ENDMDL
