MODEL 1
REMARK VINA RESULT:     -10.5      0.000      0.000
REMARK SMILES COc1ccc2c(c1)c(CC(=O)OCCOCCOCCOC(=O)c1ccc(-c3c4nc(c(-c5cccc(S(=O)(=O)[O-])c5F)c5ccc([nH]5)c(-c5cccc(S(=O)(=O)[O-])c5F)c5nc(c(-c6cccc(S(=O)(=O)[O-])c6F)c6ccc3[nH]6)C=C5)C=C4)cc1)c(C)n2Cc1ccc(Br)cc1
REMARK SMILES IDX 17 1 16 2 15 3 14 4 13 5 11 6 12 7 10 8 9 9 3 10 4 11 8 12
REMARK SMILES IDX 5 13 7 14 6 15 90 16 88 17 89 18 2 19 1 20 91 21 92 22 93 23
REMARK SMILES IDX 98 24 94 25 97 26 95 27 96 28 18 29 19 30 20 31 21 32 22 33
REMARK SMILES IDX 23 34 24 35 25 36 26 37 87 38 27 39 86 40 28 41 29 42 30 43
REMARK SMILES IDX 80 44 31 45 85 46 79 47 81 48 32 49 84 50 78 51 77 52 33 54
REMARK SMILES IDX 65 55 45 56 64 57 46 58 49 59 63 60 82 61 47 62 48 63 62 65
REMARK SMILES IDX 83 66 50 67 34 68 35 69 43 70 36 71 38 72 44 73 37 74 39 75
REMARK SMILES IDX 40 76 41 77 42 78 66 79 67 80 75 81 68 82 70 83 76 84 69 85
REMARK SMILES IDX 71 86 72 87 73 88 74 89 51 90 52 91 60 92 53 93 55 94 61 95
REMARK SMILES IDX 54 96 56 97 57 98 58 99 59 100
REMARK H PARENT 81 53 49 64
REMARK Flexibility Score: inf
ROOT
ATOM      1  C   UNL A   1      39.897  22.184  26.392  1.00  0.00     0.188 C 
ENDROOT
BRANCH   1   2
ATOM      2  O   UNL A   1      38.620  22.711  26.030  1.00  0.00    -0.376 OA
BRANCH   2   3
ATOM      3  C   UNL A   1      37.548  21.786  25.882  1.00  0.00     0.202 C 
BRANCH   3   4
ATOM      4  C   UNL A   1      36.198  22.437  25.571  1.00  0.00     0.261 C 
BRANCH   4   5
ATOM      5  O   UNL A   1      35.730  21.968  24.291  1.00  0.00    -0.463 OA
BRANCH   5   6
ATOM      6  C   UNL A   1      35.512  22.926  23.352  1.00  0.00     0.310 C 
ATOM      7  O   UNL A   1      36.388  23.347  22.607  1.00  0.00    -0.252 OA
BRANCH   6   8
ATOM      8  C   UNL A   1      34.031  23.203  23.182  1.00  0.00     0.160 C 
BRANCH   8   9
ATOM      9  C   UNL A   1      33.409  24.378  23.840  1.00  0.00    -0.008 A 
ATOM     10  C   UNL A   1      30.781  23.624  26.533  1.00  0.00     0.119 A 
ATOM     11  C   UNL A   1      30.302  24.921  26.643  1.00  0.00     0.048 A 
ATOM     12  C   UNL A   1      31.862  23.366  25.686  1.00  0.00     0.057 A 
ATOM     13  C   UNL A   1      30.905  25.973  25.930  1.00  0.00     0.031 A 
ATOM     14  C   UNL A   1      32.448  24.376  24.902  1.00  0.00     0.007 A 
ATOM     15  C   UNL A   1      31.963  25.675  25.051  1.00  0.00     0.049 A 
ATOM     16  N   UNL A   1      32.715  26.455  24.191  1.00  0.00    -0.340 N 
ATOM     17  C   UNL A   1      33.334  25.637  23.270  1.00  0.00     0.020 A 
ATOM     18  C   UNL A   1      33.752  26.059  21.898  1.00  0.00     0.065 C 
BRANCH  10  19
ATOM     19  O   UNL A   1      30.309  22.528  27.203  1.00  0.00    -0.497 OA
ATOM     20  C   UNL A   1      28.939  22.539  27.586  1.00  0.00     0.278 C 
ENDBRANCH  10  19
BRANCH  16  21
ATOM     21  C   UNL A   1      32.903  27.897  24.277  1.00  0.00     0.157 C 
BRANCH  21  22
ATOM     22  C   UNL A   1      31.590  28.584  23.941  1.00  0.00    -0.028 A 
ATOM     23  C   UNL A   1      30.842  28.181  22.822  1.00  0.00     0.007 A 
ATOM     24  C   UNL A   1      31.173  29.718  24.653  1.00  0.00     0.007 A 
ATOM     25  C   UNL A   1      29.736  28.917  22.392  1.00  0.00     0.016 A 
ATOM     26  C   UNL A   1      30.047  30.438  24.244  1.00  0.00     0.016 A 
ATOM     27  C   UNL A   1      29.344  30.043  23.108  1.00  0.00     0.017 A 
ATOM     28  Br  UNL A   1      27.859  31.055  22.518  1.00  0.00    -0.051 Br
ENDBRANCH  21  22
ENDBRANCH  16  21
ENDBRANCH   8   9
ENDBRANCH   6   8
ENDBRANCH   5   6
ENDBRANCH   4   5
ENDBRANCH   3   4
ENDBRANCH   2   3
ENDBRANCH   1   2
BRANCH   1  29
ATOM     29  C   UNL A   1      40.164  20.706  26.062  1.00  0.00     0.188 C 
BRANCH  29  30
ATOM     30  O   UNL A   1      41.431  20.346  26.577  1.00  0.00    -0.376 OA
BRANCH  30  31
ATOM     31  C   UNL A   1      41.919  19.051  26.311  1.00  0.00     0.202 C 
BRANCH  31  32
ATOM     32  C   UNL A   1      43.344  18.848  25.754  1.00  0.00     0.261 C 
BRANCH  32  33
ATOM     33  O   UNL A   1      43.605  19.488  24.494  1.00  0.00    -0.460 OA
BRANCH  33  34
ATOM     34  C   UNL A   1      44.770  20.192  24.459  1.00  0.00     0.338 C 
ATOM     35  O   UNL A   1      45.757  19.917  23.789  1.00  0.00    -0.246 OA
BRANCH  34  36
ATOM     36  C   UNL A   1      44.530  21.526  25.060  1.00  0.00     0.060 A 
ATOM     37  C   UNL A   1      43.590  22.440  24.580  1.00  0.00     0.016 A 
ATOM     38  C   UNL A   1      45.392  21.902  26.092  1.00  0.00     0.016 A 
ATOM     39  C   UNL A   1      43.566  23.747  25.101  1.00  0.00     0.010 A 
ATOM     40  C   UNL A   1      45.415  23.214  26.560  1.00  0.00     0.010 A 
ATOM     41  C   UNL A   1      44.504  24.151  26.066  1.00  0.00    -0.014 A 
BRANCH  41  42
ATOM     42  C   UNL A   1      44.364  25.406  26.815  1.00  0.00     0.031 A 
ATOM     43  C   UNL A   1      45.424  26.383  26.530  1.00  0.00     0.074 A 
ATOM     44  C   UNL A   1      43.416  25.817  27.682  1.00  0.00     0.049 A 
ATOM     45  N   UNL A   1      46.501  26.478  27.236  1.00  0.00    -0.248 NA
ATOM     46  C   UNL A   1      45.356  27.268  25.369  1.00  0.00     0.031 C 
ATOM     47  C   UNL A   1      42.313  25.059  28.238  1.00  0.00     0.029 A 
ATOM     48  N   UNL A   1      43.222  27.061  28.226  1.00  0.00    -0.354 N 
ATOM     49  C   UNL A   1      47.133  27.608  26.769  1.00  0.00     0.074 A 
ATOM     50  C   UNL A   1      46.500  27.945  25.511  1.00  0.00     0.031 C 
ATOM     51  C   UNL A   1      41.418  25.888  28.827  1.00  0.00     0.029 A 
ATOM     52  C   UNL A   1      41.992  27.224  28.851  1.00  0.00     0.049 A 
ATOM     53  H   UNL A   1      43.896  27.777  28.178  1.00  0.00     0.167 HD
ATOM     54  C   UNL A   1      47.950  28.338  27.570  1.00  0.00     0.034 A 
ATOM     55  C   UNL A   1      41.601  28.231  29.667  1.00  0.00     0.034 A 
ATOM     56  C   UNL A   1      48.140  27.757  28.873  1.00  0.00     0.049 A 
ATOM     57  C   UNL A   1      42.814  28.639  30.406  1.00  0.00     0.074 A 
ATOM     58  C   UNL A   1      48.659  26.581  29.372  1.00  0.00     0.029 A 
ATOM     59  N   UNL A   1      47.378  28.306  29.877  1.00  0.00    -0.354 N 
ATOM     60  N   UNL A   1      43.393  27.904  31.314  1.00  0.00    -0.248 NA
ATOM     61  C   UNL A   1      43.565  29.806  29.970  1.00  0.00     0.031 C 
ATOM     62  C   UNL A   1      47.919  26.299  30.560  1.00  0.00     0.029 A 
ATOM     63  C   UNL A   1      46.979  27.315  30.737  1.00  0.00     0.049 A 
ATOM     64  H   UNL A   1      47.153  29.261  29.964  1.00  0.00     0.167 HD
ATOM     65  C   UNL A   1      44.730  28.254  31.228  1.00  0.00     0.074 A 
ATOM     66  C   UNL A   1      44.742  29.532  30.536  1.00  0.00     0.031 C 
ATOM     67  C   UNL A   1      45.714  27.336  31.451  1.00  0.00     0.034 A 
BRANCH  54  68
ATOM     68  C   UNL A   1      48.278  29.762  27.288  1.00  0.00     0.023 A 
ATOM     69  C   UNL A   1      49.626  30.135  27.158  1.00  0.00     0.012 A 
ATOM     70  C   UNL A   1      47.301  30.777  27.295  1.00  0.00     0.148 A 
ATOM     71  C   UNL A   1      49.981  31.475  26.975  1.00  0.00     0.002 A 
ATOM     72  C   UNL A   1      47.648  32.089  27.019  1.00  0.00     0.091 A 
ATOM     73  F   UNL A   1      46.046  30.475  27.662  1.00  0.00    -0.205 F 
ATOM     74  C   UNL A   1      48.989  32.448  26.870  1.00  0.00     0.022 A 
BRANCH  72  75
ATOM     75  S   UNL A   1      46.381  33.329  26.750  1.00  0.00     0.127 S 
ATOM     76  O   UNL A   1      45.684  32.793  25.586  1.00  0.00    -0.237 OA
ATOM     77  O   UNL A   1      45.629  33.277  28.004  1.00  0.00    -0.237 OA
ATOM     78  O   UNL A   1      47.121  34.570  26.553  1.00  0.00    -0.744 OA
ENDBRANCH  72  75
ENDBRANCH  54  68
BRANCH  55  79
ATOM     79  C   UNL A   1      40.330  28.992  29.732  1.00  0.00     0.023 A 
ATOM     80  C   UNL A   1      39.689  29.341  28.521  1.00  0.00     0.012 A 
ATOM     81  C   UNL A   1      39.601  29.154  30.930  1.00  0.00     0.148 A 
ATOM     82  C   UNL A   1      38.356  29.762  28.491  1.00  0.00     0.002 A 
ATOM     83  C   UNL A   1      38.271  29.584  30.897  1.00  0.00     0.091 A 
ATOM     84  F   UNL A   1      40.176  28.809  32.091  1.00  0.00    -0.205 F 
ATOM     85  C   UNL A   1      37.641  29.870  29.678  1.00  0.00     0.022 A 
BRANCH  83  86
ATOM     86  S   UNL A   1      37.300  29.776  32.401  1.00  0.00     0.127 S 
ATOM     87  O   UNL A   1      38.053  30.789  33.144  1.00  0.00    -0.237 OA
ATOM     88  O   UNL A   1      36.014  30.233  31.887  1.00  0.00    -0.237 OA
ATOM     89  O   UNL A   1      37.312  28.459  33.030  1.00  0.00    -0.744 OA
ENDBRANCH  83  86
ENDBRANCH  55  79
BRANCH  67  90
ATOM     90  C   UNL A   1      45.363  26.120  32.269  1.00  0.00     0.023 A 
ATOM     91  C   UNL A   1      44.749  24.984  31.705  1.00  0.00     0.012 A 
ATOM     92  C   UNL A   1      45.771  26.077  33.614  1.00  0.00     0.148 A 
ATOM     93  C   UNL A   1      44.531  23.835  32.471  1.00  0.00     0.002 A 
ATOM     94  C   UNL A   1      45.590  24.920  34.362  1.00  0.00     0.091 A 
ATOM     95  F   UNL A   1      46.349  27.171  34.135  1.00  0.00    -0.205 F 
ATOM     96  C   UNL A   1      44.964  23.799  33.795  1.00  0.00     0.022 A 
BRANCH  94  97
ATOM     97  S   UNL A   1      46.214  24.764  36.038  1.00  0.00     0.127 S 
ATOM     98  O   UNL A   1      45.210  25.492  36.811  1.00  0.00    -0.237 OA
ATOM     99  O   UNL A   1      46.207  23.314  36.240  1.00  0.00    -0.237 OA
ATOM    100  O   UNL A   1      47.546  25.357  36.030  1.00  0.00    -0.744 OA
ENDBRANCH  94  97
ENDBRANCH  67  90
ENDBRANCH  41  42
ENDBRANCH  34  36
ENDBRANCH  33  34
ENDBRANCH  32  33
ENDBRANCH  31  32
ENDBRANCH  30  31
ENDBRANCH  29  30
ENDBRANCH   1  29
TORSDOF 24
ENDMDL
MODEL 2
REMARK VINA RESULT:     -10.3      1.720      2.469
REMARK SMILES COc1ccc2c(c1)c(CC(=O)OCCOCCOCCOC(=O)c1ccc(-c3c4nc(c(-c5cccc(S(=O)(=O)[O-])c5F)c5ccc([nH]5)c(-c5cccc(S(=O)(=O)[O-])c5F)c5nc(c(-c6cccc(S(=O)(=O)[O-])c6F)c6ccc3[nH]6)C=C5)C=C4)cc1)c(C)n2Cc1ccc(Br)cc1
REMARK SMILES IDX 17 1 16 2 15 3 14 4 13 5 11 6 12 7 10 8 9 9 3 10 4 11 8 12
REMARK SMILES IDX 5 13 7 14 6 15 90 16 88 17 89 18 2 19 1 20 91 21 92 22 93 23
REMARK SMILES IDX 98 24 94 25 97 26 95 27 96 28 18 29 19 30 20 31 21 32 22 33
REMARK SMILES IDX 23 34 24 35 25 36 26 37 87 38 27 39 86 40 28 41 29 42 30 43
REMARK SMILES IDX 80 44 31 45 85 46 79 47 81 48 32 49 84 50 78 51 77 52 33 54
REMARK SMILES IDX 65 55 45 56 64 57 46 58 49 59 63 60 82 61 47 62 48 63 62 65
REMARK SMILES IDX 83 66 50 67 34 68 35 69 43 70 36 71 38 72 44 73 37 74 39 75
REMARK SMILES IDX 40 76 41 77 42 78 66 79 67 80 75 81 68 82 70 83 76 84 69 85
REMARK SMILES IDX 71 86 72 87 73 88 74 89 51 90 52 91 60 92 53 93 55 94 61 95
REMARK SMILES IDX 54 96 56 97 57 98 58 99 59 100
REMARK H PARENT 81 53 49 64
REMARK Flexibility Score: inf
ROOT
ATOM      1  C   UNL A   1      40.683  22.360  27.055  1.00  0.00     0.188 C 
ENDROOT
BRANCH   1   2
ATOM      2  O   UNL A   1      39.554  23.210  26.844  1.00  0.00    -0.376 OA
BRANCH   2   3
ATOM      3  C   UNL A   1      38.454  22.668  26.121  1.00  0.00     0.202 C 
BRANCH   3   4
ATOM      4  C   UNL A   1      37.333  23.673  25.844  1.00  0.00     0.261 C 
BRANCH   4   5
ATOM      5  O   UNL A   1      36.072  22.976  25.803  1.00  0.00    -0.463 OA
BRANCH   5   6
ATOM      6  C   UNL A   1      35.158  23.454  24.918  1.00  0.00     0.310 C 
ATOM      7  O   UNL A   1      35.055  23.039  23.770  1.00  0.00    -0.252 OA
BRANCH   6   8
ATOM      8  C   UNL A   1      34.147  24.354  25.602  1.00  0.00     0.160 C 
BRANCH   8   9
ATOM      9  C   UNL A   1      33.536  25.487  24.865  1.00  0.00    -0.008 A 
ATOM     10  C   UNL A   1      34.005  28.969  26.410  1.00  0.00     0.119 A 
ATOM     11  C   UNL A   1      33.083  29.618  25.601  1.00  0.00     0.048 A 
ATOM     12  C   UNL A   1      34.277  27.617  26.185  1.00  0.00     0.057 A 
ATOM     13  C   UNL A   1      32.440  28.934  24.552  1.00  0.00     0.031 A 
ATOM     14  C   UNL A   1      33.605  26.880  25.193  1.00  0.00     0.007 A 
ATOM     15  C   UNL A   1      32.701  27.562  24.378  1.00  0.00     0.049 A 
ATOM     16  N   UNL A   1      32.208  26.618  23.497  1.00  0.00    -0.340 N 
ATOM     17  C   UNL A   1      32.466  25.360  23.996  1.00  0.00     0.020 A 
ATOM     18  C   UNL A   1      31.664  24.137  23.687  1.00  0.00     0.065 C 
BRANCH  10  19
ATOM     19  O   UNL A   1      34.722  29.531  27.430  1.00  0.00    -0.497 OA
ATOM     20  C   UNL A   1      34.705  30.950  27.534  1.00  0.00     0.278 C 
ENDBRANCH  10  19
BRANCH  16  21
ATOM     21  C   UNL A   1      31.585  26.887  22.207  1.00  0.00     0.157 C 
BRANCH  21  22
ATOM     22  C   UNL A   1      30.489  27.923  22.396  1.00  0.00    -0.028 A 
ATOM     23  C   UNL A   1      30.622  29.209  21.846  1.00  0.00     0.007 A 
ATOM     24  C   UNL A   1      29.397  27.662  23.236  1.00  0.00     0.007 A 
ATOM     25  C   UNL A   1      29.719  30.225  22.164  1.00  0.00     0.016 A 
ATOM     26  C   UNL A   1      28.473  28.669  23.530  1.00  0.00     0.016 A 
ATOM     27  C   UNL A   1      28.647  29.948  23.006  1.00  0.00     0.017 A 
ATOM     28  Br  UNL A   1      27.432  31.325  23.456  1.00  0.00    -0.051 Br
ENDBRANCH  21  22
ENDBRANCH  16  21
ENDBRANCH   8   9
ENDBRANCH   6   8
ENDBRANCH   5   6
ENDBRANCH   4   5
ENDBRANCH   3   4
ENDBRANCH   2   3
ENDBRANCH   1   2
BRANCH   1  29
ATOM     29  C   UNL A   1      40.669  20.990  26.356  1.00  0.00     0.188 C 
BRANCH  29  30
ATOM     30  O   UNL A   1      41.769  20.232  26.819  1.00  0.00    -0.376 OA
BRANCH  30  31
ATOM     31  C   UNL A   1      42.056  19.009  26.181  1.00  0.00     0.202 C 
BRANCH  31  32
ATOM     32  C   UNL A   1      43.427  18.774  25.512  1.00  0.00     0.261 C 
BRANCH  32  33
ATOM     33  O   UNL A   1      43.680  19.567  24.340  1.00  0.00    -0.460 OA
BRANCH  33  34
ATOM     34  C   UNL A   1      44.851  20.261  24.380  1.00  0.00     0.338 C 
ATOM     35  O   UNL A   1      45.863  20.002  23.741  1.00  0.00    -0.246 OA
BRANCH  34  36
ATOM     36  C   UNL A   1      44.598  21.572  25.024  1.00  0.00     0.060 A 
ATOM     37  C   UNL A   1      43.693  22.517  24.538  1.00  0.00     0.016 A 
ATOM     38  C   UNL A   1      45.415  21.895  26.110  1.00  0.00     0.016 A 
ATOM     39  C   UNL A   1      43.659  23.802  25.110  1.00  0.00     0.010 A 
ATOM     40  C   UNL A   1      45.430  23.187  26.631  1.00  0.00     0.010 A 
ATOM     41  C   UNL A   1      44.555  24.154  26.133  1.00  0.00    -0.014 A 
BRANCH  41  42
ATOM     42  C   UNL A   1      44.394  25.380  26.926  1.00  0.00     0.031 A 
ATOM     43  C   UNL A   1      45.491  26.342  26.751  1.00  0.00     0.074 A 
ATOM     44  C   UNL A   1      43.401  25.778  27.747  1.00  0.00     0.049 A 
ATOM     45  N   UNL A   1      46.522  26.381  27.528  1.00  0.00    -0.248 NA
ATOM     46  C   UNL A   1      45.518  27.276  25.628  1.00  0.00     0.031 C 
ATOM     47  C   UNL A   1      42.248  25.024  28.198  1.00  0.00     0.029 A 
ATOM     48  N   UNL A   1      43.199  27.002  28.331  1.00  0.00    -0.354 N 
ATOM     49  C   UNL A   1      47.207  27.513  27.152  1.00  0.00     0.074 A 
ATOM     50  C   UNL A   1      46.665  27.918  25.872  1.00  0.00     0.031 C 
ATOM     51  C   UNL A   1      41.335  25.849  28.765  1.00  0.00     0.029 A 
ATOM     52  C   UNL A   1      41.934  27.169  28.883  1.00  0.00     0.049 A 
ATOM     53  H   UNL A   1      43.890  27.703  28.357  1.00  0.00     0.167 HD
ATOM     54  C   UNL A   1      47.986  28.189  28.035  1.00  0.00     0.034 A 
ATOM     55  C   UNL A   1      41.514  28.150  29.715  1.00  0.00     0.034 A 
ATOM     56  C   UNL A   1      48.079  27.549  29.321  1.00  0.00     0.049 A 
ATOM     57  C   UNL A   1      42.685  28.497  30.547  1.00  0.00     0.074 A 
ATOM     58  C   UNL A   1      48.538  26.341  29.801  1.00  0.00     0.029 A 
ATOM     59  N   UNL A   1      47.265  28.075  30.297  1.00  0.00    -0.354 N 
ATOM     60  N   UNL A   1      43.188  27.710  31.458  1.00  0.00    -0.248 NA
ATOM     61  C   UNL A   1      43.487  29.662  30.211  1.00  0.00     0.031 C 
ATOM     62  C   UNL A   1      47.717  26.029  30.925  1.00  0.00     0.029 A 
ATOM     63  C   UNL A   1      46.790  27.059  31.086  1.00  0.00     0.049 A 
ATOM     64  H   UNL A   1      47.055  29.031  30.411  1.00  0.00     0.167 HD
ATOM     65  C   UNL A   1      44.534  28.031  31.472  1.00  0.00     0.074 A 
ATOM     66  C   UNL A   1      44.619  29.336  30.838  1.00  0.00     0.031 C 
ATOM     67  C   UNL A   1      45.482  27.081  31.718  1.00  0.00     0.034 A 
BRANCH  54  68
ATOM     68  C   UNL A   1      48.363  29.616  27.836  1.00  0.00     0.023 A 
ATOM     69  C   UNL A   1      47.437  30.615  28.177  1.00  0.00     0.012 A 
ATOM     70  C   UNL A   1      49.549  29.998  27.182  1.00  0.00     0.148 A 
ATOM     71  C   UNL A   1      47.718  31.962  27.929  1.00  0.00     0.002 A 
ATOM     72  C   UNL A   1      49.866  31.338  27.025  1.00  0.00     0.091 A 
ATOM     73  F   UNL A   1      50.327  29.054  26.631  1.00  0.00    -0.205 F 
ATOM     74  C   UNL A   1      48.947  32.326  27.385  1.00  0.00     0.022 A 
BRANCH  72  75
ATOM     75  S   UNL A   1      51.492  31.829  26.451  1.00  0.00     0.127 S 
ATOM     76  O   UNL A   1      51.452  31.410  25.054  1.00  0.00    -0.237 OA
ATOM     77  O   UNL A   1      51.471  33.275  26.668  1.00  0.00    -0.237 OA
ATOM     78  O   UNL A   1      52.417  31.112  27.321  1.00  0.00    -0.744 OA
ENDBRANCH  72  75
ENDBRANCH  54  68
BRANCH  55  79
ATOM     79  C   UNL A   1      40.258  28.939  29.732  1.00  0.00     0.023 A 
ATOM     80  C   UNL A   1      39.641  29.252  28.499  1.00  0.00     0.012 A 
ATOM     81  C   UNL A   1      39.517  29.163  30.912  1.00  0.00     0.148 A 
ATOM     82  C   UNL A   1      38.317  29.698  28.434  1.00  0.00     0.002 A 
ATOM     83  C   UNL A   1      38.196  29.618  30.843  1.00  0.00     0.091 A 
ATOM     84  F   UNL A   1      40.069  28.853  32.094  1.00  0.00    -0.205 F 
ATOM     85  C   UNL A   1      37.588  29.868  29.605  1.00  0.00     0.022 A 
BRANCH  83  86
ATOM     86  S   UNL A   1      37.209  29.890  32.324  1.00  0.00     0.127 S 
ATOM     87  O   UNL A   1      35.961  30.432  31.785  1.00  0.00    -0.237 OA
ATOM     88  O   UNL A   1      37.097  28.543  32.875  1.00  0.00    -0.237 OA
ATOM     89  O   UNL A   1      37.972  30.849  33.118  1.00  0.00    -0.744 OA
ENDBRANCH  83  86
ENDBRANCH  55  79
BRANCH  67  90
ATOM     90  C   UNL A   1      45.052  25.840  32.458  1.00  0.00     0.023 A 
ATOM     91  C   UNL A   1      44.672  24.659  31.792  1.00  0.00     0.012 A 
ATOM     92  C   UNL A   1      45.149  25.831  33.861  1.00  0.00     0.148 A 
ATOM     93  C   UNL A   1      44.378  23.496  32.510  1.00  0.00     0.002 A 
ATOM     94  C   UNL A   1      44.895  24.663  34.570  1.00  0.00     0.091 A 
ATOM     95  F   UNL A   1      45.508  26.967  34.478  1.00  0.00    -0.205 F 
ATOM     96  C   UNL A   1      44.502  23.495  33.898  1.00  0.00     0.022 A 
BRANCH  94  97
ATOM     97  S   UNL A   1      45.137  24.558  36.346  1.00  0.00     0.127 S 
ATOM     98  O   UNL A   1      46.430  25.216  36.522  1.00  0.00    -0.237 OA
ATOM     99  O   UNL A   1      43.993  25.312  36.862  1.00  0.00    -0.237 OA
ATOM    100  O   UNL A   1      45.111  23.137  36.675  1.00  0.00    -0.744 OA
ENDBRANCH  94  97
ENDBRANCH  67  90
ENDBRANCH  41  42
ENDBRANCH  34  36
ENDBRANCH  33  34
ENDBRANCH  32  33
ENDBRANCH  31  32
ENDBRANCH  30  31
ENDBRANCH  29  30
ENDBRANCH   1  29
TORSDOF 24
ENDMDL
MODEL 3
REMARK VINA RESULT:      -9.9      3.200      4.518
REMARK SMILES COc1ccc2c(c1)c(CC(=O)OCCOCCOCCOC(=O)c1ccc(-c3c4nc(c(-c5cccc(S(=O)(=O)[O-])c5F)c5ccc([nH]5)c(-c5cccc(S(=O)(=O)[O-])c5F)c5nc(c(-c6cccc(S(=O)(=O)[O-])c6F)c6ccc3[nH]6)C=C5)C=C4)cc1)c(C)n2Cc1ccc(Br)cc1
REMARK SMILES IDX 17 1 16 2 15 3 14 4 13 5 11 6 12 7 10 8 9 9 3 10 4 11 8 12
REMARK SMILES IDX 5 13 7 14 6 15 90 16 88 17 89 18 2 19 1 20 91 21 92 22 93 23
REMARK SMILES IDX 98 24 94 25 97 26 95 27 96 28 18 29 19 30 20 31 21 32 22 33
REMARK SMILES IDX 23 34 24 35 25 36 26 37 87 38 27 39 86 40 28 41 29 42 30 43
REMARK SMILES IDX 80 44 31 45 85 46 79 47 81 48 32 49 84 50 78 51 77 52 33 54
REMARK SMILES IDX 65 55 45 56 64 57 46 58 49 59 63 60 82 61 47 62 48 63 62 65
REMARK SMILES IDX 83 66 50 67 34 68 35 69 43 70 36 71 38 72 44 73 37 74 39 75
REMARK SMILES IDX 40 76 41 77 42 78 66 79 67 80 75 81 68 82 70 83 76 84 69 85
REMARK SMILES IDX 71 86 72 87 73 88 74 89 51 90 52 91 60 92 53 93 55 94 61 95
REMARK SMILES IDX 54 96 56 97 57 98 58 99 59 100
REMARK H PARENT 81 53 49 64
REMARK Flexibility Score: inf
ROOT
ATOM      1  C   UNL A   1      37.458  22.982  25.178  1.00  0.00     0.188 C 
ENDROOT
BRANCH   1   2
ATOM      2  O   UNL A   1      36.188  22.720  25.777  1.00  0.00    -0.376 OA
BRANCH   2   3
ATOM      3  C   UNL A   1      35.835  21.358  25.995  1.00  0.00     0.202 C 
BRANCH   3   4
ATOM      4  C   UNL A   1      34.925  20.767  24.916  1.00  0.00     0.261 C 
BRANCH   4   5
ATOM      5  O   UNL A   1      34.295  21.840  24.188  1.00  0.00    -0.463 OA
BRANCH   5   6
ATOM      6  C   UNL A   1      33.100  21.545  23.611  1.00  0.00     0.310 C 
ATOM      7  O   UNL A   1      32.422  20.577  23.932  1.00  0.00    -0.252 OA
BRANCH   6   8
ATOM      8  C   UNL A   1      32.618  22.682  22.731  1.00  0.00     0.160 C 
BRANCH   8   9
ATOM      9  C   UNL A   1      32.437  24.040  23.297  1.00  0.00    -0.008 A 
ATOM     10  C   UNL A   1      30.452  24.265  26.574  1.00  0.00     0.119 A 
ATOM     11  C   UNL A   1      30.297  25.643  26.562  1.00  0.00     0.048 A 
ATOM     12  C   UNL A   1      31.214  23.656  25.574  1.00  0.00     0.057 A 
ATOM     13  C   UNL A   1      30.913  26.428  25.569  1.00  0.00     0.031 A 
ATOM     14  C   UNL A   1      31.788  24.395  24.524  1.00  0.00     0.007 A 
ATOM     15  C   UNL A   1      31.637  25.782  24.549  1.00  0.00     0.049 A 
ATOM     16  N   UNL A   1      32.301  26.250  23.431  1.00  0.00    -0.340 N 
ATOM     17  C   UNL A   1      32.489  25.205  22.551  1.00  0.00     0.020 A 
ATOM     18  C   UNL A   1      32.637  25.350  21.071  1.00  0.00     0.065 C 
BRANCH  10  19
ATOM     19  O   UNL A   1      29.941  23.402  27.505  1.00  0.00    -0.497 OA
ATOM     20  C   UNL A   1      29.047  22.397  27.040  1.00  0.00     0.278 C 
ENDBRANCH  10  19
BRANCH  16  21
ATOM     21  C   UNL A   1      32.801  27.604  23.229  1.00  0.00     0.157 C 
BRANCH  21  22
ATOM     22  C   UNL A   1      31.623  28.563  23.196  1.00  0.00    -0.028 A 
ATOM     23  C   UNL A   1      31.476  29.545  24.190  1.00  0.00     0.007 A 
ATOM     24  C   UNL A   1      30.592  28.396  22.259  1.00  0.00     0.007 A 
ATOM     25  C   UNL A   1      30.310  30.308  24.280  1.00  0.00     0.016 A 
ATOM     26  C   UNL A   1      29.438  29.181  22.328  1.00  0.00     0.016 A 
ATOM     27  C   UNL A   1      29.296  30.122  23.347  1.00  0.00     0.017 A 
ATOM     28  Br  UNL A   1      27.708  31.139  23.478  1.00  0.00    -0.051 Br
ENDBRANCH  21  22
ENDBRANCH  16  21
ENDBRANCH   8   9
ENDBRANCH   6   8
ENDBRANCH   5   6
ENDBRANCH   4   5
ENDBRANCH   3   4
ENDBRANCH   2   3
ENDBRANCH   1   2
BRANCH   1  29
ATOM     29  C   UNL A   1      38.672  23.065  26.117  1.00  0.00     0.188 C 
BRANCH  29  30
ATOM     30  O   UNL A   1      39.395  21.852  26.036  1.00  0.00    -0.376 OA
BRANCH  30  31
ATOM     31  C   UNL A   1      40.755  21.856  26.404  1.00  0.00     0.202 C 
BRANCH  31  32
ATOM     32  C   UNL A   1      41.671  23.036  26.014  1.00  0.00     0.261 C 
BRANCH  32  33
ATOM     33  O   UNL A   1      42.805  23.240  26.874  1.00  0.00    -0.460 OA
BRANCH  33  34
ATOM     34  C   UNL A   1      42.482  23.448  28.180  1.00  0.00     0.338 C 
ATOM     35  O   UNL A   1      42.659  22.659  29.099  1.00  0.00    -0.246 OA
BRANCH  34  36
ATOM     36  C   UNL A   1      42.229  24.895  28.376  1.00  0.00     0.060 A 
ATOM     37  C   UNL A   1      41.398  25.660  27.555  1.00  0.00     0.016 A 
ATOM     38  C   UNL A   1      42.971  25.523  29.379  1.00  0.00     0.016 A 
ATOM     39  C   UNL A   1      41.367  27.058  27.709  1.00  0.00     0.010 A 
ATOM     40  C   UNL A   1      42.993  26.911  29.488  1.00  0.00     0.010 A 
ATOM     41  C   UNL A   1      42.194  27.693  28.651  1.00  0.00    -0.014 A 
BRANCH  41  42
ATOM     42  C   UNL A   1      42.018  29.103  29.022  1.00  0.00     0.031 A 
ATOM     43  C   UNL A   1      43.050  29.991  28.470  1.00  0.00     0.074 A 
ATOM     44  C   UNL A   1      41.057  29.713  29.745  1.00  0.00     0.049 A 
ATOM     45  N   UNL A   1      44.123  30.308  29.115  1.00  0.00    -0.248 NA
ATOM     46  C   UNL A   1      42.961  30.515  27.109  1.00  0.00     0.031 C 
ATOM     47  C   UNL A   1      39.974  29.109  30.496  1.00  0.00     0.029 A 
ATOM     48  N   UNL A   1      40.826  31.053  29.922  1.00  0.00    -0.354 N 
ATOM     49  C   UNL A   1      44.724  31.279  28.349  1.00  0.00     0.074 A 
ATOM     50  C   UNL A   1      44.085  31.236  27.051  1.00  0.00     0.031 C 
ATOM     51  C   UNL A   1      39.055  30.045  30.837  1.00  0.00     0.029 A 
ATOM     52  C   UNL A   1      39.591  31.350  30.484  1.00  0.00     0.049 A 
ATOM     53  H   UNL A   1      41.481  31.746  29.673  1.00  0.00     0.167 HD
ATOM     54  C   UNL A   1      45.519  32.226  28.911  1.00  0.00     0.034 A 
ATOM     55  C   UNL A   1      39.171  32.533  30.990  1.00  0.00     0.034 A 
ATOM     56  C   UNL A   1      45.723  32.036  30.323  1.00  0.00     0.049 A 
ATOM     57  C   UNL A   1      40.370  33.164  31.580  1.00  0.00     0.074 A 
ATOM     58  C   UNL A   1      46.272  31.060  31.127  1.00  0.00     0.029 A 
ATOM     59  N   UNL A   1      44.943  32.822  31.138  1.00  0.00    -0.354 N 
ATOM     60  N   UNL A   1      40.968  32.727  32.653  1.00  0.00    -0.248 NA
ATOM     61  C   UNL A   1      41.089  34.183  30.832  1.00  0.00     0.031 C 
ATOM     62  C   UNL A   1      45.538  31.100  32.350  1.00  0.00     0.029 A 
ATOM     63  C   UNL A   1      44.570  32.099  32.243  1.00  0.00     0.049 A 
ATOM     64  H   UNL A   1      44.691  33.757  30.957  1.00  0.00     0.167 HD
ATOM     65  C   UNL A   1      42.294  33.075  32.466  1.00  0.00     0.074 A 
ATOM     66  C   UNL A   1      42.272  34.110  31.445  1.00  0.00     0.031 C 
ATOM     67  C   UNL A   1      43.303  32.283  32.930  1.00  0.00     0.034 A 
BRANCH  54  68
ATOM     68  C   UNL A   1      45.808  33.524  28.242  1.00  0.00     0.023 A 
ATOM     69  C   UNL A   1      47.113  33.780  27.791  1.00  0.00     0.012 A 
ATOM     70  C   UNL A   1      44.862  34.565  28.176  1.00  0.00     0.148 A 
ATOM     71  C   UNL A   1      47.446  35.017  27.232  1.00  0.00     0.002 A 
ATOM     72  C   UNL A   1      45.169  35.755  27.536  1.00  0.00     0.091 A 
ATOM     73  F   UNL A   1      43.692  34.430  28.818  1.00  0.00    -0.205 F 
ATOM     74  C   UNL A   1      46.465  35.993  27.072  1.00  0.00     0.022 A 
BRANCH  72  75
ATOM     75  S   UNL A   1      43.890  36.967  27.203  1.00  0.00     0.127 S 
ATOM     76  O   UNL A   1      44.665  38.070  26.645  1.00  0.00    -0.237 OA
ATOM     77  O   UNL A   1      43.037  36.260  26.249  1.00  0.00    -0.237 OA
ATOM     78  O   UNL A   1      43.264  37.200  28.500  1.00  0.00    -0.744 OA
ENDBRANCH  72  75
ENDBRANCH  54  68
BRANCH  55  79
ATOM     79  C   UNL A   1      37.879  33.248  30.848  1.00  0.00     0.023 A 
ATOM     80  C   UNL A   1      37.322  33.386  29.556  1.00  0.00     0.012 A 
ATOM     81  C   UNL A   1      37.058  33.560  31.953  1.00  0.00     0.148 A 
ATOM     82  C   UNL A   1      35.984  33.747  29.368  1.00  0.00     0.002 A 
ATOM     83  C   UNL A   1      35.723  33.931  31.761  1.00  0.00     0.091 A 
ATOM     84  F   UNL A   1      37.552  33.416  33.191  1.00  0.00    -0.205 F 
ATOM     85  C   UNL A   1      35.179  34.006  30.470  1.00  0.00     0.022 A 
BRANCH  83  86
ATOM     86  S   UNL A   1      34.636  34.311  33.145  1.00  0.00     0.127 S 
ATOM     87  O   UNL A   1      35.274  35.486  33.742  1.00  0.00    -0.237 OA
ATOM     88  O   UNL A   1      33.367  34.582  32.480  1.00  0.00    -0.237 OA
ATOM     89  O   UNL A   1      34.678  33.125  33.996  1.00  0.00    -0.744 OA
ENDBRANCH  83  86
ENDBRANCH  55  79
BRANCH  67  90
ATOM     90  C   UNL A   1      42.984  31.334  34.056  1.00  0.00     0.023 A 
ATOM     91  C   UNL A   1      42.985  31.738  35.405  1.00  0.00     0.012 A 
ATOM     92  C   UNL A   1      42.556  30.034  33.734  1.00  0.00     0.148 A 
ATOM     93  C   UNL A   1      42.584  30.858  36.415  1.00  0.00     0.002 A 
ATOM     94  C   UNL A   1      42.119  29.175  34.735  1.00  0.00     0.091 A 
ATOM     95  F   UNL A   1      42.567  29.665  32.443  1.00  0.00    -0.205 F 
ATOM     96  C   UNL A   1      42.139  29.581  36.078  1.00  0.00     0.022 A 
BRANCH  94  97
ATOM     97  S   UNL A   1      41.435  27.556  34.368  1.00  0.00     0.127 S 
ATOM     98  O   UNL A   1      42.526  26.919  33.633  1.00  0.00    -0.237 OA
ATOM     99  O   UNL A   1      41.195  27.007  35.703  1.00  0.00    -0.237 OA
ATOM    100  O   UNL A   1      40.221  27.796  33.596  1.00  0.00    -0.744 OA
ENDBRANCH  94  97
ENDBRANCH  67  90
ENDBRANCH  41  42
ENDBRANCH  34  36
ENDBRANCH  33  34
ENDBRANCH  32  33
ENDBRANCH  31  32
ENDBRANCH  30  31
ENDBRANCH  29  30
ENDBRANCH   1  29
TORSDOF 24
ENDMDL
