MODEL 1
REMARK VINA RESULT:     -10.1      0.000      0.000
REMARK SMILES O=C(CC1=c2ccccc2=NC1)OCCOCCOCCOC(=O)c1ccc(-c2c3nc(c(-c4cccc(S(=O)(=O)[O-])c4F)c4ccc([nH]4)c(-c4cccc(S(=O)(=O)[O-])c4F)c4nc(c(-c5cccc(S(=O)(=O)[O-])c5F)c5ccc2[nH]5)C=C4)C=C3)cc1
REMARK SMILES IDX 18 1 17 2 16 3 15 4 14 5 13 6 2 7 1 8 3 9 4 10 5 11 12 12
REMARK SMILES IDX 6 13 10 14 11 15 7 16 9 17 8 18 19 19 20 20 21 21 22 22
REMARK SMILES IDX 23 23 24 24 25 25 26 26 87 27 27 28 86 29 28 30 29 31 30 32
REMARK SMILES IDX 80 33 31 34 85 35 79 36 81 37 32 38 84 39 78 40 77 41 33 43
REMARK SMILES IDX 65 44 45 45 64 46 46 47 49 48 63 49 82 50 47 51 48 52 62 54
REMARK SMILES IDX 83 55 50 56 34 57 35 58 43 59 36 60 38 61 44 62 37 63 39 64
REMARK SMILES IDX 40 65 41 66 42 67 66 68 67 69 75 70 68 71 70 72 76 73 69 74
REMARK SMILES IDX 71 75 72 76 73 77 74 78 51 79 52 80 60 81 53 82 55 83 61 84
REMARK SMILES IDX 54 85 56 86 57 87 58 88 59 89
REMARK H PARENT 81 42 49 53
REMARK Flexibility Score: inf
ROOT
ATOM      1  C   UNL A   1      35.981  21.062  24.998  1.00  0.00     0.188 C 
ENDROOT
BRANCH   1   2
ATOM      2  C   UNL A   1      34.717  21.076  25.873  1.00  0.00     0.188 C 
BRANCH   2   3
ATOM      3  O   UNL A   1      33.533  21.373  25.152  1.00  0.00    -0.376 OA
BRANCH   3   4
ATOM      4  C   UNL A   1      33.671  22.324  24.117  1.00  0.00     0.202 C 
BRANCH   4   5
ATOM      5  C   UNL A   1      32.675  23.462  24.273  1.00  0.00     0.261 C 
BRANCH   5   6
ATOM      6  O   UNL A   1      32.601  24.073  25.585  1.00  0.00    -0.463 OA
BRANCH   6   7
ATOM      7  C   UNL A   1      31.573  24.214  26.448  1.00  0.00     0.310 C 
ATOM      8  O   UNL A   1      31.594  23.577  27.501  1.00  0.00    -0.252 OA
BRANCH   7   9
ATOM      9  C   UNL A   1      30.371  25.076  26.102  1.00  0.00     0.156 C 
BRANCH   9  10
ATOM     10  C   UNL A   1      30.652  26.372  25.434  1.00  0.00    -0.028 C 
ATOM     11  C   UNL A   1      31.174  27.481  25.949  1.00  0.00     0.001 A 
ATOM     12  C   UNL A   1      30.396  26.536  23.965  1.00  0.00     0.175 C 
ATOM     13  C   UNL A   1      31.625  27.879  27.244  1.00  0.00     0.010 A 
ATOM     14  C   UNL A   1      31.363  28.324  24.759  1.00  0.00     0.065 A 
ATOM     15  N   UNL A   1      30.976  27.852  23.615  1.00  0.00    -0.280 NA
ATOM     16  C   UNL A   1      32.258  29.055  27.366  1.00  0.00     0.001 A 
ATOM     17  C   UNL A   1      32.038  29.618  24.983  1.00  0.00     0.028 A 
ATOM     18  C   UNL A   1      32.458  29.929  26.222  1.00  0.00     0.002 A 
ENDBRANCH   9  10
ENDBRANCH   7   9
ENDBRANCH   6   7
ENDBRANCH   5   6
ENDBRANCH   4   5
ENDBRANCH   3   4
ENDBRANCH   2   3
ENDBRANCH   1   2
BRANCH   1  19
ATOM     19  O   UNL A   1      36.899  19.979  25.084  1.00  0.00    -0.376 OA
BRANCH  19  20
ATOM     20  C   UNL A   1      38.289  20.220  24.947  1.00  0.00     0.202 C 
BRANCH  20  21
ATOM     21  C   UNL A   1      39.238  19.386  25.816  1.00  0.00     0.261 C 
BRANCH  21  22
ATOM     22  O   UNL A   1      40.635  19.687  25.652  1.00  0.00    -0.460 OA
BRANCH  22  23
ATOM     23  C   UNL A   1      41.353  19.863  26.798  1.00  0.00     0.338 C 
ATOM     24  O   UNL A   1      41.902  19.007  27.449  1.00  0.00    -0.246 OA
BRANCH  23  25
ATOM     25  C   UNL A   1      41.523  21.324  27.046  1.00  0.00     0.060 A 
ATOM     26  C   UNL A   1      41.822  21.816  28.317  1.00  0.00     0.016 A 
ATOM     27  C   UNL A   1      41.366  22.212  25.972  1.00  0.00     0.016 A 
ATOM     28  C   UNL A   1      41.993  23.195  28.504  1.00  0.00     0.010 A 
ATOM     29  C   UNL A   1      41.521  23.592  26.165  1.00  0.00     0.010 A 
ATOM     30  C   UNL A   1      41.857  24.095  27.430  1.00  0.00    -0.014 A 
BRANCH  30  31
ATOM     31  C   UNL A   1      42.257  25.517  27.602  1.00  0.00     0.031 A 
ATOM     32  C   UNL A   1      41.368  26.544  28.242  1.00  0.00     0.074 A 
ATOM     33  C   UNL A   1      43.476  25.888  27.166  1.00  0.00     0.049 A 
ATOM     34  N   UNL A   1      41.649  27.782  28.563  1.00  0.00    -0.248 NA
ATOM     35  C   UNL A   1      39.993  26.136  28.557  1.00  0.00     0.031 C 
ATOM     36  C   UNL A   1      44.418  25.005  26.476  1.00  0.00     0.029 A 
ATOM     37  N   UNL A   1      44.132  27.091  27.238  1.00  0.00    -0.354 N 
ATOM     38  C   UNL A   1      40.497  28.304  29.136  1.00  0.00     0.074 A 
ATOM     39  C   UNL A   1      39.498  27.252  29.086  1.00  0.00     0.031 C 
ATOM     40  C   UNL A   1      45.539  25.689  26.207  1.00  0.00     0.029 A 
ATOM     41  C   UNL A   1      45.394  27.060  26.696  1.00  0.00     0.049 A 
ATOM     42  H   UNL A   1      43.737  27.898  27.640  1.00  0.00     0.167 HD
ATOM     43  C   UNL A   1      40.299  29.530  29.679  1.00  0.00     0.034 A 
ATOM     44  C   UNL A   1      46.342  28.012  26.611  1.00  0.00     0.034 A 
ATOM     45  C   UNL A   1      41.283  30.583  29.719  1.00  0.00     0.049 A 
ATOM     46  C   UNL A   1      46.099  29.367  27.207  1.00  0.00     0.074 A 
ATOM     47  C   UNL A   1      41.173  31.842  30.289  1.00  0.00     0.029 A 
ATOM     48  N   UNL A   1      42.551  30.514  29.161  1.00  0.00    -0.354 N 
ATOM     49  N   UNL A   1      45.051  29.798  27.861  1.00  0.00    -0.248 NA
ATOM     50  C   UNL A   1      47.180  30.356  27.078  1.00  0.00     0.031 C 
ATOM     51  C   UNL A   1      42.365  32.538  30.061  1.00  0.00     0.029 A 
ATOM     52  C   UNL A   1      43.227  31.708  29.363  1.00  0.00     0.049 A 
ATOM     53  H   UNL A   1      42.916  29.732  28.688  1.00  0.00     0.167 HD
ATOM     54  C   UNL A   1      45.343  31.105  28.230  1.00  0.00     0.074 A 
ATOM     55  C   UNL A   1      46.679  31.389  27.746  1.00  0.00     0.031 C 
ATOM     56  C   UNL A   1      44.563  31.989  28.900  1.00  0.00     0.034 A 
BRANCH  43  57
ATOM     57  C   UNL A   1      38.977  29.789  30.354  1.00  0.00     0.023 A 
ATOM     58  C   UNL A   1      38.752  29.241  31.633  1.00  0.00     0.012 A 
ATOM     59  C   UNL A   1      38.005  30.634  29.783  1.00  0.00     0.148 A 
ATOM     60  C   UNL A   1      37.574  29.511  32.326  1.00  0.00     0.002 A 
ATOM     61  C   UNL A   1      36.842  30.921  30.493  1.00  0.00     0.091 A 
ATOM     62  F   UNL A   1      38.234  31.139  28.563  1.00  0.00    -0.205 F 
ATOM     63  C   UNL A   1      36.624  30.356  31.761  1.00  0.00     0.022 A 
BRANCH  61  64
ATOM     64  S   UNL A   1      35.574  32.035  29.877  1.00  0.00     0.127 S 
ATOM     65  O   UNL A   1      34.703  32.160  31.045  1.00  0.00    -0.237 OA
ATOM     66  O   UNL A   1      36.346  33.236  29.559  1.00  0.00    -0.237 OA
ATOM     67  O   UNL A   1      34.979  31.370  28.726  1.00  0.00    -0.744 OA
ENDBRANCH  61  64
ENDBRANCH  43  57
BRANCH  44  68
ATOM     68  C   UNL A   1      47.646  27.654  25.996  1.00  0.00     0.023 A 
ATOM     69  C   UNL A   1      48.640  27.060  26.795  1.00  0.00     0.012 A 
ATOM     70  C   UNL A   1      47.848  27.773  24.608  1.00  0.00     0.148 A 
ATOM     71  C   UNL A   1      49.816  26.580  26.219  1.00  0.00     0.002 A 
ATOM     72  C   UNL A   1      49.003  27.258  24.035  1.00  0.00     0.091 A 
ATOM     73  F   UNL A   1      46.876  28.334  23.874  1.00  0.00    -0.205 F 
ATOM     74  C   UNL A   1      49.992  26.667  24.839  1.00  0.00     0.022 A 
BRANCH  72  75
ATOM     75  S   UNL A   1      49.273  27.223  22.260  1.00  0.00     0.127 S 
ATOM     76  O   UNL A   1      48.457  26.079  21.857  1.00  0.00    -0.237 OA
ATOM     77  O   UNL A   1      48.749  28.527  21.858  1.00  0.00    -0.237 OA
ATOM     78  O   UNL A   1      50.707  27.053  22.078  1.00  0.00    -0.744 OA
ENDBRANCH  72  75
ENDBRANCH  44  68
BRANCH  56  79
ATOM     79  C   UNL A   1      45.112  33.371  29.139  1.00  0.00     0.023 A 
ATOM     80  C   UNL A   1      45.863  33.622  30.305  1.00  0.00     0.012 A 
ATOM     81  C   UNL A   1      44.967  34.391  28.177  1.00  0.00     0.148 A 
ATOM     82  C   UNL A   1      46.452  34.869  30.516  1.00  0.00     0.002 A 
ATOM     83  C   UNL A   1      45.581  35.622  28.380  1.00  0.00     0.091 A 
ATOM     84  F   UNL A   1      44.238  34.134  27.081  1.00  0.00    -0.205 F 
ATOM     85  C   UNL A   1      46.319  35.865  29.550  1.00  0.00     0.022 A 
BRANCH  83  86
ATOM     86  S   UNL A   1      45.523  36.951  27.170  1.00  0.00     0.127 S 
ATOM     87  O   UNL A   1      46.170  38.043  27.896  1.00  0.00    -0.237 OA
ATOM     88  O   UNL A   1      46.312  36.399  26.068  1.00  0.00    -0.237 OA
ATOM     89  O   UNL A   1      44.114  37.158  26.866  1.00  0.00    -0.744 OA
ENDBRANCH  83  86
ENDBRANCH  56  79
ENDBRANCH  30  31
ENDBRANCH  23  25
ENDBRANCH  22  23
ENDBRANCH  21  22
ENDBRANCH  20  21
ENDBRANCH  19  20
ENDBRANCH   1  19
TORSDOF 21
ENDMDL
MODEL 2
REMARK VINA RESULT:      -9.8      5.496      8.543
REMARK SMILES O=C(CC1=c2ccccc2=NC1)OCCOCCOCCOC(=O)c1ccc(-c2c3nc(c(-c4cccc(S(=O)(=O)[O-])c4F)c4ccc([nH]4)c(-c4cccc(S(=O)(=O)[O-])c4F)c4nc(c(-c5cccc(S(=O)(=O)[O-])c5F)c5ccc2[nH]5)C=C4)C=C3)cc1
REMARK SMILES IDX 18 1 17 2 16 3 15 4 14 5 13 6 2 7 1 8 3 9 4 10 5 11 12 12
REMARK SMILES IDX 6 13 10 14 11 15 7 16 9 17 8 18 19 19 20 20 21 21 22 22
REMARK SMILES IDX 23 23 24 24 25 25 26 26 87 27 27 28 86 29 28 30 29 31 30 32
REMARK SMILES IDX 80 33 31 34 85 35 79 36 81 37 32 38 84 39 78 40 77 41 33 43
REMARK SMILES IDX 65 44 45 45 64 46 46 47 49 48 63 49 82 50 47 51 48 52 62 54
REMARK SMILES IDX 83 55 50 56 34 57 35 58 43 59 36 60 38 61 44 62 37 63 39 64
REMARK SMILES IDX 40 65 41 66 42 67 66 68 67 69 75 70 68 71 70 72 76 73 69 74
REMARK SMILES IDX 71 75 72 76 73 77 74 78 51 79 52 80 60 81 53 82 55 83 61 84
REMARK SMILES IDX 54 85 56 86 57 87 58 88 59 89
REMARK H PARENT 81 42 49 53
REMARK Flexibility Score: inf
ROOT
ATOM      1  C   UNL A   1      31.179  28.611  23.118  1.00  0.00     0.188 C 
ENDROOT
BRANCH   1   2
ATOM      2  C   UNL A   1      30.726  27.330  22.399  1.00  0.00     0.188 C 
BRANCH   2   3
ATOM      3  O   UNL A   1      31.191  26.141  23.015  1.00  0.00    -0.376 OA
BRANCH   3   4
ATOM      4  C   UNL A   1      31.358  26.204  24.416  1.00  0.00     0.202 C 
BRANCH   4   5
ATOM      5  C   UNL A   1      30.169  25.596  25.144  1.00  0.00     0.261 C 
BRANCH   5   6
ATOM      6  O   UNL A   1      30.468  24.867  26.360  1.00  0.00    -0.463 OA
BRANCH   6   7
ATOM      7  C   UNL A   1      30.280  23.572  26.694  1.00  0.00     0.310 C 
ATOM      8  O   UNL A   1      29.506  23.306  27.613  1.00  0.00    -0.252 OA
BRANCH   7   9
ATOM      9  C   UNL A   1      31.062  22.464  26.008  1.00  0.00     0.156 C 
BRANCH   9  10
ATOM     10  C   UNL A   1      32.540  22.515  26.137  1.00  0.00    -0.028 C 
ATOM     11  C   UNL A   1      33.454  22.698  25.189  1.00  0.00     0.001 A 
ATOM     12  C   UNL A   1      33.185  22.407  27.486  1.00  0.00     0.175 C 
ATOM     13  C   UNL A   1      33.421  22.883  23.774  1.00  0.00     0.010 A 
ATOM     14  C   UNL A   1      34.695  22.828  25.967  1.00  0.00     0.065 A 
ATOM     15  N   UNL A   1      34.617  22.703  27.255  1.00  0.00    -0.280 NA
ATOM     16  C   UNL A   1      34.560  23.206  23.144  1.00  0.00     0.001 A 
ATOM     17  C   UNL A   1      35.913  23.152  25.196  1.00  0.00     0.028 A 
ATOM     18  C   UNL A   1      35.813  23.334  23.868  1.00  0.00     0.002 A 
ENDBRANCH   9  10
ENDBRANCH   7   9
ENDBRANCH   6   7
ENDBRANCH   5   6
ENDBRANCH   4   5
ENDBRANCH   3   4
ENDBRANCH   2   3
ENDBRANCH   1   2
BRANCH   1  19
ATOM     19  O   UNL A   1      30.216  29.549  23.582  1.00  0.00    -0.376 OA
BRANCH  19  20
ATOM     20  C   UNL A   1      30.575  30.497  24.574  1.00  0.00     0.202 C 
BRANCH  20  21
ATOM     21  C   UNL A   1      31.396  29.992  25.766  1.00  0.00     0.261 C 
BRANCH  21  22
ATOM     22  O   UNL A   1      32.713  30.561  25.881  1.00  0.00    -0.460 OA
BRANCH  22  23
ATOM     23  C   UNL A   1      32.870  31.533  26.825  1.00  0.00     0.338 C 
ATOM     24  O   UNL A   1      32.125  32.456  27.045  1.00  0.00    -0.246 OA
BRANCH  23  25
ATOM     25  C   UNL A   1      34.034  31.186  27.691  1.00  0.00     0.060 A 
ATOM     26  C   UNL A   1      34.429  29.861  27.880  1.00  0.00     0.016 A 
ATOM     27  C   UNL A   1      34.730  32.221  28.331  1.00  0.00     0.016 A 
ATOM     28  C   UNL A   1      35.541  29.578  28.687  1.00  0.00     0.010 A 
ATOM     29  C   UNL A   1      35.831  31.934  29.150  1.00  0.00     0.010 A 
ATOM     30  C   UNL A   1      36.259  30.610  29.319  1.00  0.00    -0.014 A 
BRANCH  30  31
ATOM     31  C   UNL A   1      37.556  30.308  29.983  1.00  0.00     0.031 A 
ATOM     32  C   UNL A   1      37.907  30.809  31.354  1.00  0.00     0.074 A 
ATOM     33  C   UNL A   1      38.445  29.546  29.318  1.00  0.00     0.049 A 
ATOM     34  N   UNL A   1      38.947  30.512  32.091  1.00  0.00    -0.248 NA
ATOM     35  C   UNL A   1      36.980  31.764  31.977  1.00  0.00     0.031 C 
ATOM     36  C   UNL A   1      38.255  29.040  27.958  1.00  0.00     0.029 A 
ATOM     37  N   UNL A   1      39.674  29.062  29.689  1.00  0.00    -0.354 N 
ATOM     38  C   UNL A   1      38.801  31.226  33.273  1.00  0.00     0.074 A 
ATOM     39  C   UNL A   1      37.581  31.999  33.140  1.00  0.00     0.031 C 
ATOM     40  C   UNL A   1      39.319  28.300  27.616  1.00  0.00     0.029 A 
ATOM     41  C   UNL A   1      40.270  28.284  28.726  1.00  0.00     0.049 A 
ATOM     42  H   UNL A   1      40.088  29.254  30.562  1.00  0.00     0.167 HD
ATOM     43  C   UNL A   1      39.590  31.214  34.376  1.00  0.00     0.034 A 
ATOM     44  C   UNL A   1      41.439  27.615  28.731  1.00  0.00     0.034 A 
ATOM     45  C   UNL A   1      40.810  30.456  34.509  1.00  0.00     0.049 A 
ATOM     46  C   UNL A   1      42.303  27.625  29.956  1.00  0.00     0.074 A 
ATOM     47  C   UNL A   1      41.645  30.360  35.611  1.00  0.00     0.029 A 
ATOM     48  N   UNL A   1      41.381  29.679  33.513  1.00  0.00    -0.354 N 
ATOM     49  N   UNL A   1      42.081  28.199  31.111  1.00  0.00    -0.248 NA
ATOM     50  C   UNL A   1      43.564  26.871  29.888  1.00  0.00     0.031 C 
ATOM     51  C   UNL A   1      42.727  29.538  35.276  1.00  0.00     0.029 A 
ATOM     52  C   UNL A   1      42.560  29.108  33.970  1.00  0.00     0.049 A 
ATOM     53  H   UNL A   1      41.005  29.553  32.612  1.00  0.00     0.167 HD
ATOM     54  C   UNL A   1      43.167  27.873  31.913  1.00  0.00     0.074 A 
ATOM     55  C   UNL A   1      44.038  27.030  31.118  1.00  0.00     0.031 C 
ATOM     56  C   UNL A   1      43.420  28.254  33.191  1.00  0.00     0.034 A 
BRANCH  43  57
ATOM     57  C   UNL A   1      39.120  31.992  35.578  1.00  0.00     0.023 A 
ATOM     58  C   UNL A   1      39.364  33.380  35.622  1.00  0.00     0.012 A 
ATOM     59  C   UNL A   1      38.367  31.389  36.605  1.00  0.00     0.148 A 
ATOM     60  C   UNL A   1      38.887  34.153  36.679  1.00  0.00     0.002 A 
ATOM     61  C   UNL A   1      37.871  32.172  37.643  1.00  0.00     0.091 A 
ATOM     62  F   UNL A   1      38.153  30.067  36.548  1.00  0.00    -0.205 F 
ATOM     63  C   UNL A   1      38.134  33.552  37.683  1.00  0.00     0.022 A 
BRANCH  61  64
ATOM     64  S   UNL A   1      36.849  31.507  38.964  1.00  0.00     0.127 S 
ATOM     65  O   UNL A   1      37.750  31.615  40.111  1.00  0.00    -0.237 OA
ATOM     66  O   UNL A   1      35.722  32.439  38.981  1.00  0.00    -0.237 OA
ATOM     67  O   UNL A   1      36.512  30.148  38.564  1.00  0.00    -0.744 OA
ENDBRANCH  61  64
ENDBRANCH  43  57
BRANCH  44  68
ATOM     68  C   UNL A   1      41.793  26.811  27.533  1.00  0.00     0.023 A 
ATOM     69  C   UNL A   1      42.443  27.438  26.455  1.00  0.00     0.012 A 
ATOM     70  C   UNL A   1      41.612  25.415  27.520  1.00  0.00     0.148 A 
ATOM     71  C   UNL A   1      42.918  26.685  25.382  1.00  0.00     0.002 A 
ATOM     72  C   UNL A   1      42.121  24.666  26.467  1.00  0.00     0.091 A 
ATOM     73  F   UNL A   1      40.997  24.848  28.568  1.00  0.00    -0.205 F 
ATOM     74  C   UNL A   1      42.769  25.299  25.394  1.00  0.00     0.022 A 
BRANCH  72  75
ATOM     75  S   UNL A   1      42.076  22.871  26.443  1.00  0.00     0.127 S 
ATOM     76  O   UNL A   1      42.707  22.574  25.158  1.00  0.00    -0.237 OA
ATOM     77  O   UNL A   1      42.883  22.542  27.617  1.00  0.00    -0.237 OA
ATOM     78  O   UNL A   1      40.671  22.506  26.541  1.00  0.00    -0.744 OA
ENDBRANCH  72  75
ENDBRANCH  44  68
BRANCH  56  79
ATOM     79  C   UNL A   1      44.705  27.788  33.822  1.00  0.00     0.023 A 
ATOM     80  C   UNL A   1      45.846  28.611  33.750  1.00  0.00     0.012 A 
ATOM     81  C   UNL A   1      44.762  26.588  34.561  1.00  0.00     0.148 A 
ATOM     82  C   UNL A   1      47.029  28.243  34.393  1.00  0.00     0.002 A 
ATOM     83  C   UNL A   1      45.935  26.243  35.225  1.00  0.00     0.091 A 
ATOM     84  F   UNL A   1      43.668  25.815  34.607  1.00  0.00    -0.205 F 
ATOM     85  C   UNL A   1      47.070  27.066  35.138  1.00  0.00     0.022 A 
BRANCH  83  86
ATOM     86  S   UNL A   1      46.074  24.780  36.260  1.00  0.00     0.127 S 
ATOM     87  O   UNL A   1      47.437  24.907  36.774  1.00  0.00    -0.237 OA
ATOM     88  O   UNL A   1      45.024  25.004  37.254  1.00  0.00    -0.237 OA
ATOM     89  O   UNL A   1      45.847  23.641  35.381  1.00  0.00    -0.744 OA
ENDBRANCH  83  86
ENDBRANCH  56  79
ENDBRANCH  30  31
ENDBRANCH  23  25
ENDBRANCH  22  23
ENDBRANCH  21  22
ENDBRANCH  20  21
ENDBRANCH  19  20
ENDBRANCH   1  19
TORSDOF 21
ENDMDL
MODEL 3
REMARK VINA RESULT:      -9.8      5.455      8.648
REMARK SMILES O=C(CC1=c2ccccc2=NC1)OCCOCCOCCOC(=O)c1ccc(-c2c3nc(c(-c4cccc(S(=O)(=O)[O-])c4F)c4ccc([nH]4)c(-c4cccc(S(=O)(=O)[O-])c4F)c4nc(c(-c5cccc(S(=O)(=O)[O-])c5F)c5ccc2[nH]5)C=C4)C=C3)cc1
REMARK SMILES IDX 18 1 17 2 16 3 15 4 14 5 13 6 2 7 1 8 3 9 4 10 5 11 12 12
REMARK SMILES IDX 6 13 10 14 11 15 7 16 9 17 8 18 19 19 20 20 21 21 22 22
REMARK SMILES IDX 23 23 24 24 25 25 26 26 87 27 27 28 86 29 28 30 29 31 30 32
REMARK SMILES IDX 80 33 31 34 85 35 79 36 81 37 32 38 84 39 78 40 77 41 33 43
REMARK SMILES IDX 65 44 45 45 64 46 46 47 49 48 63 49 82 50 47 51 48 52 62 54
REMARK SMILES IDX 83 55 50 56 34 57 35 58 43 59 36 60 38 61 44 62 37 63 39 64
REMARK SMILES IDX 40 65 41 66 42 67 66 68 67 69 75 70 68 71 70 72 76 73 69 74
REMARK SMILES IDX 71 75 72 76 73 77 74 78 51 79 52 80 60 81 53 82 55 83 61 84
REMARK SMILES IDX 54 85 56 86 57 87 58 88 59 89
REMARK H PARENT 81 42 49 53
REMARK Flexibility Score: inf
ROOT
ATOM      1  C   UNL A   1      41.074  21.035  26.867  1.00  0.00     0.188 C 
ENDROOT
BRANCH   1   2
ATOM      2  C   UNL A   1      40.253  22.240  27.353  1.00  0.00     0.188 C 
BRANCH   2   3
ATOM      3  O   UNL A   1      39.225  22.624  26.456  1.00  0.00    -0.376 OA
BRANCH   3   4
ATOM      4  C   UNL A   1      38.591  23.853  26.744  1.00  0.00     0.202 C 
BRANCH   4   5
ATOM      5  C   UNL A   1      37.413  24.100  25.815  1.00  0.00     0.261 C 
BRANCH   5   6
ATOM      6  O   UNL A   1      37.199  23.113  24.776  1.00  0.00    -0.463 OA
BRANCH   6   7
ATOM      7  C   UNL A   1      36.094  22.777  24.077  1.00  0.00     0.310 C 
ATOM      8  O   UNL A   1      35.972  23.198  22.927  1.00  0.00    -0.252 OA
BRANCH   7   9
ATOM      9  C   UNL A   1      34.980  21.963  24.715  1.00  0.00     0.156 C 
BRANCH   9  10
ATOM     10  C   UNL A   1      35.174  20.492  24.763  1.00  0.00    -0.028 C 
ATOM     11  C   UNL A   1      34.277  19.526  24.591  1.00  0.00     0.001 A 
ATOM     12  C   UNL A   1      36.543  19.917  24.975  1.00  0.00     0.175 C 
ATOM     13  C   UNL A   1      32.873  19.484  24.335  1.00  0.00     0.010 A 
ATOM     14  C   UNL A   1      35.113  18.317  24.576  1.00  0.00     0.065 A 
ATOM     15  N   UNL A   1      36.388  18.461  24.757  1.00  0.00    -0.280 NA
ATOM     16  C   UNL A   1      32.309  18.300  24.053  1.00  0.00     0.001 A 
ATOM     17  C   UNL A   1      34.412  17.048  24.291  1.00  0.00     0.028 A 
ATOM     18  C   UNL A   1      33.092  17.075  24.039  1.00  0.00     0.002 A 
ENDBRANCH   9  10
ENDBRANCH   7   9
ENDBRANCH   6   7
ENDBRANCH   5   6
ENDBRANCH   4   5
ENDBRANCH   3   4
ENDBRANCH   2   3
ENDBRANCH   1   2
BRANCH   1  19
ATOM     19  O   UNL A   1      41.863  21.136  25.688  1.00  0.00    -0.376 OA
BRANCH  19  20
ATOM     20  C   UNL A   1      43.274  21.234  25.789  1.00  0.00     0.202 C 
BRANCH  20  21
ATOM     21  C   UNL A   1      43.977  22.241  24.871  1.00  0.00     0.261 C 
BRANCH  21  22
ATOM     22  O   UNL A   1      43.371  23.545  24.821  1.00  0.00    -0.460 OA
BRANCH  22  23
ATOM     23  C   UNL A   1      44.177  24.599  25.133  1.00  0.00     0.338 C 
ATOM     24  O   UNL A   1      45.216  24.900  24.597  1.00  0.00    -0.246 OA
BRANCH  23  25
ATOM     25  C   UNL A   1      43.488  25.456  26.139  1.00  0.00     0.060 A 
ATOM     26  C   UNL A   1      42.639  24.909  27.102  1.00  0.00     0.016 A 
ATOM     27  C   UNL A   1      43.698  26.843  26.101  1.00  0.00     0.016 A 
ATOM     28  C   UNL A   1      42.025  25.748  28.043  1.00  0.00     0.010 A 
ATOM     29  C   UNL A   1      43.070  27.681  27.032  1.00  0.00     0.010 A 
ATOM     30  C   UNL A   1      42.243  27.138  28.026  1.00  0.00    -0.014 A 
BRANCH  30  31
ATOM     31  C   UNL A   1      41.764  27.975  29.158  1.00  0.00     0.031 A 
ATOM     32  C   UNL A   1      40.531  28.829  29.079  1.00  0.00     0.074 A 
ATOM     33  C   UNL A   1      42.472  27.955  30.304  1.00  0.00     0.049 A 
ATOM     34  N   UNL A   1      39.940  29.503  30.033  1.00  0.00    -0.248 NA
ATOM     35  C   UNL A   1      39.881  28.945  27.767  1.00  0.00     0.031 C 
ATOM     36  C   UNL A   1      43.719  27.214  30.498  1.00  0.00     0.029 A 
ATOM     37  N   UNL A   1      42.250  28.564  31.513  1.00  0.00    -0.354 N 
ATOM     38  C   UNL A   1      38.838  30.113  29.450  1.00  0.00     0.074 A 
ATOM     39  C   UNL A   1      38.862  29.753  28.045  1.00  0.00     0.031 C 
ATOM     40  C   UNL A   1      44.141  27.395  31.758  1.00  0.00     0.029 A 
ATOM     41  C   UNL A   1      43.201  28.269  32.458  1.00  0.00     0.049 A 
ATOM     42  H   UNL A   1      41.481  29.155  31.686  1.00  0.00     0.167 HD
ATOM     43  C   UNL A   1      37.880  30.874  30.036  1.00  0.00     0.034 A 
ATOM     44  C   UNL A   1      43.308  28.639  33.749  1.00  0.00     0.034 A 
ATOM     45  C   UNL A   1      37.859  31.244  31.429  1.00  0.00     0.049 A 
ATOM     46  C   UNL A   1      42.245  29.491  34.375  1.00  0.00     0.074 A 
ATOM     47  C   UNL A   1      36.900  31.980  32.109  1.00  0.00     0.029 A 
ATOM     48  N   UNL A   1      38.839  30.926  32.356  1.00  0.00    -0.354 N 
ATOM     49  N   UNL A   1      41.141  29.948  33.840  1.00  0.00    -0.248 NA
ATOM     50  C   UNL A   1      42.427  29.855  35.788  1.00  0.00     0.031 C 
ATOM     51  C   UNL A   1      37.308  32.119  33.440  1.00  0.00     0.029 A 
ATOM     52  C   UNL A   1      38.515  31.457  33.596  1.00  0.00     0.049 A 
ATOM     53  H   UNL A   1      39.649  30.400  32.162  1.00  0.00     0.167 HD
ATOM     54  C   UNL A   1      40.490  30.647  34.849  1.00  0.00     0.074 A 
ATOM     55  C   UNL A   1      41.314  30.534  36.036  1.00  0.00     0.031 C 
ATOM     56  C   UNL A   1      39.320  31.331  34.785  1.00  0.00     0.034 A 
BRANCH  43  57
ATOM     57  C   UNL A   1      36.714  31.304  29.184  1.00  0.00     0.023 A 
ATOM     58  C   UNL A   1      36.584  32.669  28.854  1.00  0.00     0.012 A 
ATOM     59  C   UNL A   1      35.811  30.372  28.637  1.00  0.00     0.148 A 
ATOM     60  C   UNL A   1      35.563  33.103  28.012  1.00  0.00     0.002 A 
ATOM     61  C   UNL A   1      34.810  30.809  27.774  1.00  0.00     0.091 A 
ATOM     62  F   UNL A   1      35.947  29.080  28.968  1.00  0.00    -0.205 F 
ATOM     63  C   UNL A   1      34.683  32.174  27.466  1.00  0.00     0.022 A 
BRANCH  61  64
ATOM     64  S   UNL A   1      33.651  29.691  26.977  1.00  0.00     0.127 S 
ATOM     65  O   UNL A   1      33.205  28.879  28.109  1.00  0.00    -0.237 OA
ATOM     66  O   UNL A   1      32.644  30.613  26.452  1.00  0.00    -0.237 OA
ATOM     67  O   UNL A   1      34.414  28.978  25.962  1.00  0.00    -0.744 OA
ENDBRANCH  61  64
ENDBRANCH  43  57
BRANCH  44  68
ATOM     68  C   UNL A   1      44.449  28.110  34.540  1.00  0.00     0.023 A 
ATOM     69  C   UNL A   1      45.654  28.835  34.571  1.00  0.00     0.012 A 
ATOM     70  C   UNL A   1      44.296  26.976  35.360  1.00  0.00     0.148 A 
ATOM     71  C   UNL A   1      46.691  28.444  35.418  1.00  0.00     0.002 A 
ATOM     72  C   UNL A   1      45.318  26.615  36.228  1.00  0.00     0.091 A 
ATOM     73  F   UNL A   1      43.131  26.315  35.312  1.00  0.00    -0.205 F 
ATOM     74  C   UNL A   1      46.518  27.342  36.254  1.00  0.00     0.022 A 
BRANCH  72  75
ATOM     75  S   UNL A   1      45.150  25.282  37.420  1.00  0.00     0.127 S 
ATOM     76  O   UNL A   1      46.533  25.100  37.860  1.00  0.00    -0.237 OA
ATOM     77  O   UNL A   1      44.262  25.886  38.412  1.00  0.00    -0.237 OA
ATOM     78  O   UNL A   1      44.582  24.160  36.688  1.00  0.00    -0.744 OA
ENDBRANCH  72  75
ENDBRANCH  44  68
BRANCH  56  79
ATOM     79  C   UNL A   1      38.852  32.042  36.028  1.00  0.00     0.023 A 
ATOM     80  C   UNL A   1      39.156  33.408  36.195  1.00  0.00     0.012 A 
ATOM     81  C   UNL A   1      38.041  31.391  36.979  1.00  0.00     0.148 A 
ATOM     82  C   UNL A   1      38.669  34.113  37.296  1.00  0.00     0.002 A 
ATOM     83  C   UNL A   1      37.535  32.108  38.059  1.00  0.00     0.091 A 
ATOM     84  F   UNL A   1      37.775  30.088  36.806  1.00  0.00    -0.205 F 
ATOM     85  C   UNL A   1      37.852  33.467  38.221  1.00  0.00     0.022 A 
BRANCH  83  86
ATOM     86  S   UNL A   1      36.424  31.385  39.273  1.00  0.00     0.127 S 
ATOM     87  O   UNL A   1      36.246  30.033  38.747  1.00  0.00    -0.237 OA
ATOM     88  O   UNL A   1      37.216  31.464  40.501  1.00  0.00    -0.237 OA
ATOM     89  O   UNL A   1      35.226  32.215  39.268  1.00  0.00    -0.744 OA
ENDBRANCH  83  86
ENDBRANCH  56  79
ENDBRANCH  30  31
ENDBRANCH  23  25
ENDBRANCH  22  23
ENDBRANCH  21  22
ENDBRANCH  20  21
ENDBRANCH  19  20
ENDBRANCH   1  19
TORSDOF 21
ENDMDL
