MODEL 1
REMARK VINA RESULT:     -10.5      0.000      0.000
REMARK SMILES O=C(OCCOCCOCCOC(=O)c1ccc(-c2c3nc(c(-c4cccc(S(=O)(=O)[O-])c4F)c4ccc([nH]4)c(-c4cccc(S(=O)(=O)[O-])c4F)c4nc(c(-c5cccc(S(=O)(=O)[O-])c5F)c5ccc2[nH]5)C=C4)C=C3)cc1)c1ccc(NC(=O)[C@@H]2CC=CC[C@H]2C(=O)Nc2cccc([N+](=O)[O-])c2)cc1
REMARK SMILES IDX 7 1 6 2 5 3 4 4 3 5 2 6 1 7 78 8 79 9 104 10 80 11 103 12
REMARK SMILES IDX 81 13 82 14 83 15 84 17 85 18 86 19 90 20 87 21 89 22 88 23
REMARK SMILES IDX 91 24 92 25 93 26 94 28 95 29 102 30 96 31 98 32 97 33 99 34
REMARK SMILES IDX 100 35 101 36 8 37 9 38 10 39 11 40 12 41 13 42 14 43 15 44
REMARK SMILES IDX 16 45 77 46 17 47 76 48 18 49 19 50 20 51 70 52 21 53 75 54
REMARK SMILES IDX 69 55 71 56 22 57 74 58 68 59 67 60 23 62 55 63 35 64 54 65
REMARK SMILES IDX 36 66 39 67 53 68 72 69 37 70 38 71 52 73 73 74 40 75 24 76
REMARK SMILES IDX 25 77 33 78 26 79 28 80 34 81 27 82 29 83 30 84 31 85 32 86
REMARK SMILES IDX 56 87 57 88 65 89 58 90 60 91 66 92 59 93 61 94 62 95 63 96
REMARK SMILES IDX 64 97 41 98 42 99 50 100 43 101 45 102 51 103 44 104 46 105
REMARK SMILES IDX 47 106 48 107 49 108
REMARK H PARENT 82 16 93 27 71 61 39 72
REMARK Flexibility Score: inf
ROOT
ATOM      1  C   UNL A   1      39.596  22.307  26.527  1.00  0.00     0.188 C 
ENDROOT
BRANCH   1   2
ATOM      2  O   UNL A   1      38.345  21.629  26.370  1.00  0.00    -0.376 OA
BRANCH   2   3
ATOM      3  C   UNL A   1      37.833  21.644  25.044  1.00  0.00     0.202 C 
BRANCH   3   4
ATOM      4  C   UNL A   1      36.736  20.621  24.734  1.00  0.00     0.261 C 
BRANCH   4   5
ATOM      5  O   UNL A   1      35.493  20.857  25.418  1.00  0.00    -0.460 OA
BRANCH   5   6
ATOM      6  C   UNL A   1      34.274  20.628  24.859  1.00  0.00     0.338 C 
ATOM      7  O   UNL A   1      33.972  19.544  24.381  1.00  0.00    -0.246 OA
BRANCH   6   8
ATOM      8  C   UNL A   1      33.315  21.747  24.842  1.00  0.00     0.060 A 
ATOM      9  C   UNL A   1      33.021  22.418  26.027  1.00  0.00     0.018 A 
ATOM     10  C   UNL A   1      32.710  22.133  23.644  1.00  0.00     0.018 A 
ATOM     11  C   UNL A   1      32.018  23.385  26.038  1.00  0.00     0.027 A 
ATOM     12  C   UNL A   1      31.718  23.119  23.664  1.00  0.00     0.027 A 
ATOM     13  C   UNL A   1      31.307  23.678  24.878  1.00  0.00     0.041 A 
BRANCH  13  14
ATOM     14  N   UNL A   1      30.214  24.549  24.874  1.00  0.00    -0.326 N 
ATOM     15  C   UNL A   1      30.152  25.907  25.005  1.00  0.00     0.228 C 
ATOM     16  H   UNL A   1      29.342  24.110  24.755  1.00  0.00     0.169 HD
ATOM     17  O   UNL A   1      29.040  26.443  24.910  1.00  0.00    -0.274 OA
BRANCH  15  18
ATOM     18  C   UNL A   1      31.338  26.793  25.402  1.00  0.00     0.095 C 
ATOM     19  C   UNL A   1      31.459  27.082  26.900  1.00  0.00     0.041 C 
ATOM     20  C   UNL A   1      31.587  27.994  24.479  1.00  0.00     0.095 C 
ATOM     21  C   UNL A   1      32.484  28.128  27.233  1.00  0.00    -0.030 C 
ATOM     22  C   UNL A   1      32.835  28.812  24.853  1.00  0.00     0.041 C 
ATOM     23  C   UNL A   1      33.100  28.894  26.325  1.00  0.00    -0.030 C 
BRANCH  20  24
ATOM     24  C   UNL A   1      31.526  27.688  22.971  1.00  0.00     0.228 C 
ATOM     25  O   UNL A   1      32.281  26.823  22.507  1.00  0.00    -0.274 OA
ATOM     26  N   UNL A   1      30.608  28.203  22.097  1.00  0.00    -0.326 N 
ATOM     27  H   UNL A   1      30.714  27.900  21.167  1.00  0.00     0.169 HD
BRANCH  26  28
ATOM     28  C   UNL A   1      29.544  29.085  22.304  1.00  0.00     0.048 A 
ATOM     29  C   UNL A   1      28.329  28.550  22.744  1.00  0.00     0.026 A 
ATOM     30  C   UNL A   1      29.659  30.456  22.102  1.00  0.00     0.111 A 
ATOM     31  C   UNL A   1      27.285  29.396  23.131  1.00  0.00     0.009 A 
ATOM     32  C   UNL A   1      28.631  31.304  22.528  1.00  0.00     0.271 A 
ATOM     33  C   UNL A   1      27.446  30.779  23.056  1.00  0.00     0.086 A 
BRANCH  32  34
ATOM     34  N   UNL A   1      28.821  32.758  22.474  1.00  0.00     0.062 N 
ATOM     35  O   UNL A   1      27.904  33.436  21.985  1.00  0.00    -0.258 OA
ATOM     36  O   UNL A   1      29.865  33.223  22.947  1.00  0.00    -0.258 OA
ENDBRANCH  32  34
ENDBRANCH  26  28
ENDBRANCH  20  24
ENDBRANCH  15  18
ENDBRANCH  13  14
ENDBRANCH   6   8
ENDBRANCH   5   6
ENDBRANCH   4   5
ENDBRANCH   3   4
ENDBRANCH   2   3
ENDBRANCH   1   2
BRANCH   1  37
ATOM     37  C   UNL A   1      40.556  21.400  27.304  1.00  0.00     0.188 C 
BRANCH  37  38
ATOM     38  O   UNL A   1      41.122  20.343  26.520  1.00  0.00    -0.376 OA
BRANCH  38  39
ATOM     39  C   UNL A   1      42.441  20.551  26.019  1.00  0.00     0.202 C 
BRANCH  39  40
ATOM     40  C   UNL A   1      42.802  22.000  25.681  1.00  0.00     0.261 C 
BRANCH  40  41
ATOM     41  O   UNL A   1      44.122  22.382  26.108  1.00  0.00    -0.460 OA
BRANCH  41  42
ATOM     42  C   UNL A   1      44.545  23.570  25.620  1.00  0.00     0.338 C 
ATOM     43  O   UNL A   1      45.342  23.757  24.716  1.00  0.00    -0.246 OA
BRANCH  42  44
ATOM     44  C   UNL A   1      43.904  24.693  26.323  1.00  0.00     0.060 A 
ATOM     45  C   UNL A   1      43.593  25.844  25.594  1.00  0.00     0.016 A 
ATOM     46  C   UNL A   1      43.853  24.700  27.721  1.00  0.00     0.016 A 
ATOM     47  C   UNL A   1      43.308  27.033  26.268  1.00  0.00     0.010 A 
ATOM     48  C   UNL A   1      43.555  25.891  28.391  1.00  0.00     0.010 A 
ATOM     49  C   UNL A   1      43.349  27.079  27.669  1.00  0.00    -0.014 A 
BRANCH  49  50
ATOM     50  C   UNL A   1      43.368  28.395  28.360  1.00  0.00     0.031 A 
ATOM     51  C   UNL A   1      44.676  29.136  28.500  1.00  0.00     0.074 A 
ATOM     52  C   UNL A   1      42.239  28.942  28.847  1.00  0.00     0.049 A 
ATOM     53  N   UNL A   1      44.910  30.315  29.018  1.00  0.00    -0.248 NA
ATOM     54  C   UNL A   1      45.880  28.459  27.989  1.00  0.00     0.031 C 
ATOM     55  C   UNL A   1      40.914  28.331  28.801  1.00  0.00     0.029 A 
ATOM     56  N   UNL A   1      42.039  30.138  29.492  1.00  0.00    -0.354 N 
ATOM     57  C   UNL A   1      46.283  30.510  28.921  1.00  0.00     0.074 A 
ATOM     58  C   UNL A   1      46.835  29.321  28.311  1.00  0.00     0.031 C 
ATOM     59  C   UNL A   1      40.036  29.151  29.403  1.00  0.00     0.029 A 
ATOM     60  C   UNL A   1      40.737  30.343  29.881  1.00  0.00     0.049 A 
ATOM     61  H   UNL A   1      42.759  30.788  29.658  1.00  0.00     0.167 HD
ATOM     62  C   UNL A   1      47.019  31.590  29.277  1.00  0.00     0.034 A 
ATOM     63  C   UNL A   1      40.173  31.376  30.541  1.00  0.00     0.034 A 
ATOM     64  C   UNL A   1      46.475  32.798  29.837  1.00  0.00     0.049 A 
ATOM     65  C   UNL A   1      41.012  32.574  30.909  1.00  0.00     0.074 A 
ATOM     66  C   UNL A   1      47.137  33.969  30.160  1.00  0.00     0.029 A 
ATOM     67  N   UNL A   1      45.142  32.989  30.157  1.00  0.00    -0.354 N 
ATOM     68  N   UNL A   1      42.278  32.805  30.660  1.00  0.00    -0.248 NA
ATOM     69  C   UNL A   1      40.331  33.674  31.610  1.00  0.00     0.031 C 
ATOM     70  C   UNL A   1      46.201  34.870  30.682  1.00  0.00     0.029 A 
ATOM     71  C   UNL A   1      44.959  34.258  30.679  1.00  0.00     0.049 A 
ATOM     72  H   UNL A   1      44.429  32.322  30.031  1.00  0.00     0.167 HD
ATOM     73  C   UNL A   1      42.533  34.088  31.136  1.00  0.00     0.074 A 
ATOM     74  C   UNL A   1      41.286  34.591  31.673  1.00  0.00     0.031 C 
ATOM     75  C   UNL A   1      43.700  34.781  31.141  1.00  0.00     0.034 A 
BRANCH  62  76
ATOM     76  C   UNL A   1      48.500  31.543  29.009  1.00  0.00     0.023 A 
ATOM     77  C   UNL A   1      49.320  30.736  29.824  1.00  0.00     0.012 A 
ATOM     78  C   UNL A   1      49.069  32.237  27.926  1.00  0.00     0.148 A 
ATOM     79  C   UNL A   1      50.689  30.639  29.578  1.00  0.00     0.002 A 
ATOM     80  C   UNL A   1      50.429  32.110  27.666  1.00  0.00     0.091 A 
ATOM     81  F   UNL A   1      48.279  33.022  27.179  1.00  0.00    -0.205 F 
ATOM     82  C   UNL A   1      51.241  31.316  28.494  1.00  0.00     0.022 A 
BRANCH  80  83
ATOM     83  S   UNL A   1      51.210  32.893  26.249  1.00  0.00     0.127 S 
ATOM     84  O   UNL A   1      50.852  31.974  25.169  1.00  0.00    -0.237 OA
ATOM     85  O   UNL A   1      50.533  34.190  26.193  1.00  0.00    -0.237 OA
ATOM     86  O   UNL A   1      52.627  32.970  26.573  1.00  0.00    -0.744 OA
ENDBRANCH  80  83
ENDBRANCH  62  76
BRANCH  63  87
ATOM     87  C   UNL A   1      38.710  31.362  30.823  1.00  0.00     0.023 A 
ATOM     88  C   UNL A   1      38.250  30.821  32.038  1.00  0.00     0.012 A 
ATOM     89  C   UNL A   1      37.780  31.898  29.913  1.00  0.00     0.148 A 
ATOM     90  C   UNL A   1      36.887  30.788  32.332  1.00  0.00     0.002 A 
ATOM     91  C   UNL A   1      36.427  31.909  30.234  1.00  0.00     0.091 A 
ATOM     92  F   UNL A   1      38.233  32.386  28.749  1.00  0.00    -0.205 F 
ATOM     93  C   UNL A   1      35.977  31.342  31.436  1.00  0.00     0.022 A 
BRANCH  91  94
ATOM     94  S   UNL A   1      35.213  32.724  29.191  1.00  0.00     0.127 S 
ATOM     95  O   UNL A   1      36.004  33.790  28.582  1.00  0.00    -0.237 OA
ATOM     96  O   UNL A   1      34.818  31.651  28.276  1.00  0.00    -0.237 OA
ATOM     97  O   UNL A   1      34.152  33.147  30.096  1.00  0.00    -0.744 OA
ENDBRANCH  91  94
ENDBRANCH  63  87
BRANCH  75  98
ATOM     98  C   UNL A   1      43.690  36.173  31.715  1.00  0.00     0.023 A 
ATOM     99  C   UNL A   1      43.775  36.351  33.109  1.00  0.00     0.012 A 
ATOM    100  C   UNL A   1      43.680  37.306  30.875  1.00  0.00     0.148 A 
ATOM    101  C   UNL A   1      43.823  37.631  33.661  1.00  0.00     0.002 A 
ATOM    102  C   UNL A   1      43.767  38.579  31.430  1.00  0.00     0.091 A 
ATOM    103  F   UNL A   1      43.576  37.124  29.550  1.00  0.00    -0.205 F 
ATOM    104  C   UNL A   1      43.830  38.744  32.823  1.00  0.00     0.022 A 
BRANCH 102 105
ATOM    105  S   UNL A   1      43.871  40.049  30.402  1.00  0.00     0.127 S 
ATOM    106  O   UNL A   1      43.842  41.117  31.399  1.00  0.00    -0.237 OA
ATOM    107  O   UNL A   1      45.161  39.880  29.729  1.00  0.00    -0.237 OA
ATOM    108  O   UNL A   1      42.722  39.978  29.510  1.00  0.00    -0.744 OA
ENDBRANCH 102 105
ENDBRANCH  75  98
ENDBRANCH  49  50
ENDBRANCH  42  44
ENDBRANCH  41  42
ENDBRANCH  40  41
ENDBRANCH  39  40
ENDBRANCH  38  39
ENDBRANCH  37  38
ENDBRANCH   1  37
TORSDOF 25
ENDMDL
MODEL 2
REMARK VINA RESULT:     -10.2      2.943      8.773
REMARK SMILES O=C(OCCOCCOCCOC(=O)c1ccc(-c2c3nc(c(-c4cccc(S(=O)(=O)[O-])c4F)c4ccc([nH]4)c(-c4cccc(S(=O)(=O)[O-])c4F)c4nc(c(-c5cccc(S(=O)(=O)[O-])c5F)c5ccc2[nH]5)C=C4)C=C3)cc1)c1ccc(NC(=O)[C@@H]2CC=CC[C@H]2C(=O)Nc2cccc([N+](=O)[O-])c2)cc1
REMARK SMILES IDX 7 1 6 2 5 3 4 4 3 5 2 6 1 7 78 8 79 9 104 10 80 11 103 12
REMARK SMILES IDX 81 13 82 14 83 15 84 17 85 18 86 19 90 20 87 21 89 22 88 23
REMARK SMILES IDX 91 24 92 25 93 26 94 28 95 29 102 30 96 31 98 32 97 33 99 34
REMARK SMILES IDX 100 35 101 36 8 37 9 38 10 39 11 40 12 41 13 42 14 43 15 44
REMARK SMILES IDX 16 45 77 46 17 47 76 48 18 49 19 50 20 51 70 52 21 53 75 54
REMARK SMILES IDX 69 55 71 56 22 57 74 58 68 59 67 60 23 62 55 63 35 64 54 65
REMARK SMILES IDX 36 66 39 67 53 68 72 69 37 70 38 71 52 73 73 74 40 75 24 76
REMARK SMILES IDX 25 77 33 78 26 79 28 80 34 81 27 82 29 83 30 84 31 85 32 86
REMARK SMILES IDX 56 87 57 88 65 89 58 90 60 91 66 92 59 93 61 94 62 95 63 96
REMARK SMILES IDX 64 97 41 98 42 99 50 100 43 101 45 102 51 103 44 104 46 105
REMARK SMILES IDX 47 106 48 107 49 108
REMARK H PARENT 82 16 93 27 71 61 39 72
REMARK Flexibility Score: inf
ROOT
ATOM      1  C   UNL A   1      34.001  34.506  29.955  1.00  0.00     0.188 C 
ENDROOT
BRANCH   1   2
ATOM      2  O   UNL A   1      33.794  33.234  29.332  1.00  0.00    -0.376 OA
BRANCH   2   3
ATOM      3  C   UNL A   1      33.462  33.304  27.952  1.00  0.00     0.202 C 
BRANCH   3   4
ATOM      4  C   UNL A   1      33.066  31.982  27.286  1.00  0.00     0.261 C 
BRANCH   4   5
ATOM      5  O   UNL A   1      33.553  30.808  27.960  1.00  0.00    -0.460 OA
BRANCH   5   6
ATOM      6  C   UNL A   1      34.279  29.838  27.343  1.00  0.00     0.338 C 
ATOM      7  O   UNL A   1      35.471  29.971  27.102  1.00  0.00    -0.246 OA
BRANCH   6   8
ATOM      8  C   UNL A   1      33.574  28.601  26.963  1.00  0.00     0.060 A 
ATOM      9  C   UNL A   1      34.206  27.677  26.133  1.00  0.00     0.018 A 
ATOM     10  C   UNL A   1      32.283  28.356  27.437  1.00  0.00     0.018 A 
ATOM     11  C   UNL A   1      33.493  26.574  25.666  1.00  0.00     0.027 A 
ATOM     12  C   UNL A   1      31.585  27.236  26.975  1.00  0.00     0.027 A 
ATOM     13  C   UNL A   1      32.159  26.395  26.016  1.00  0.00     0.041 A 
BRANCH  13  14
ATOM     14  N   UNL A   1      31.375  25.374  25.473  1.00  0.00    -0.326 N 
ATOM     15  C   UNL A   1      31.698  24.100  25.101  1.00  0.00     0.228 C 
ATOM     16  H   UNL A   1      30.430  25.613  25.335  1.00  0.00     0.169 HD
ATOM     17  O   UNL A   1      30.785  23.372  24.689  1.00  0.00    -0.274 OA
BRANCH  15  18
ATOM     18  C   UNL A   1      33.130  23.559  25.023  1.00  0.00     0.095 C 
ATOM     19  C   UNL A   1      33.911  23.599  26.338  1.00  0.00     0.041 C 
ATOM     20  C   UNL A   1      33.918  23.991  23.777  1.00  0.00     0.095 C 
ATOM     21  C   UNL A   1      35.371  23.280  26.184  1.00  0.00    -0.030 C 
ATOM     22  C   UNL A   1      35.319  23.362  23.684  1.00  0.00     0.041 C 
ATOM     23  C   UNL A   1      35.997  23.170  25.006  1.00  0.00    -0.030 C 
BRANCH  20  24
ATOM     24  C   UNL A   1      33.150  23.891  22.446  1.00  0.00     0.228 C 
ATOM     25  O   UNL A   1      32.953  22.772  21.953  1.00  0.00    -0.274 OA
ATOM     26  N   UNL A   1      32.539  24.935  21.807  1.00  0.00    -0.326 N 
ATOM     27  H   UNL A   1      32.091  24.693  20.964  1.00  0.00     0.169 HD
BRANCH  26  28
ATOM     28  C   UNL A   1      32.444  26.286  22.149  1.00  0.00     0.048 A 
ATOM     29  C   UNL A   1      33.635  27.002  22.315  1.00  0.00     0.026 A 
ATOM     30  C   UNL A   1      31.225  26.933  22.315  1.00  0.00     0.111 A 
ATOM     31  C   UNL A   1      33.605  28.389  22.488  1.00  0.00     0.009 A 
ATOM     32  C   UNL A   1      31.195  28.325  22.446  1.00  0.00     0.271 A 
ATOM     33  C   UNL A   1      32.384  29.060  22.520  1.00  0.00     0.086 A 
BRANCH  32  34
ATOM     34  N   UNL A   1      29.906  29.026  22.448  1.00  0.00     0.062 N 
ATOM     35  O   UNL A   1      29.229  28.975  23.487  1.00  0.00    -0.258 OA
ATOM     36  O   UNL A   1      29.586  29.653  21.431  1.00  0.00    -0.258 OA
ENDBRANCH  32  34
ENDBRANCH  26  28
ENDBRANCH  20  24
ENDBRANCH  15  18
ENDBRANCH  13  14
ENDBRANCH   6   8
ENDBRANCH   5   6
ENDBRANCH   4   5
ENDBRANCH   3   4
ENDBRANCH   2   3
ENDBRANCH   1   2
BRANCH   1  37
ATOM     37  C   UNL A   1      35.041  34.348  31.069  1.00  0.00     0.188 C 
BRANCH  37  38
ATOM     38  O   UNL A   1      34.507  33.833  32.294  1.00  0.00    -0.376 OA
BRANCH  38  39
ATOM     39  C   UNL A   1      35.276  32.833  32.959  1.00  0.00     0.202 C 
BRANCH  39  40
ATOM     40  C   UNL A   1      36.124  31.936  32.053  1.00  0.00     0.261 C 
BRANCH  40  41
ATOM     41  O   UNL A   1      36.114  30.550  32.437  1.00  0.00    -0.460 OA
BRANCH  41  42
ATOM     42  C   UNL A   1      37.077  29.800  31.854  1.00  0.00     0.338 C 
ATOM     43  O   UNL A   1      37.063  28.596  31.662  1.00  0.00    -0.246 OA
BRANCH  42  44
ATOM     44  C   UNL A   1      38.216  30.632  31.434  1.00  0.00     0.060 A 
ATOM     45  C   UNL A   1      38.405  30.861  30.068  1.00  0.00     0.016 A 
ATOM     46  C   UNL A   1      39.216  30.958  32.356  1.00  0.00     0.016 A 
ATOM     47  C   UNL A   1      39.634  31.341  29.611  1.00  0.00     0.010 A 
ATOM     48  C   UNL A   1      40.442  31.451  31.894  1.00  0.00     0.010 A 
ATOM     49  C   UNL A   1      40.680  31.580  30.515  1.00  0.00    -0.014 A 
BRANCH  49  50
ATOM     50  C   UNL A   1      42.062  31.774  30.003  1.00  0.00     0.031 A 
ATOM     51  C   UNL A   1      42.582  33.177  29.798  1.00  0.00     0.074 A 
ATOM     52  C   UNL A   1      42.860  30.725  29.737  1.00  0.00     0.049 A 
ATOM     53  N   UNL A   1      43.768  33.574  29.411  1.00  0.00    -0.248 NA
ATOM     54  C   UNL A   1      41.640  34.279  30.060  1.00  0.00     0.031 C 
ATOM     55  C   UNL A   1      42.484  29.320  29.871  1.00  0.00     0.029 A 
ATOM     56  N   UNL A   1      44.157  30.687  29.284  1.00  0.00    -0.354 N 
ATOM     57  C   UNL A   1      43.709  34.961  29.359  1.00  0.00     0.074 A 
ATOM     58  C   UNL A   1      42.365  35.341  29.735  1.00  0.00     0.031 C 
ATOM     59  C   UNL A   1      43.524  28.555  29.495  1.00  0.00     0.029 A 
ATOM     60  C   UNL A   1      44.637  29.414  29.092  1.00  0.00     0.049 A 
ATOM     61  H   UNL A   1      44.692  31.495  29.114  1.00  0.00     0.167 HD
ATOM     62  C   UNL A   1      44.689  35.847  29.057  1.00  0.00     0.034 A 
ATOM     63  C   UNL A   1      45.838  28.989  28.648  1.00  0.00     0.034 A 
ATOM     64  C   UNL A   1      46.042  35.484  28.732  1.00  0.00     0.049 A 
ATOM     65  C   UNL A   1      46.917  29.996  28.337  1.00  0.00     0.074 A 
ATOM     66  C   UNL A   1      47.119  36.317  28.482  1.00  0.00     0.029 A 
ATOM     67  N   UNL A   1      46.504  34.185  28.610  1.00  0.00    -0.354 N 
ATOM     68  N   UNL A   1      46.888  31.301  28.451  1.00  0.00    -0.248 NA
ATOM     69  C   UNL A   1      48.209  29.464  27.875  1.00  0.00     0.031 C 
ATOM     70  C   UNL A   1      48.235  35.518  28.204  1.00  0.00     0.029 A 
ATOM     71  C   UNL A   1      47.850  34.190  28.284  1.00  0.00     0.049 A 
ATOM     72  H   UNL A   1      45.957  33.376  28.737  1.00  0.00     0.167 HD
ATOM     73  C   UNL A   1      48.167  31.742  28.118  1.00  0.00     0.074 A 
ATOM     74  C   UNL A   1      48.949  30.563  27.812  1.00  0.00     0.031 C 
ATOM     75  C   UNL A   1      48.643  33.011  28.056  1.00  0.00     0.034 A 
BRANCH  62  76
ATOM     76  C   UNL A   1      44.350  37.312  29.127  1.00  0.00     0.023 A 
ATOM     77  C   UNL A   1      44.341  37.955  30.382  1.00  0.00     0.012 A 
ATOM     78  C   UNL A   1      44.105  38.062  27.962  1.00  0.00     0.148 A 
ATOM     79  C   UNL A   1      44.071  39.319  30.477  1.00  0.00     0.002 A 
ATOM     80  C   UNL A   1      43.869  39.429  28.062  1.00  0.00     0.091 A 
ATOM     81  F   UNL A   1      44.090  37.428  26.781  1.00  0.00    -0.205 F 
ATOM     82  C   UNL A   1      43.845  40.058  29.319  1.00  0.00     0.022 A 
BRANCH  80  83
ATOM     83  S   UNL A   1      43.638  40.468  26.614  1.00  0.00     0.127 S 
ATOM     84  O   UNL A   1      43.774  41.807  27.186  1.00  0.00    -0.237 OA
ATOM     85  O   UNL A   1      44.749  40.059  25.752  1.00  0.00    -0.237 OA
ATOM     86  O   UNL A   1      42.321  40.131  26.094  1.00  0.00    -0.744 OA
ENDBRANCH  80  83
ENDBRANCH  62  76
BRANCH  63  87
ATOM     87  C   UNL A   1      46.116  27.529  28.553  1.00  0.00     0.023 A 
ATOM     88  C   UNL A   1      46.558  26.839  29.698  1.00  0.00     0.012 A 
ATOM     89  C   UNL A   1      45.927  26.819  27.353  1.00  0.00     0.148 A 
ATOM     90  C   UNL A   1      46.832  25.472  29.643  1.00  0.00     0.002 A 
ATOM     91  C   UNL A   1      46.152  25.447  27.318  1.00  0.00     0.091 A 
ATOM     92  F   UNL A   1      45.531  27.497  26.266  1.00  0.00    -0.205 F 
ATOM     93  C   UNL A   1      46.619  24.774  28.457  1.00  0.00     0.022 A 
BRANCH  91  94
ATOM     94  S   UNL A   1      45.772  24.462  25.865  1.00  0.00     0.127 S 
ATOM     95  O   UNL A   1      44.432  23.971  26.175  1.00  0.00    -0.237 OA
ATOM     96  O   UNL A   1      45.831  25.455  24.791  1.00  0.00    -0.237 OA
ATOM     97  O   UNL A   1      46.824  23.457  25.798  1.00  0.00    -0.744 OA
ENDBRANCH  91  94
ENDBRANCH  63  87
BRANCH  75  98
ATOM     98  C   UNL A   1      50.087  33.203  27.674  1.00  0.00     0.023 A 
ATOM     99  C   UNL A   1      51.087  33.088  28.659  1.00  0.00     0.012 A 
ATOM    100  C   UNL A   1      50.462  33.415  26.332  1.00  0.00     0.148 A 
ATOM    101  C   UNL A   1      52.435  33.208  28.320  1.00  0.00     0.002 A 
ATOM    102  C   UNL A   1      51.810  33.495  25.995  1.00  0.00     0.091 A 
ATOM    103  F   UNL A   1      49.499  33.545  25.406  1.00  0.00    -0.205 F 
ATOM    104  C   UNL A   1      52.797  33.400  26.989  1.00  0.00     0.022 A 
BRANCH 102 105
ATOM    105  S   UNL A   1      52.346  33.652  24.287  1.00  0.00     0.127 S 
ATOM    106  O   UNL A   1      53.800  33.587  24.419  1.00  0.00    -0.237 OA
ATOM    107  O   UNL A   1      51.740  32.480  23.651  1.00  0.00    -0.237 OA
ATOM    108  O   UNL A   1      51.804  34.924  23.828  1.00  0.00    -0.744 OA
ENDBRANCH 102 105
ENDBRANCH  75  98
ENDBRANCH  49  50
ENDBRANCH  42  44
ENDBRANCH  41  42
ENDBRANCH  40  41
ENDBRANCH  39  40
ENDBRANCH  38  39
ENDBRANCH  37  38
ENDBRANCH   1  37
TORSDOF 25
ENDMDL
MODEL 3
REMARK VINA RESULT:     -10.0      8.476     12.555
REMARK SMILES O=C(OCCOCCOCCOC(=O)c1ccc(-c2c3nc(c(-c4cccc(S(=O)(=O)[O-])c4F)c4ccc([nH]4)c(-c4cccc(S(=O)(=O)[O-])c4F)c4nc(c(-c5cccc(S(=O)(=O)[O-])c5F)c5ccc2[nH]5)C=C4)C=C3)cc1)c1ccc(NC(=O)[C@@H]2CC=CC[C@H]2C(=O)Nc2cccc([N+](=O)[O-])c2)cc1
REMARK SMILES IDX 7 1 6 2 5 3 4 4 3 5 2 6 1 7 78 8 79 9 104 10 80 11 103 12
REMARK SMILES IDX 81 13 82 14 83 15 84 17 85 18 86 19 90 20 87 21 89 22 88 23
REMARK SMILES IDX 91 24 92 25 93 26 94 28 95 29 102 30 96 31 98 32 97 33 99 34
REMARK SMILES IDX 100 35 101 36 8 37 9 38 10 39 11 40 12 41 13 42 14 43 15 44
REMARK SMILES IDX 16 45 77 46 17 47 76 48 18 49 19 50 20 51 70 52 21 53 75 54
REMARK SMILES IDX 69 55 71 56 22 57 74 58 68 59 67 60 23 62 55 63 35 64 54 65
REMARK SMILES IDX 36 66 39 67 53 68 72 69 37 70 38 71 52 73 73 74 40 75 24 76
REMARK SMILES IDX 25 77 33 78 26 79 28 80 34 81 27 82 29 83 30 84 31 85 32 86
REMARK SMILES IDX 56 87 57 88 65 89 58 90 60 91 66 92 59 93 61 94 62 95 63 96
REMARK SMILES IDX 64 97 41 98 42 99 50 100 43 101 45 102 51 103 44 104 46 105
REMARK SMILES IDX 47 106 48 107 49 108
REMARK H PARENT 82 16 93 27 71 61 39 72
REMARK Flexibility Score: inf
ROOT
ATOM      1  C   UNL A   1      34.448  32.230  28.031  1.00  0.00     0.188 C 
ENDROOT
BRANCH   1   2
ATOM      2  O   UNL A   1      33.653  31.136  27.559  1.00  0.00    -0.376 OA
BRANCH   2   3
ATOM      3  C   UNL A   1      34.404  30.024  27.094  1.00  0.00     0.202 C 
BRANCH   3   4
ATOM      4  C   UNL A   1      33.738  28.652  27.241  1.00  0.00     0.261 C 
BRANCH   4   5
ATOM      5  O   UNL A   1      32.322  28.650  26.992  1.00  0.00    -0.460 OA
BRANCH   5   6
ATOM      6  C   UNL A   1      31.780  28.712  25.746  1.00  0.00     0.338 C 
ATOM      7  O   UNL A   1      31.546  29.777  25.191  1.00  0.00    -0.246 OA
BRANCH   6   8
ATOM      8  C   UNL A   1      31.473  27.437  25.075  1.00  0.00     0.060 A 
ATOM      9  C   UNL A   1      31.259  26.292  25.840  1.00  0.00     0.018 A 
ATOM     10  C   UNL A   1      31.393  27.379  23.682  1.00  0.00     0.018 A 
ATOM     11  C   UNL A   1      31.102  25.061  25.205  1.00  0.00     0.027 A 
ATOM     12  C   UNL A   1      31.216  26.141  23.056  1.00  0.00     0.027 A 
ATOM     13  C   UNL A   1      31.165  24.969  23.818  1.00  0.00     0.041 A 
BRANCH  13  14
ATOM     14  N   UNL A   1      31.135  23.742  23.150  1.00  0.00    -0.326 N 
ATOM     15  C   UNL A   1      32.045  22.725  23.105  1.00  0.00     0.228 C 
ATOM     16  H   UNL A   1      30.319  23.584  22.622  1.00  0.00     0.169 HD
ATOM     17  O   UNL A   1      31.741  21.708  22.468  1.00  0.00    -0.274 OA
BRANCH  15  18
ATOM     18  C   UNL A   1      33.468  22.813  23.668  1.00  0.00     0.095 C 
ATOM     19  C   UNL A   1      34.522  23.334  22.688  1.00  0.00     0.041 C 
ATOM     20  C   UNL A   1      33.902  21.614  24.523  1.00  0.00     0.095 C 
ATOM     21  C   UNL A   1      35.932  23.196  23.187  1.00  0.00    -0.030 C 
ATOM     22  C   UNL A   1      35.301  21.772  25.144  1.00  0.00     0.041 C 
ATOM     23  C   UNL A   1      36.280  22.506  24.280  1.00  0.00    -0.030 C 
BRANCH  20  24
ATOM     24  C   UNL A   1      32.864  21.129  25.552  1.00  0.00     0.228 C 
ATOM     25  O   UNL A   1      32.323  21.963  26.291  1.00  0.00    -0.274 OA
ATOM     26  N   UNL A   1      32.377  19.854  25.641  1.00  0.00    -0.326 N 
ATOM     27  H   UNL A   1      31.716  19.718  26.358  1.00  0.00     0.169 HD
BRANCH  26  28
ATOM     28  C   UNL A   1      32.660  18.713  24.886  1.00  0.00     0.048 A 
ATOM     29  C   UNL A   1      32.503  18.794  23.498  1.00  0.00     0.026 A 
ATOM     30  C   UNL A   1      33.096  17.524  25.461  1.00  0.00     0.111 A 
ATOM     31  C   UNL A   1      32.931  17.745  22.679  1.00  0.00     0.009 A 
ATOM     32  C   UNL A   1      33.563  16.492  24.640  1.00  0.00     0.271 A 
ATOM     33  C   UNL A   1      33.495  16.603  23.246  1.00  0.00     0.086 A 
BRANCH  32  34
ATOM     34  N   UNL A   1      34.183  15.308  25.245  1.00  0.00     0.062 N 
ATOM     35  O   UNL A   1      33.428  14.401  25.628  1.00  0.00    -0.258 OA
ATOM     36  O   UNL A   1      35.417  15.269  25.307  1.00  0.00    -0.258 OA
ENDBRANCH  32  34
ENDBRANCH  26  28
ENDBRANCH  20  24
ENDBRANCH  15  18
ENDBRANCH  13  14
ENDBRANCH   6   8
ENDBRANCH   5   6
ENDBRANCH   4   5
ENDBRANCH   3   4
ENDBRANCH   2   3
ENDBRANCH   1   2
BRANCH   1  37
ATOM     37  C   UNL A   1      34.747  32.018  29.519  1.00  0.00     0.188 C 
BRANCH  37  38
ATOM     38  O   UNL A   1      36.040  32.482  29.924  1.00  0.00    -0.376 OA
BRANCH  38  39
ATOM     39  C   UNL A   1      37.151  31.644  29.609  1.00  0.00     0.202 C 
BRANCH  39  40
ATOM     40  C   UNL A   1      38.476  32.019  30.278  1.00  0.00     0.261 C 
BRANCH  40  41
ATOM     41  O   UNL A   1      39.567  31.149  29.930  1.00  0.00    -0.460 OA
BRANCH  41  42
ATOM     42  C   UNL A   1      39.677  30.049  30.711  1.00  0.00     0.338 C 
ATOM     43  O   UNL A   1      39.416  28.898  30.408  1.00  0.00    -0.246 OA
BRANCH  42  44
ATOM     44  C   UNL A   1      40.186  30.396  32.048  1.00  0.00     0.060 A 
ATOM     45  C   UNL A   1      41.471  30.938  32.150  1.00  0.00     0.016 A 
ATOM     46  C   UNL A   1      39.508  29.952  33.187  1.00  0.00     0.016 A 
ATOM     47  C   UNL A   1      42.115  30.961  33.388  1.00  0.00     0.010 A 
ATOM     48  C   UNL A   1      40.153  29.988  34.428  1.00  0.00     0.010 A 
ATOM     49  C   UNL A   1      41.484  30.429  34.522  1.00  0.00    -0.014 A 
BRANCH  49  50
ATOM     50  C   UNL A   1      42.282  30.161  35.748  1.00  0.00     0.031 A 
ATOM     51  C   UNL A   1      42.274  31.173  36.870  1.00  0.00     0.074 A 
ATOM     52  C   UNL A   1      42.994  29.028  35.881  1.00  0.00     0.049 A 
ATOM     53  N   UNL A   1      42.854  31.116  38.042  1.00  0.00    -0.248 NA
ATOM     54  C   UNL A   1      41.515  32.413  36.639  1.00  0.00     0.031 C 
ATOM     55  C   UNL A   1      43.108  27.976  34.874  1.00  0.00     0.029 A 
ATOM     56  N   UNL A   1      43.770  28.583  36.924  1.00  0.00    -0.354 N 
ATOM     57  C   UNL A   1      42.554  32.316  38.675  1.00  0.00     0.074 A 
ATOM     58  C   UNL A   1      41.755  33.091  37.752  1.00  0.00     0.031 C 
ATOM     59  C   UNL A   1      43.918  27.011  35.343  1.00  0.00     0.029 A 
ATOM     60  C   UNL A   1      44.383  27.378  36.681  1.00  0.00     0.049 A 
ATOM     61  H   UNL A   1      43.876  29.081  37.766  1.00  0.00     0.167 HD
ATOM     62  C   UNL A   1      42.883  32.728  39.923  1.00  0.00     0.034 A 
ATOM     63  C   UNL A   1      45.218  26.650  37.450  1.00  0.00     0.034 A 
ATOM     64  C   UNL A   1      43.633  31.945  40.868  1.00  0.00     0.049 A 
ATOM     65  C   UNL A   1      45.553  27.123  38.843  1.00  0.00     0.074 A 
ATOM     66  C   UNL A   1      43.951  32.253  42.179  1.00  0.00     0.029 A 
ATOM     67  N   UNL A   1      44.181  30.702  40.604  1.00  0.00    -0.354 N 
ATOM     68  N   UNL A   1      45.125  28.184  39.481  1.00  0.00    -0.248 NA
ATOM     69  C   UNL A   1      46.455  26.272  39.636  1.00  0.00     0.031 C 
ATOM     70  C   UNL A   1      44.699  31.194  42.708  1.00  0.00     0.029 A 
ATOM     71  C   UNL A   1      44.841  30.229  41.726  1.00  0.00     0.049 A 
ATOM     72  H   UNL A   1      44.112  30.224  39.746  1.00  0.00     0.167 HD
ATOM     73  C   UNL A   1      45.669  28.106  40.760  1.00  0.00     0.074 A 
ATOM     74  C   UNL A   1      46.446  26.885  40.811  1.00  0.00     0.031 C 
ATOM     75  C   UNL A   1      45.548  28.977  41.794  1.00  0.00     0.034 A 
BRANCH  62  76
ATOM     76  C   UNL A   1      42.375  34.073  40.369  1.00  0.00     0.023 A 
ATOM     77  C   UNL A   1      43.221  35.196  40.265  1.00  0.00     0.012 A 
ATOM     78  C   UNL A   1      41.055  34.240  40.828  1.00  0.00     0.148 A 
ATOM     79  C   UNL A   1      42.767  36.462  40.633  1.00  0.00     0.002 A 
ATOM     80  C   UNL A   1      40.599  35.511  41.161  1.00  0.00     0.091 A 
ATOM     81  F   UNL A   1      40.274  33.157  40.947  1.00  0.00    -0.205 F 
ATOM     82  C   UNL A   1      41.455  36.621  41.069  1.00  0.00     0.022 A 
BRANCH  80  83
ATOM     83  S   UNL A   1      38.902  35.816  41.667  1.00  0.00     0.127 S 
ATOM     84  O   UNL A   1      39.073  36.182  43.072  1.00  0.00    -0.237 OA
ATOM     85  O   UNL A   1      38.506  36.923  40.794  1.00  0.00    -0.237 OA
ATOM     86  O   UNL A   1      38.188  34.572  41.418  1.00  0.00    -0.744 OA
ENDBRANCH  80  83
ENDBRANCH  62  76
BRANCH  63  87
ATOM     87  C   UNL A   1      45.732  25.343  36.952  1.00  0.00     0.023 A 
ATOM     88  C   UNL A   1      44.925  24.196  37.076  1.00  0.00     0.012 A 
ATOM     89  C   UNL A   1      46.994  25.233  36.340  1.00  0.00     0.148 A 
ATOM     90  C   UNL A   1      45.377  22.956  36.624  1.00  0.00     0.002 A 
ATOM     91  C   UNL A   1      47.418  24.004  35.845  1.00  0.00     0.091 A 
ATOM     92  F   UNL A   1      47.760  26.330  36.254  1.00  0.00    -0.205 F 
ATOM     93  C   UNL A   1      46.617  22.862  35.999  1.00  0.00     0.022 A 
BRANCH  91  94
ATOM     94  S   UNL A   1      48.943  23.834  34.911  1.00  0.00     0.127 S 
ATOM     95  O   UNL A   1      48.882  22.438  34.485  1.00  0.00    -0.237 OA
ATOM     96  O   UNL A   1      48.762  24.813  33.838  1.00  0.00    -0.237 OA
ATOM     97  O   UNL A   1      50.005  24.175  35.847  1.00  0.00    -0.744 OA
ENDBRANCH  91  94
ENDBRANCH  63  87
BRANCH  75  98
ATOM     98  C   UNL A   1      46.242  28.636  43.087  1.00  0.00     0.023 A 
ATOM     99  C   UNL A   1      45.518  28.006  44.117  1.00  0.00     0.012 A 
ATOM    100  C   UNL A   1      47.623  28.861  43.253  1.00  0.00     0.148 A 
ATOM    101  C   UNL A   1      46.151  27.631  45.303  1.00  0.00     0.002 A 
ATOM    102  C   UNL A   1      48.255  28.450  44.422  1.00  0.00     0.091 A 
ATOM    103  F   UNL A   1      48.297  29.483  42.272  1.00  0.00    -0.205 F 
ATOM    104  C   UNL A   1      47.520  27.842  45.451  1.00  0.00     0.022 A 
BRANCH 102 105
ATOM    105  S   UNL A   1      50.032  28.613  44.638  1.00  0.00     0.127 S 
ATOM    106  O   UNL A   1      50.179  30.049  44.864  1.00  0.00    -0.237 OA
ATOM    107  O   UNL A   1      50.290  27.782  45.818  1.00  0.00    -0.237 OA
ATOM    108  O   UNL A   1      50.620  28.097  43.409  1.00  0.00    -0.744 OA
ENDBRANCH 102 105
ENDBRANCH  75  98
ENDBRANCH  49  50
ENDBRANCH  42  44
ENDBRANCH  41  42
ENDBRANCH  40  41
ENDBRANCH  39  40
ENDBRANCH  38  39
ENDBRANCH  37  38
ENDBRANCH   1  37
TORSDOF 25
ENDMDL
