MODEL 1
REMARK VINA RESULT:     -11.7      0.000      0.000
REMARK SMILES Cc1[nH]c2ccccc2c1[C@H](C(=O)OCCOCCOCCOC(=O)c1ccc(-c2c3nc(c(-c4cccc(S(=O)(=O)[O-])c4F)c4ccc([nH]4)c(-c4cccc(S(=O)(=O)[O-])c4F)c4nc(c(-c5cccc(S(=O)(=O)[O-])c5F)c5ccc2[nH]5)C=C4)C=C3)cc1)[NH+]1CCN(C(=O)c2ccco2)CC1
REMARK SMILES IDX 19 1 18 2 17 3 16 4 15 5 14 6 12 7 13 8 11 9 10 10 1 11 2 12
REMARK SMILES IDX 3 13 4 14 9 16 5 17 8 18 6 19 7 20 89 21 90 22 101 23 91 25
REMARK SMILES IDX 100 26 92 27 93 28 94 29 95 30 96 31 99 32 97 33 98 34 20 35
REMARK SMILES IDX 21 36 22 37 23 38 24 39 25 40 26 41 27 42 88 43 28 44 87 45
REMARK SMILES IDX 29 46 30 47 31 48 81 49 32 50 86 51 80 52 82 53 33 54 85 55
REMARK SMILES IDX 79 56 78 57 34 59 66 60 46 61 65 62 47 63 50 64 64 65 83 66
REMARK SMILES IDX 48 67 49 68 63 70 84 71 51 72 35 73 36 74 44 75 37 76 39 77
REMARK SMILES IDX 45 78 38 79 40 80 41 81 42 82 43 83 67 84 68 85 76 86 69 87
REMARK SMILES IDX 71 88 77 89 70 90 72 91 73 92 74 93 75 94 52 95 53 96 61 97
REMARK SMILES IDX 54 98 56 99 62 100 55 101 57 102 58 103 59 104 60 105
REMARK H PARENT 3 15 89 24 82 58 50 69
REMARK Flexibility Score: inf
ROOT
ATOM      1  C   UNL A   1      32.949  30.508  27.008  1.00  0.00     0.188 C 
ENDROOT
BRANCH   1   2
ATOM      2  C   UNL A   1      33.517  29.139  26.591  1.00  0.00     0.188 C 
BRANCH   2   3
ATOM      3  O   UNL A   1      33.072  27.954  27.230  1.00  0.00    -0.376 OA
BRANCH   3   4
ATOM      4  C   UNL A   1      31.727  27.523  27.108  1.00  0.00     0.202 C 
BRANCH   4   5
ATOM      5  C   UNL A   1      31.505  26.104  26.594  1.00  0.00     0.261 C 
BRANCH   5   6
ATOM      6  O   UNL A   1      32.703  25.541  26.019  1.00  0.00    -0.459 OA
BRANCH   6   7
ATOM      7  C   UNL A   1      32.667  24.230  25.682  1.00  0.00     0.370 C 
ATOM      8  O   UNL A   1      31.951  23.404  26.241  1.00  0.00    -0.245 OA
BRANCH   7   9
ATOM      9  C   UNL A   1      33.704  23.806  24.647  1.00  0.00     0.328 C 
BRANCH   9  10
ATOM     10  C   UNL A   1      34.559  22.531  24.873  1.00  0.00     0.049 A 
ATOM     11  C   UNL A   1      37.075  23.213  25.482  1.00  0.00     0.065 C 
ATOM     12  C   UNL A   1      35.919  22.346  25.161  1.00  0.00     0.022 A 
ATOM     13  N   UNL A   1      36.206  21.008  25.087  1.00  0.00    -0.358 N 
ATOM     14  C   UNL A   1      35.094  20.274  24.818  1.00  0.00     0.046 A 
ATOM     15  H   UNL A   1      37.105  20.627  25.212  1.00  0.00     0.166 HD
ATOM     16  C   UNL A   1      34.045  21.175  24.661  1.00  0.00     0.009 A 
ATOM     17  C   UNL A   1      34.968  18.887  24.691  1.00  0.00     0.027 A 
ATOM     18  C   UNL A   1      32.784  20.633  24.328  1.00  0.00     0.011 A 
ATOM     19  C   UNL A   1      33.706  18.383  24.394  1.00  0.00     0.002 A 
ATOM     20  C   UNL A   1      32.627  19.241  24.211  1.00  0.00     0.001 A 
ENDBRANCH   9  10
BRANCH   9  21
ATOM     21  N   UNL A   1      33.155  23.888  23.259  1.00  0.00    -0.316 N 
ATOM     22  C   UNL A   1      31.775  23.432  23.079  1.00  0.00     0.285 C 
ATOM     23  C   UNL A   1      33.322  25.205  22.614  1.00  0.00     0.285 C 
ATOM     24  H   UNL A   1      33.751  23.211  22.784  1.00  0.00     0.349 HD
ATOM     25  C   UNL A   1      30.656  24.424  23.433  1.00  0.00     0.181 C 
ATOM     26  C   UNL A   1      32.241  26.298  22.825  1.00  0.00     0.181 C 
ATOM     27  N   UNL A   1      30.881  25.835  23.128  1.00  0.00    -0.325 N 
ATOM     28  C   UNL A   1      29.850  26.718  23.534  1.00  0.00     0.289 C 
ATOM     29  O   UNL A   1      28.887  26.261  24.159  1.00  0.00    -0.265 OA
BRANCH  28  30
ATOM     30  C   UNL A   1      29.923  28.134  23.201  1.00  0.00     0.191 A 
ATOM     31  C   UNL A   1      30.365  29.261  23.874  1.00  0.00     0.056 A 
ATOM     32  O   UNL A   1      29.580  28.499  21.919  1.00  0.00    -0.459 OA
ATOM     33  C   UNL A   1      30.247  30.357  22.982  1.00  0.00     0.043 A 
ATOM     34  C   UNL A   1      29.759  29.840  21.808  1.00  0.00     0.196 A 
ENDBRANCH  28  30
ENDBRANCH   9  21
ENDBRANCH   7   9
ENDBRANCH   6   7
ENDBRANCH   5   6
ENDBRANCH   4   5
ENDBRANCH   3   4
ENDBRANCH   2   3
ENDBRANCH   1   2
BRANCH   1  35
ATOM     35  O   UNL A   1      31.674  30.952  26.554  1.00  0.00    -0.376 OA
BRANCH  35  36
ATOM     36  C   UNL A   1      31.302  32.313  26.711  1.00  0.00     0.202 C 
BRANCH  36  37
ATOM     37  C   UNL A   1      32.420  33.327  26.945  1.00  0.00     0.261 C 
BRANCH  37  38
ATOM     38  O   UNL A   1      32.466  33.807  28.290  1.00  0.00    -0.460 OA
BRANCH  38  39
ATOM     39  C   UNL A   1      33.591  34.485  28.609  1.00  0.00     0.338 C 
ATOM     40  O   UNL A   1      33.686  35.680  28.861  1.00  0.00    -0.246 OA
BRANCH  39  41
ATOM     41  C   UNL A   1      34.708  33.539  28.778  1.00  0.00     0.060 A 
ATOM     42  C   UNL A   1      34.466  32.364  29.502  1.00  0.00     0.016 A 
ATOM     43  C   UNL A   1      35.983  33.825  28.282  1.00  0.00     0.016 A 
ATOM     44  C   UNL A   1      35.518  31.512  29.811  1.00  0.00     0.010 A 
ATOM     45  C   UNL A   1      37.041  32.977  28.603  1.00  0.00     0.010 A 
ATOM     46  C   UNL A   1      36.817  31.856  29.421  1.00  0.00    -0.014 A 
BRANCH  46  47
ATOM     47  C   UNL A   1      37.958  31.183  30.077  1.00  0.00     0.031 A 
ATOM     48  C   UNL A   1      38.264  31.546  31.504  1.00  0.00     0.074 A 
ATOM     49  C   UNL A   1      38.676  30.255  29.425  1.00  0.00     0.049 A 
ATOM     50  N   UNL A   1      39.216  31.109  32.285  1.00  0.00    -0.248 NA
ATOM     51  C   UNL A   1      37.380  32.541  32.136  1.00  0.00     0.031 C 
ATOM     52  C   UNL A   1      38.445  29.822  28.048  1.00  0.00     0.029 A 
ATOM     53  N   UNL A   1      39.760  29.526  29.835  1.00  0.00    -0.354 N 
ATOM     54  C   UNL A   1      39.065  31.797  33.483  1.00  0.00     0.074 A 
ATOM     55  C   UNL A   1      37.941  32.691  33.325  1.00  0.00     0.031 C 
ATOM     56  C   UNL A   1      39.381  28.917  27.716  1.00  0.00     0.029 A 
ATOM     57  C   UNL A   1      40.288  28.731  28.848  1.00  0.00     0.049 A 
ATOM     58  H   UNL A   1      40.125  29.567  30.748  1.00  0.00     0.167 HD
ATOM     59  C   UNL A   1      39.792  31.683  34.619  1.00  0.00     0.034 A 
ATOM     60  C   UNL A   1      41.392  27.960  28.857  1.00  0.00     0.034 A 
ATOM     61  C   UNL A   1      40.900  30.779  34.764  1.00  0.00     0.049 A 
ATOM     62  C   UNL A   1      42.197  27.866  30.127  1.00  0.00     0.074 A 
ATOM     63  C   UNL A   1      41.687  30.553  35.878  1.00  0.00     0.029 A 
ATOM     64  N   UNL A   1      41.385  29.960  33.756  1.00  0.00    -0.354 N 
ATOM     65  N   UNL A   1      41.988  28.447  31.285  1.00  0.00    -0.248 NA
ATOM     66  C   UNL A   1      43.368  26.980  30.105  1.00  0.00     0.031 C 
ATOM     67  C   UNL A   1      42.673  29.623  35.531  1.00  0.00     0.029 A 
ATOM     68  C   UNL A   1      42.470  29.235  34.216  1.00  0.00     0.049 A 
ATOM     69  H   UNL A   1      41.013  29.903  32.846  1.00  0.00     0.167 HD
ATOM     70  C   UNL A   1      42.975  27.967  32.139  1.00  0.00     0.074 A 
ATOM     71  C   UNL A   1      43.767  27.029  31.367  1.00  0.00     0.031 C 
ATOM     72  C   UNL A   1      43.215  28.277  33.438  1.00  0.00     0.034 A 
BRANCH  59  73
ATOM     73  C   UNL A   1      39.406  32.552  35.788  1.00  0.00     0.023 A 
ATOM     74  C   UNL A   1      38.589  32.034  36.813  1.00  0.00     0.012 A 
ATOM     75  C   UNL A   1      39.885  33.873  35.888  1.00  0.00     0.148 A 
ATOM     76  C   UNL A   1      38.225  32.828  37.901  1.00  0.00     0.002 A 
ATOM     77  C   UNL A   1      39.559  34.642  37.000  1.00  0.00     0.091 A 
ATOM     78  F   UNL A   1      40.639  34.358  34.891  1.00  0.00    -0.205 F 
ATOM     79  C   UNL A   1      38.719  34.126  38.001  1.00  0.00     0.022 A 
BRANCH  77  80
ATOM     80  S   UNL A   1      40.208  36.296  37.259  1.00  0.00     0.127 S 
ATOM     81  O   UNL A   1      41.610  36.019  37.568  1.00  0.00    -0.237 OA
ATOM     82  O   UNL A   1      39.984  36.921  35.954  1.00  0.00    -0.237 OA
ATOM     83  O   UNL A   1      39.432  36.869  38.349  1.00  0.00    -0.744 OA
ENDBRANCH  77  80
ENDBRANCH  59  73
BRANCH  60  84
ATOM     84  C   UNL A   1      41.778  27.194  27.639  1.00  0.00     0.023 A 
ATOM     85  C   UNL A   1      42.328  27.871  26.534  1.00  0.00     0.012 A 
ATOM     86  C   UNL A   1      41.622  25.795  27.578  1.00  0.00     0.148 A 
ATOM     87  C   UNL A   1      42.682  27.176  25.376  1.00  0.00     0.002 A 
ATOM     88  C   UNL A   1      42.033  25.101  26.446  1.00  0.00     0.091 A 
ATOM     89  F   UNL A   1      41.086  25.169  28.634  1.00  0.00    -0.205 F 
ATOM     90  C   UNL A   1      42.543  25.791  25.336  1.00  0.00     0.022 A 
BRANCH  88  91
ATOM     91  S   UNL A   1      42.019  23.306  26.353  1.00  0.00     0.127 S 
ATOM     92  O   UNL A   1      40.588  23.018  26.349  1.00  0.00    -0.237 OA
ATOM     93  O   UNL A   1      42.700  23.067  25.078  1.00  0.00    -0.237 OA
ATOM     94  O   UNL A   1      42.753  22.844  27.522  1.00  0.00    -0.744 OA
ENDBRANCH  88  91
ENDBRANCH  60  84
BRANCH  72  95
ATOM     95  C   UNL A   1      44.352  27.560  34.122  1.00  0.00     0.023 A 
ATOM     96  C   UNL A   1      45.619  28.168  34.213  1.00  0.00     0.012 A 
ATOM     97  C   UNL A   1      44.145  26.300  34.718  1.00  0.00     0.148 A 
ATOM     98  C   UNL A   1      46.677  27.511  34.842  1.00  0.00     0.002 A 
ATOM     99  C   UNL A   1      45.187  25.677  35.393  1.00  0.00     0.091 A 
ATOM    100  F   UNL A   1      42.936  25.730  34.609  1.00  0.00    -0.205 F 
ATOM    101  C   UNL A   1      46.458  26.272  35.440  1.00  0.00     0.022 A 
BRANCH  99 102
ATOM    102  S   UNL A   1      44.968  24.131  36.278  1.00  0.00     0.127 S 
ATOM    103  O   UNL A   1      44.329  23.295  35.265  1.00  0.00    -0.237 OA
ATOM    104  O   UNL A   1      46.348  23.758  36.596  1.00  0.00    -0.237 OA
ATOM    105  O   UNL A   1      44.148  24.446  37.439  1.00  0.00    -0.744 OA
ENDBRANCH  99 102
ENDBRANCH  72  95
ENDBRANCH  46  47
ENDBRANCH  39  41
ENDBRANCH  38  39
ENDBRANCH  37  38
ENDBRANCH  36  37
ENDBRANCH  35  36
ENDBRANCH   1  35
TORSDOF 23
ENDMDL
MODEL 2
REMARK VINA RESULT:     -10.4      5.584     11.130
REMARK SMILES Cc1[nH]c2ccccc2c1[C@H](C(=O)OCCOCCOCCOC(=O)c1ccc(-c2c3nc(c(-c4cccc(S(=O)(=O)[O-])c4F)c4ccc([nH]4)c(-c4cccc(S(=O)(=O)[O-])c4F)c4nc(c(-c5cccc(S(=O)(=O)[O-])c5F)c5ccc2[nH]5)C=C4)C=C3)cc1)[NH+]1CCN(C(=O)c2ccco2)CC1
REMARK SMILES IDX 19 1 18 2 17 3 16 4 15 5 14 6 12 7 13 8 11 9 10 10 1 11 2 12
REMARK SMILES IDX 3 13 4 14 9 16 5 17 8 18 6 19 7 20 89 21 90 22 101 23 91 25
REMARK SMILES IDX 100 26 92 27 93 28 94 29 95 30 96 31 99 32 97 33 98 34 20 35
REMARK SMILES IDX 21 36 22 37 23 38 24 39 25 40 26 41 27 42 88 43 28 44 87 45
REMARK SMILES IDX 29 46 30 47 31 48 81 49 32 50 86 51 80 52 82 53 33 54 85 55
REMARK SMILES IDX 79 56 78 57 34 59 66 60 46 61 65 62 47 63 50 64 64 65 83 66
REMARK SMILES IDX 48 67 49 68 63 70 84 71 51 72 35 73 36 74 44 75 37 76 39 77
REMARK SMILES IDX 45 78 38 79 40 80 41 81 42 82 43 83 67 84 68 85 76 86 69 87
REMARK SMILES IDX 71 88 77 89 70 90 72 91 73 92 74 93 75 94 52 95 53 96 61 97
REMARK SMILES IDX 54 98 56 99 62 100 55 101 57 102 58 103 59 104 60 105
REMARK H PARENT 3 15 89 24 82 58 50 69
REMARK Flexibility Score: inf
ROOT
ATOM      1  C   UNL A   1      35.950  30.051  28.185  1.00  0.00     0.188 C 
ENDROOT
BRANCH   1   2
ATOM      2  C   UNL A   1      34.825  30.698  27.357  1.00  0.00     0.188 C 
BRANCH   2   3
ATOM      3  O   UNL A   1      33.804  29.897  26.784  1.00  0.00    -0.376 OA
BRANCH   3   4
ATOM      4  C   UNL A   1      32.504  29.863  27.349  1.00  0.00     0.202 C 
BRANCH   4   5
ATOM      5  C   UNL A   1      31.714  28.570  27.174  1.00  0.00     0.261 C 
BRANCH   5   6
ATOM      6  O   UNL A   1      32.567  27.452  26.851  1.00  0.00    -0.459 OA
BRANCH   6   7
ATOM      7  C   UNL A   1      32.552  27.016  25.569  1.00  0.00     0.370 C 
ATOM      8  O   UNL A   1      33.545  26.588  24.985  1.00  0.00    -0.245 OA
BRANCH   7   9
ATOM      9  C   UNL A   1      31.235  27.234  24.833  1.00  0.00     0.328 C 
BRANCH   9  10
ATOM     10  C   UNL A   1      31.169  28.194  23.615  1.00  0.00     0.049 A 
ATOM     11  C   UNL A   1      33.643  28.745  22.751  1.00  0.00     0.065 C 
ATOM     12  C   UNL A   1      32.166  28.807  22.843  1.00  0.00     0.022 A 
ATOM     13  N   UNL A   1      31.574  29.704  21.993  1.00  0.00    -0.358 N 
ATOM     14  C   UNL A   1      30.220  29.685  22.113  1.00  0.00     0.046 A 
ATOM     15  H   UNL A   1      32.067  30.290  21.374  1.00  0.00     0.166 HD
ATOM     16  C   UNL A   1      29.918  28.773  23.120  1.00  0.00     0.009 A 
ATOM     17  C   UNL A   1      29.267  30.428  21.409  1.00  0.00     0.027 A 
ATOM     18  C   UNL A   1      28.554  28.620  23.452  1.00  0.00     0.011 A 
ATOM     19  C   UNL A   1      27.929  30.229  21.738  1.00  0.00     0.002 A 
ATOM     20  C   UNL A   1      27.575  29.341  22.748  1.00  0.00     0.001 A 
ENDBRANCH   9  10
BRANCH   9  21
ATOM     21  N   UNL A   1      30.529  25.941  24.582  1.00  0.00    -0.316 N 
ATOM     22  C   UNL A   1      30.516  25.466  23.197  1.00  0.00     0.285 C 
ATOM     23  C   UNL A   1      30.941  24.838  25.472  1.00  0.00     0.285 C 
ATOM     24  H   UNL A   1      29.571  26.206  24.808  1.00  0.00     0.349 HD
ATOM     25  C   UNL A   1      31.766  24.723  22.698  1.00  0.00     0.181 C 
ATOM     26  C   UNL A   1      32.151  23.952  25.075  1.00  0.00     0.181 C 
ATOM     27  N   UNL A   1      32.451  23.844  23.643  1.00  0.00    -0.325 N 
ATOM     28  C   UNL A   1      33.635  23.234  23.157  1.00  0.00     0.289 C 
ATOM     29  O   UNL A   1      34.034  23.527  22.025  1.00  0.00    -0.265 OA
BRANCH  28  30
ATOM     30  C   UNL A   1      34.351  22.267  23.977  1.00  0.00     0.191 A 
ATOM     31  C   UNL A   1      35.529  22.305  24.705  1.00  0.00     0.056 A 
ATOM     32  O   UNL A   1      33.741  21.053  24.200  1.00  0.00    -0.459 OA
ATOM     33  C   UNL A   1      35.659  21.055  25.361  1.00  0.00     0.043 A 
ATOM     34  C   UNL A   1      34.547  20.328  25.016  1.00  0.00     0.196 A 
ENDBRANCH  28  30
ENDBRANCH   9  21
ENDBRANCH   7   9
ENDBRANCH   6   7
ENDBRANCH   5   6
ENDBRANCH   4   5
ENDBRANCH   3   4
ENDBRANCH   2   3
ENDBRANCH   1   2
BRANCH   1  35
ATOM     35  O   UNL A   1      36.989  30.834  28.766  1.00  0.00    -0.376 OA
BRANCH  35  36
ATOM     36  C   UNL A   1      37.984  30.209  29.561  1.00  0.00     0.202 C 
BRANCH  36  37
ATOM     37  C   UNL A   1      37.625  28.882  30.227  1.00  0.00     0.261 C 
BRANCH  37  38
ATOM     38  O   UNL A   1      37.063  29.046  31.531  1.00  0.00    -0.460 OA
BRANCH  38  39
ATOM     39  C   UNL A   1      37.841  28.602  32.542  1.00  0.00     0.338 C 
ATOM     40  O   UNL A   1      38.023  27.437  32.877  1.00  0.00    -0.246 OA
BRANCH  39  41
ATOM     41  C   UNL A   1      38.599  29.728  33.115  1.00  0.00     0.060 A 
ATOM     42  C   UNL A   1      37.943  30.960  33.241  1.00  0.00     0.016 A 
ATOM     43  C   UNL A   1      39.943  29.592  33.472  1.00  0.00     0.016 A 
ATOM     44  C   UNL A   1      38.653  32.085  33.640  1.00  0.00     0.010 A 
ATOM     45  C   UNL A   1      40.659  30.724  33.860  1.00  0.00     0.010 A 
ATOM     46  C   UNL A   1      40.027  31.979  33.881  1.00  0.00    -0.014 A 
BRANCH  46  47
ATOM     47  C   UNL A   1      40.841  33.213  33.909  1.00  0.00     0.031 A 
ATOM     48  C   UNL A   1      41.372  33.736  32.603  1.00  0.00     0.074 A 
ATOM     49  C   UNL A   1      41.070  33.859  35.063  1.00  0.00     0.049 A 
ATOM     50  N   UNL A   1      42.118  34.783  32.371  1.00  0.00    -0.248 NA
ATOM     51  C   UNL A   1      41.018  32.972  31.393  1.00  0.00     0.031 C 
ATOM     52  C   UNL A   1      40.582  33.442  36.376  1.00  0.00     0.029 A 
ATOM     53  N   UNL A   1      41.791  34.996  35.313  1.00  0.00    -0.354 N 
ATOM     54  C   UNL A   1      42.349  34.784  31.000  1.00  0.00     0.074 A 
ATOM     55  C   UNL A   1      41.677  33.629  30.451  1.00  0.00     0.031 C 
ATOM     56  C   UNL A   1      41.043  34.299  37.302  1.00  0.00     0.029 A 
ATOM     57  C   UNL A   1      41.876  35.307  36.647  1.00  0.00     0.049 A 
ATOM     58  H   UNL A   1      42.207  35.538  34.604  1.00  0.00     0.167 HD
ATOM     59  C   UNL A   1      43.048  35.678  30.263  1.00  0.00     0.034 A 
ATOM     60  C   UNL A   1      42.570  36.282  37.265  1.00  0.00     0.034 A 
ATOM     61  C   UNL A   1      43.700  36.830  30.822  1.00  0.00     0.049 A 
ATOM     62  C   UNL A   1      43.357  37.253  36.423  1.00  0.00     0.074 A 
ATOM     63  C   UNL A   1      44.406  37.822  30.169  1.00  0.00     0.029 A 
ATOM     64  N   UNL A   1      43.735  37.136  32.175  1.00  0.00    -0.354 N 
ATOM     65  N   UNL A   1      43.488  37.301  35.118  1.00  0.00    -0.248 NA
ATOM     66  C   UNL A   1      44.062  38.326  37.136  1.00  0.00     0.031 C 
ATOM     67  C   UNL A   1      44.901  38.709  31.131  1.00  0.00     0.029 A 
ATOM     68  C   UNL A   1      44.462  38.295  32.379  1.00  0.00     0.049 A 
ATOM     69  H   UNL A   1      43.307  36.605  32.885  1.00  0.00     0.167 HD
ATOM     70  C   UNL A   1      44.255  38.430  34.852  1.00  0.00     0.074 A 
ATOM     71  C   UNL A   1      44.538  39.048  36.132  1.00  0.00     0.031 C 
ATOM     72  C   UNL A   1      44.694  38.911  33.661  1.00  0.00     0.034 A 
BRANCH  59  73
ATOM     73  C   UNL A   1      43.135  35.444  28.777  1.00  0.00     0.023 A 
ATOM     74  C   UNL A   1      42.216  36.068  27.909  1.00  0.00     0.012 A 
ATOM     75  C   UNL A   1      44.154  34.635  28.237  1.00  0.00     0.148 A 
ATOM     76  C   UNL A   1      42.287  35.861  26.531  1.00  0.00     0.002 A 
ATOM     77  C   UNL A   1      44.248  34.473  26.859  1.00  0.00     0.091 A 
ATOM     78  F   UNL A   1      45.003  34.029  29.079  1.00  0.00    -0.205 F 
ATOM     79  C   UNL A   1      43.308  35.074  26.006  1.00  0.00     0.022 A 
BRANCH  77  80
ATOM     80  S   UNL A   1      45.574  33.545  26.081  1.00  0.00     0.127 S 
ATOM     81  O   UNL A   1      46.115  34.530  25.145  1.00  0.00    -0.237 OA
ATOM     82  O   UNL A   1      46.444  33.242  27.218  1.00  0.00    -0.237 OA
ATOM     83  O   UNL A   1      44.947  32.382  25.468  1.00  0.00    -0.744 OA
ENDBRANCH  77  80
ENDBRANCH  59  73
BRANCH  60  84
ATOM     84  C   UNL A   1      42.520  36.408  38.748  1.00  0.00     0.023 A 
ATOM     85  C   UNL A   1      41.538  37.220  39.347  1.00  0.00     0.012 A 
ATOM     86  C   UNL A   1      43.428  35.711  39.570  1.00  0.00     0.148 A 
ATOM     87  C   UNL A   1      41.482  37.366  40.734  1.00  0.00     0.002 A 
ATOM     88  C   UNL A   1      43.330  35.813  40.953  1.00  0.00     0.091 A 
ATOM     89  F   UNL A   1      44.364  34.954  38.982  1.00  0.00    -0.205 F 
ATOM     90  C   UNL A   1      42.371  36.655  41.537  1.00  0.00     0.022 A 
BRANCH  88  91
ATOM     91  S   UNL A   1      44.341  34.833  42.070  1.00  0.00     0.127 S 
ATOM     92  O   UNL A   1      43.606  34.958  43.325  1.00  0.00    -0.237 OA
ATOM     93  O   UNL A   1      44.279  33.509  41.447  1.00  0.00    -0.237 OA
ATOM     94  O   UNL A   1      45.661  35.446  42.048  1.00  0.00    -0.744 OA
ENDBRANCH  88  91
ENDBRANCH  60  84
BRANCH  72  95
ATOM     95  C   UNL A   1      45.488  40.193  33.683  1.00  0.00     0.023 A 
ATOM     96  C   UNL A   1      46.897  40.153  33.659  1.00  0.00     0.012 A 
ATOM     97  C   UNL A   1      44.832  41.439  33.679  1.00  0.00     0.148 A 
ATOM     98  C   UNL A   1      47.639  41.334  33.681  1.00  0.00     0.002 A 
ATOM     99  C   UNL A   1      45.577  42.611  33.643  1.00  0.00     0.091 A 
ATOM    100  F   UNL A   1      43.491  41.457  33.718  1.00  0.00    -0.205 F 
ATOM    101  C   UNL A   1      46.979  42.561  33.662  1.00  0.00     0.022 A 
BRANCH  99 102
ATOM    102  S   UNL A   1      44.812  44.230  33.514  1.00  0.00     0.127 S 
ATOM    103  O   UNL A   1      44.544  44.321  32.081  1.00  0.00    -0.237 OA
ATOM    104  O   UNL A   1      43.619  44.076  34.349  1.00  0.00    -0.237 OA
ATOM    105  O   UNL A   1      45.790  45.178  34.031  1.00  0.00    -0.744 OA
ENDBRANCH  99 102
ENDBRANCH  72  95
ENDBRANCH  46  47
ENDBRANCH  39  41
ENDBRANCH  38  39
ENDBRANCH  37  38
ENDBRANCH  36  37
ENDBRANCH  35  36
ENDBRANCH   1  35
TORSDOF 23
ENDMDL
MODEL 3
REMARK VINA RESULT:     -10.4      1.802      2.109
REMARK SMILES Cc1[nH]c2ccccc2c1[C@H](C(=O)OCCOCCOCCOC(=O)c1ccc(-c2c3nc(c(-c4cccc(S(=O)(=O)[O-])c4F)c4ccc([nH]4)c(-c4cccc(S(=O)(=O)[O-])c4F)c4nc(c(-c5cccc(S(=O)(=O)[O-])c5F)c5ccc2[nH]5)C=C4)C=C3)cc1)[NH+]1CCN(C(=O)c2ccco2)CC1
REMARK SMILES IDX 19 1 18 2 17 3 16 4 15 5 14 6 12 7 13 8 11 9 10 10 1 11 2 12
REMARK SMILES IDX 3 13 4 14 9 16 5 17 8 18 6 19 7 20 89 21 90 22 101 23 91 25
REMARK SMILES IDX 100 26 92 27 93 28 94 29 95 30 96 31 99 32 97 33 98 34 20 35
REMARK SMILES IDX 21 36 22 37 23 38 24 39 25 40 26 41 27 42 88 43 28 44 87 45
REMARK SMILES IDX 29 46 30 47 31 48 81 49 32 50 86 51 80 52 82 53 33 54 85 55
REMARK SMILES IDX 79 56 78 57 34 59 66 60 46 61 65 62 47 63 50 64 64 65 83 66
REMARK SMILES IDX 48 67 49 68 63 70 84 71 51 72 35 73 36 74 44 75 37 76 39 77
REMARK SMILES IDX 45 78 38 79 40 80 41 81 42 82 43 83 67 84 68 85 76 86 69 87
REMARK SMILES IDX 71 88 77 89 70 90 72 91 73 92 74 93 75 94 52 95 53 96 61 97
REMARK SMILES IDX 54 98 56 99 62 100 55 101 57 102 58 103 59 104 60 105
REMARK H PARENT 3 15 89 24 82 58 50 69
REMARK Flexibility Score: inf
ROOT
ATOM      1  C   UNL A   1      33.499  30.769  27.157  1.00  0.00     0.188 C 
ENDROOT
BRANCH   1   2
ATOM      2  C   UNL A   1      33.016  29.920  25.967  1.00  0.00     0.188 C 
BRANCH   2   3
ATOM      3  O   UNL A   1      32.893  28.512  26.093  1.00  0.00    -0.376 OA
BRANCH   3   4
ATOM      4  C   UNL A   1      31.708  27.930  26.611  1.00  0.00     0.202 C 
BRANCH   4   5
ATOM      5  C   UNL A   1      31.603  26.410  26.539  1.00  0.00     0.261 C 
BRANCH   5   6
ATOM      6  O   UNL A   1      32.737  25.818  25.871  1.00  0.00    -0.459 OA
BRANCH   6   7
ATOM      7  C   UNL A   1      32.667  24.494  25.594  1.00  0.00     0.370 C 
ATOM      8  O   UNL A   1      31.989  23.700  26.242  1.00  0.00    -0.245 OA
BRANCH   7   9
ATOM      9  C   UNL A   1      33.618  24.016  24.503  1.00  0.00     0.328 C 
BRANCH   9  10
ATOM     10  C   UNL A   1      34.487  22.749  24.723  1.00  0.00     0.049 A 
ATOM     11  C   UNL A   1      37.030  23.452  25.182  1.00  0.00     0.065 C 
ATOM     12  C   UNL A   1      35.861  22.574  24.947  1.00  0.00     0.022 A 
ATOM     13  N   UNL A   1      36.147  21.235  24.898  1.00  0.00    -0.358 N 
ATOM     14  C   UNL A   1      35.024  20.492  24.708  1.00  0.00     0.046 A 
ATOM     15  H   UNL A   1      37.052  20.858  24.987  1.00  0.00     0.166 HD
ATOM     16  C   UNL A   1      33.967  21.387  24.578  1.00  0.00     0.009 A 
ATOM     17  C   UNL A   1      34.896  19.102  24.629  1.00  0.00     0.027 A 
ATOM     18  C   UNL A   1      32.692  20.833  24.326  1.00  0.00     0.011 A 
ATOM     19  C   UNL A   1      33.621  18.588  24.413  1.00  0.00     0.002 A 
ATOM     20  C   UNL A   1      32.533  19.439  24.259  1.00  0.00     0.001 A 
ENDBRANCH   9  10
BRANCH   9  21
ATOM     21  N   UNL A   1      32.963  24.034  23.160  1.00  0.00    -0.316 N 
ATOM     22  C   UNL A   1      31.583  23.549  23.105  1.00  0.00     0.285 C 
ATOM     23  C   UNL A   1      33.053  25.327  22.455  1.00  0.00     0.285 C 
ATOM     24  H   UNL A   1      33.534  23.348  22.667  1.00  0.00     0.349 HD
ATOM     25  C   UNL A   1      30.475  24.535  23.507  1.00  0.00     0.181 C 
ATOM     26  C   UNL A   1      31.971  26.409  22.707  1.00  0.00     0.181 C 
ATOM     27  N   UNL A   1      30.648  25.936  23.132  1.00  0.00    -0.325 N 
ATOM     28  C   UNL A   1      29.634  26.817  23.584  1.00  0.00     0.289 C 
ATOM     29  O   UNL A   1      28.731  26.369  24.298  1.00  0.00    -0.265 OA
BRANCH  28  30
ATOM     30  C   UNL A   1      29.653  28.220  23.191  1.00  0.00     0.191 A 
ATOM     31  C   UNL A   1      29.269  28.907  22.052  1.00  0.00     0.056 A 
ATOM     32  O   UNL A   1      30.043  29.136  24.142  1.00  0.00    -0.459 OA
ATOM     33  C   UNL A   1      29.471  30.288  22.306  1.00  0.00     0.043 A 
ATOM     34  C   UNL A   1      29.948  30.372  23.590  1.00  0.00     0.196 A 
ENDBRANCH  28  30
ENDBRANCH   9  21
ENDBRANCH   7   9
ENDBRANCH   6   7
ENDBRANCH   5   6
ENDBRANCH   4   5
ENDBRANCH   3   4
ENDBRANCH   2   3
ENDBRANCH   1   2
BRANCH   1  35
ATOM     35  O   UNL A   1      32.641  31.710  27.794  1.00  0.00    -0.376 OA
BRANCH  35  36
ATOM     36  C   UNL A   1      32.563  33.040  27.303  1.00  0.00     0.202 C 
BRANCH  36  37
ATOM     37  C   UNL A   1      33.797  33.926  27.467  1.00  0.00     0.261 C 
BRANCH  37  38
ATOM     38  O   UNL A   1      33.612  34.966  28.430  1.00  0.00    -0.460 OA
BRANCH  38  39
ATOM     39  C   UNL A   1      33.871  34.606  29.706  1.00  0.00     0.338 C 
ATOM     40  O   UNL A   1      33.216  34.894  30.702  1.00  0.00    -0.246 OA
BRANCH  39  41
ATOM     41  C   UNL A   1      34.995  33.654  29.735  1.00  0.00     0.060 A 
ATOM     42  C   UNL A   1      34.766  32.388  30.290  1.00  0.00     0.016 A 
ATOM     43  C   UNL A   1      36.265  34.016  29.277  1.00  0.00     0.016 A 
ATOM     44  C   UNL A   1      35.825  31.510  30.472  1.00  0.00     0.010 A 
ATOM     45  C   UNL A   1      37.331  33.139  29.471  1.00  0.00     0.010 A 
ATOM     46  C   UNL A   1      37.119  31.914  30.126  1.00  0.00    -0.014 A 
BRANCH  46  47
ATOM     47  C   UNL A   1      38.268  31.165  30.676  1.00  0.00     0.031 A 
ATOM     48  C   UNL A   1      38.677  31.444  32.096  1.00  0.00     0.074 A 
ATOM     49  C   UNL A   1      38.905  30.243  29.937  1.00  0.00     0.049 A 
ATOM     50  N   UNL A   1      39.656  30.932  32.794  1.00  0.00    -0.248 NA
ATOM     51  C   UNL A   1      37.877  32.441  32.829  1.00  0.00     0.031 C 
ATOM     52  C   UNL A   1      38.571  29.888  28.559  1.00  0.00     0.029 A 
ATOM     53  N   UNL A   1      39.981  29.452  30.242  1.00  0.00    -0.354 N 
ATOM     54  C   UNL A   1      39.609  31.565  34.030  1.00  0.00     0.074 A 
ATOM     55  C   UNL A   1      38.517  32.510  33.986  1.00  0.00     0.031 C 
ATOM     56  C   UNL A   1      39.446  28.964  28.126  1.00  0.00     0.029 A 
ATOM     57  C   UNL A   1      40.412  28.686  29.187  1.00  0.00     0.049 A 
ATOM     58  H   UNL A   1      40.403  29.433  31.131  1.00  0.00     0.167 HD
ATOM     59  C   UNL A   1      40.399  31.367  35.110  1.00  0.00     0.034 A 
ATOM     60  C   UNL A   1      41.481  27.873  29.090  1.00  0.00     0.034 A 
ATOM     61  C   UNL A   1      41.474  30.413  35.142  1.00  0.00     0.049 A 
ATOM     62  C   UNL A   1      42.358  27.684  30.301  1.00  0.00     0.074 A 
ATOM     63  C   UNL A   1      42.318  30.101  36.192  1.00  0.00     0.029 A 
ATOM     64  N   UNL A   1      41.862  29.627  34.068  1.00  0.00    -0.354 N 
ATOM     65  N   UNL A   1      42.245  28.216  31.496  1.00  0.00    -0.248 NA
ATOM     66  C   UNL A   1      43.486  26.755  30.162  1.00  0.00     0.031 C 
ATOM     67  C   UNL A   1      43.240  29.152  35.740  1.00  0.00     0.029 A 
ATOM     68  C   UNL A   1      42.941  28.838  34.423  1.00  0.00     0.049 A 
ATOM     69  H   UNL A   1      41.432  29.630  33.182  1.00  0.00     0.167 HD
ATOM     70  C   UNL A   1      43.262  27.656  32.261  1.00  0.00     0.074 A 
ATOM     71  C   UNL A   1      43.965  26.726  31.398  1.00  0.00     0.031 C 
ATOM     72  C   UNL A   1      43.595  27.891  33.556  1.00  0.00     0.034 A 
BRANCH  59  73
ATOM     73  C   UNL A   1      40.123  32.192  36.341  1.00  0.00     0.023 A 
ATOM     74  C   UNL A   1      40.941  33.299  36.646  1.00  0.00     0.012 A 
ATOM     75  C   UNL A   1      39.030  31.890  37.176  1.00  0.00     0.148 A 
ATOM     76  C   UNL A   1      40.696  34.071  37.782  1.00  0.00     0.002 A 
ATOM     77  C   UNL A   1      38.763  32.693  38.279  1.00  0.00     0.091 A 
ATOM     78  F   UNL A   1      38.280  30.818  36.886  1.00  0.00    -0.205 F 
ATOM     79  C   UNL A   1      39.602  33.776  38.590  1.00  0.00     0.022 A 
BRANCH  77  80
ATOM     80  S   UNL A   1      37.333  32.444  39.337  1.00  0.00     0.127 S 
ATOM     81  O   UNL A   1      37.546  33.459  40.367  1.00  0.00    -0.237 OA
ATOM     82  O   UNL A   1      36.224  32.726  38.424  1.00  0.00    -0.237 OA
ATOM     83  O   UNL A   1      37.406  31.065  39.797  1.00  0.00    -0.744 OA
ENDBRANCH  77  80
ENDBRANCH  59  73
BRANCH  60  84
ATOM     84  C   UNL A   1      41.758  27.154  27.815  1.00  0.00     0.023 A 
ATOM     85  C   UNL A   1      42.192  27.875  26.687  1.00  0.00     0.012 A 
ATOM     86  C   UNL A   1      41.614  25.755  27.721  1.00  0.00     0.148 A 
ATOM     87  C   UNL A   1      42.442  27.224  25.478  1.00  0.00     0.002 A 
ATOM     88  C   UNL A   1      41.923  25.105  26.532  1.00  0.00     0.091 A 
ATOM     89  F   UNL A   1      41.187  25.087  28.802  1.00  0.00    -0.205 F 
ATOM     90  C   UNL A   1      42.317  25.840  25.403  1.00  0.00     0.022 A 
BRANCH  88  91
ATOM     91  S   UNL A   1      41.921  23.315  26.379  1.00  0.00     0.127 S 
ATOM     92  O   UNL A   1      42.554  23.126  25.077  1.00  0.00    -0.237 OA
ATOM     93  O   UNL A   1      42.740  22.915  27.526  1.00  0.00    -0.237 OA
ATOM     94  O   UNL A   1      40.526  22.911  26.467  1.00  0.00    -0.744 OA
ENDBRANCH  88  91
ENDBRANCH  60  84
BRANCH  72  95
ATOM     95  C   UNL A   1      44.740  27.096  34.131  1.00  0.00     0.023 A 
ATOM     96  C   UNL A   1      44.496  25.866  34.773  1.00  0.00     0.012 A 
ATOM     97  C   UNL A   1      46.066  27.552  33.990  1.00  0.00     0.148 A 
ATOM     98  C   UNL A   1      45.550  25.126  35.309  1.00  0.00     0.002 A 
ATOM     99  C   UNL A   1      47.115  26.782  34.476  1.00  0.00     0.091 A 
ATOM    100  F   UNL A   1      46.277  28.732  33.390  1.00  0.00    -0.205 F 
ATOM    101  C   UNL A   1      46.858  25.578  35.152  1.00  0.00     0.022 A 
BRANCH  99 102
ATOM    102  S   UNL A   1      48.834  27.237  34.228  1.00  0.00     0.127 S 
ATOM    103  O   UNL A   1      49.532  26.147  34.907  1.00  0.00    -0.237 OA
ATOM    104  O   UNL A   1      48.951  27.221  32.769  1.00  0.00    -0.237 OA
ATOM    105  O   UNL A   1      48.991  28.554  34.830  1.00  0.00    -0.744 OA
ENDBRANCH  99 102
ENDBRANCH  72  95
ENDBRANCH  46  47
ENDBRANCH  39  41
ENDBRANCH  38  39
ENDBRANCH  37  38
ENDBRANCH  36  37
ENDBRANCH  35  36
ENDBRANCH   1  35
TORSDOF 23
ENDMDL
