MODEL 1
REMARK VINA RESULT:     -10.9      0.000      0.000
REMARK SMILES CS(=O)(=O)c1ccc(C2=NN(c3ccc(C(=O)OCCOCCOCCOC(=O)c4ccc(-c5c6nc(c(-c7cccc(S(=O)(=O)[O-])c7F)c7ccc([nH]7)c(-c7cccc(S(=O)(=O)[O-])c7F)c7nc(c(-c8cccc(S(=O)(=O)[O-])c8F)c8ccc5[nH]8)C=C7)C=C6)cc4)cc3)[C@H](c3ccc(F)cc3)C2)cc1
REMARK SMILES IDX 22 1 21 2 20 3 19 4 18 5 16 6 17 7 15 8 12 9 13 10 94 11
REMARK SMILES IDX 14 12 93 13 11 14 9 15 10 16 103 17 95 18 8 19 5 20 6 21
REMARK SMILES IDX 105 22 7 23 104 24 2 25 1 26 3 27 4 28 96 29 97 30 102 31
REMARK SMILES IDX 98 32 101 33 99 34 100 35 23 36 24 37 25 38 26 39 27 40
REMARK SMILES IDX 28 41 29 42 30 43 31 44 92 45 32 46 91 47 33 48 34 49 35 50
REMARK SMILES IDX 85 51 36 52 90 53 84 54 86 55 37 56 89 57 83 58 82 59 38 61
REMARK SMILES IDX 70 62 50 63 69 64 51 65 54 66 68 67 87 68 52 69 53 70 67 72
REMARK SMILES IDX 88 73 55 74 39 75 40 76 48 77 41 78 43 79 49 80 42 81 44 82
REMARK SMILES IDX 45 83 46 84 47 85 71 86 72 87 80 88 73 89 75 90 81 91 74 92
REMARK SMILES IDX 76 93 77 94 78 95 79 96 56 97 57 98 65 99 58 100 60 101
REMARK SMILES IDX 66 102 59 103 61 104 62 105 63 106 64 107
REMARK H PARENT 86 60 54 71
REMARK Flexibility Score: inf
ROOT
ATOM      1  C   UNL A   1      43.574  22.978  28.579  1.00  0.00     0.188 C 
ENDROOT
BRANCH   1   2
ATOM      2  O   UNL A   1      42.169  22.898  28.713  1.00  0.00    -0.376 OA
BRANCH   2   3
ATOM      3  C   UNL A   1      41.318  23.745  27.960  1.00  0.00     0.202 C 
BRANCH   3   4
ATOM      4  C   UNL A   1      40.637  23.320  26.651  1.00  0.00     0.261 C 
BRANCH   4   5
ATOM      5  O   UNL A   1      39.209  23.257  26.694  1.00  0.00    -0.460 OA
BRANCH   5   6
ATOM      6  C   UNL A   1      38.650  22.299  25.913  1.00  0.00     0.338 C 
ATOM      7  O   UNL A   1      39.036  21.150  25.779  1.00  0.00    -0.246 OA
BRANCH   6   8
ATOM      8  C   UNL A   1      37.394  22.794  25.303  1.00  0.00     0.060 A 
ATOM      9  C   UNL A   1      34.904  23.632  24.312  1.00  0.00     0.060 A 
ATOM     10  C   UNL A   1      35.387  24.138  25.524  1.00  0.00     0.029 A 
ATOM     11  C   UNL A   1      35.739  22.798  23.549  1.00  0.00     0.029 A 
ATOM     12  C   UNL A   1      36.622  23.714  26.024  1.00  0.00     0.018 A 
ATOM     13  C   UNL A   1      36.971  22.364  24.044  1.00  0.00     0.018 A 
BRANCH   9  14
ATOM     14  N   UNL A   1      33.559  23.781  23.937  1.00  0.00    -0.257 N 
ATOM     15  C   UNL A   1      31.849  25.062  23.850  1.00  0.00     0.071 C 
ATOM     16  N   UNL A   1      33.101  24.994  23.511  1.00  0.00    -0.176 NA
ATOM     17  C   UNL A   1      31.324  23.916  24.669  1.00  0.00     0.091 C 
ATOM     18  C   UNL A   1      32.568  23.026  24.730  1.00  0.00     0.144 C 
BRANCH  15  19
ATOM     19  C   UNL A   1      30.946  26.148  23.429  1.00  0.00    -0.002 A 
ATOM     20  C   UNL A   1      29.243  28.284  22.880  1.00  0.00     0.067 A 
ATOM     21  C   UNL A   1      28.759  27.179  23.589  1.00  0.00     0.021 A 
ATOM     22  C   UNL A   1      30.567  28.316  22.426  1.00  0.00     0.021 A 
ATOM     23  C   UNL A   1      29.611  26.102  23.848  1.00  0.00     0.011 A 
ATOM     24  C   UNL A   1      31.424  27.248  22.712  1.00  0.00     0.011 A 
BRANCH  20  25
ATOM     25  S   UNL A   1      28.188  29.694  22.625  1.00  0.00     0.175 S 
ATOM     26  C   UNL A   1      28.908  31.000  23.585  1.00  0.00     0.163 C 
ATOM     27  O   UNL A   1      26.896  29.383  23.205  1.00  0.00    -0.224 OA
ATOM     28  O   UNL A   1      28.305  30.040  21.221  1.00  0.00    -0.224 OA
ENDBRANCH  20  25
ENDBRANCH  15  19
BRANCH  18  29
ATOM     29  C   UNL A   1      32.449  21.593  24.218  1.00  0.00    -0.023 A 
ATOM     30  C   UNL A   1      32.094  21.263  22.900  1.00  0.00     0.009 A 
ATOM     31  C   UNL A   1      32.808  20.540  25.089  1.00  0.00     0.009 A 
ATOM     32  C   UNL A   1      32.105  19.931  22.471  1.00  0.00     0.039 A 
ATOM     33  C   UNL A   1      32.864  19.218  24.648  1.00  0.00     0.039 A 
ATOM     34  C   UNL A   1      32.508  18.925  23.341  1.00  0.00     0.123 A 
ATOM     35  F   UNL A   1      32.565  17.658  22.909  1.00  0.00    -0.207 F 
ENDBRANCH  18  29
ENDBRANCH   9  14
ENDBRANCH   6   8
ENDBRANCH   5   6
ENDBRANCH   4   5
ENDBRANCH   3   4
ENDBRANCH   2   3
ENDBRANCH   1   2
BRANCH   1  36
ATOM     36  C   UNL A   1      44.226  22.708  27.207  1.00  0.00     0.188 C 
BRANCH  36  37
ATOM     37  O   UNL A   1      45.626  22.788  27.047  1.00  0.00    -0.376 OA
BRANCH  37  38
ATOM     38  C   UNL A   1      46.205  23.920  26.422  1.00  0.00     0.202 C 
BRANCH  38  39
ATOM     39  C   UNL A   1      45.969  24.317  24.955  1.00  0.00     0.261 C 
BRANCH  39  40
ATOM     40  O   UNL A   1      45.275  25.544  24.716  1.00  0.00    -0.460 OA
BRANCH  40  41
ATOM     41  C   UNL A   1      43.959  25.534  25.043  1.00  0.00     0.338 C 
ATOM     42  O   UNL A   1      43.130  24.685  24.750  1.00  0.00    -0.246 OA
BRANCH  41  43
ATOM     43  C   UNL A   1      43.686  26.638  25.979  1.00  0.00     0.060 A 
ATOM     44  C   UNL A   1      43.165  27.836  25.473  1.00  0.00     0.016 A 
ATOM     45  C   UNL A   1      43.982  26.505  27.335  1.00  0.00     0.016 A 
ATOM     46  C   UNL A   1      42.955  28.920  26.324  1.00  0.00     0.010 A 
ATOM     47  C   UNL A   1      43.793  27.600  28.182  1.00  0.00     0.010 A 
ATOM     48  C   UNL A   1      43.306  28.820  27.676  1.00  0.00    -0.014 A 
BRANCH  48  49
ATOM     49  C   UNL A   1      43.326  30.033  28.526  1.00  0.00     0.031 A 
ATOM     50  C   UNL A   1      44.605  30.819  28.628  1.00  0.00     0.074 A 
ATOM     51  C   UNL A   1      42.236  30.421  29.210  1.00  0.00     0.049 A 
ATOM     52  N   UNL A   1      44.874  31.875  29.349  1.00  0.00    -0.248 NA
ATOM     53  C   UNL A   1      45.733  30.347  27.807  1.00  0.00     0.031 C 
ATOM     54  C   UNL A   1      40.939  29.747  29.189  1.00  0.00     0.029 A 
ATOM     55  N   UNL A   1      42.061  31.465  30.085  1.00  0.00    -0.354 N 
ATOM     56  C   UNL A   1      46.207  32.176  29.097  1.00  0.00     0.074 A 
ATOM     57  C   UNL A   1      46.696  31.186  28.162  1.00  0.00     0.031 C 
ATOM     58  C   UNL A   1      40.109  30.375  30.041  1.00  0.00     0.029 A 
ATOM     59  C   UNL A   1      40.824  31.475  30.685  1.00  0.00     0.049 A 
ATOM     60  H   UNL A   1      42.754  32.141  30.264  1.00  0.00     0.167 HD
ATOM     61  C   UNL A   1      46.954  33.191  29.589  1.00  0.00     0.034 A 
ATOM     62  C   UNL A   1      40.337  32.267  31.662  1.00  0.00     0.034 A 
ATOM     63  C   UNL A   1      46.465  34.179  30.510  1.00  0.00     0.049 A 
ATOM     64  C   UNL A   1      41.201  33.371  32.218  1.00  0.00     0.074 A 
ATOM     65  C   UNL A   1      47.131  35.274  31.031  1.00  0.00     0.029 A 
ATOM     66  N   UNL A   1      45.193  34.186  31.064  1.00  0.00    -0.354 N 
ATOM     67  N   UNL A   1      42.419  33.720  31.878  1.00  0.00    -0.248 NA
ATOM     68  C   UNL A   1      40.611  34.213  33.270  1.00  0.00     0.031 C 
ATOM     69  C   UNL A   1      46.273  35.925  31.923  1.00  0.00     0.029 A 
ATOM     70  C   UNL A   1      45.060  35.256  31.930  1.00  0.00     0.049 A 
ATOM     71  H   UNL A   1      44.490  33.525  30.868  1.00  0.00     0.167 HD
ATOM     72  C   UNL A   1      42.725  34.839  32.646  1.00  0.00     0.074 A 
ATOM     73  C   UNL A   1      41.556  35.124  33.453  1.00  0.00     0.031 C 
ATOM     74  C   UNL A   1      43.873  35.562  32.688  1.00  0.00     0.034 A 
BRANCH  61  75
ATOM     75  C   UNL A   1      48.383  33.294  29.126  1.00  0.00     0.023 A 
ATOM     76  C   UNL A   1      49.389  32.568  29.795  1.00  0.00     0.012 A 
ATOM     77  C   UNL A   1      48.720  34.066  27.997  1.00  0.00     0.148 A 
ATOM     78  C   UNL A   1      50.714  32.632  29.367  1.00  0.00     0.002 A 
ATOM     79  C   UNL A   1      50.036  34.089  27.549  1.00  0.00     0.091 A 
ATOM     80  F   UNL A   1      47.753  34.768  27.389  1.00  0.00    -0.205 F 
ATOM     81  C   UNL A   1      51.034  33.382  28.239  1.00  0.00     0.022 A 
BRANCH  79  82
ATOM     82  S   UNL A   1      50.537  34.961  26.061  1.00  0.00     0.127 S 
ATOM     83  O   UNL A   1      49.689  34.329  25.051  1.00  0.00    -0.237 OA
ATOM     84  O   UNL A   1      50.178  36.343  26.381  1.00  0.00    -0.237 OA
ATOM     85  O   UNL A   1      51.965  34.722  25.915  1.00  0.00    -0.744 OA
ENDBRANCH  79  82
ENDBRANCH  61  75
BRANCH  62  86
ATOM     86  C   UNL A   1      38.949  32.065  32.167  1.00  0.00     0.023 A 
ATOM     87  C   UNL A   1      38.720  31.166  33.227  1.00  0.00     0.012 A 
ATOM     88  C   UNL A   1      37.858  32.754  31.603  1.00  0.00     0.148 A 
ATOM     89  C   UNL A   1      37.425  30.932  33.694  1.00  0.00     0.002 A 
ATOM     90  C   UNL A   1      36.579  32.558  32.108  1.00  0.00     0.091 A 
ATOM     91  F   UNL A   1      38.095  33.590  30.582  1.00  0.00    -0.205 F 
ATOM     92  C   UNL A   1      36.357  31.634  33.141  1.00  0.00     0.022 A 
BRANCH  90  93
ATOM     93  S   UNL A   1      35.160  33.501  31.538  1.00  0.00     0.127 S 
ATOM     94  O   UNL A   1      35.542  34.864  31.898  1.00  0.00    -0.237 OA
ATOM     95  O   UNL A   1      35.168  33.217  30.103  1.00  0.00    -0.237 OA
ATOM     96  O   UNL A   1      34.013  32.957  32.253  1.00  0.00    -0.744 OA
ENDBRANCH  90  93
ENDBRANCH  62  86
BRANCH  74  97
ATOM     97  C   UNL A   1      43.919  36.760  33.600  1.00  0.00     0.023 A 
ATOM     98  C   UNL A   1      44.256  36.600  34.959  1.00  0.00     0.012 A 
ATOM     99  C   UNL A   1      43.706  38.058  33.090  1.00  0.00     0.148 A 
ATOM    100  C   UNL A   1      44.347  37.708  35.802  1.00  0.00     0.002 A 
ATOM    101  C   UNL A   1      43.849  39.159  33.925  1.00  0.00     0.091 A 
ATOM    102  F   UNL A   1      43.371  38.189  31.799  1.00  0.00    -0.205 F 
ATOM    103  C   UNL A   1      44.157  38.986  35.284  1.00  0.00     0.022 A 
BRANCH 101 104
ATOM    104  S   UNL A   1      43.720  40.847  33.323  1.00  0.00     0.127 S 
ATOM    105  O   UNL A   1      45.024  41.036  32.686  1.00  0.00    -0.237 OA
ATOM    106  O   UNL A   1      42.595  40.761  32.392  1.00  0.00    -0.237 OA
ATOM    107  O   UNL A   1      43.472  41.675  34.495  1.00  0.00    -0.744 OA
ENDBRANCH 101 104
ENDBRANCH  74  97
ENDBRANCH  48  49
ENDBRANCH  41  43
ENDBRANCH  40  41
ENDBRANCH  39  40
ENDBRANCH  38  39
ENDBRANCH  37  38
ENDBRANCH  36  37
ENDBRANCH   1  36
TORSDOF 24
ENDMDL
MODEL 2
REMARK VINA RESULT:     -10.6      4.849      7.856
REMARK SMILES CS(=O)(=O)c1ccc(C2=NN(c3ccc(C(=O)OCCOCCOCCOC(=O)c4ccc(-c5c6nc(c(-c7cccc(S(=O)(=O)[O-])c7F)c7ccc([nH]7)c(-c7cccc(S(=O)(=O)[O-])c7F)c7nc(c(-c8cccc(S(=O)(=O)[O-])c8F)c8ccc5[nH]8)C=C7)C=C6)cc4)cc3)[C@H](c3ccc(F)cc3)C2)cc1
REMARK SMILES IDX 22 1 21 2 20 3 19 4 18 5 16 6 17 7 15 8 12 9 13 10 94 11
REMARK SMILES IDX 14 12 93 13 11 14 9 15 10 16 103 17 95 18 8 19 5 20 6 21
REMARK SMILES IDX 105 22 7 23 104 24 2 25 1 26 3 27 4 28 96 29 97 30 102 31
REMARK SMILES IDX 98 32 101 33 99 34 100 35 23 36 24 37 25 38 26 39 27 40
REMARK SMILES IDX 28 41 29 42 30 43 31 44 92 45 32 46 91 47 33 48 34 49 35 50
REMARK SMILES IDX 85 51 36 52 90 53 84 54 86 55 37 56 89 57 83 58 82 59 38 61
REMARK SMILES IDX 70 62 50 63 69 64 51 65 54 66 68 67 87 68 52 69 53 70 67 72
REMARK SMILES IDX 88 73 55 74 39 75 40 76 48 77 41 78 43 79 49 80 42 81 44 82
REMARK SMILES IDX 45 83 46 84 47 85 71 86 72 87 80 88 73 89 75 90 81 91 74 92
REMARK SMILES IDX 76 93 77 94 78 95 79 96 56 97 57 98 65 99 58 100 60 101
REMARK SMILES IDX 66 102 59 103 61 104 62 105 63 106 64 107
REMARK H PARENT 86 60 54 71
REMARK Flexibility Score: inf
ROOT
ATOM      1  C   UNL A   1      43.447  23.353  28.066  1.00  0.00     0.188 C 
ENDROOT
BRANCH   1   2
ATOM      2  O   UNL A   1      43.243  22.440  27.007  1.00  0.00    -0.376 OA
BRANCH   2   3
ATOM      3  C   UNL A   1      41.954  21.915  26.738  1.00  0.00     0.202 C 
BRANCH   3   4
ATOM      4  C   UNL A   1      40.658  22.511  27.306  1.00  0.00     0.261 C 
BRANCH   4   5
ATOM      5  O   UNL A   1      39.658  22.839  26.337  1.00  0.00    -0.460 OA
BRANCH   5   6
ATOM      6  C   UNL A   1      38.933  21.789  25.878  1.00  0.00     0.338 C 
ATOM      7  O   UNL A   1      39.314  20.637  25.756  1.00  0.00    -0.246 OA
BRANCH   6   8
ATOM      8  C   UNL A   1      37.528  22.193  25.638  1.00  0.00     0.060 A 
ATOM      9  C   UNL A   1      34.872  22.839  24.995  1.00  0.00     0.060 A 
ATOM     10  C   UNL A   1      35.214  21.526  25.341  1.00  0.00     0.029 A 
ATOM     11  C   UNL A   1      35.851  23.840  25.095  1.00  0.00     0.029 A 
ATOM     12  C   UNL A   1      36.539  21.201  25.651  1.00  0.00     0.018 A 
ATOM     13  C   UNL A   1      37.178  23.523  25.397  1.00  0.00     0.018 A 
BRANCH   9  14
ATOM     14  N   UNL A   1      33.646  23.140  24.380  1.00  0.00    -0.257 N 
ATOM     15  C   UNL A   1      32.082  24.571  24.096  1.00  0.00     0.071 C 
ATOM     16  N   UNL A   1      33.369  24.423  24.007  1.00  0.00    -0.176 NA
ATOM     17  C   UNL A   1      31.322  23.405  24.665  1.00  0.00     0.091 C 
ATOM     18  C   UNL A   1      32.464  22.406  24.874  1.00  0.00     0.144 C 
BRANCH  15  19
ATOM     19  C   UNL A   1      31.361  25.767  23.626  1.00  0.00    -0.002 A 
ATOM     20  C   UNL A   1      30.005  28.113  22.982  1.00  0.00     0.067 A 
ATOM     21  C   UNL A   1      29.340  27.102  23.683  1.00  0.00     0.021 A 
ATOM     22  C   UNL A   1      31.336  27.949  22.582  1.00  0.00     0.021 A 
ATOM     23  C   UNL A   1      30.017  25.919  23.989  1.00  0.00     0.011 A 
ATOM     24  C   UNL A   1      32.019  26.775  22.915  1.00  0.00     0.011 A 
BRANCH  20  25
ATOM     25  S   UNL A   1      29.173  29.656  22.666  1.00  0.00     0.175 S 
ATOM     26  C   UNL A   1      27.442  29.283  22.755  1.00  0.00     0.163 C 
ATOM     27  O   UNL A   1      29.471  30.040  21.300  1.00  0.00    -0.224 OA
ATOM     28  O   UNL A   1      29.510  30.532  23.772  1.00  0.00    -0.224 OA
ENDBRANCH  20  25
ENDBRANCH  15  19
BRANCH  18  29
ATOM     29  C   UNL A   1      32.356  21.043  24.196  1.00  0.00    -0.023 A 
ATOM     30  C   UNL A   1      32.183  20.872  22.813  1.00  0.00     0.009 A 
ATOM     31  C   UNL A   1      32.534  19.887  24.988  1.00  0.00     0.009 A 
ATOM     32  C   UNL A   1      32.196  19.593  22.246  1.00  0.00     0.039 A 
ATOM     33  C   UNL A   1      32.593  18.616  24.416  1.00  0.00     0.039 A 
ATOM     34  C   UNL A   1      32.420  18.480  23.048  1.00  0.00     0.123 A 
ATOM     35  F   UNL A   1      32.481  17.263  22.491  1.00  0.00    -0.207 F 
ENDBRANCH  18  29
ENDBRANCH   9  14
ENDBRANCH   6   8
ENDBRANCH   5   6
ENDBRANCH   4   5
ENDBRANCH   3   4
ENDBRANCH   2   3
ENDBRANCH   1   2
BRANCH   1  36
ATOM     36  C   UNL A   1      44.061  24.738  27.774  1.00  0.00     0.188 C 
BRANCH  36  37
ATOM     37  O   UNL A   1      44.964  24.913  26.704  1.00  0.00    -0.376 OA
BRANCH  37  38
ATOM     38  C   UNL A   1      44.480  25.008  25.375  1.00  0.00     0.202 C 
BRANCH  38  39
ATOM     39  C   UNL A   1      43.028  25.346  25.002  1.00  0.00     0.261 C 
BRANCH  39  40
ATOM     40  O   UNL A   1      42.276  26.118  25.943  1.00  0.00    -0.460 OA
BRANCH  40  41
ATOM     41  C   UNL A   1      42.230  27.449  25.688  1.00  0.00     0.338 C 
ATOM     42  O   UNL A   1      42.457  28.008  24.625  1.00  0.00    -0.246 OA
BRANCH  41  43
ATOM     43  C   UNL A   1      41.682  28.147  26.864  1.00  0.00     0.060 A 
ATOM     44  C   UNL A   1      42.276  29.351  27.269  1.00  0.00     0.016 A 
ATOM     45  C   UNL A   1      40.623  27.596  27.584  1.00  0.00     0.016 A 
ATOM     46  C   UNL A   1      41.820  30.001  28.415  1.00  0.00     0.010 A 
ATOM     47  C   UNL A   1      40.184  28.238  28.745  1.00  0.00     0.010 A 
ATOM     48  C   UNL A   1      40.799  29.426  29.181  1.00  0.00    -0.014 A 
BRANCH  48  49
ATOM     49  C   UNL A   1      40.485  29.972  30.523  1.00  0.00     0.031 A 
ATOM     50  C   UNL A   1      39.263  30.833  30.681  1.00  0.00     0.074 A 
ATOM     51  C   UNL A   1      41.280  29.723  31.577  1.00  0.00     0.049 A 
ATOM     52  N   UNL A   1      38.822  31.461  31.739  1.00  0.00    -0.248 NA
ATOM     53  C   UNL A   1      38.425  31.012  29.482  1.00  0.00     0.031 C 
ATOM     54  C   UNL A   1      42.488  28.900  31.552  1.00  0.00     0.029 A 
ATOM     55  N   UNL A   1      41.203  30.170  32.873  1.00  0.00    -0.354 N 
ATOM     56  C   UNL A   1      37.678  32.135  31.329  1.00  0.00     0.074 A 
ATOM     57  C   UNL A   1      37.495  31.847  29.924  1.00  0.00     0.031 C 
ATOM     58  C   UNL A   1      43.060  28.930  32.769  1.00  0.00     0.029 A 
ATOM     59  C   UNL A   1      42.274  29.793  33.648  1.00  0.00     0.049 A 
ATOM     60  H   UNL A   1      40.453  30.709  33.214  1.00  0.00     0.167 HD
ATOM     61  C   UNL A   1      36.847  32.915  32.059  1.00  0.00     0.034 A 
ATOM     62  C   UNL A   1      42.594  30.130  34.914  1.00  0.00     0.034 A 
ATOM     63  C   UNL A   1      37.023  33.192  33.458  1.00  0.00     0.049 A 
ATOM     64  C   UNL A   1      41.668  31.026  35.697  1.00  0.00     0.074 A 
ATOM     65  C   UNL A   1      36.209  33.932  34.297  1.00  0.00     0.029 A 
ATOM     66  N   UNL A   1      38.095  32.758  34.223  1.00  0.00    -0.354 N 
ATOM     67  N   UNL A   1      40.524  31.556  35.333  1.00  0.00    -0.248 NA
ATOM     68  C   UNL A   1      42.061  31.347  37.078  1.00  0.00     0.031 C 
ATOM     69  C   UNL A   1      36.805  33.971  35.562  1.00  0.00     0.029 A 
ATOM     70  C   UNL A   1      37.971  33.225  35.520  1.00  0.00     0.049 A 
ATOM     71  H   UNL A   1      38.835  32.199  33.891  1.00  0.00     0.167 HD
ATOM     72  C   UNL A   1      40.045  32.238  36.447  1.00  0.00     0.074 A 
ATOM     73  C   UNL A   1      41.013  32.036  37.507  1.00  0.00     0.031 C 
ATOM     74  C   UNL A   1      38.913  32.973  36.581  1.00  0.00     0.034 A 
BRANCH  61  75
ATOM     75  C   UNL A   1      35.656  33.512  31.359  1.00  0.00     0.023 A 
ATOM     76  C   UNL A   1      34.991  32.775  30.359  1.00  0.00     0.012 A 
ATOM     77  C   UNL A   1      35.163  34.779  31.728  1.00  0.00     0.148 A 
ATOM     78  C   UNL A   1      33.872  33.300  29.715  1.00  0.00     0.002 A 
ATOM     79  C   UNL A   1      34.020  35.278  31.113  1.00  0.00     0.091 A 
ATOM     80  F   UNL A   1      35.824  35.475  32.665  1.00  0.00    -0.205 F 
ATOM     81  C   UNL A   1      33.381  34.545  30.100  1.00  0.00     0.022 A 
BRANCH  79  82
ATOM     82  S   UNL A   1      33.264  36.834  31.593  1.00  0.00     0.127 S 
ATOM     83  O   UNL A   1      34.241  37.354  32.550  1.00  0.00    -0.237 OA
ATOM     84  O   UNL A   1      33.215  37.555  30.320  1.00  0.00    -0.237 OA
ATOM     85  O   UNL A   1      31.963  36.496  32.151  1.00  0.00    -0.744 OA
ENDBRANCH  79  82
ENDBRANCH  61  75
BRANCH  62  86
ATOM     86  C   UNL A   1      43.839  29.599  35.538  1.00  0.00     0.023 A 
ATOM     87  C   UNL A   1      45.064  30.258  35.315  1.00  0.00     0.012 A 
ATOM     88  C   UNL A   1      43.818  28.446  36.346  1.00  0.00     0.148 A 
ATOM     89  C   UNL A   1      46.250  29.760  35.858  1.00  0.00     0.002 A 
ATOM     90  C   UNL A   1      44.993  27.986  36.928  1.00  0.00     0.091 A 
ATOM     91  F   UNL A   1      42.646  27.821  36.530  1.00  0.00    -0.205 F 
ATOM     92  C   UNL A   1      46.212  28.630  36.671  1.00  0.00     0.022 A 
BRANCH  90  93
ATOM     93  S   UNL A   1      45.025  26.609  38.081  1.00  0.00     0.127 S 
ATOM     94  O   UNL A   1      44.628  27.254  39.330  1.00  0.00    -0.237 OA
ATOM     95  O   UNL A   1      44.023  25.712  37.506  1.00  0.00    -0.237 OA
ATOM     96  O   UNL A   1      46.387  26.094  38.042  1.00  0.00    -0.744 OA
ENDBRANCH  90  93
ENDBRANCH  62  86
BRANCH  74  97
ATOM     97  C   UNL A   1      38.622  33.583  37.928  1.00  0.00     0.023 A 
ATOM     98  C   UNL A   1      37.948  32.832  38.911  1.00  0.00     0.012 A 
ATOM     99  C   UNL A   1      39.091  34.874  38.247  1.00  0.00     0.148 A 
ATOM    100  C   UNL A   1      37.714  33.369  40.177  1.00  0.00     0.002 A 
ATOM    101  C   UNL A   1      38.899  35.382  39.526  1.00  0.00     0.091 A 
ATOM    102  F   UNL A   1      39.717  35.579  37.294  1.00  0.00    -0.205 F 
ATOM    103  C   UNL A   1      38.200  34.636  40.489  1.00  0.00     0.022 A 
BRANCH 101 104
ATOM    104  S   UNL A   1      39.577  36.962  40.047  1.00  0.00     0.127 S 
ATOM    105  O   UNL A   1      38.825  37.898  39.211  1.00  0.00    -0.237 OA
ATOM    106  O   UNL A   1      39.228  36.997  41.467  1.00  0.00    -0.237 OA
ATOM    107  O   UNL A   1      41.007  36.896  39.777  1.00  0.00    -0.744 OA
ENDBRANCH 101 104
ENDBRANCH  74  97
ENDBRANCH  48  49
ENDBRANCH  41  43
ENDBRANCH  40  41
ENDBRANCH  39  40
ENDBRANCH  38  39
ENDBRANCH  37  38
ENDBRANCH  36  37
ENDBRANCH   1  36
TORSDOF 24
ENDMDL
MODEL 3
REMARK VINA RESULT:     -10.4      3.931      6.338
REMARK SMILES CS(=O)(=O)c1ccc(C2=NN(c3ccc(C(=O)OCCOCCOCCOC(=O)c4ccc(-c5c6nc(c(-c7cccc(S(=O)(=O)[O-])c7F)c7ccc([nH]7)c(-c7cccc(S(=O)(=O)[O-])c7F)c7nc(c(-c8cccc(S(=O)(=O)[O-])c8F)c8ccc5[nH]8)C=C7)C=C6)cc4)cc3)[C@H](c3ccc(F)cc3)C2)cc1
REMARK SMILES IDX 22 1 21 2 20 3 19 4 18 5 16 6 17 7 15 8 12 9 13 10 94 11
REMARK SMILES IDX 14 12 93 13 11 14 9 15 10 16 103 17 95 18 8 19 5 20 6 21
REMARK SMILES IDX 105 22 7 23 104 24 2 25 1 26 3 27 4 28 96 29 97 30 102 31
REMARK SMILES IDX 98 32 101 33 99 34 100 35 23 36 24 37 25 38 26 39 27 40
REMARK SMILES IDX 28 41 29 42 30 43 31 44 92 45 32 46 91 47 33 48 34 49 35 50
REMARK SMILES IDX 85 51 36 52 90 53 84 54 86 55 37 56 89 57 83 58 82 59 38 61
REMARK SMILES IDX 70 62 50 63 69 64 51 65 54 66 68 67 87 68 52 69 53 70 67 72
REMARK SMILES IDX 88 73 55 74 39 75 40 76 48 77 41 78 43 79 49 80 42 81 44 82
REMARK SMILES IDX 45 83 46 84 47 85 71 86 72 87 80 88 73 89 75 90 81 91 74 92
REMARK SMILES IDX 76 93 77 94 78 95 79 96 56 97 57 98 65 99 58 100 60 101
REMARK SMILES IDX 66 102 59 103 61 104 62 105 63 106 64 107
REMARK H PARENT 86 60 54 71
REMARK Flexibility Score: inf
ROOT
ATOM      1  C   UNL A   1      43.476  23.105  28.809  1.00  0.00     0.188 C 
ENDROOT
BRANCH   1   2
ATOM      2  O   UNL A   1      42.075  23.190  28.972  1.00  0.00    -0.376 OA
BRANCH   2   3
ATOM      3  C   UNL A   1      41.291  23.996  28.110  1.00  0.00     0.202 C 
BRANCH   3   4
ATOM      4  C   UNL A   1      40.674  23.489  26.798  1.00  0.00     0.261 C 
BRANCH   4   5
ATOM      5  O   UNL A   1      39.250  23.355  26.800  1.00  0.00    -0.460 OA
BRANCH   5   6
ATOM      6  C   UNL A   1      38.760  22.394  25.978  1.00  0.00     0.338 C 
ATOM      7  O   UNL A   1      39.212  21.273  25.815  1.00  0.00    -0.246 OA
BRANCH   6   8
ATOM      8  C   UNL A   1      37.489  22.838  25.360  1.00  0.00     0.060 A 
ATOM      9  C   UNL A   1      34.975  23.608  24.373  1.00  0.00     0.060 A 
ATOM     10  C   UNL A   1      35.532  24.268  25.475  1.00  0.00     0.029 A 
ATOM     11  C   UNL A   1      35.747  22.645  23.703  1.00  0.00     0.029 A 
ATOM     12  C   UNL A   1      36.780  23.879  25.974  1.00  0.00     0.018 A 
ATOM     13  C   UNL A   1      36.990  22.245  24.199  1.00  0.00     0.018 A 
BRANCH   9  14
ATOM     14  N   UNL A   1      33.618  23.747  24.043  1.00  0.00    -0.257 N 
ATOM     15  C   UNL A   1      31.910  25.032  23.963  1.00  0.00     0.071 C 
ATOM     16  N   UNL A   1      33.148  24.943  23.582  1.00  0.00    -0.176 NA
ATOM     17  C   UNL A   1      31.412  23.926  24.851  1.00  0.00     0.091 C 
ATOM     18  C   UNL A   1      32.655  23.033  24.904  1.00  0.00     0.144 C 
BRANCH  15  19
ATOM     19  C   UNL A   1      30.995  26.103  23.530  1.00  0.00    -0.002 A 
ATOM     20  C   UNL A   1      29.257  28.204  22.958  1.00  0.00     0.067 A 
ATOM     21  C   UNL A   1      28.775  27.068  23.616  1.00  0.00     0.021 A 
ATOM     22  C   UNL A   1      30.598  28.285  22.565  1.00  0.00     0.021 A 
ATOM     23  C   UNL A   1      29.644  26.008  23.886  1.00  0.00     0.011 A 
ATOM     24  C   UNL A   1      31.472  27.235  22.862  1.00  0.00     0.011 A 
BRANCH  20  25
ATOM     25  S   UNL A   1      28.174  29.591  22.690  1.00  0.00     0.175 S 
ATOM     26  C   UNL A   1      28.973  30.969  23.470  1.00  0.00     0.163 C 
ATOM     27  O   UNL A   1      26.944  29.329  23.413  1.00  0.00    -0.224 OA
ATOM     28  O   UNL A   1      28.156  29.821  21.259  1.00  0.00    -0.224 OA
ENDBRANCH  20  25
ENDBRANCH  15  19
BRANCH  18  29
ATOM     29  C   UNL A   1      32.512  21.580  24.461  1.00  0.00    -0.023 A 
ATOM     30  C   UNL A   1      32.222  21.192  23.143  1.00  0.00     0.009 A 
ATOM     31  C   UNL A   1      32.780  20.563  25.405  1.00  0.00     0.009 A 
ATOM     32  C   UNL A   1      32.208  19.839  22.785  1.00  0.00     0.039 A 
ATOM     33  C   UNL A   1      32.812  19.219  25.037  1.00  0.00     0.039 A 
ATOM     34  C   UNL A   1      32.522  18.868  23.728  1.00  0.00     0.123 A 
ATOM     35  F   UNL A   1      32.555  17.579  23.366  1.00  0.00    -0.207 F 
ENDBRANCH  18  29
ENDBRANCH   9  14
ENDBRANCH   6   8
ENDBRANCH   5   6
ENDBRANCH   4   5
ENDBRANCH   3   4
ENDBRANCH   2   3
ENDBRANCH   1   2
BRANCH   1  36
ATOM     36  C   UNL A   1      44.061  22.677  27.447  1.00  0.00     0.188 C 
BRANCH  36  37
ATOM     37  O   UNL A   1      45.455  22.540  27.273  1.00  0.00    -0.376 OA
BRANCH  37  38
ATOM     38  C   UNL A   1      46.190  23.556  26.612  1.00  0.00     0.202 C 
BRANCH  38  39
ATOM     39  C   UNL A   1      46.044  23.904  25.122  1.00  0.00     0.261 C 
BRANCH  39  40
ATOM     40  O   UNL A   1      45.564  25.212  24.803  1.00  0.00    -0.460 OA
BRANCH  40  41
ATOM     41  C   UNL A   1      44.249  25.421  25.059  1.00  0.00     0.338 C 
ATOM     42  O   UNL A   1      43.306  24.728  24.705  1.00  0.00    -0.246 OA
BRANCH  41  43
ATOM     43  C   UNL A   1      44.114  26.546  26.001  1.00  0.00     0.060 A 
ATOM     44  C   UNL A   1      45.275  27.105  26.551  1.00  0.00     0.016 A 
ATOM     45  C   UNL A   1      42.853  27.012  26.371  1.00  0.00     0.016 A 
ATOM     46  C   UNL A   1      45.177  28.128  27.494  1.00  0.00     0.010 A 
ATOM     47  C   UNL A   1      42.757  28.021  27.332  1.00  0.00     0.010 A 
ATOM     48  C   UNL A   1      43.916  28.563  27.918  1.00  0.00    -0.014 A 
BRANCH  48  49
ATOM     49  C   UNL A   1      43.800  29.460  29.092  1.00  0.00     0.031 A 
ATOM     50  C   UNL A   1      43.646  28.844  30.455  1.00  0.00     0.074 A 
ATOM     51  C   UNL A   1      43.813  30.796  28.950  1.00  0.00     0.049 A 
ATOM     52  N   UNL A   1      43.473  29.425  31.613  1.00  0.00    -0.248 NA
ATOM     53  C   UNL A   1      43.691  27.373  30.521  1.00  0.00     0.031 C 
ATOM     54  C   UNL A   1      43.961  31.511  27.684  1.00  0.00     0.029 A 
ATOM     55  N   UNL A   1      43.665  31.791  29.885  1.00  0.00    -0.354 N 
ATOM     56  C   UNL A   1      43.355  28.396  32.539  1.00  0.00     0.074 A 
ATOM     57  C   UNL A   1      43.469  27.152  31.809  1.00  0.00     0.031 C 
ATOM     58  C   UNL A   1      43.862  32.832  27.916  1.00  0.00     0.029 A 
ATOM     59  C   UNL A   1      43.616  33.052  29.340  1.00  0.00     0.049 A 
ATOM     60  H   UNL A   1      43.600  31.617  30.852  1.00  0.00     0.167 HD
ATOM     61  C   UNL A   1      43.180  28.477  33.879  1.00  0.00     0.034 A 
ATOM     62  C   UNL A   1      43.374  34.244  29.924  1.00  0.00     0.034 A 
ATOM     63  C   UNL A   1      43.078  29.713  34.605  1.00  0.00     0.049 A 
ATOM     64  C   UNL A   1      43.150  34.305  31.414  1.00  0.00     0.074 A 
ATOM     65  C   UNL A   1      42.947  29.900  35.970  1.00  0.00     0.029 A 
ATOM     66  N   UNL A   1      43.077  30.973  34.027  1.00  0.00    -0.354 N 
ATOM     67  N   UNL A   1      43.165  33.332  32.294  1.00  0.00    -0.248 NA
ATOM     68  C   UNL A   1      42.907  35.633  31.997  1.00  0.00     0.031 C 
ATOM     69  C   UNL A   1      42.835  31.272  36.214  1.00  0.00     0.029 A 
ATOM     70  C   UNL A   1      42.934  31.942  35.005  1.00  0.00     0.049 A 
ATOM     71  H   UNL A   1      43.166  31.152  33.063  1.00  0.00     0.167 HD
ATOM     72  C   UNL A   1      42.972  33.934  33.534  1.00  0.00     0.074 A 
ATOM     73  C   UNL A   1      42.864  35.359  33.293  1.00  0.00     0.031 C 
ATOM     74  C   UNL A   1      42.882  33.361  34.760  1.00  0.00     0.034 A 
BRANCH  61  75
ATOM     75  C   UNL A   1      43.105  27.188  34.652  1.00  0.00     0.023 A 
ATOM     76  C   UNL A   1      41.852  26.591  34.897  1.00  0.00     0.012 A 
ATOM     77  C   UNL A   1      44.278  26.540  35.090  1.00  0.00     0.148 A 
ATOM     78  C   UNL A   1      41.763  25.385  35.591  1.00  0.00     0.002 A 
ATOM     79  C   UNL A   1      44.184  25.317  35.742  1.00  0.00     0.091 A 
ATOM     80  F   UNL A   1      45.458  27.136  34.869  1.00  0.00    -0.205 F 
ATOM     81  C   UNL A   1      42.929  24.744  36.002  1.00  0.00     0.022 A 
BRANCH  79  82
ATOM     82  S   UNL A   1      45.628  24.373  36.241  1.00  0.00     0.127 S 
ATOM     83  O   UNL A   1      46.372  25.363  37.019  1.00  0.00    -0.237 OA
ATOM     84  O   UNL A   1      45.032  23.298  37.035  1.00  0.00    -0.237 OA
ATOM     85  O   UNL A   1      46.270  23.936  35.011  1.00  0.00    -0.744 OA
ENDBRANCH  79  82
ENDBRANCH  61  75
BRANCH  62  86
ATOM     86  C   UNL A   1      43.354  35.489  29.104  1.00  0.00     0.023 A 
ATOM     87  C   UNL A   1      42.121  36.021  28.679  1.00  0.00     0.012 A 
ATOM     88  C   UNL A   1      44.546  36.144  28.741  1.00  0.00     0.148 A 
ATOM     89  C   UNL A   1      42.077  37.164  27.880  1.00  0.00     0.002 A 
ATOM     90  C   UNL A   1      44.493  37.313  27.991  1.00  0.00     0.091 A 
ATOM     91  F   UNL A   1      45.710  35.611  29.139  1.00  0.00    -0.205 F 
ATOM     92  C   UNL A   1      43.262  37.815  27.544  1.00  0.00     0.022 A 
BRANCH  90  93
ATOM     93  S   UNL A   1      45.956  38.282  27.609  1.00  0.00     0.127 S 
ATOM     94  O   UNL A   1      46.736  37.344  26.805  1.00  0.00    -0.237 OA
ATOM     95  O   UNL A   1      45.386  39.405  26.865  1.00  0.00    -0.237 OA
ATOM     96  O   UNL A   1      46.536  38.645  28.896  1.00  0.00    -0.744 OA
ENDBRANCH  90  93
ENDBRANCH  62  86
BRANCH  74  97
ATOM     97  C   UNL A   1      42.700  34.266  35.951  1.00  0.00     0.023 A 
ATOM     98  C   UNL A   1      43.776  35.053  36.409  1.00  0.00     0.012 A 
ATOM     99  C   UNL A   1      41.438  34.398  36.566  1.00  0.00     0.148 A 
ATOM    100  C   UNL A   1      43.606  35.929  37.481  1.00  0.00     0.002 A 
ATOM    101  C   UNL A   1      41.265  35.310  37.599  1.00  0.00     0.091 A 
ATOM    102  F   UNL A   1      40.430  33.630  36.126  1.00  0.00    -0.205 F 
ATOM    103  C   UNL A   1      42.351  36.068  38.068  1.00  0.00     0.022 A 
BRANCH 101 104
ATOM    104  S   UNL A   1      39.662  35.628  38.346  1.00  0.00     0.127 S 
ATOM    105  O   UNL A   1      39.840  35.062  39.683  1.00  0.00    -0.237 OA
ATOM    106  O   UNL A   1      39.585  37.088  38.308  1.00  0.00    -0.237 OA
ATOM    107  O   UNL A   1      38.685  34.949  37.506  1.00  0.00    -0.744 OA
ENDBRANCH 101 104
ENDBRANCH  74  97
ENDBRANCH  48  49
ENDBRANCH  41  43
ENDBRANCH  40  41
ENDBRANCH  39  40
ENDBRANCH  38  39
ENDBRANCH  37  38
ENDBRANCH  36  37
ENDBRANCH   1  36
TORSDOF 24
ENDMDL
