MODEL 1
REMARK VINA RESULT:     -10.0      0.000      0.000
REMARK SMILES CCCCCCCCNC(=O)Oc1cccc(-c2ccc([C@@H](C)C(=O)OCCOCCOCCOC(=O)c3ccc(-c4c5nc(c(-c6cccc(S(=O)(=O)[O-])c6F)c6ccc([nH]6)c(-c6cccc(S(=O)(=O)[O-])c6F)c6nc(c(-c7cccc(S(=O)(=O)[O-])c7F)c7ccc4[nH]7)C=C6)C=C5)cc3)cc2F)c1
REMARK SMILES IDX 27 1 26 2 24 3 25 4 22 5 23 6 21 7 18 8 19 9 102 10 20 11
REMARK SMILES IDX 101 12 103 13 17 14 13 15 14 16 104 17 15 18 16 19 12 20
REMARK SMILES IDX 10 21 9 22 11 24 8 25 7 26 6 27 5 28 4 29 3 30 2 31 1 32
REMARK SMILES IDX 28 33 29 34 30 35 31 36 32 37 33 38 34 39 35 40 36 41 37 42
REMARK SMILES IDX 38 43 39 44 100 45 40 46 99 47 41 48 42 49 43 50 93 51 44 52
REMARK SMILES IDX 98 53 92 54 94 55 45 56 97 57 91 58 90 59 46 61 78 62 58 63
REMARK SMILES IDX 77 64 59 65 62 66 76 67 95 68 60 69 61 70 75 72 96 73 63 74
REMARK SMILES IDX 47 75 48 76 56 77 49 78 51 79 57 80 50 81 52 82 53 83 54 84
REMARK SMILES IDX 55 85 79 86 80 87 88 88 81 89 83 90 89 91 82 92 84 93 85 94
REMARK SMILES IDX 86 95 87 96 64 97 65 98 73 99 66 100 68 101 74 102 67 103
REMARK SMILES IDX 69 104 70 105 71 106 72 107
REMARK H PARENT 9 23 94 60 62 71
REMARK Flexibility Score: inf
ROOT
ATOM      1  C   UNL A   1      30.938  24.331  23.655  1.00  0.00     0.261 C 
ENDROOT
BRANCH   1   2
ATOM      2  O   UNL A   1      31.068  23.846  25.012  1.00  0.00    -0.463 OA
BRANCH   2   3
ATOM      3  C   UNL A   1      31.307  22.518  25.155  1.00  0.00     0.313 C 
ATOM      4  O   UNL A   1      30.641  21.794  25.893  1.00  0.00    -0.252 OA
BRANCH   3   5
ATOM      5  C   UNL A   1      32.457  21.939  24.324  1.00  0.00     0.126 C 
ATOM      6  C   UNL A   1      32.169  20.459  24.072  1.00  0.00     0.025 C 
BRANCH   5   7
ATOM      7  C   UNL A   1      33.917  22.115  24.743  1.00  0.00    -0.031 A 
ATOM      8  C   UNL A   1      36.672  22.311  25.527  1.00  0.00     0.018 A 
ATOM      9  C   UNL A   1      35.802  23.415  25.598  1.00  0.00     0.012 A 
ATOM     10  C   UNL A   1      36.131  21.111  25.057  1.00  0.00     0.131 A 
ATOM     11  C   UNL A   1      34.446  23.319  25.223  1.00  0.00     0.005 A 
ATOM     12  C   UNL A   1      34.785  21.006  24.681  1.00  0.00     0.044 A 
ATOM     13  F   UNL A   1      36.894  20.009  24.974  1.00  0.00    -0.206 F 
BRANCH   8  14
ATOM     14  C   UNL A   1      38.074  22.410  25.987  1.00  0.00    -0.012 A 
ATOM     15  C   UNL A   1      40.366  21.602  26.092  1.00  0.00     0.133 A 
ATOM     16  C   UNL A   1      40.723  22.630  26.962  1.00  0.00     0.047 A 
ATOM     17  C   UNL A   1      39.057  21.475  25.611  1.00  0.00     0.056 A 
ATOM     18  C   UNL A   1      39.764  23.561  27.342  1.00  0.00     0.004 A 
ATOM     19  C   UNL A   1      38.455  23.450  26.859  1.00  0.00     0.009 A 
BRANCH  15  20
ATOM     20  O   UNL A   1      41.343  20.630  25.831  1.00  0.00    -0.410 OA
BRANCH  20  21
ATOM     21  C   UNL A   1      42.290  20.404  26.815  1.00  0.00     0.412 C 
ATOM     22  N   UNL A   1      43.498  20.987  26.550  1.00  0.00    -0.321 N 
ATOM     23  H   UNL A   1      44.174  20.943  27.265  1.00  0.00     0.167 HD
ATOM     24  O   UNL A   1      42.128  19.720  27.828  1.00  0.00    -0.224 OA
BRANCH  22  25
ATOM     25  C   UNL A   1      43.889  21.665  25.328  1.00  0.00     0.119 C 
BRANCH  25  26
ATOM     26  C   UNL A   1      44.833  22.841  25.577  1.00  0.00     0.021 C 
BRANCH  26  27
ATOM     27  C   UNL A   1      44.350  24.191  25.031  1.00  0.00     0.002 C 
BRANCH  27  28
ATOM     28  C   UNL A   1      43.233  24.868  25.834  1.00  0.00     0.000 C 
BRANCH  28  29
ATOM     29  C   UNL A   1      42.596  26.089  25.163  1.00  0.00    -0.000 C 
BRANCH  29  30
ATOM     30  C   UNL A   1      41.276  26.561  25.784  1.00  0.00    -0.000 C 
BRANCH  30  31
ATOM     31  C   UNL A   1      41.414  27.557  26.940  1.00  0.00    -0.003 C 
ATOM     32  C   UNL A   1      41.349  29.011  26.496  1.00  0.00     0.004 C 
ENDBRANCH  30  31
ENDBRANCH  29  30
ENDBRANCH  28  29
ENDBRANCH  27  28
ENDBRANCH  26  27
ENDBRANCH  25  26
ENDBRANCH  22  25
ENDBRANCH  20  21
ENDBRANCH  15  20
ENDBRANCH   8  14
ENDBRANCH   5   7
ENDBRANCH   3   5
ENDBRANCH   2   3
ENDBRANCH   1   2
BRANCH   1  33
ATOM     33  C   UNL A   1      30.246  25.696  23.511  1.00  0.00     0.202 C 
BRANCH  33  34
ATOM     34  O   UNL A   1      31.049  26.866  23.572  1.00  0.00    -0.376 OA
BRANCH  34  35
ATOM     35  C   UNL A   1      30.422  28.135  23.719  1.00  0.00     0.188 C 
BRANCH  35  36
ATOM     36  C   UNL A   1      31.231  29.313  24.282  1.00  0.00     0.188 C 
BRANCH  36  37
ATOM     37  O   UNL A   1      31.238  29.407  25.693  1.00  0.00    -0.376 OA
BRANCH  37  38
ATOM     38  C   UNL A   1      32.422  29.921  26.276  1.00  0.00     0.202 C 
BRANCH  38  39
ATOM     39  C   UNL A   1      32.279  31.349  26.819  1.00  0.00     0.261 C 
BRANCH  39  40
ATOM     40  O   UNL A   1      33.437  31.871  27.496  1.00  0.00    -0.460 OA
BRANCH  40  41
ATOM     41  C   UNL A   1      33.301  33.078  28.084  1.00  0.00     0.338 C 
ATOM     42  O   UNL A   1      32.408  33.893  27.882  1.00  0.00    -0.246 OA
BRANCH  41  43
ATOM     43  C   UNL A   1      34.272  33.181  29.193  1.00  0.00     0.060 A 
ATOM     44  C   UNL A   1      34.392  34.403  29.870  1.00  0.00     0.016 A 
ATOM     45  C   UNL A   1      35.079  32.097  29.541  1.00  0.00     0.016 A 
ATOM     46  C   UNL A   1      35.373  34.567  30.847  1.00  0.00     0.010 A 
ATOM     47  C   UNL A   1      36.074  32.268  30.510  1.00  0.00     0.010 A 
ATOM     48  C   UNL A   1      36.262  33.520  31.124  1.00  0.00    -0.014 A 
BRANCH  48  49
ATOM     49  C   UNL A   1      37.533  33.815  31.832  1.00  0.00     0.031 A 
ATOM     50  C   UNL A   1      38.746  34.133  30.993  1.00  0.00     0.074 A 
ATOM     51  C   UNL A   1      37.618  33.829  33.173  1.00  0.00     0.049 A 
ATOM     52  N   UNL A   1      39.967  34.410  31.367  1.00  0.00    -0.248 NA
ATOM     53  C   UNL A   1      38.552  34.133  29.532  1.00  0.00     0.031 C 
ATOM     54  C   UNL A   1      36.520  33.558  34.097  1.00  0.00     0.029 A 
ATOM     55  N   UNL A   1      38.696  34.070  33.990  1.00  0.00    -0.354 N 
ATOM     56  C   UNL A   1      40.690  34.587  30.192  1.00  0.00     0.074 A 
ATOM     57  C   UNL A   1      39.778  34.364  29.094  1.00  0.00     0.031 C 
ATOM     58  C   UNL A   1      36.985  33.626  35.358  1.00  0.00     0.029 A 
ATOM     59  C   UNL A   1      38.416  33.925  35.328  1.00  0.00     0.049 A 
ATOM     60  H   UNL A   1      39.584  34.322  33.649  1.00  0.00     0.167 HD
ATOM     61  C   UNL A   1      41.992  34.925  30.036  1.00  0.00     0.034 A 
ATOM     62  C   UNL A   1      39.229  34.010  36.402  1.00  0.00     0.034 A 
ATOM     63  C   UNL A   1      42.898  35.162  31.127  1.00  0.00     0.049 A 
ATOM     64  C   UNL A   1      40.684  34.358  36.201  1.00  0.00     0.074 A 
ATOM     65  C   UNL A   1      44.228  35.534  31.075  1.00  0.00     0.029 A 
ATOM     66  N   UNL A   1      42.567  35.038  32.467  1.00  0.00    -0.354 N 
ATOM     67  N   UNL A   1      41.330  34.616  35.090  1.00  0.00    -0.248 NA
ATOM     68  C   UNL A   1      41.514  34.465  37.412  1.00  0.00     0.031 C 
ATOM     69  C   UNL A   1      44.711  35.609  32.385  1.00  0.00     0.029 A 
ATOM     70  C   UNL A   1      43.669  35.326  33.253  1.00  0.00     0.049 A 
ATOM     71  H   UNL A   1      41.679  34.785  32.809  1.00  0.00     0.167 HD
ATOM     72  C   UNL A   1      42.622  34.969  35.470  1.00  0.00     0.074 A 
ATOM     73  C   UNL A   1      42.664  34.900  36.916  1.00  0.00     0.031 C 
ATOM     74  C   UNL A   1      43.679  35.315  34.694  1.00  0.00     0.034 A 
BRANCH  61  75
ATOM     75  C   UNL A   1      42.506  35.072  28.627  1.00  0.00     0.023 A 
ATOM     76  C   UNL A   1      42.321  36.288  27.936  1.00  0.00     0.012 A 
ATOM     77  C   UNL A   1      43.199  34.020  27.998  1.00  0.00     0.148 A 
ATOM     78  C   UNL A   1      42.777  36.439  26.627  1.00  0.00     0.002 A 
ATOM     79  C   UNL A   1      43.696  34.195  26.712  1.00  0.00     0.091 A 
ATOM     80  F   UNL A   1      43.346  32.864  28.661  1.00  0.00    -0.205 F 
ATOM     81  C   UNL A   1      43.473  35.398  26.021  1.00  0.00     0.022 A 
BRANCH  79  82
ATOM     82  S   UNL A   1      44.675  32.945  25.874  1.00  0.00     0.127 S 
ATOM     83  O   UNL A   1      45.954  33.054  26.576  1.00  0.00    -0.237 OA
ATOM     84  O   UNL A   1      43.925  31.723  26.162  1.00  0.00    -0.237 OA
ATOM     85  O   UNL A   1      44.699  33.327  24.470  1.00  0.00    -0.744 OA
ENDBRANCH  79  82
ENDBRANCH  61  75
BRANCH  62  86
ATOM     86  C   UNL A   1      38.684  33.808  37.774  1.00  0.00     0.023 A 
ATOM     87  C   UNL A   1      38.723  34.869  38.701  1.00  0.00     0.012 A 
ATOM     88  C   UNL A   1      38.135  32.573  38.170  1.00  0.00     0.148 A 
ATOM     89  C   UNL A   1      38.263  34.693  40.007  1.00  0.00     0.002 A 
ATOM     90  C   UNL A   1      37.629  32.419  39.455  1.00  0.00     0.091 A 
ATOM     91  F   UNL A   1      38.121  31.571  37.279  1.00  0.00    -0.205 F 
ATOM     92  C   UNL A   1      37.708  33.472  40.380  1.00  0.00     0.022 A 
BRANCH  90  93
ATOM     93  S   UNL A   1      36.794  30.923  39.995  1.00  0.00     0.127 S 
ATOM     94  O   UNL A   1      35.487  31.438  40.395  1.00  0.00    -0.237 OA
ATOM     95  O   UNL A   1      36.793  30.124  38.768  1.00  0.00    -0.237 OA
ATOM     96  O   UNL A   1      37.614  30.379  41.068  1.00  0.00    -0.744 OA
ENDBRANCH  90  93
ENDBRANCH  62  86
BRANCH  74  97
ATOM     97  C   UNL A   1      44.957  35.724  35.383  1.00  0.00     0.023 A 
ATOM     98  C   UNL A   1      45.928  34.759  35.717  1.00  0.00     0.012 A 
ATOM     99  C   UNL A   1      45.223  37.085  35.636  1.00  0.00     0.148 A 
ATOM    100  C   UNL A   1      47.123  35.138  36.331  1.00  0.00     0.002 A 
ATOM    101  C   UNL A   1      46.439  37.461  36.195  1.00  0.00     0.091 A 
ATOM    102  F   UNL A   1      44.282  37.989  35.326  1.00  0.00    -0.205 F 
ATOM    103  C   UNL A   1      47.382  36.489  36.558  1.00  0.00     0.022 A 
BRANCH 101 104
ATOM    104  S   UNL A   1      46.898  39.182  36.427  1.00  0.00     0.127 S 
ATOM    105  O   UNL A   1      45.817  39.667  37.282  1.00  0.00    -0.237 OA
ATOM    106  O   UNL A   1      48.198  39.070  37.091  1.00  0.00    -0.237 OA
ATOM    107  O   UNL A   1      46.952  39.766  35.094  1.00  0.00    -0.744 OA
ENDBRANCH 101 104
ENDBRANCH  74  97
ENDBRANCH  48  49
ENDBRANCH  41  43
ENDBRANCH  40  41
ENDBRANCH  39  40
ENDBRANCH  38  39
ENDBRANCH  37  38
ENDBRANCH  36  37
ENDBRANCH  35  36
ENDBRANCH  34  35
ENDBRANCH  33  34
ENDBRANCH   1  33
TORSDOF 31
ENDMDL
MODEL 2
REMARK VINA RESULT:      -9.5      2.289      6.014
REMARK SMILES CCCCCCCCNC(=O)Oc1cccc(-c2ccc([C@@H](C)C(=O)OCCOCCOCCOC(=O)c3ccc(-c4c5nc(c(-c6cccc(S(=O)(=O)[O-])c6F)c6ccc([nH]6)c(-c6cccc(S(=O)(=O)[O-])c6F)c6nc(c(-c7cccc(S(=O)(=O)[O-])c7F)c7ccc4[nH]7)C=C6)C=C5)cc3)cc2F)c1
REMARK SMILES IDX 27 1 26 2 24 3 25 4 22 5 23 6 21 7 18 8 19 9 102 10 20 11
REMARK SMILES IDX 101 12 103 13 17 14 13 15 14 16 104 17 15 18 16 19 12 20
REMARK SMILES IDX 10 21 9 22 11 24 8 25 7 26 6 27 5 28 4 29 3 30 2 31 1 32
REMARK SMILES IDX 28 33 29 34 30 35 31 36 32 37 33 38 34 39 35 40 36 41 37 42
REMARK SMILES IDX 38 43 39 44 100 45 40 46 99 47 41 48 42 49 43 50 93 51 44 52
REMARK SMILES IDX 98 53 92 54 94 55 45 56 97 57 91 58 90 59 46 61 78 62 58 63
REMARK SMILES IDX 77 64 59 65 62 66 76 67 95 68 60 69 61 70 75 72 96 73 63 74
REMARK SMILES IDX 47 75 48 76 56 77 49 78 51 79 57 80 50 81 52 82 53 83 54 84
REMARK SMILES IDX 55 85 79 86 80 87 88 88 81 89 83 90 89 91 82 92 84 93 85 94
REMARK SMILES IDX 86 95 87 96 64 97 65 98 73 99 66 100 68 101 74 102 67 103
REMARK SMILES IDX 69 104 70 105 71 106 72 107
REMARK H PARENT 9 23 94 60 62 71
REMARK Flexibility Score: inf
ROOT
ATOM      1  C   UNL A   1      41.889  26.744  28.304  1.00  0.00     0.261 C 
ENDROOT
BRANCH   1   2
ATOM      2  O   UNL A   1      41.486  25.356  28.240  1.00  0.00    -0.463 OA
BRANCH   2   3
ATOM      3  C   UNL A   1      41.087  24.900  27.026  1.00  0.00     0.313 C 
ATOM      4  O   UNL A   1      41.123  25.587  26.008  1.00  0.00    -0.252 OA
BRANCH   3   5
ATOM      5  C   UNL A   1      40.595  23.449  26.972  1.00  0.00     0.126 C 
ATOM      6  C   UNL A   1      41.641  22.617  26.230  1.00  0.00     0.025 C 
BRANCH   5   7
ATOM      7  C   UNL A   1      39.198  23.095  26.461  1.00  0.00    -0.031 A 
ATOM      8  C   UNL A   1      36.628  22.322  25.440  1.00  0.00     0.018 A 
ATOM      9  C   UNL A   1      36.841  23.581  26.033  1.00  0.00     0.012 A 
ATOM     10  C   UNL A   1      37.729  21.464  25.370  1.00  0.00     0.131 A 
ATOM     11  C   UNL A   1      38.104  23.966  26.527  1.00  0.00     0.005 A 
ATOM     12  C   UNL A   1      38.988  21.838  25.858  1.00  0.00     0.044 A 
ATOM     13  F   UNL A   1      37.609  20.252  24.805  1.00  0.00    -0.206 F 
BRANCH   8  14
ATOM     14  C   UNL A   1      35.315  21.958  24.867  1.00  0.00    -0.012 A 
ATOM     15  C   UNL A   1      33.272  22.491  23.659  1.00  0.00     0.133 A 
ATOM     16  C   UNL A   1      32.780  21.203  23.857  1.00  0.00     0.047 A 
ATOM     17  C   UNL A   1      34.519  22.882  24.162  1.00  0.00     0.056 A 
ATOM     18  C   UNL A   1      33.553  20.280  24.550  1.00  0.00     0.004 A 
ATOM     19  C   UNL A   1      34.805  20.656  25.049  1.00  0.00     0.009 A 
BRANCH  15  20
ATOM     20  O   UNL A   1      32.405  23.411  23.050  1.00  0.00    -0.410 OA
BRANCH  20  21
ATOM     21  C   UNL A   1      32.930  24.208  22.047  1.00  0.00     0.412 C 
ATOM     22  N   UNL A   1      32.958  25.536  22.368  1.00  0.00    -0.321 N 
ATOM     23  H   UNL A   1      33.414  26.134  21.732  1.00  0.00     0.167 HD
ATOM     24  O   UNL A   1      33.309  23.818  20.940  1.00  0.00    -0.224 OA
BRANCH  22  25
ATOM     25  C   UNL A   1      32.386  26.160  23.549  1.00  0.00     0.119 C 
BRANCH  25  26
ATOM     26  C   UNL A   1      32.712  27.649  23.649  1.00  0.00     0.021 C 
BRANCH  26  27
ATOM     27  C   UNL A   1      31.495  28.574  23.787  1.00  0.00     0.002 C 
BRANCH  27  28
ATOM     28  C   UNL A   1      30.821  28.980  22.471  1.00  0.00     0.000 C 
BRANCH  28  29
ATOM     29  C   UNL A   1      29.344  29.371  22.589  1.00  0.00    -0.000 C 
BRANCH  29  30
ATOM     30  C   UNL A   1      28.865  30.424  21.584  1.00  0.00    -0.000 C 
BRANCH  30  31
ATOM     31  C   UNL A   1      28.409  31.754  22.195  1.00  0.00    -0.003 C 
ATOM     32  C   UNL A   1      27.667  31.592  23.513  1.00  0.00     0.004 C 
ENDBRANCH  30  31
ENDBRANCH  29  30
ENDBRANCH  28  29
ENDBRANCH  27  28
ENDBRANCH  26  27
ENDBRANCH  25  26
ENDBRANCH  22  25
ENDBRANCH  20  21
ENDBRANCH  15  20
ENDBRANCH   8  14
ENDBRANCH   5   7
ENDBRANCH   3   5
ENDBRANCH   2   3
ENDBRANCH   1   2
BRANCH   1  33
ATOM     33  C   UNL A   1      41.556  27.464  29.620  1.00  0.00     0.202 C 
BRANCH  33  34
ATOM     34  O   UNL A   1      40.519  28.435  29.611  1.00  0.00    -0.376 OA
BRANCH  34  35
ATOM     35  C   UNL A   1      39.259  28.102  29.039  1.00  0.00     0.188 C 
BRANCH  35  36
ATOM     36  C   UNL A   1      38.640  29.036  27.987  1.00  0.00     0.188 C 
BRANCH  36  37
ATOM     37  O   UNL A   1      37.365  29.545  28.321  1.00  0.00    -0.376 OA
BRANCH  37  38
ATOM     38  C   UNL A   1      36.608  30.081  27.251  1.00  0.00     0.202 C 
BRANCH  38  39
ATOM     39  C   UNL A   1      35.090  30.012  27.468  1.00  0.00     0.261 C 
BRANCH  39  40
ATOM     40  O   UNL A   1      34.629  30.472  28.752  1.00  0.00    -0.460 OA
BRANCH  40  41
ATOM     41  C   UNL A   1      34.448  31.803  28.887  1.00  0.00     0.338 C 
ATOM     42  O   UNL A   1      33.553  32.473  28.384  1.00  0.00    -0.246 OA
BRANCH  41  43
ATOM     43  C   UNL A   1      35.365  32.306  29.930  1.00  0.00     0.060 A 
ATOM     44  C   UNL A   1      35.453  33.691  30.137  1.00  0.00     0.016 A 
ATOM     45  C   UNL A   1      36.153  31.428  30.675  1.00  0.00     0.016 A 
ATOM     46  C   UNL A   1      36.386  34.204  31.037  1.00  0.00     0.010 A 
ATOM     47  C   UNL A   1      37.100  31.946  31.565  1.00  0.00     0.010 A 
ATOM     48  C   UNL A   1      37.260  33.337  31.705  1.00  0.00    -0.014 A 
BRANCH  48  49
ATOM     49  C   UNL A   1      38.496  33.883  32.320  1.00  0.00     0.031 A 
ATOM     50  C   UNL A   1      39.664  34.172  31.410  1.00  0.00     0.074 A 
ATOM     51  C   UNL A   1      38.585  34.144  33.635  1.00  0.00     0.049 A 
ATOM     52  N   UNL A   1      40.851  34.636  31.700  1.00  0.00    -0.248 NA
ATOM     53  C   UNL A   1      39.463  33.893  29.977  1.00  0.00     0.031 C 
ATOM     54  C   UNL A   1      37.526  33.927  34.618  1.00  0.00     0.029 A 
ATOM     55  N   UNL A   1      39.635  34.636  34.372  1.00  0.00    -0.354 N 
ATOM     56  C   UNL A   1      41.545  34.676  30.496  1.00  0.00     0.074 A 
ATOM     57  C   UNL A   1      40.656  34.169  29.476  1.00  0.00     0.031 C 
ATOM     58  C   UNL A   1      37.988  34.266  35.836  1.00  0.00     0.029 A 
ATOM     59  C   UNL A   1      39.379  34.702  35.720  1.00  0.00     0.049 A 
ATOM     60  H   UNL A   1      40.490  34.915  33.971  1.00  0.00     0.167 HD
ATOM     61  C   UNL A   1      42.803  35.115  30.252  1.00  0.00     0.034 A 
ATOM     62  C   UNL A   1      40.183  35.060  36.743  1.00  0.00     0.034 A 
ATOM     63  C   UNL A   1      43.683  35.634  31.263  1.00  0.00     0.049 A 
ATOM     64  C   UNL A   1      41.592  35.516  36.450  1.00  0.00     0.074 A 
ATOM     65  C   UNL A   1      44.966  36.127  31.115  1.00  0.00     0.029 A 
ATOM     66  N   UNL A   1      43.374  35.716  32.611  1.00  0.00    -0.354 N 
ATOM     67  N   UNL A   1      42.202  35.639  35.296  1.00  0.00    -0.248 NA
ATOM     68  C   UNL A   1      42.412  35.922  37.604  1.00  0.00     0.031 C 
ATOM     69  C   UNL A   1      45.445  36.483  32.380  1.00  0.00     0.029 A 
ATOM     70  C   UNL A   1      44.443  36.251  33.308  1.00  0.00     0.049 A 
ATOM     71  H   UNL A   1      42.520  35.437  33.013  1.00  0.00     0.167 HD
ATOM     72  C   UNL A   1      43.451  36.186  35.578  1.00  0.00     0.074 A 
ATOM     73  C   UNL A   1      43.506  36.379  37.012  1.00  0.00     0.031 C 
ATOM     74  C   UNL A   1      44.461  36.497  34.728  1.00  0.00     0.034 A 
BRANCH  61  75
ATOM     75  C   UNL A   1      43.291  35.063  28.827  1.00  0.00     0.023 A 
ATOM     76  C   UNL A   1      43.100  36.174  27.980  1.00  0.00     0.012 A 
ATOM     77  C   UNL A   1      43.965  33.929  28.337  1.00  0.00     0.148 A 
ATOM     78  C   UNL A   1      43.532  36.140  26.655  1.00  0.00     0.002 A 
ATOM     79  C   UNL A   1      44.439  33.921  27.031  1.00  0.00     0.091 A 
ATOM     80  F   UNL A   1      44.118  32.873  29.150  1.00  0.00    -0.205 F 
ATOM     81  C   UNL A   1      44.211  35.020  26.184  1.00  0.00     0.022 A 
BRANCH  79  82
ATOM     82  S   UNL A   1      45.396  32.560  26.355  1.00  0.00     0.127 S 
ATOM     83  O   UNL A   1      44.848  32.457  25.003  1.00  0.00    -0.237 OA
ATOM     84  O   UNL A   1      46.761  33.082  26.421  1.00  0.00    -0.237 OA
ATOM     85  O   UNL A   1      45.140  31.419  27.222  1.00  0.00    -0.744 OA
ENDBRANCH  79  82
ENDBRANCH  61  75
BRANCH  62  86
ATOM     86  C   UNL A   1      39.670  35.049  38.142  1.00  0.00     0.023 A 
ATOM     87  C   UNL A   1      39.284  36.260  38.751  1.00  0.00     0.012 A 
ATOM     88  C   UNL A   1      39.568  33.850  38.876  1.00  0.00     0.148 A 
ATOM     89  C   UNL A   1      38.844  36.283  40.075  1.00  0.00     0.002 A 
ATOM     90  C   UNL A   1      39.078  33.873  40.176  1.00  0.00     0.091 A 
ATOM     91  F   UNL A   1      39.954  32.711  38.284  1.00  0.00    -0.205 F 
ATOM     92  C   UNL A   1      38.733  35.091  40.784  1.00  0.00     0.022 A 
BRANCH  90  93
ATOM     93  S   UNL A   1      38.793  32.378  41.129  1.00  0.00     0.127 S 
ATOM     94  O   UNL A   1      40.150  31.863  41.292  1.00  0.00    -0.237 OA
ATOM     95  O   UNL A   1      38.186  32.914  42.350  1.00  0.00    -0.237 OA
ATOM     96  O   UNL A   1      37.900  31.559  40.321  1.00  0.00    -0.744 OA
ENDBRANCH  90  93
ENDBRANCH  62  86
BRANCH  74  97
ATOM     97  C   UNL A   1      45.691  37.152  35.305  1.00  0.00     0.023 A 
ATOM     98  C   UNL A   1      46.817  36.378  35.650  1.00  0.00     0.012 A 
ATOM     99  C   UNL A   1      45.753  38.555  35.437  1.00  0.00     0.148 A 
ATOM    100  C   UNL A   1      47.966  36.985  36.158  1.00  0.00     0.002 A 
ATOM    101  C   UNL A   1      46.921  39.157  35.890  1.00  0.00     0.091 A 
ATOM    102  F   UNL A   1      44.668  39.276  35.118  1.00  0.00    -0.205 F 
ATOM    103  C   UNL A   1      48.022  38.373  36.266  1.00  0.00     0.022 A 
BRANCH 101 104
ATOM    104  S   UNL A   1      47.116  40.941  35.962  1.00  0.00     0.127 S 
ATOM    105  O   UNL A   1      48.359  41.075  36.718  1.00  0.00    -0.237 OA
ATOM    106  O   UNL A   1      47.220  41.300  34.547  1.00  0.00    -0.237 OA
ATOM    107  O   UNL A   1      45.923  41.449  36.626  1.00  0.00    -0.744 OA
ENDBRANCH 101 104
ENDBRANCH  74  97
ENDBRANCH  48  49
ENDBRANCH  41  43
ENDBRANCH  40  41
ENDBRANCH  39  40
ENDBRANCH  38  39
ENDBRANCH  37  38
ENDBRANCH  36  37
ENDBRANCH  35  36
ENDBRANCH  34  35
ENDBRANCH  33  34
ENDBRANCH   1  33
TORSDOF 31
ENDMDL
MODEL 3
REMARK VINA RESULT:      -9.4      1.596      2.270
REMARK SMILES CCCCCCCCNC(=O)Oc1cccc(-c2ccc([C@@H](C)C(=O)OCCOCCOCCOC(=O)c3ccc(-c4c5nc(c(-c6cccc(S(=O)(=O)[O-])c6F)c6ccc([nH]6)c(-c6cccc(S(=O)(=O)[O-])c6F)c6nc(c(-c7cccc(S(=O)(=O)[O-])c7F)c7ccc4[nH]7)C=C6)C=C5)cc3)cc2F)c1
REMARK SMILES IDX 27 1 26 2 24 3 25 4 22 5 23 6 21 7 18 8 19 9 102 10 20 11
REMARK SMILES IDX 101 12 103 13 17 14 13 15 14 16 104 17 15 18 16 19 12 20
REMARK SMILES IDX 10 21 9 22 11 24 8 25 7 26 6 27 5 28 4 29 3 30 2 31 1 32
REMARK SMILES IDX 28 33 29 34 30 35 31 36 32 37 33 38 34 39 35 40 36 41 37 42
REMARK SMILES IDX 38 43 39 44 100 45 40 46 99 47 41 48 42 49 43 50 93 51 44 52
REMARK SMILES IDX 98 53 92 54 94 55 45 56 97 57 91 58 90 59 46 61 78 62 58 63
REMARK SMILES IDX 77 64 59 65 62 66 76 67 95 68 60 69 61 70 75 72 96 73 63 74
REMARK SMILES IDX 47 75 48 76 56 77 49 78 51 79 57 80 50 81 52 82 53 83 54 84
REMARK SMILES IDX 55 85 79 86 80 87 88 88 81 89 83 90 89 91 82 92 84 93 85 94
REMARK SMILES IDX 86 95 87 96 64 97 65 98 73 99 66 100 68 101 74 102 67 103
REMARK SMILES IDX 69 104 70 105 71 106 72 107
REMARK H PARENT 9 23 94 60 62 71
REMARK Flexibility Score: inf
ROOT
ATOM      1  C   UNL A   1      31.056  24.708  23.778  1.00  0.00     0.261 C 
ENDROOT
BRANCH   1   2
ATOM      2  O   UNL A   1      31.159  24.262  25.151  1.00  0.00    -0.463 OA
BRANCH   2   3
ATOM      3  C   UNL A   1      31.127  22.921  25.352  1.00  0.00     0.313 C 
ATOM      4  O   UNL A   1      30.261  22.366  26.026  1.00  0.00    -0.252 OA
BRANCH   3   5
ATOM      5  C   UNL A   1      32.230  22.103  24.672  1.00  0.00     0.126 C 
ATOM      6  C   UNL A   1      31.891  20.620  24.825  1.00  0.00     0.025 C 
BRANCH   5   7
ATOM      7  C   UNL A   1      33.708  22.329  24.992  1.00  0.00    -0.031 A 
ATOM      8  C   UNL A   1      36.501  22.619  25.593  1.00  0.00     0.018 A 
ATOM      9  C   UNL A   1      35.608  23.704  25.681  1.00  0.00     0.012 A 
ATOM     10  C   UNL A   1      35.963  21.390  25.199  1.00  0.00     0.131 A 
ATOM     11  C   UNL A   1      34.235  23.562  25.395  1.00  0.00     0.005 A 
ATOM     12  C   UNL A   1      34.600  21.240  24.913  1.00  0.00     0.044 A 
ATOM     13  F   UNL A   1      36.748  20.305  25.107  1.00  0.00    -0.206 F 
BRANCH   8  14
ATOM     14  C   UNL A   1      37.925  22.768  25.960  1.00  0.00    -0.012 A 
ATOM     15  C   UNL A   1      40.142  21.864  26.392  1.00  0.00     0.133 A 
ATOM     16  C   UNL A   1      40.625  23.125  26.735  1.00  0.00     0.047 A 
ATOM     17  C   UNL A   1      38.806  21.671  26.018  1.00  0.00     0.056 A 
ATOM     18  C   UNL A   1      39.768  24.218  26.682  1.00  0.00     0.004 A 
ATOM     19  C   UNL A   1      38.434  24.038  26.299  1.00  0.00     0.009 A 
BRANCH  15  20
ATOM     20  O   UNL A   1      41.019  20.783  26.569  1.00  0.00    -0.410 OA
BRANCH  20  21
ATOM     21  C   UNL A   1      42.230  21.047  27.186  1.00  0.00     0.412 C 
ATOM     22  N   UNL A   1      43.286  20.401  26.606  1.00  0.00    -0.321 N 
ATOM     23  H   UNL A   1      44.183  20.632  26.942  1.00  0.00     0.167 HD
ATOM     24  O   UNL A   1      42.393  21.751  28.185  1.00  0.00    -0.224 OA
BRANCH  22  25
ATOM     25  C   UNL A   1      43.226  19.409  25.547  1.00  0.00     0.119 C 
BRANCH  25  26
ATOM     26  C   UNL A   1      44.563  18.706  25.316  1.00  0.00     0.021 C 
BRANCH  26  27
ATOM     27  C   UNL A   1      45.361  19.207  24.105  1.00  0.00     0.002 C 
BRANCH  27  28
ATOM     28  C   UNL A   1      46.604  20.044  24.432  1.00  0.00     0.000 C 
BRANCH  28  29
ATOM     29  C   UNL A   1      46.363  21.227  25.375  1.00  0.00    -0.000 C 
BRANCH  29  30
ATOM     30  C   UNL A   1      45.563  22.389  24.775  1.00  0.00    -0.000 C 
BRANCH  30  31
ATOM     31  C   UNL A   1      46.401  23.495  24.126  1.00  0.00    -0.003 C 
ATOM     32  C   UNL A   1      46.720  24.645  25.069  1.00  0.00     0.004 C 
ENDBRANCH  30  31
ENDBRANCH  29  30
ENDBRANCH  28  29
ENDBRANCH  27  28
ENDBRANCH  26  27
ENDBRANCH  25  26
ENDBRANCH  22  25
ENDBRANCH  20  21
ENDBRANCH  15  20
ENDBRANCH   8  14
ENDBRANCH   5   7
ENDBRANCH   3   5
ENDBRANCH   2   3
ENDBRANCH   1   2
BRANCH   1  33
ATOM     33  C   UNL A   1      30.365  26.066  23.580  1.00  0.00     0.202 C 
BRANCH  33  34
ATOM     34  O   UNL A   1      31.146  27.243  23.720  1.00  0.00    -0.376 OA
BRANCH  34  35
ATOM     35  C   UNL A   1      30.496  28.508  23.782  1.00  0.00     0.188 C 
BRANCH  35  36
ATOM     36  C   UNL A   1      31.261  29.721  24.333  1.00  0.00     0.188 C 
BRANCH  36  37
ATOM     37  O   UNL A   1      31.100  29.946  25.719  1.00  0.00    -0.376 OA
BRANCH  37  38
ATOM     38  C   UNL A   1      32.260  30.350  26.424  1.00  0.00     0.202 C 
BRANCH  38  39
ATOM     39  C   UNL A   1      32.236  31.817  26.872  1.00  0.00     0.261 C 
BRANCH  39  40
ATOM     40  O   UNL A   1      33.386  32.252  27.621  1.00  0.00    -0.460 OA
BRANCH  40  41
ATOM     41  C   UNL A   1      33.268  33.422  28.283  1.00  0.00     0.338 C 
ATOM     42  O   UNL A   1      32.379  34.254  28.144  1.00  0.00    -0.246 OA
BRANCH  41  43
ATOM     43  C   UNL A   1      34.257  33.452  29.380  1.00  0.00     0.060 A 
ATOM     44  C   UNL A   1      34.385  34.624  30.140  1.00  0.00     0.016 A 
ATOM     45  C   UNL A   1      35.074  32.349  29.638  1.00  0.00     0.016 A 
ATOM     46  C   UNL A   1      35.381  34.723  31.110  1.00  0.00     0.010 A 
ATOM     47  C   UNL A   1      36.084  32.457  30.600  1.00  0.00     0.010 A 
ATOM     48  C   UNL A   1      36.278  33.663  31.297  1.00  0.00    -0.014 A 
BRANCH  48  49
ATOM     49  C   UNL A   1      37.560  33.914  32.003  1.00  0.00     0.031 A 
ATOM     50  C   UNL A   1      38.787  34.167  31.162  1.00  0.00     0.074 A 
ATOM     51  C   UNL A   1      37.644  33.945  33.344  1.00  0.00     0.049 A 
ATOM     52  N   UNL A   1      40.018  34.396  31.534  1.00  0.00    -0.248 NA
ATOM     53  C   UNL A   1      38.595  34.153  29.701  1.00  0.00     0.031 C 
ATOM     54  C   UNL A   1      36.534  33.736  34.270  1.00  0.00     0.029 A 
ATOM     55  N   UNL A   1      38.730  34.152  34.160  1.00  0.00    -0.354 N 
ATOM     56  C   UNL A   1      40.750  34.524  30.358  1.00  0.00     0.074 A 
ATOM     57  C   UNL A   1      39.830  34.325  29.261  1.00  0.00     0.031 C 
ATOM     58  C   UNL A   1      37.000  33.803  35.530  1.00  0.00     0.029 A 
ATOM     59  C   UNL A   1      38.443  34.039  35.499  1.00  0.00     0.049 A 
ATOM     60  H   UNL A   1      39.628  34.360  33.816  1.00  0.00     0.167 HD
ATOM     61  C   UNL A   1      42.065  34.803  30.199  1.00  0.00     0.034 A 
ATOM     62  C   UNL A   1      39.257  34.105  36.573  1.00  0.00     0.034 A 
ATOM     63  C   UNL A   1      42.979  35.017  31.288  1.00  0.00     0.049 A 
ATOM     64  C   UNL A   1      40.725  34.386  36.370  1.00  0.00     0.074 A 
ATOM     65  C   UNL A   1      44.324  35.331  31.233  1.00  0.00     0.029 A 
ATOM     66  N   UNL A   1      42.641  34.929  32.629  1.00  0.00    -0.354 N 
ATOM     67  N   UNL A   1      41.384  34.600  35.257  1.00  0.00    -0.248 NA
ATOM     68  C   UNL A   1      41.558  34.476  37.581  1.00  0.00     0.031 C 
ATOM     69  C   UNL A   1      44.809  35.405  32.544  1.00  0.00     0.029 A 
ATOM     70  C   UNL A   1      43.754  35.180  33.414  1.00  0.00     0.049 A 
ATOM     71  H   UNL A   1      41.743  34.720  32.974  1.00  0.00     0.167 HD
ATOM     72  C   UNL A   1      42.689  34.903  35.634  1.00  0.00     0.074 A 
ATOM     73  C   UNL A   1      42.726  34.853  37.080  1.00  0.00     0.031 C 
ATOM     74  C   UNL A   1      43.761  35.191  34.854  1.00  0.00     0.034 A 
BRANCH  61  75
ATOM     75  C   UNL A   1      42.587  34.907  28.789  1.00  0.00     0.023 A 
ATOM     76  C   UNL A   1      42.426  36.109  28.069  1.00  0.00     0.012 A 
ATOM     77  C   UNL A   1      43.263  33.828  28.189  1.00  0.00     0.148 A 
ATOM     78  C   UNL A   1      42.889  36.219  26.758  1.00  0.00     0.002 A 
ATOM     79  C   UNL A   1      43.768  33.963  26.902  1.00  0.00     0.091 A 
ATOM     80  F   UNL A   1      43.387  32.686  28.881  1.00  0.00    -0.205 F 
ATOM     81  C   UNL A   1      43.569  35.152  26.180  1.00  0.00     0.022 A 
BRANCH  79  82
ATOM     82  S   UNL A   1      44.729  32.676  26.099  1.00  0.00     0.127 S 
ATOM     83  O   UNL A   1      44.822  33.187  24.732  1.00  0.00    -0.237 OA
ATOM     84  O   UNL A   1      45.983  32.715  26.851  1.00  0.00    -0.237 OA
ATOM     85  O   UNL A   1      43.965  31.446  26.255  1.00  0.00    -0.744 OA
ENDBRANCH  79  82
ENDBRANCH  61  75
BRANCH  62  86
ATOM     86  C   UNL A   1      38.702  33.948  37.947  1.00  0.00     0.023 A 
ATOM     87  C   UNL A   1      38.878  34.980  38.890  1.00  0.00     0.012 A 
ATOM     88  C   UNL A   1      38.009  32.782  38.328  1.00  0.00     0.148 A 
ATOM     89  C   UNL A   1      38.409  34.838  40.198  1.00  0.00     0.002 A 
ATOM     90  C   UNL A   1      37.498  32.669  39.616  1.00  0.00     0.091 A 
ATOM     91  F   UNL A   1      37.866  31.805  37.421  1.00  0.00    -0.205 F 
ATOM     92  C   UNL A   1      37.712  33.688  40.557  1.00  0.00     0.022 A 
BRANCH  90  93
ATOM     93  S   UNL A   1      36.491  31.277  40.139  1.00  0.00     0.127 S 
ATOM     94  O   UNL A   1      37.275  30.143  39.658  1.00  0.00    -0.237 OA
ATOM     95  O   UNL A   1      36.480  31.447  41.593  1.00  0.00    -0.237 OA
ATOM     96  O   UNL A   1      35.196  31.465  39.500  1.00  0.00    -0.744 OA
ENDBRANCH  90  93
ENDBRANCH  62  86
BRANCH  74  97
ATOM     97  C   UNL A   1      45.055  35.555  35.540  1.00  0.00     0.023 A 
ATOM     98  C   UNL A   1      45.302  36.883  35.939  1.00  0.00     0.012 A 
ATOM     99  C   UNL A   1      45.999  34.554  35.852  1.00  0.00     0.148 A 
ATOM    100  C   UNL A   1      46.486  37.217  36.598  1.00  0.00     0.002 A 
ATOM    101  C   UNL A   1      47.149  34.884  36.558  1.00  0.00     0.091 A 
ATOM    102  F   UNL A   1      45.755  33.298  35.451  1.00  0.00    -0.205 F 
ATOM    103  C   UNL A   1      47.402  36.216  36.918  1.00  0.00     0.022 A 
BRANCH 101 104
ATOM    104  S   UNL A   1      48.331  33.645  37.101  1.00  0.00     0.127 S 
ATOM    105  O   UNL A   1      48.459  32.812  35.908  1.00  0.00    -0.237 OA
ATOM    106  O   UNL A   1      49.511  34.455  37.408  1.00  0.00    -0.237 OA
ATOM    107  O   UNL A   1      47.729  32.996  38.257  1.00  0.00    -0.744 OA
ENDBRANCH 101 104
ENDBRANCH  74  97
ENDBRANCH  48  49
ENDBRANCH  41  43
ENDBRANCH  40  41
ENDBRANCH  39  40
ENDBRANCH  38  39
ENDBRANCH  37  38
ENDBRANCH  36  37
ENDBRANCH  35  36
ENDBRANCH  34  35
ENDBRANCH  33  34
ENDBRANCH   1  33
TORSDOF 31
ENDMDL
