MODEL 1
REMARK VINA RESULT:     -10.6      0.000      0.000
REMARK SMILES COc1cccc(C[C@H](C(=O)OCCOCCOCCOC(=O)c2ccc(-c3c4nc(c(-c5cccc(S(=O)(=O)[O-])c5F)c5ccc([nH]5)c(-c5cccc(S(=O)(=O)[O-])c5F)c5nc(c(-c6cccc(S(=O)(=O)[O-])c6F)c6ccc3[nH]6)C=C5)C=C4)cc2)c2cccc(C)c2)n1
REMARK SMILES IDX 16 1 15 2 14 3 13 4 12 5 10 6 11 7 9 8 8 9 7 10 3 11 4 12
REMARK SMILES IDX 94 13 5 14 6 15 2 16 1 17 87 18 88 19 93 20 89 21 91 22
REMARK SMILES IDX 90 23 92 24 17 25 18 26 19 27 20 28 21 29 22 30 23 31 24 32
REMARK SMILES IDX 25 33 86 34 26 35 85 36 27 37 28 38 29 39 79 40 30 41 84 42
REMARK SMILES IDX 78 43 80 44 31 45 83 46 77 47 76 48 32 50 64 51 44 52 63 53
REMARK SMILES IDX 45 54 48 55 62 56 81 57 46 58 47 59 61 61 82 62 49 63 33 64
REMARK SMILES IDX 34 65 42 66 35 67 37 68 43 69 36 70 38 71 39 72 40 73 41 74
REMARK SMILES IDX 65 75 66 76 74 77 67 78 69 79 75 80 68 81 70 82 71 83 72 84
REMARK SMILES IDX 73 85 50 86 51 87 59 88 52 89 54 90 60 91 53 92 55 93 56 94
REMARK SMILES IDX 57 95 58 96
REMARK H PARENT 80 49 48 60
REMARK Flexibility Score: inf
ROOT
ATOM      1  C   UNL A   1      30.345  26.482  23.189  1.00  0.00     0.188 C 
ENDROOT
BRANCH   1   2
ATOM      2  O   UNL A   1      31.368  25.927  22.384  1.00  0.00    -0.376 OA
BRANCH   2   3
ATOM      3  C   UNL A   1      32.368  25.167  23.041  1.00  0.00     0.202 C 
BRANCH   3   4
ATOM      4  C   UNL A   1      32.228  23.645  23.005  1.00  0.00     0.261 C 
BRANCH   4   5
ATOM      5  O   UNL A   1      31.113  23.106  23.740  1.00  0.00    -0.463 OA
BRANCH   5   6
ATOM      6  C   UNL A   1      31.415  22.394  24.860  1.00  0.00     0.313 C 
ATOM      7  O   UNL A   1      30.773  22.461  25.906  1.00  0.00    -0.252 OA
BRANCH   6   8
ATOM      8  C   UNL A   1      32.718  21.596  24.770  1.00  0.00     0.135 C 
BRANCH   8   9
ATOM      9  C   UNL A   1      33.586  21.678  26.055  1.00  0.00     0.076 C 
BRANCH   9  10
ATOM     10  C   UNL A   1      35.043  22.026  25.826  1.00  0.00     0.046 A 
ATOM     11  C   UNL A   1      37.084  21.366  24.962  1.00  0.00     0.213 A 
ATOM     12  C   UNL A   1      37.565  22.666  24.955  1.00  0.00     0.068 A 
ATOM     13  N   UNL A   1      35.856  21.035  25.401  1.00  0.00    -0.219 NA
ATOM     14  C   UNL A   1      36.754  23.669  25.471  1.00  0.00     0.007 A 
ATOM     15  C   UNL A   1      35.478  23.348  25.924  1.00  0.00     0.024 A 
BRANCH  11  16
ATOM     16  O   UNL A   1      37.783  20.322  24.420  1.00  0.00    -0.481 OA
ATOM     17  C   UNL A   1      38.568  19.636  25.383  1.00  0.00     0.280 C 
ENDBRANCH  11  16
ENDBRANCH   9  10
ENDBRANCH   8   9
BRANCH   8  18
ATOM     18  C   UNL A   1      32.533  20.191  24.194  1.00  0.00    -0.033 A 
ATOM     19  C   UNL A   1      32.215  20.009  22.841  1.00  0.00     0.004 A 
ATOM     20  C   UNL A   1      32.750  19.048  24.982  1.00  0.00     0.008 A 
ATOM     21  C   UNL A   1      32.247  18.738  22.267  1.00  0.00     0.001 A 
ATOM     22  C   UNL A   1      32.776  17.770  24.419  1.00  0.00    -0.051 A 
ATOM     23  C   UNL A   1      32.543  17.624  23.051  1.00  0.00     0.003 A 
ATOM     24  C   UNL A   1      33.075  16.581  25.282  1.00  0.00     0.044 C 
ENDBRANCH   8  18
ENDBRANCH   6   8
ENDBRANCH   5   6
ENDBRANCH   4   5
ENDBRANCH   3   4
ENDBRANCH   2   3
ENDBRANCH   1   2
BRANCH   1  25
ATOM     25  C   UNL A   1      30.376  27.984  23.488  1.00  0.00     0.188 C 
BRANCH  25  26
ATOM     26  O   UNL A   1      30.881  28.386  24.751  1.00  0.00    -0.376 OA
BRANCH  26  27
ATOM     27  C   UNL A   1      31.127  29.790  24.842  1.00  0.00     0.202 C 
BRANCH  27  28
ATOM     28  C   UNL A   1      32.517  30.081  25.435  1.00  0.00     0.261 C 
BRANCH  28  29
ATOM     29  O   UNL A   1      32.526  30.448  26.831  1.00  0.00    -0.460 OA
BRANCH  29  30
ATOM     30  C   UNL A   1      33.146  31.607  27.169  1.00  0.00     0.338 C 
ATOM     31  O   UNL A   1      32.618  32.707  27.243  1.00  0.00    -0.246 OA
BRANCH  30  32
ATOM     32  C   UNL A   1      34.503  31.292  27.710  1.00  0.00     0.060 A 
ATOM     33  C   UNL A   1      34.861  29.943  27.875  1.00  0.00     0.016 A 
ATOM     34  C   UNL A   1      35.445  32.289  27.980  1.00  0.00     0.016 A 
ATOM     35  C   UNL A   1      36.120  29.595  28.383  1.00  0.00     0.010 A 
ATOM     36  C   UNL A   1      36.701  31.941  28.497  1.00  0.00     0.010 A 
ATOM     37  C   UNL A   1      37.028  30.596  28.752  1.00  0.00    -0.014 A 
BRANCH  37  38
ATOM     38  C   UNL A   1      38.186  30.275  29.635  1.00  0.00     0.031 A 
ATOM     39  C   UNL A   1      39.210  29.294  29.114  1.00  0.00     0.074 A 
ATOM     40  C   UNL A   1      38.345  30.803  30.864  1.00  0.00     0.049 A 
ATOM     41  N   UNL A   1      40.261  28.791  29.705  1.00  0.00    -0.248 NA
ATOM     42  C   UNL A   1      39.010  28.810  27.736  1.00  0.00     0.031 C 
ATOM     43  C   UNL A   1      37.455  31.774  31.497  1.00  0.00     0.029 A 
ATOM     44  N   UNL A   1      39.311  30.566  31.816  1.00  0.00    -0.354 N 
ATOM     45  C   UNL A   1      40.819  27.900  28.794  1.00  0.00     0.074 A 
ATOM     46  C   UNL A   1      39.991  27.931  27.609  1.00  0.00     0.031 C 
ATOM     47  C   UNL A   1      37.901  32.028  32.742  1.00  0.00     0.029 A 
ATOM     48  C   UNL A   1      39.089  31.217  33.008  1.00  0.00     0.049 A 
ATOM     49  H   UNL A   1      40.089  29.983  31.658  1.00  0.00     0.167 HD
ATOM     50  C   UNL A   1      41.924  27.130  28.919  1.00  0.00     0.034 A 
ATOM     51  C   UNL A   1      39.753  31.148  34.183  1.00  0.00     0.034 A 
ATOM     52  C   UNL A   1      42.773  27.111  30.078  1.00  0.00     0.049 A 
ATOM     53  C   UNL A   1      40.971  30.258  34.304  1.00  0.00     0.074 A 
ATOM     54  C   UNL A   1      43.946  26.403  30.270  1.00  0.00     0.029 A 
ATOM     55  N   UNL A   1      42.537  27.820  31.243  1.00  0.00    -0.354 N 
ATOM     56  N   UNL A   1      41.551  29.516  33.392  1.00  0.00    -0.248 NA
ATOM     57  C   UNL A   1      41.645  30.224  35.613  1.00  0.00     0.031 C 
ATOM     58  C   UNL A   1      44.401  26.656  31.567  1.00  0.00     0.029 A 
ATOM     59  C   UNL A   1      43.536  27.556  32.165  1.00  0.00     0.049 A 
ATOM     60  H   UNL A   1      41.773  28.422  31.394  1.00  0.00     0.167 HD
ATOM     61  C   UNL A   1      42.680  28.973  34.000  1.00  0.00     0.074 A 
ATOM     62  C   UNL A   1      42.712  29.481  35.355  1.00  0.00     0.031 C 
ATOM     63  C   UNL A   1      43.604  28.123  33.486  1.00  0.00     0.034 A 
BRANCH  50  64
ATOM     64  C   UNL A   1      42.294  26.238  27.764  1.00  0.00     0.023 A 
ATOM     65  C   UNL A   1      43.106  26.735  26.725  1.00  0.00     0.012 A 
ATOM     66  C   UNL A   1      41.894  24.888  27.747  1.00  0.00     0.148 A 
ATOM     67  C   UNL A   1      43.494  25.908  25.671  1.00  0.00     0.002 A 
ATOM     68  C   UNL A   1      42.322  24.058  26.720  1.00  0.00     0.091 A 
ATOM     69  F   UNL A   1      41.102  24.444  28.734  1.00  0.00    -0.205 F 
ATOM     70  C   UNL A   1      43.112  24.568  25.676  1.00  0.00     0.022 A 
BRANCH  68  71
ATOM     71  S   UNL A   1      41.957  22.300  26.678  1.00  0.00     0.127 S 
ATOM     72  O   UNL A   1      42.714  21.815  27.833  1.00  0.00    -0.237 OA
ATOM     73  O   UNL A   1      40.505  22.285  26.851  1.00  0.00    -0.237 OA
ATOM     74  O   UNL A   1      42.424  21.822  25.384  1.00  0.00    -0.744 OA
ENDBRANCH  68  71
ENDBRANCH  50  64
BRANCH  51  75
ATOM     75  C   UNL A   1      39.312  31.958  35.359  1.00  0.00     0.023 A 
ATOM     76  C   UNL A   1      38.348  31.430  36.242  1.00  0.00     0.012 A 
ATOM     77  C   UNL A   1      39.801  33.260  35.580  1.00  0.00     0.148 A 
ATOM     78  C   UNL A   1      37.848  32.198  37.296  1.00  0.00     0.002 A 
ATOM     79  C   UNL A   1      39.339  33.999  36.663  1.00  0.00     0.091 A 
ATOM     80  F   UNL A   1      40.697  33.756  34.715  1.00  0.00    -0.205 F 
ATOM     81  C   UNL A   1      38.350  33.479  37.511  1.00  0.00     0.022 A 
BRANCH  79  82
ATOM     82  S   UNL A   1      40.004  35.615  37.083  1.00  0.00     0.127 S 
ATOM     83  O   UNL A   1      41.428  35.325  37.223  1.00  0.00    -0.237 OA
ATOM     84  O   UNL A   1      39.650  36.402  35.901  1.00  0.00    -0.237 OA
ATOM     85  O   UNL A   1      39.316  36.017  38.301  1.00  0.00    -0.744 OA
ENDBRANCH  79  82
ENDBRANCH  51  75
BRANCH  63  86
ATOM     86  C   UNL A   1      44.779  27.737  34.348  1.00  0.00     0.023 A 
ATOM     87  C   UNL A   1      45.943  28.529  34.362  1.00  0.00     0.012 A 
ATOM     88  C   UNL A   1      44.692  26.627  35.215  1.00  0.00     0.148 A 
ATOM     89  C   UNL A   1      47.014  28.203  35.196  1.00  0.00     0.002 A 
ATOM     90  C   UNL A   1      45.740  26.339  36.080  1.00  0.00     0.091 A 
ATOM     91  F   UNL A   1      43.582  25.874  35.178  1.00  0.00    -0.205 F 
ATOM     92  C   UNL A   1      46.908  27.118  36.062  1.00  0.00     0.022 A 
BRANCH  90  93
ATOM     93  S   UNL A   1      45.647  25.023  37.301  1.00  0.00     0.127 S 
ATOM     94  O   UNL A   1      45.527  23.838  36.453  1.00  0.00    -0.237 OA
ATOM     95  O   UNL A   1      46.930  25.150  37.993  1.00  0.00    -0.237 OA
ATOM     96  O   UNL A   1      44.484  25.322  38.126  1.00  0.00    -0.744 OA
ENDBRANCH  90  93
ENDBRANCH  63  86
ENDBRANCH  37  38
ENDBRANCH  30  32
ENDBRANCH  29  30
ENDBRANCH  28  29
ENDBRANCH  27  28
ENDBRANCH  26  27
ENDBRANCH  25  26
ENDBRANCH   1  25
TORSDOF 24
ENDMDL
MODEL 2
REMARK VINA RESULT:     -10.3      1.609      2.898
REMARK SMILES COc1cccc(C[C@H](C(=O)OCCOCCOCCOC(=O)c2ccc(-c3c4nc(c(-c5cccc(S(=O)(=O)[O-])c5F)c5ccc([nH]5)c(-c5cccc(S(=O)(=O)[O-])c5F)c5nc(c(-c6cccc(S(=O)(=O)[O-])c6F)c6ccc3[nH]6)C=C5)C=C4)cc2)c2cccc(C)c2)n1
REMARK SMILES IDX 16 1 15 2 14 3 13 4 12 5 10 6 11 7 9 8 8 9 7 10 3 11 4 12
REMARK SMILES IDX 94 13 5 14 6 15 2 16 1 17 87 18 88 19 93 20 89 21 91 22
REMARK SMILES IDX 90 23 92 24 17 25 18 26 19 27 20 28 21 29 22 30 23 31 24 32
REMARK SMILES IDX 25 33 86 34 26 35 85 36 27 37 28 38 29 39 79 40 30 41 84 42
REMARK SMILES IDX 78 43 80 44 31 45 83 46 77 47 76 48 32 50 64 51 44 52 63 53
REMARK SMILES IDX 45 54 48 55 62 56 81 57 46 58 47 59 61 61 82 62 49 63 33 64
REMARK SMILES IDX 34 65 42 66 35 67 37 68 43 69 36 70 38 71 39 72 40 73 41 74
REMARK SMILES IDX 65 75 66 76 74 77 67 78 69 79 75 80 68 81 70 82 71 83 72 84
REMARK SMILES IDX 73 85 50 86 51 87 59 88 52 89 54 90 60 91 53 92 55 93 56 94
REMARK SMILES IDX 57 95 58 96
REMARK H PARENT 80 49 48 60
REMARK Flexibility Score: inf
ROOT
ATOM      1  C   UNL A   1      30.128  26.030  23.459  1.00  0.00     0.188 C 
ENDROOT
BRANCH   1   2
ATOM      2  O   UNL A   1      31.004  25.005  23.030  1.00  0.00    -0.376 OA
BRANCH   2   3
ATOM      3  C   UNL A   1      31.745  24.327  24.030  1.00  0.00     0.202 C 
BRANCH   3   4
ATOM      4  C   UNL A   1      31.145  23.039  24.595  1.00  0.00     0.261 C 
BRANCH   4   5
ATOM      5  O   UNL A   1      31.912  21.842  24.365  1.00  0.00    -0.463 OA
BRANCH   5   6
ATOM      6  C   UNL A   1      32.589  21.343  25.436  1.00  0.00     0.313 C 
ATOM      7  O   UNL A   1      32.443  21.750  26.586  1.00  0.00    -0.252 OA
BRANCH   6   8
ATOM      8  C   UNL A   1      33.667  20.316  25.080  1.00  0.00     0.135 C 
BRANCH   8   9
ATOM      9  C   UNL A   1      33.230  19.315  23.977  1.00  0.00     0.076 C 
BRANCH   9  10
ATOM     10  C   UNL A   1      33.059  17.883  24.440  1.00  0.00     0.046 A 
ATOM     11  C   UNL A   1      34.087  15.889  25.001  1.00  0.00     0.213 A 
ATOM     12  C   UNL A   1      32.963  15.434  25.673  1.00  0.00     0.068 A 
ATOM     13  N   UNL A   1      34.143  17.080  24.379  1.00  0.00    -0.219 NA
ATOM     14  C   UNL A   1      31.823  16.228  25.661  1.00  0.00     0.007 A 
ATOM     15  C   UNL A   1      31.864  17.467  25.028  1.00  0.00     0.024 A 
BRANCH  11  16
ATOM     16  O   UNL A   1      35.272  15.206  25.009  1.00  0.00    -0.481 OA
ATOM     17  C   UNL A   1      36.279  15.873  25.755  1.00  0.00     0.280 C 
ENDBRANCH  11  16
ENDBRANCH   9  10
ENDBRANCH   8   9
BRANCH   8  18
ATOM     18  C   UNL A   1      35.055  20.931  24.892  1.00  0.00    -0.033 A 
ATOM     19  C   UNL A   1      35.204  22.310  24.685  1.00  0.00     0.004 A 
ATOM     20  C   UNL A   1      36.217  20.149  24.996  1.00  0.00     0.008 A 
ATOM     21  C   UNL A   1      36.467  22.901  24.718  1.00  0.00     0.001 A 
ATOM     22  C   UNL A   1      37.487  20.730  25.022  1.00  0.00    -0.051 A 
ATOM     23  C   UNL A   1      37.603  22.116  24.903  1.00  0.00     0.003 A 
ATOM     24  C   UNL A   1      38.699  19.866  25.200  1.00  0.00     0.044 C 
ENDBRANCH   8  18
ENDBRANCH   6   8
ENDBRANCH   5   6
ENDBRANCH   4   5
ENDBRANCH   3   4
ENDBRANCH   2   3
ENDBRANCH   1   2
BRANCH   1  25
ATOM     25  C   UNL A   1      30.625  27.479  23.439  1.00  0.00     0.188 C 
BRANCH  25  26
ATOM     26  O   UNL A   1      31.029  28.044  24.676  1.00  0.00    -0.376 OA
BRANCH  26  27
ATOM     27  C   UNL A   1      31.137  29.468  24.639  1.00  0.00     0.202 C 
BRANCH  27  28
ATOM     28  C   UNL A   1      32.463  29.949  25.254  1.00  0.00     0.261 C 
BRANCH  28  29
ATOM     29  O   UNL A   1      32.425  30.206  26.675  1.00  0.00    -0.460 OA
BRANCH  29  30
ATOM     30  C   UNL A   1      32.951  31.378  27.111  1.00  0.00     0.338 C 
ATOM     31  O   UNL A   1      32.345  32.430  27.247  1.00  0.00    -0.246 OA
BRANCH  30  32
ATOM     32  C   UNL A   1      34.314  31.121  27.669  1.00  0.00     0.060 A 
ATOM     33  C   UNL A   1      34.719  29.788  27.858  1.00  0.00     0.016 A 
ATOM     34  C   UNL A   1      35.217  32.155  27.931  1.00  0.00     0.016 A 
ATOM     35  C   UNL A   1      35.985  29.493  28.381  1.00  0.00     0.010 A 
ATOM     36  C   UNL A   1      36.480  31.860  28.464  1.00  0.00     0.010 A 
ATOM     37  C   UNL A   1      36.853  30.532  28.742  1.00  0.00    -0.014 A 
BRANCH  37  38
ATOM     38  C   UNL A   1      38.014  30.266  29.640  1.00  0.00     0.031 A 
ATOM     39  C   UNL A   1      39.087  29.331  29.134  1.00  0.00     0.074 A 
ATOM     40  C   UNL A   1      38.134  30.805  30.869  1.00  0.00     0.049 A 
ATOM     41  N   UNL A   1      40.153  28.878  29.739  1.00  0.00    -0.248 NA
ATOM     42  C   UNL A   1      38.926  28.834  27.756  1.00  0.00     0.031 C 
ATOM     43  C   UNL A   1      37.194  31.737  31.488  1.00  0.00     0.029 A 
ATOM     44  N   UNL A   1      39.099  30.615  31.833  1.00  0.00    -0.354 N 
ATOM     45  C   UNL A   1      40.761  28.010  28.838  1.00  0.00     0.074 A 
ATOM     46  C   UNL A   1      39.947  28.000  27.644  1.00  0.00     0.031 C 
ATOM     47  C   UNL A   1      37.614  32.015  32.737  1.00  0.00     0.029 A 
ATOM     48  C   UNL A   1      38.834  31.259  33.020  1.00  0.00     0.049 A 
ATOM     49  H   UNL A   1      39.905  30.067  31.686  1.00  0.00     0.167 HD
ATOM     50  C   UNL A   1      41.898  27.291  28.979  1.00  0.00     0.034 A 
ATOM     51  C   UNL A   1      39.487  31.224  34.203  1.00  0.00     0.034 A 
ATOM     52  C   UNL A   1      42.734  27.315  30.148  1.00  0.00     0.049 A 
ATOM     53  C   UNL A   1      40.742  30.391  34.341  1.00  0.00     0.074 A 
ATOM     54  C   UNL A   1      43.935  26.661  30.356  1.00  0.00     0.029 A 
ATOM     55  N   UNL A   1      42.453  28.016  31.307  1.00  0.00    -0.354 N 
ATOM     56  N   UNL A   1      41.366  29.672  33.439  1.00  0.00    -0.248 NA
ATOM     57  C   UNL A   1      41.401  30.390  35.657  1.00  0.00     0.031 C 
ATOM     58  C   UNL A   1      44.363  26.938  31.658  1.00  0.00     0.029 A 
ATOM     59  C   UNL A   1      43.451  27.800  32.242  1.00  0.00     0.049 A 
ATOM     60  H   UNL A   1      41.660  28.583  31.447  1.00  0.00     0.167 HD
ATOM     61  C   UNL A   1      42.511  29.183  34.062  1.00  0.00     0.074 A 
ATOM     62  C   UNL A   1      42.503  29.696  35.415  1.00  0.00     0.031 C 
ATOM     63  C   UNL A   1      43.478  28.374  33.561  1.00  0.00     0.034 A 
BRANCH  50  64
ATOM     64  C   UNL A   1      42.322  26.414  27.832  1.00  0.00     0.023 A 
ATOM     65  C   UNL A   1      43.200  26.915  26.851  1.00  0.00     0.012 A 
ATOM     66  C   UNL A   1      41.903  25.070  27.767  1.00  0.00     0.148 A 
ATOM     67  C   UNL A   1      43.636  26.100  25.807  1.00  0.00     0.002 A 
ATOM     68  C   UNL A   1      42.379  24.251  26.753  1.00  0.00     0.091 A 
ATOM     69  F   UNL A   1      41.049  24.622  28.699  1.00  0.00    -0.205 F 
ATOM     70  C   UNL A   1      43.235  24.766  25.765  1.00  0.00     0.022 A 
BRANCH  68  71
ATOM     71  S   UNL A   1      41.991  22.500  26.658  1.00  0.00     0.127 S 
ATOM     72  O   UNL A   1      42.618  22.128  25.390  1.00  0.00    -0.237 OA
ATOM     73  O   UNL A   1      42.661  21.974  27.847  1.00  0.00    -0.237 OA
ATOM     74  O   UNL A   1      40.538  22.407  26.684  1.00  0.00    -0.744 OA
ENDBRANCH  68  71
ENDBRANCH  50  64
BRANCH  51  75
ATOM     75  C   UNL A   1      38.995  32.017  35.370  1.00  0.00     0.023 A 
ATOM     76  C   UNL A   1      39.238  33.405  35.417  1.00  0.00     0.012 A 
ATOM     77  C   UNL A   1      38.335  31.402  36.451  1.00  0.00     0.148 A 
ATOM     78  C   UNL A   1      38.874  34.157  36.535  1.00  0.00     0.002 A 
ATOM     79  C   UNL A   1      37.925  32.166  37.538  1.00  0.00     0.091 A 
ATOM     80  F   UNL A   1      38.136  30.078  36.402  1.00  0.00    -0.205 F 
ATOM     81  C   UNL A   1      38.210  33.539  37.592  1.00  0.00     0.022 A 
BRANCH  79  82
ATOM     82  S   UNL A   1      36.970  31.478  38.896  1.00  0.00     0.127 S 
ATOM     83  O   UNL A   1      35.785  32.332  38.890  1.00  0.00    -0.237 OA
ATOM     84  O   UNL A   1      36.743  30.107  38.440  1.00  0.00    -0.237 OA
ATOM     85  O   UNL A   1      37.824  31.588  40.071  1.00  0.00    -0.744 OA
ENDBRANCH  79  82
ENDBRANCH  51  75
BRANCH  63  86
ATOM     86  C   UNL A   1      44.659  28.044  34.439  1.00  0.00     0.023 A 
ATOM     87  C   UNL A   1      45.801  28.869  34.436  1.00  0.00     0.012 A 
ATOM     88  C   UNL A   1      44.598  26.955  35.334  1.00  0.00     0.148 A 
ATOM     89  C   UNL A   1      46.876  28.595  35.283  1.00  0.00     0.002 A 
ATOM     90  C   UNL A   1      45.650  26.720  36.212  1.00  0.00     0.091 A 
ATOM     91  F   UNL A   1      43.511  26.171  35.313  1.00  0.00    -0.205 F 
ATOM     92  C   UNL A   1      46.796  27.530  36.177  1.00  0.00     0.022 A 
BRANCH  90  93
ATOM     93  S   UNL A   1      45.587  25.435  37.467  1.00  0.00     0.127 S 
ATOM     94  O   UNL A   1      45.305  24.247  36.663  1.00  0.00    -0.237 OA
ATOM     95  O   UNL A   1      46.937  25.484  38.029  1.00  0.00    -0.237 OA
ATOM     96  O   UNL A   1      44.534  25.829  38.392  1.00  0.00    -0.744 OA
ENDBRANCH  90  93
ENDBRANCH  63  86
ENDBRANCH  37  38
ENDBRANCH  30  32
ENDBRANCH  29  30
ENDBRANCH  28  29
ENDBRANCH  27  28
ENDBRANCH  26  27
ENDBRANCH  25  26
ENDBRANCH   1  25
TORSDOF 24
ENDMDL
MODEL 3
REMARK VINA RESULT:      -8.8      6.429      9.850
REMARK SMILES COc1cccc(C[C@H](C(=O)OCCOCCOCCOC(=O)c2ccc(-c3c4nc(c(-c5cccc(S(=O)(=O)[O-])c5F)c5ccc([nH]5)c(-c5cccc(S(=O)(=O)[O-])c5F)c5nc(c(-c6cccc(S(=O)(=O)[O-])c6F)c6ccc3[nH]6)C=C5)C=C4)cc2)c2cccc(C)c2)n1
REMARK SMILES IDX 16 1 15 2 14 3 13 4 12 5 10 6 11 7 9 8 8 9 7 10 3 11 4 12
REMARK SMILES IDX 94 13 5 14 6 15 2 16 1 17 87 18 88 19 93 20 89 21 91 22
REMARK SMILES IDX 90 23 92 24 17 25 18 26 19 27 20 28 21 29 22 30 23 31 24 32
REMARK SMILES IDX 25 33 86 34 26 35 85 36 27 37 28 38 29 39 79 40 30 41 84 42
REMARK SMILES IDX 78 43 80 44 31 45 83 46 77 47 76 48 32 50 64 51 44 52 63 53
REMARK SMILES IDX 45 54 48 55 62 56 81 57 46 58 47 59 61 61 82 62 49 63 33 64
REMARK SMILES IDX 34 65 42 66 35 67 37 68 43 69 36 70 38 71 39 72 40 73 41 74
REMARK SMILES IDX 65 75 66 76 74 77 67 78 69 79 75 80 68 81 70 82 71 83 72 84
REMARK SMILES IDX 73 85 50 86 51 87 59 88 52 89 54 90 60 91 53 92 55 93 56 94
REMARK SMILES IDX 57 95 58 96
REMARK H PARENT 80 49 48 60
REMARK Flexibility Score: inf
ROOT
ATOM      1  C   UNL A   1      34.836  29.879  27.437  1.00  0.00     0.188 C 
ENDROOT
BRANCH   1   2
ATOM      2  O   UNL A   1      34.430  28.878  26.522  1.00  0.00    -0.376 OA
BRANCH   2   3
ATOM      3  C   UNL A   1      33.084  28.916  26.078  1.00  0.00     0.202 C 
BRANCH   3   4
ATOM      4  C   UNL A   1      32.845  29.167  24.589  1.00  0.00     0.261 C 
BRANCH   4   5
ATOM      5  O   UNL A   1      33.964  28.894  23.725  1.00  0.00    -0.463 OA
BRANCH   5   6
ATOM      6  C   UNL A   1      33.746  28.005  22.717  1.00  0.00     0.313 C 
ATOM      7  O   UNL A   1      34.246  28.106  21.598  1.00  0.00    -0.252 OA
BRANCH   6   8
ATOM      8  C   UNL A   1      32.705  26.930  23.036  1.00  0.00     0.135 C 
BRANCH   8   9
ATOM      9  C   UNL A   1      31.482  26.947  22.080  1.00  0.00     0.076 C 
BRANCH   9  10
ATOM     10  C   UNL A   1      30.176  27.380  22.714  1.00  0.00     0.046 A 
ATOM     11  C   UNL A   1      28.376  28.830  22.654  1.00  0.00     0.213 A 
ATOM     12  C   UNL A   1      27.613  28.006  23.466  1.00  0.00     0.068 A 
ATOM     13  N   UNL A   1      29.639  28.543  22.290  1.00  0.00    -0.219 NA
ATOM     14  C   UNL A   1      28.200  26.851  23.967  1.00  0.00     0.007 A 
ATOM     15  C   UNL A   1      29.504  26.534  23.597  1.00  0.00     0.024 A 
BRANCH  11  16
ATOM     16  O   UNL A   1      27.867  29.955  22.065  1.00  0.00    -0.481 OA
ATOM     17  C   UNL A   1      28.869  30.745  21.444  1.00  0.00     0.280 C 
ENDBRANCH  11  16
ENDBRANCH   9  10
ENDBRANCH   8   9
BRANCH   8  18
ATOM     18  C   UNL A   1      33.314  25.551  23.294  1.00  0.00    -0.033 A 
ATOM     19  C   UNL A   1      33.031  24.473  22.443  1.00  0.00     0.004 A 
ATOM     20  C   UNL A   1      34.229  25.344  24.340  1.00  0.00     0.008 A 
ATOM     21  C   UNL A   1      33.739  23.275  22.552  1.00  0.00     0.001 A 
ATOM     22  C   UNL A   1      34.937  24.146  24.464  1.00  0.00    -0.051 A 
ATOM     23  C   UNL A   1      34.700  23.119  23.549  1.00  0.00     0.003 A 
ATOM     24  C   UNL A   1      35.951  23.989  25.556  1.00  0.00     0.044 C 
ENDBRANCH   8  18
ENDBRANCH   6   8
ENDBRANCH   5   6
ENDBRANCH   4   5
ENDBRANCH   3   4
ENDBRANCH   2   3
ENDBRANCH   1   2
BRANCH   1  25
ATOM     25  C   UNL A   1      33.964  31.127  27.599  1.00  0.00     0.188 C 
BRANCH  25  26
ATOM     26  O   UNL A   1      34.602  32.387  27.465  1.00  0.00    -0.376 OA
BRANCH  26  27
ATOM     27  C   UNL A   1      34.037  33.399  28.301  1.00  0.00     0.202 C 
BRANCH  27  28
ATOM     28  C   UNL A   1      34.964  33.737  29.482  1.00  0.00     0.261 C 
BRANCH  28  29
ATOM     29  O   UNL A   1      35.112  32.691  30.467  1.00  0.00    -0.460 OA
BRANCH  29  30
ATOM     30  C   UNL A   1      36.322  32.083  30.555  1.00  0.00     0.338 C 
ATOM     31  O   UNL A   1      36.933  31.564  29.632  1.00  0.00    -0.246 OA
BRANCH  30  32
ATOM     32  C   UNL A   1      36.923  32.390  31.889  1.00  0.00     0.060 A 
ATOM     33  C   UNL A   1      36.387  33.454  32.636  1.00  0.00     0.016 A 
ATOM     34  C   UNL A   1      37.940  31.607  32.443  1.00  0.00     0.016 A 
ATOM     35  C   UNL A   1      36.918  33.784  33.890  1.00  0.00     0.010 A 
ATOM     36  C   UNL A   1      38.477  31.945  33.693  1.00  0.00     0.010 A 
ATOM     37  C   UNL A   1      38.006  33.066  34.401  1.00  0.00    -0.014 A 
BRANCH  37  38
ATOM     38  C   UNL A   1      38.821  33.626  35.519  1.00  0.00     0.031 A 
ATOM     39  C   UNL A   1      40.054  34.419  35.153  1.00  0.00     0.074 A 
ATOM     40  C   UNL A   1      38.515  33.444  36.817  1.00  0.00     0.049 A 
ATOM     41  N   UNL A   1      40.968  34.946  35.925  1.00  0.00    -0.248 NA
ATOM     42  C   UNL A   1      40.288  34.638  33.714  1.00  0.00     0.031 C 
ATOM     43  C   UNL A   1      37.351  32.721  37.327  1.00  0.00     0.029 A 
ATOM     44  N   UNL A   1      39.188  33.837  37.953  1.00  0.00    -0.354 N 
ATOM     45  C   UNL A   1      41.905  35.514  35.069  1.00  0.00     0.074 A 
ATOM     46  C   UNL A   1      41.451  35.270  33.719  1.00  0.00     0.031 C 
ATOM     47  C   UNL A   1      37.408  32.697  38.672  1.00  0.00     0.029 A 
ATOM     48  C   UNL A   1      38.623  33.375  39.121  1.00  0.00     0.049 A 
ATOM     49  H   UNL A   1      39.999  34.395  37.931  1.00  0.00     0.167 HD
ATOM     50  C   UNL A   1      43.039  36.188  35.371  1.00  0.00     0.034 A 
ATOM     51  C   UNL A   1      39.052  33.470  40.400  1.00  0.00     0.034 A 
ATOM     52  C   UNL A   1      43.487  36.465  36.708  1.00  0.00     0.049 A 
ATOM     53  C   UNL A   1      40.337  34.207  40.707  1.00  0.00     0.074 A 
ATOM     54  C   UNL A   1      44.595  37.190  37.108  1.00  0.00     0.029 A 
ATOM     55  N   UNL A   1      42.862  36.020  37.860  1.00  0.00    -0.354 N 
ATOM     56  N   UNL A   1      41.146  34.841  39.893  1.00  0.00    -0.248 NA
ATOM     57  C   UNL A   1      40.750  34.268  42.119  1.00  0.00     0.031 C 
ATOM     58  C   UNL A   1      44.661  37.154  38.503  1.00  0.00     0.029 A 
ATOM     59  C   UNL A   1      43.568  36.444  38.972  1.00  0.00     0.049 A 
ATOM     60  H   UNL A   1      42.038  35.482  37.885  1.00  0.00     0.167 HD
ATOM     61  C   UNL A   1      42.127  35.416  40.697  1.00  0.00     0.074 A 
ATOM     62  C   UNL A   1      41.806  35.067  42.064  1.00  0.00     0.031 C 
ATOM     63  C   UNL A   1      43.202  36.158  40.334  1.00  0.00     0.034 A 
BRANCH  50  64
ATOM     64  C   UNL A   1      43.883  36.689  34.230  1.00  0.00     0.023 A 
ATOM     65  C   UNL A   1      44.860  35.851  33.658  1.00  0.00     0.012 A 
ATOM     66  C   UNL A   1      43.657  37.967  33.682  1.00  0.00     0.148 A 
ATOM     67  C   UNL A   1      45.619  36.286  32.571  1.00  0.00     0.002 A 
ATOM     68  C   UNL A   1      44.383  38.375  32.572  1.00  0.00     0.091 A 
ATOM     69  F   UNL A   1      42.739  38.756  34.259  1.00  0.00    -0.205 F 
ATOM     70  C   UNL A   1      45.372  37.542  32.022  1.00  0.00     0.022 A 
BRANCH  68  71
ATOM     71  S   UNL A   1      44.082  39.938  31.738  1.00  0.00     0.127 S 
ATOM     72  O   UNL A   1      44.323  39.576  30.341  1.00  0.00    -0.237 OA
ATOM     73  O   UNL A   1      42.681  40.196  32.068  1.00  0.00    -0.237 OA
ATOM     74  O   UNL A   1      45.029  40.887  32.307  1.00  0.00    -0.744 OA
ENDBRANCH  68  71
ENDBRANCH  50  64
BRANCH  51  75
ATOM     75  C   UNL A   1      38.258  32.874  41.517  1.00  0.00     0.023 A 
ATOM     76  C   UNL A   1      38.488  31.535  41.893  1.00  0.00     0.012 A 
ATOM     77  C   UNL A   1      37.249  33.605  42.173  1.00  0.00     0.148 A 
ATOM     78  C   UNL A   1      37.700  30.922  42.869  1.00  0.00     0.002 A 
ATOM     79  C   UNL A   1      36.504  33.005  43.183  1.00  0.00     0.091 A 
ATOM     80  F   UNL A   1      37.026  34.867  41.785  1.00  0.00    -0.205 F 
ATOM     81  C   UNL A   1      36.714  31.659  43.520  1.00  0.00     0.022 A 
BRANCH  79  82
ATOM     82  S   UNL A   1      35.287  33.906  44.149  1.00  0.00     0.127 S 
ATOM     83  O   UNL A   1      34.926  32.923  45.167  1.00  0.00    -0.237 OA
ATOM     84  O   UNL A   1      36.072  35.039  44.641  1.00  0.00    -0.237 OA
ATOM     85  O   UNL A   1      34.232  34.266  43.213  1.00  0.00    -0.744 OA
ENDBRANCH  79  82
ENDBRANCH  51  75
BRANCH  63  86
ATOM     86  C   UNL A   1      44.082  36.722  41.423  1.00  0.00     0.023 A 
ATOM     87  C   UNL A   1      43.793  37.976  41.994  1.00  0.00     0.012 A 
ATOM     88  C   UNL A   1      45.151  35.960  41.940  1.00  0.00     0.148 A 
ATOM     89  C   UNL A   1      44.574  38.479  43.036  1.00  0.00     0.002 A 
ATOM     90  C   UNL A   1      45.892  36.444  43.012  1.00  0.00     0.091 A 
ATOM     91  F   UNL A   1      45.422  34.775  41.374  1.00  0.00    -0.205 F 
ATOM     92  C   UNL A   1      45.613  37.709  43.551  1.00  0.00     0.022 A 
BRANCH  90  93
ATOM     93  S   UNL A   1      47.181  35.475  43.805  1.00  0.00     0.127 S 
ATOM     94  O   UNL A   1      48.310  35.682  42.900  1.00  0.00    -0.237 OA
ATOM     95  O   UNL A   1      47.311  36.137  45.104  1.00  0.00    -0.237 OA
ATOM     96  O   UNL A   1      46.675  34.111  43.872  1.00  0.00    -0.744 OA
ENDBRANCH  90  93
ENDBRANCH  63  86
ENDBRANCH  37  38
ENDBRANCH  30  32
ENDBRANCH  29  30
ENDBRANCH  28  29
ENDBRANCH  27  28
ENDBRANCH  26  27
ENDBRANCH  25  26
ENDBRANCH   1  25
TORSDOF 24
ENDMDL
