MODEL 1
REMARK VINA RESULT:      -9.5      0.000      0.000
REMARK SMILES O=C(CCC(=O)OCCOCCOCCOC(=O)c1ccc(-c2c3nc(c(-c4cccc(S(=O)(=O)[O-])c4F)c4ccc([nH]4)c(-c4cccc(S(=O)(=O)[O-])c4F)c4nc(c(-c5cccc(S(=O)(=O)[O-])c5F)c5ccc2[nH]5)C=C4)C=C3)cc1)Nc1ccc2nc(-c3ccccc3)oc2c1
REMARK SMILES IDX 11 1 10 2 9 3 8 4 7 5 5 6 6 7 4 8 3 9 2 10 1 11 82 12 83 14
REMARK SMILES IDX 84 15 97 16 85 17 96 18 86 19 95 20 87 21 88 22 89 23 90 24
REMARK SMILES IDX 94 25 91 26 93 27 92 28 12 29 13 30 14 31 15 32 16 33 17 34
REMARK SMILES IDX 18 35 19 36 20 37 81 38 21 39 80 40 22 41 23 42 24 43 74 44
REMARK SMILES IDX 25 45 79 46 73 47 75 48 26 49 78 50 72 51 71 52 27 54 59 55
REMARK SMILES IDX 39 56 58 57 40 58 43 59 57 60 76 61 41 62 42 63 56 65 77 66
REMARK SMILES IDX 44 67 28 68 29 69 37 70 30 71 32 72 38 73 31 74 33 75 34 76
REMARK SMILES IDX 35 77 36 78 60 79 61 80 69 81 62 82 64 83 70 84 63 85 65 86
REMARK SMILES IDX 66 87 67 88 68 89 45 90 46 91 54 92 47 93 49 94 55 95 48 96
REMARK SMILES IDX 50 97 51 98 52 99 53 100
REMARK H PARENT 82 13 75 53 43 64
REMARK Flexibility Score: inf
ROOT
ATOM      1  C   UNL A   1      35.427  31.426  28.335  1.00  0.00     0.188 C 
ENDROOT
BRANCH   1   2
ATOM      2  O   UNL A   1      34.553  31.108  27.254  1.00  0.00    -0.376 OA
BRANCH   2   3
ATOM      3  C   UNL A   1      33.155  31.178  27.526  1.00  0.00     0.202 C 
BRANCH   3   4
ATOM      4  C   UNL A   1      32.273  30.358  26.572  1.00  0.00     0.261 C 
BRANCH   4   5
ATOM      5  O   UNL A   1      32.753  29.000  26.377  1.00  0.00    -0.463 OA
BRANCH   5   6
ATOM      6  C   UNL A   1      31.788  28.047  26.266  1.00  0.00     0.306 C 
ATOM      7  O   UNL A   1      31.395  27.363  27.206  1.00  0.00    -0.252 OA
BRANCH   6   8
ATOM      8  C   UNL A   1      31.133  27.955  24.894  1.00  0.00     0.132 C 
BRANCH   8   9
ATOM      9  C   UNL A   1      31.950  27.805  23.613  1.00  0.00     0.112 C 
BRANCH   9  10
ATOM     10  C   UNL A   1      32.760  26.525  23.514  1.00  0.00     0.224 C 
ATOM     11  O   UNL A   1      33.485  26.286  22.556  1.00  0.00    -0.275 OA
ATOM     12  N   UNL A   1      32.534  25.699  24.587  1.00  0.00    -0.326 N 
ATOM     13  H   UNL A   1      31.947  26.056  25.291  1.00  0.00     0.169 HD
BRANCH  12  14
ATOM     14  C   UNL A   1      33.038  24.411  24.804  1.00  0.00     0.045 A 
ATOM     15  C   UNL A   1      34.116  24.357  25.702  1.00  0.00     0.028 A 
ATOM     16  C   UNL A   1      32.534  23.249  24.197  1.00  0.00     0.075 A 
ATOM     17  C   UNL A   1      34.714  23.155  26.062  1.00  0.00     0.034 A 
ATOM     18  C   UNL A   1      33.183  22.065  24.554  1.00  0.00     0.157 A 
ATOM     19  C   UNL A   1      34.232  21.998  25.460  1.00  0.00     0.110 A 
ATOM     20  O   UNL A   1      32.920  20.778  24.143  1.00  0.00    -0.436 OA
ATOM     21  N   UNL A   1      34.623  20.711  25.649  1.00  0.00    -0.209 NA
ATOM     22  C   UNL A   1      33.808  20.026  24.872  1.00  0.00     0.227 A 
BRANCH  22  23
ATOM     23  C   UNL A   1      33.654  18.584  24.890  1.00  0.00     0.037 A 
ATOM     24  C   UNL A   1      32.775  17.925  25.752  1.00  0.00     0.014 A 
ATOM     25  C   UNL A   1      34.307  17.856  23.882  1.00  0.00     0.014 A 
ATOM     26  C   UNL A   1      32.532  16.557  25.579  1.00  0.00     0.001 A 
ATOM     27  C   UNL A   1      34.073  16.494  23.718  1.00  0.00     0.001 A 
ATOM     28  C   UNL A   1      33.174  15.848  24.561  1.00  0.00     0.000 A 
ENDBRANCH  22  23
ENDBRANCH  12  14
ENDBRANCH   9  10
ENDBRANCH   8   9
ENDBRANCH   6   8
ENDBRANCH   5   6
ENDBRANCH   4   5
ENDBRANCH   3   4
ENDBRANCH   2   3
ENDBRANCH   1   2
BRANCH   1  29
ATOM     29  C   UNL A   1      35.602  32.923  28.583  1.00  0.00     0.188 C 
BRANCH  29  30
ATOM     30  O   UNL A   1      35.866  33.303  29.933  1.00  0.00    -0.376 OA
BRANCH  30  31
ATOM     31  C   UNL A   1      35.100  32.616  30.935  1.00  0.00     0.202 C 
BRANCH  31  32
ATOM     32  C   UNL A   1      35.872  31.955  32.103  1.00  0.00     0.261 C 
BRANCH  32  33
ATOM     33  O   UNL A   1      37.144  31.354  31.775  1.00  0.00    -0.460 OA
BRANCH  33  34
ATOM     34  C   UNL A   1      37.190  30.008  31.640  1.00  0.00     0.338 C 
ATOM     35  O   UNL A   1      36.356  29.314  31.081  1.00  0.00    -0.246 OA
BRANCH  34  36
ATOM     36  C   UNL A   1      38.550  29.529  32.020  1.00  0.00     0.060 A 
ATOM     37  C   UNL A   1      39.596  30.464  32.015  1.00  0.00     0.016 A 
ATOM     38  C   UNL A   1      38.798  28.216  32.431  1.00  0.00     0.016 A 
ATOM     39  C   UNL A   1      40.898  30.076  32.340  1.00  0.00     0.010 A 
ATOM     40  C   UNL A   1      40.107  27.822  32.744  1.00  0.00     0.010 A 
ATOM     41  C   UNL A   1      41.171  28.737  32.644  1.00  0.00    -0.014 A 
BRANCH  41  42
ATOM     42  C   UNL A   1      42.576  28.251  32.562  1.00  0.00     0.031 A 
ATOM     43  C   UNL A   1      43.395  28.271  33.830  1.00  0.00     0.074 A 
ATOM     44  C   UNL A   1      43.112  27.757  31.430  1.00  0.00     0.049 A 
ATOM     45  N   UNL A   1      44.638  27.920  34.026  1.00  0.00    -0.248 NA
ATOM     46  C   UNL A   1      42.712  28.756  35.045  1.00  0.00     0.031 C 
ATOM     47  C   UNL A   1      42.434  27.656  30.139  1.00  0.00     0.029 A 
ATOM     48  N   UNL A   1      44.371  27.260  31.187  1.00  0.00    -0.354 N 
ATOM     49  C   UNL A   1      44.891  28.159  35.373  1.00  0.00     0.074 A 
ATOM     50  C   UNL A   1      43.682  28.709  35.943  1.00  0.00     0.031 C 
ATOM     51  C   UNL A   1      43.296  27.161  29.231  1.00  0.00     0.029 A 
ATOM     52  C   UNL A   1      44.592  26.926  29.870  1.00  0.00     0.049 A 
ATOM     53  H   UNL A   1      45.052  27.155  31.889  1.00  0.00     0.167 HD
ATOM     54  C   UNL A   1      46.016  27.919  36.086  1.00  0.00     0.034 A 
ATOM     55  C   UNL A   1      45.714  26.503  29.252  1.00  0.00     0.034 A 
ATOM     56  C   UNL A   1      47.217  27.359  35.535  1.00  0.00     0.049 A 
ATOM     57  C   UNL A   1      46.969  26.278  30.064  1.00  0.00     0.074 A 
ATOM     58  C   UNL A   1      48.409  27.081  36.179  1.00  0.00     0.029 A 
ATOM     59  N   UNL A   1      47.381  26.992  34.210  1.00  0.00    -0.354 N 
ATOM     60  N   UNL A   1      47.163  26.432  31.352  1.00  0.00    -0.248 NA
ATOM     61  C   UNL A   1      48.151  25.777  29.343  1.00  0.00     0.031 C 
ATOM     62  C   UNL A   1      49.302  26.560  35.237  1.00  0.00     0.029 A 
ATOM     63  C   UNL A   1      48.651  26.479  34.018  1.00  0.00     0.049 A 
ATOM     64  H   UNL A   1      46.695  27.083  33.509  1.00  0.00     0.167 HD
ATOM     65  C   UNL A   1      48.463  25.996  31.599  1.00  0.00     0.074 A 
ATOM     66  C   UNL A   1      49.005  25.557  30.333  1.00  0.00     0.031 C 
ATOM     67  C   UNL A   1      49.151  25.971  32.768  1.00  0.00     0.034 A 
BRANCH  54  68
ATOM     68  C   UNL A   1      45.988  28.234  37.557  1.00  0.00     0.023 A 
ATOM     69  C   UNL A   1      45.697  27.212  38.483  1.00  0.00     0.012 A 
ATOM     70  C   UNL A   1      46.313  29.522  38.027  1.00  0.00     0.148 A 
ATOM     71  C   UNL A   1      45.704  27.471  39.852  1.00  0.00     0.002 A 
ATOM     72  C   UNL A   1      46.364  29.760  39.395  1.00  0.00     0.091 A 
ATOM     73  F   UNL A   1      46.566  30.484  37.129  1.00  0.00    -0.205 F 
ATOM     74  C   UNL A   1      46.049  28.740  40.307  1.00  0.00     0.022 A 
BRANCH  72  75
ATOM     75  S   UNL A   1      46.875  31.337  40.087  1.00  0.00     0.127 S 
ATOM     76  O   UNL A   1      45.852  32.236  39.555  1.00  0.00    -0.237 OA
ATOM     77  O   UNL A   1      46.778  31.084  41.524  1.00  0.00    -0.237 OA
ATOM     78  O   UNL A   1      48.224  31.576  39.596  1.00  0.00    -0.744 OA
ENDBRANCH  72  75
ENDBRANCH  54  68
BRANCH  55  79
ATOM     79  C   UNL A   1      45.726  26.247  27.781  1.00  0.00     0.023 A 
ATOM     80  C   UNL A   1      46.024  27.295  26.885  1.00  0.00     0.012 A 
ATOM     81  C   UNL A   1      45.389  24.983  27.262  1.00  0.00     0.148 A 
ATOM     82  C   UNL A   1      45.933  27.103  25.507  1.00  0.00     0.002 A 
ATOM     83  C   UNL A   1      45.359  24.781  25.887  1.00  0.00     0.091 A 
ATOM     84  F   UNL A   1      45.087  24.003  28.125  1.00  0.00    -0.205 F 
ATOM     85  C   UNL A   1      45.608  25.844  25.006  1.00  0.00     0.022 A 
BRANCH  83  86
ATOM     86  S   UNL A   1      45.069  23.164  25.162  1.00  0.00     0.127 S 
ATOM     87  O   UNL A   1      46.032  22.336  25.883  1.00  0.00    -0.237 OA
ATOM     88  O   UNL A   1      43.668  22.924  25.508  1.00  0.00    -0.237 OA
ATOM     89  O   UNL A   1      45.313  23.327  23.735  1.00  0.00    -0.744 OA
ENDBRANCH  83  86
ENDBRANCH  55  79
BRANCH  67  90
ATOM     90  C   UNL A   1      50.534  25.370  32.763  1.00  0.00     0.023 A 
ATOM     91  C   UNL A   1      51.671  26.192  32.629  1.00  0.00     0.012 A 
ATOM     92  C   UNL A   1      50.705  23.984  32.957  1.00  0.00     0.148 A 
ATOM     93  C   UNL A   1      52.951  25.638  32.643  1.00  0.00     0.002 A 
ATOM     94  C   UNL A   1      51.984  23.448  33.025  1.00  0.00     0.091 A 
ATOM     95  F   UNL A   1      49.612  23.214  33.068  1.00  0.00    -0.205 F 
ATOM     96  C   UNL A   1      53.108  24.270  32.852  1.00  0.00     0.022 A 
BRANCH  94  97
ATOM     97  S   UNL A   1      52.280  21.714  33.392  1.00  0.00     0.127 S 
ATOM     98  O   UNL A   1      51.923  21.077  32.126  1.00  0.00    -0.237 OA
ATOM     99  O   UNL A   1      53.710  21.700  33.700  1.00  0.00    -0.237 OA
ATOM    100  O   UNL A   1      51.418  21.391  34.521  1.00  0.00    -0.744 OA
ENDBRANCH  94  97
ENDBRANCH  67  90
ENDBRANCH  41  42
ENDBRANCH  34  36
ENDBRANCH  33  34
ENDBRANCH  32  33
ENDBRANCH  31  32
ENDBRANCH  30  31
ENDBRANCH  29  30
ENDBRANCH   1  29
TORSDOF 24
ENDMDL
MODEL 2
REMARK VINA RESULT:      -9.0      1.926      2.755
REMARK SMILES O=C(CCC(=O)OCCOCCOCCOC(=O)c1ccc(-c2c3nc(c(-c4cccc(S(=O)(=O)[O-])c4F)c4ccc([nH]4)c(-c4cccc(S(=O)(=O)[O-])c4F)c4nc(c(-c5cccc(S(=O)(=O)[O-])c5F)c5ccc2[nH]5)C=C4)C=C3)cc1)Nc1ccc2nc(-c3ccccc3)oc2c1
REMARK SMILES IDX 11 1 10 2 9 3 8 4 7 5 5 6 6 7 4 8 3 9 2 10 1 11 82 12 83 14
REMARK SMILES IDX 84 15 97 16 85 17 96 18 86 19 95 20 87 21 88 22 89 23 90 24
REMARK SMILES IDX 94 25 91 26 93 27 92 28 12 29 13 30 14 31 15 32 16 33 17 34
REMARK SMILES IDX 18 35 19 36 20 37 81 38 21 39 80 40 22 41 23 42 24 43 74 44
REMARK SMILES IDX 25 45 79 46 73 47 75 48 26 49 78 50 72 51 71 52 27 54 59 55
REMARK SMILES IDX 39 56 58 57 40 58 43 59 57 60 76 61 41 62 42 63 56 65 77 66
REMARK SMILES IDX 44 67 28 68 29 69 37 70 30 71 32 72 38 73 31 74 33 75 34 76
REMARK SMILES IDX 35 77 36 78 60 79 61 80 69 81 62 82 64 83 70 84 63 85 65 86
REMARK SMILES IDX 66 87 67 88 68 89 45 90 46 91 54 92 47 93 49 94 55 95 48 96
REMARK SMILES IDX 50 97 51 98 52 99 53 100
REMARK H PARENT 82 13 75 53 43 64
REMARK Flexibility Score: inf
ROOT
ATOM      1  C   UNL A   1      35.566  31.523  28.410  1.00  0.00     0.188 C 
ENDROOT
BRANCH   1   2
ATOM      2  O   UNL A   1      34.783  31.302  27.240  1.00  0.00    -0.376 OA
BRANCH   2   3
ATOM      3  C   UNL A   1      33.387  31.084  27.442  1.00  0.00     0.202 C 
BRANCH   3   4
ATOM      4  C   UNL A   1      32.755  30.054  26.494  1.00  0.00     0.261 C 
BRANCH   4   5
ATOM      5  O   UNL A   1      32.954  28.682  26.929  1.00  0.00    -0.463 OA
BRANCH   5   6
ATOM      6  C   UNL A   1      31.827  27.926  27.024  1.00  0.00     0.306 C 
ATOM      7  O   UNL A   1      31.264  27.673  28.084  1.00  0.00    -0.252 OA
BRANCH   6   8
ATOM      8  C   UNL A   1      31.229  27.495  25.691  1.00  0.00     0.132 C 
BRANCH   8   9
ATOM      9  C   UNL A   1      32.029  26.698  24.663  1.00  0.00     0.112 C 
BRANCH   9  10
ATOM     10  C   UNL A   1      32.755  25.484  25.214  1.00  0.00     0.224 C 
ATOM     11  O   UNL A   1      32.376  24.901  26.223  1.00  0.00    -0.275 OA
ATOM     12  N   UNL A   1      33.869  25.181  24.472  1.00  0.00    -0.326 N 
ATOM     13  H   UNL A   1      34.015  25.730  23.668  1.00  0.00     0.169 HD
BRANCH  12  14
ATOM     14  C   UNL A   1      34.824  24.187  24.717  1.00  0.00     0.045 A 
ATOM     15  C   UNL A   1      34.511  22.938  24.157  1.00  0.00     0.028 A 
ATOM     16  C   UNL A   1      36.005  24.383  25.451  1.00  0.00     0.075 A 
ATOM     17  C   UNL A   1      35.365  21.847  24.270  1.00  0.00     0.034 A 
ATOM     18  C   UNL A   1      36.820  23.257  25.575  1.00  0.00     0.157 A 
ATOM     19  C   UNL A   1      36.533  22.025  25.004  1.00  0.00     0.110 A 
ATOM     20  O   UNL A   1      38.031  23.132  26.217  1.00  0.00    -0.436 OA
ATOM     21  N   UNL A   1      37.532  21.137  25.247  1.00  0.00    -0.209 NA
ATOM     22  C   UNL A   1      38.402  21.839  25.944  1.00  0.00     0.227 A 
BRANCH  22  23
ATOM     23  C   UNL A   1      39.757  21.421  26.250  1.00  0.00     0.037 A 
ATOM     24  C   UNL A   1      40.622  22.171  27.049  1.00  0.00     0.014 A 
ATOM     25  C   UNL A   1      40.135  20.129  25.848  1.00  0.00     0.014 A 
ATOM     26  C   UNL A   1      41.838  21.615  27.465  1.00  0.00     0.001 A 
ATOM     27  C   UNL A   1      41.349  19.582  26.253  1.00  0.00     0.001 A 
ATOM     28  C   UNL A   1      42.195  20.322  27.073  1.00  0.00     0.000 A 
ENDBRANCH  22  23
ENDBRANCH  12  14
ENDBRANCH   9  10
ENDBRANCH   8   9
ENDBRANCH   6   8
ENDBRANCH   5   6
ENDBRANCH   4   5
ENDBRANCH   3   4
ENDBRANCH   2   3
ENDBRANCH   1   2
BRANCH   1  29
ATOM     29  C   UNL A   1      35.714  32.992  28.802  1.00  0.00     0.188 C 
BRANCH  29  30
ATOM     30  O   UNL A   1      36.039  33.242  30.168  1.00  0.00    -0.376 OA
BRANCH  30  31
ATOM     31  C   UNL A   1      35.191  32.605  31.137  1.00  0.00     0.202 C 
BRANCH  31  32
ATOM     32  C   UNL A   1      35.852  32.073  32.432  1.00  0.00     0.261 C 
BRANCH  32  33
ATOM     33  O   UNL A   1      37.116  31.391  32.275  1.00  0.00    -0.460 OA
BRANCH  33  34
ATOM     34  C   UNL A   1      37.088  30.070  31.982  1.00  0.00     0.338 C 
ATOM     35  O   UNL A   1      36.254  29.505  31.292  1.00  0.00    -0.246 OA
BRANCH  34  36
ATOM     36  C   UNL A   1      38.385  29.455  32.385  1.00  0.00     0.060 A 
ATOM     37  C   UNL A   1      39.414  30.316  32.800  1.00  0.00     0.016 A 
ATOM     38  C   UNL A   1      38.586  28.072  32.418  1.00  0.00     0.016 A 
ATOM     39  C   UNL A   1      40.660  29.806  33.170  1.00  0.00     0.010 A 
ATOM     40  C   UNL A   1      39.841  27.560  32.777  1.00  0.00     0.010 A 
ATOM     41  C   UNL A   1      40.900  28.429  33.099  1.00  0.00    -0.014 A 
BRANCH  41  42
ATOM     42  C   UNL A   1      42.307  27.943  33.069  1.00  0.00     0.031 A 
ATOM     43  C   UNL A   1      43.010  27.766  34.394  1.00  0.00     0.074 A 
ATOM     44  C   UNL A   1      42.941  27.614  31.928  1.00  0.00     0.049 A 
ATOM     45  N   UNL A   1      44.231  27.375  34.644  1.00  0.00    -0.248 NA
ATOM     46  C   UNL A   1      42.222  28.076  35.602  1.00  0.00     0.031 C 
ATOM     47  C   UNL A   1      42.381  27.713  30.582  1.00  0.00     0.029 A 
ATOM     48  N   UNL A   1      44.217  27.143  31.726  1.00  0.00    -0.354 N 
ATOM     49  C   UNL A   1      44.364  27.410  36.029  1.00  0.00     0.074 A 
ATOM     50  C   UNL A   1      43.109  27.885  36.564  1.00  0.00     0.031 C 
ATOM     51  C   UNL A   1      43.320  27.345  29.690  1.00  0.00     0.029 A 
ATOM     52  C   UNL A   1      44.554  27.003  30.399  1.00  0.00     0.049 A 
ATOM     53  H   UNL A   1      44.833  26.927  32.462  1.00  0.00     0.167 HD
ATOM     54  C   UNL A   1      45.421  27.054  36.794  1.00  0.00     0.034 A 
ATOM     55  C   UNL A   1      45.727  26.662  29.826  1.00  0.00     0.034 A 
ATOM     56  C   UNL A   1      46.667  26.566  36.274  1.00  0.00     0.049 A 
ATOM     57  C   UNL A   1      46.905  26.303  30.703  1.00  0.00     0.074 A 
ATOM     58  C   UNL A   1      47.797  26.181  36.972  1.00  0.00     0.029 A 
ATOM     59  N   UNL A   1      46.947  26.395  34.928  1.00  0.00    -0.354 N 
ATOM     60  N   UNL A   1      46.985  26.264  32.012  1.00  0.00    -0.248 NA
ATOM     61  C   UNL A   1      48.146  25.900  30.022  1.00  0.00     0.031 C 
ATOM     62  C   UNL A   1      48.771  25.794  36.045  1.00  0.00     0.029 A 
ATOM     63  C   UNL A   1      48.230  25.900  34.775  1.00  0.00     0.049 A 
ATOM     64  H   UNL A   1      46.327  26.597  34.191  1.00  0.00     0.167 HD
ATOM     65  C   UNL A   1      48.257  25.781  32.305  1.00  0.00     0.074 A 
ATOM     66  C   UNL A   1      48.909  25.526  31.040  1.00  0.00     0.031 C 
ATOM     67  C   UNL A   1      48.840  25.575  33.512  1.00  0.00     0.034 A 
BRANCH  54  68
ATOM     68  C   UNL A   1      45.264  27.149  38.287  1.00  0.00     0.023 A 
ATOM     69  C   UNL A   1      44.770  26.043  39.008  1.00  0.00     0.012 A 
ATOM     70  C   UNL A   1      45.663  28.307  38.984  1.00  0.00     0.148 A 
ATOM     71  C   UNL A   1      44.651  26.095  40.395  1.00  0.00     0.002 A 
ATOM     72  C   UNL A   1      45.587  28.333  40.371  1.00  0.00     0.091 A 
ATOM     73  F   UNL A   1      46.109  29.354  38.277  1.00  0.00    -0.205 F 
ATOM     74  C   UNL A   1      45.071  27.234  41.076  1.00  0.00     0.022 A 
BRANCH  72  75
ATOM     75  S   UNL A   1      46.175  29.720  41.349  1.00  0.00     0.127 S 
ATOM     76  O   UNL A   1      47.621  29.507  41.321  1.00  0.00    -0.237 OA
ATOM     77  O   UNL A   1      45.711  30.864  40.564  1.00  0.00    -0.237 OA
ATOM     78  O   UNL A   1      45.554  29.583  42.659  1.00  0.00    -0.744 OA
ENDBRANCH  72  75
ENDBRANCH  54  68
BRANCH  55  79
ATOM     79  C   UNL A   1      45.869  26.625  28.340  1.00  0.00     0.023 A 
ATOM     80  C   UNL A   1      46.124  27.814  27.626  1.00  0.00     0.012 A 
ATOM     81  C   UNL A   1      45.698  25.424  27.625  1.00  0.00     0.148 A 
ATOM     82  C   UNL A   1      46.151  27.817  26.231  1.00  0.00     0.002 A 
ATOM     83  C   UNL A   1      45.787  25.423  26.238  1.00  0.00     0.091 A 
ATOM     84  F   UNL A   1      45.435  24.306  28.315  1.00  0.00    -0.205 F 
ATOM     85  C   UNL A   1      45.990  26.621  25.536  1.00  0.00     0.022 A 
BRANCH  83  86
ATOM     86  S   UNL A   1      45.712  23.909  25.274  1.00  0.00     0.127 S 
ATOM     87  O   UNL A   1      46.381  24.309  24.038  1.00  0.00    -0.237 OA
ATOM     88  O   UNL A   1      46.469  22.980  26.112  1.00  0.00    -0.237 OA
ATOM     89  O   UNL A   1      44.296  23.592  25.156  1.00  0.00    -0.744 OA
ENDBRANCH  83  86
ENDBRANCH  55  79
BRANCH  67  90
ATOM     90  C   UNL A   1      50.217  24.964  33.540  1.00  0.00     0.023 A 
ATOM     91  C   UNL A   1      51.352  25.768  33.770  1.00  0.00     0.012 A 
ATOM     92  C   UNL A   1      50.377  23.571  33.400  1.00  0.00     0.148 A 
ATOM     93  C   UNL A   1      52.626  25.201  33.814  1.00  0.00     0.002 A 
ATOM     94  C   UNL A   1      51.643  23.006  33.500  1.00  0.00     0.091 A 
ATOM     95  F   UNL A   1      49.289  22.822  33.167  1.00  0.00    -0.205 F 
ATOM     96  C   UNL A   1      52.770  23.821  33.691  1.00  0.00     0.022 A 
BRANCH  94  97
ATOM     97  S   UNL A   1      51.907  21.230  33.455  1.00  0.00     0.127 S 
ATOM     98  O   UNL A   1      50.536  20.727  33.401  1.00  0.00    -0.237 OA
ATOM     99  O   UNL A   1      52.668  21.059  32.217  1.00  0.00    -0.237 OA
ATOM    100  O   UNL A   1      52.647  20.904  34.666  1.00  0.00    -0.744 OA
ENDBRANCH  94  97
ENDBRANCH  67  90
ENDBRANCH  41  42
ENDBRANCH  34  36
ENDBRANCH  33  34
ENDBRANCH  32  33
ENDBRANCH  31  32
ENDBRANCH  30  31
ENDBRANCH  29  30
ENDBRANCH   1  29
TORSDOF 24
ENDMDL
MODEL 3
REMARK VINA RESULT:      -8.8      6.880     12.641
REMARK SMILES O=C(CCC(=O)OCCOCCOCCOC(=O)c1ccc(-c2c3nc(c(-c4cccc(S(=O)(=O)[O-])c4F)c4ccc([nH]4)c(-c4cccc(S(=O)(=O)[O-])c4F)c4nc(c(-c5cccc(S(=O)(=O)[O-])c5F)c5ccc2[nH]5)C=C4)C=C3)cc1)Nc1ccc2nc(-c3ccccc3)oc2c1
REMARK SMILES IDX 11 1 10 2 9 3 8 4 7 5 5 6 6 7 4 8 3 9 2 10 1 11 82 12 83 14
REMARK SMILES IDX 84 15 97 16 85 17 96 18 86 19 95 20 87 21 88 22 89 23 90 24
REMARK SMILES IDX 94 25 91 26 93 27 92 28 12 29 13 30 14 31 15 32 16 33 17 34
REMARK SMILES IDX 18 35 19 36 20 37 81 38 21 39 80 40 22 41 23 42 24 43 74 44
REMARK SMILES IDX 25 45 79 46 73 47 75 48 26 49 78 50 72 51 71 52 27 54 59 55
REMARK SMILES IDX 39 56 58 57 40 58 43 59 57 60 76 61 41 62 42 63 56 65 77 66
REMARK SMILES IDX 44 67 28 68 29 69 37 70 30 71 32 72 38 73 31 74 33 75 34 76
REMARK SMILES IDX 35 77 36 78 60 79 61 80 69 81 62 82 64 83 70 84 63 85 65 86
REMARK SMILES IDX 66 87 67 88 68 89 45 90 46 91 54 92 47 93 49 94 55 95 48 96
REMARK SMILES IDX 50 97 51 98 52 99 53 100
REMARK H PARENT 82 13 75 53 43 64
REMARK Flexibility Score: inf
ROOT
ATOM      1  C   UNL A   1      41.010  20.791  26.204  1.00  0.00     0.188 C 
ENDROOT
BRANCH   1   2
ATOM      2  O   UNL A   1      41.806  20.400  27.320  1.00  0.00    -0.376 OA
BRANCH   2   3
ATOM      3  C   UNL A   1      42.559  19.197  27.172  1.00  0.00     0.202 C 
BRANCH   3   4
ATOM      4  C   UNL A   1      42.545  18.601  25.756  1.00  0.00     0.261 C 
BRANCH   4   5
ATOM      5  O   UNL A   1      43.522  19.214  24.871  1.00  0.00    -0.463 OA
BRANCH   5   6
ATOM      6  C   UNL A   1      44.826  18.993  25.192  1.00  0.00     0.306 C 
ATOM      7  O   UNL A   1      45.291  17.882  25.424  1.00  0.00    -0.252 OA
BRANCH   6   8
ATOM      8  C   UNL A   1      45.717  20.227  25.137  1.00  0.00     0.132 C 
BRANCH   8   9
ATOM      9  C   UNL A   1      45.311  21.488  24.378  1.00  0.00     0.112 C 
BRANCH   9  10
ATOM     10  C   UNL A   1      45.001  22.691  25.249  1.00  0.00     0.224 C 
ATOM     11  O   UNL A   1      44.361  23.650  24.833  1.00  0.00    -0.275 OA
ATOM     12  N   UNL A   1      45.556  22.566  26.499  1.00  0.00    -0.326 N 
ATOM     13  H   UNL A   1      46.013  21.715  26.686  1.00  0.00     0.169 HD
BRANCH  12  14
ATOM     14  C   UNL A   1      45.551  23.501  27.541  1.00  0.00     0.045 A 
ATOM     15  C   UNL A   1      46.697  24.310  27.596  1.00  0.00     0.028 A 
ATOM     16  C   UNL A   1      44.507  23.650  28.470  1.00  0.00     0.075 A 
ATOM     17  C   UNL A   1      46.843  25.316  28.543  1.00  0.00     0.034 A 
ATOM     18  C   UNL A   1      44.705  24.645  29.429  1.00  0.00     0.157 A 
ATOM     19  C   UNL A   1      45.822  25.467  29.475  1.00  0.00     0.110 A 
ATOM     20  O   UNL A   1      43.872  25.035  30.453  1.00  0.00    -0.436 OA
ATOM     21  N   UNL A   1      45.710  26.373  30.481  1.00  0.00    -0.209 NA
ATOM     22  C   UNL A   1      44.537  26.097  31.014  1.00  0.00     0.227 A 
BRANCH  22  23
ATOM     23  C   UNL A   1      43.840  26.932  31.974  1.00  0.00     0.037 A 
ATOM     24  C   UNL A   1      42.755  27.741  31.630  1.00  0.00     0.014 A 
ATOM     25  C   UNL A   1      44.187  26.780  33.326  1.00  0.00     0.014 A 
ATOM     26  C   UNL A   1      42.009  28.363  32.638  1.00  0.00     0.001 A 
ATOM     27  C   UNL A   1      43.451  27.408  34.327  1.00  0.00     0.001 A 
ATOM     28  C   UNL A   1      42.353  28.190  33.982  1.00  0.00     0.000 A 
ENDBRANCH  22  23
ENDBRANCH  12  14
ENDBRANCH   9  10
ENDBRANCH   8   9
ENDBRANCH   6   8
ENDBRANCH   5   6
ENDBRANCH   4   5
ENDBRANCH   3   4
ENDBRANCH   2   3
ENDBRANCH   1   2
BRANCH   1  29
ATOM     29  C   UNL A   1      39.792  21.640  26.566  1.00  0.00     0.188 C 
BRANCH  29  30
ATOM     30  O   UNL A   1      40.040  22.745  27.433  1.00  0.00    -0.376 OA
BRANCH  30  31
ATOM     31  C   UNL A   1      41.010  23.696  26.968  1.00  0.00     0.202 C 
BRANCH  31  32
ATOM     32  C   UNL A   1      40.917  25.143  27.512  1.00  0.00     0.261 C 
BRANCH  32  33
ATOM     33  O   UNL A   1      42.125  25.932  27.450  1.00  0.00    -0.460 OA
BRANCH  33  34
ATOM     34  C   UNL A   1      42.288  26.753  26.387  1.00  0.00     0.338 C 
ATOM     35  O   UNL A   1      41.865  26.559  25.258  1.00  0.00    -0.246 OA
BRANCH  34  36
ATOM     36  C   UNL A   1      42.809  28.066  26.862  1.00  0.00     0.060 A 
ATOM     37  C   UNL A   1      43.706  28.060  27.943  1.00  0.00     0.016 A 
ATOM     38  C   UNL A   1      42.486  29.276  26.240  1.00  0.00     0.016 A 
ATOM     39  C   UNL A   1      44.214  29.257  28.451  1.00  0.00     0.010 A 
ATOM     40  C   UNL A   1      42.987  30.479  26.757  1.00  0.00     0.010 A 
ATOM     41  C   UNL A   1      43.807  30.478  27.901  1.00  0.00    -0.014 A 
BRANCH  41  42
ATOM     42  C   UNL A   1      43.995  31.725  28.692  1.00  0.00     0.031 A 
ATOM     43  C   UNL A   1      42.994  32.011  29.787  1.00  0.00     0.074 A 
ATOM     44  C   UNL A   1      45.033  32.560  28.503  1.00  0.00     0.049 A 
ATOM     45  N   UNL A   1      42.921  33.028  30.604  1.00  0.00    -0.248 NA
ATOM     46  C   UNL A   1      41.928  31.010  29.981  1.00  0.00     0.031 C 
ATOM     47  C   UNL A   1      46.085  32.398  27.501  1.00  0.00     0.029 A 
ATOM     48  N   UNL A   1      45.360  33.730  29.146  1.00  0.00    -0.354 N 
ATOM     49  C   UNL A   1      41.797  32.799  31.393  1.00  0.00     0.074 A 
ATOM     50  C   UNL A   1      41.204  31.563  30.940  1.00  0.00     0.031 C 
ATOM     51  C   UNL A   1      46.923  33.450  27.575  1.00  0.00     0.029 A 
ATOM     52  C   UNL A   1      46.458  34.368  28.615  1.00  0.00     0.049 A 
ATOM     53  H   UNL A   1      44.855  34.081  29.915  1.00  0.00     0.167 HD
ATOM     54  C   UNL A   1      41.313  33.533  32.421  1.00  0.00     0.034 A 
ATOM     55  C   UNL A   1      47.007  35.563  28.920  1.00  0.00     0.034 A 
ATOM     56  C   UNL A   1      41.903  34.755  32.890  1.00  0.00     0.049 A 
ATOM     57  C   UNL A   1      46.425  36.381  30.050  1.00  0.00     0.074 A 
ATOM     58  C   UNL A   1      41.483  35.570  33.926  1.00  0.00     0.029 A 
ATOM     59  N   UNL A   1      43.040  35.338  32.355  1.00  0.00    -0.354 N 
ATOM     60  N   UNL A   1      45.411  36.108  30.836  1.00  0.00    -0.248 NA
ATOM     61  C   UNL A   1      47.090  37.656  30.362  1.00  0.00     0.031 C 
ATOM     62  C   UNL A   1      42.356  36.659  34.006  1.00  0.00     0.029 A 
ATOM     63  C   UNL A   1      43.342  36.498  33.047  1.00  0.00     0.049 A 
ATOM     64  H   UNL A   1      43.555  34.981  31.596  1.00  0.00     0.167 HD
ATOM     65  C   UNL A   1      45.356  37.144  31.765  1.00  0.00     0.074 A 
ATOM     66  C   UNL A   1      46.446  38.042  31.454  1.00  0.00     0.031 C 
ATOM     67  C   UNL A   1      44.476  37.342  32.778  1.00  0.00     0.034 A 
BRANCH  54  68
ATOM     68  C   UNL A   1      40.094  33.013  33.134  1.00  0.00     0.023 A 
ATOM     69  C   UNL A   1      38.834  33.093  32.507  1.00  0.00     0.012 A 
ATOM     70  C   UNL A   1      40.204  32.390  34.392  1.00  0.00     0.148 A 
ATOM     71  C   UNL A   1      37.697  32.583  33.132  1.00  0.00     0.002 A 
ATOM     72  C   UNL A   1      39.074  31.842  34.987  1.00  0.00     0.091 A 
ATOM     73  F   UNL A   1      41.408  32.345  34.979  1.00  0.00    -0.205 F 
ATOM     74  C   UNL A   1      37.820  31.948  34.364  1.00  0.00     0.022 A 
BRANCH  72  75
ATOM     75  S   UNL A   1      39.136  30.933  36.535  1.00  0.00     0.127 S 
ATOM     76  O   UNL A   1      37.715  30.720  36.808  1.00  0.00    -0.237 OA
ATOM     77  O   UNL A   1      39.871  29.728  36.151  1.00  0.00    -0.237 OA
ATOM     78  O   UNL A   1      39.825  31.796  37.483  1.00  0.00    -0.744 OA
ENDBRANCH  72  75
ENDBRANCH  54  68
BRANCH  55  79
ATOM     79  C   UNL A   1      48.186  36.077  28.161  1.00  0.00     0.023 A 
ATOM     80  C   UNL A   1      47.992  36.868  27.009  1.00  0.00     0.012 A 
ATOM     81  C   UNL A   1      49.498  35.740  28.544  1.00  0.00     0.148 A 
ATOM     82  C   UNL A   1      49.077  37.265  26.227  1.00  0.00     0.002 A 
ATOM     83  C   UNL A   1      50.578  36.191  27.794  1.00  0.00     0.091 A 
ATOM     84  F   UNL A   1      49.665  34.970  29.628  1.00  0.00    -0.205 F 
ATOM     85  C   UNL A   1      50.370  36.934  26.622  1.00  0.00     0.022 A 
BRANCH  83  86
ATOM     86  S   UNL A   1      52.279  35.911  28.299  1.00  0.00     0.127 S 
ATOM     87  O   UNL A   1      52.380  34.457  28.216  1.00  0.00    -0.237 OA
ATOM     88  O   UNL A   1      53.023  36.640  27.272  1.00  0.00    -0.237 OA
ATOM     89  O   UNL A   1      52.387  36.481  29.634  1.00  0.00    -0.744 OA
ENDBRANCH  83  86
ENDBRANCH  55  79
BRANCH  67  90
ATOM     90  C   UNL A   1      44.697  38.522  33.689  1.00  0.00     0.023 A 
ATOM     91  C   UNL A   1      45.668  38.466  34.709  1.00  0.00     0.012 A 
ATOM     92  C   UNL A   1      43.978  39.717  33.488  1.00  0.00     0.148 A 
ATOM     93  C   UNL A   1      45.886  39.565  35.542  1.00  0.00     0.002 A 
ATOM     94  C   UNL A   1      44.239  40.825  34.285  1.00  0.00     0.091 A 
ATOM     95  F   UNL A   1      43.047  39.749  32.523  1.00  0.00    -0.205 F 
ATOM     96  C   UNL A   1      45.181  40.745  35.322  1.00  0.00     0.022 A 
BRANCH  94  97
ATOM     97  S   UNL A   1      43.451  42.415  34.006  1.00  0.00     0.127 S 
ATOM     98  O   UNL A   1      43.995  43.213  35.103  1.00  0.00    -0.237 OA
ATOM     99  O   UNL A   1      43.950  42.782  32.680  1.00  0.00    -0.237 OA
ATOM    100  O   UNL A   1      42.017  42.168  34.063  1.00  0.00    -0.744 OA
ENDBRANCH  94  97
ENDBRANCH  67  90
ENDBRANCH  41  42
ENDBRANCH  34  36
ENDBRANCH  33  34
ENDBRANCH  32  33
ENDBRANCH  31  32
ENDBRANCH  30  31
ENDBRANCH  29  30
ENDBRANCH   1  29
TORSDOF 24
ENDMDL
