MODEL 1
REMARK VINA RESULT:     -11.1      0.000      0.000
REMARK SMILES Cc1ccc(-c2ncccc2C(=O)OCCOCCOCCOC(=O)c2ccc(-c3c4nc(c(-c5cccc(S(=O)(=O)[O-])c5F)c5ccc([nH]5)c(-c5cccc(S(=O)(=O)[O-])c5F)c5nc(c(-c6cccc(S(=O)(=O)[O-])c6F)c6ccc3[nH]6)C=C5)C=C4)cc2)c(Cl)c1
REMARK SMILES IDX 19 1 18 2 17 3 16 4 15 5 14 6 12 7 13 8 11 9 6 10 7 11 8 12
REMARK SMILES IDX 10 13 9 14 5 15 1 16 2 17 3 18 91 19 4 20 89 21 90 22 20 23
REMARK SMILES IDX 21 24 22 25 23 26 24 27 25 28 26 29 27 30 88 31 28 32 87 33
REMARK SMILES IDX 29 34 30 35 31 36 81 37 32 38 86 39 80 40 82 41 33 42 85 43
REMARK SMILES IDX 79 44 78 45 34 47 66 48 46 49 65 50 47 51 50 52 64 53 83 54
REMARK SMILES IDX 48 55 49 56 63 58 84 59 51 60 35 61 36 62 44 63 37 64 39 65
REMARK SMILES IDX 45 66 38 67 40 68 41 69 42 70 43 71 67 72 68 73 76 74 69 75
REMARK SMILES IDX 71 76 77 77 70 78 72 79 73 80 74 81 75 82 52 83 53 84 61 85
REMARK SMILES IDX 54 86 56 87 62 88 55 89 57 90 58 91 59 92 60 93
REMARK H PARENT 82 46 50 57
REMARK Flexibility Score: inf
ROOT
ATOM      1  C   UNL A   1      34.930  23.426  24.395  1.00  0.00     0.188 C 
ENDROOT
BRANCH   1   2
ATOM      2  C   UNL A   1      34.371  23.893  25.751  1.00  0.00     0.188 C 
BRANCH   2   3
ATOM      3  O   UNL A   1      33.327  23.059  26.250  1.00  0.00    -0.376 OA
BRANCH   3   4
ATOM      4  C   UNL A   1      32.100  23.743  26.498  1.00  0.00     0.202 C 
BRANCH   4   5
ATOM      5  C   UNL A   1      31.285  23.872  25.212  1.00  0.00     0.261 C 
BRANCH   5   6
ATOM      6  O   UNL A   1      31.189  25.225  24.735  1.00  0.00    -0.460 OA
BRANCH   6   7
ATOM      7  C   UNL A   1      30.337  26.049  25.395  1.00  0.00     0.340 C 
ATOM      8  O   UNL A   1      29.918  25.876  26.523  1.00  0.00    -0.246 OA
BRANCH   7   9
ATOM      9  C   UNL A   1      30.061  27.218  24.526  1.00  0.00     0.086 A 
ATOM     10  C   UNL A   1      30.829  28.386  24.597  1.00  0.00     0.086 A 
ATOM     11  N   UNL A   1      30.617  29.438  23.756  1.00  0.00    -0.255 NA
ATOM     12  C   UNL A   1      29.622  29.336  22.849  1.00  0.00     0.112 A 
ATOM     13  C   UNL A   1      29.046  27.141  23.560  1.00  0.00     0.019 A 
ATOM     14  C   UNL A   1      28.824  28.216  22.706  1.00  0.00     0.021 A 
BRANCH  10  15
ATOM     15  C   UNL A   1      32.025  28.519  25.438  1.00  0.00     0.020 A 
ATOM     16  C   UNL A   1      35.481  29.325  27.927  1.00  0.00     0.044 C 
ATOM     17  C   UNL A   1      34.280  29.047  27.067  1.00  0.00    -0.050 A 
ATOM     18  C   UNL A   1      33.006  29.450  27.471  1.00  0.00     0.004 A 
ATOM     19  C   UNL A   1      34.419  28.351  25.860  1.00  0.00     0.024 A 
ATOM     20  C   UNL A   1      31.893  29.138  26.692  1.00  0.00     0.012 A 
ATOM     21  C   UNL A   1      33.305  28.100  25.045  1.00  0.00     0.050 A 
ATOM     22  Cl  UNL A   1      33.561  27.271  23.549  1.00  0.00    -0.084 Cl
ENDBRANCH  10  15
ENDBRANCH   7   9
ENDBRANCH   6   7
ENDBRANCH   5   6
ENDBRANCH   4   5
ENDBRANCH   3   4
ENDBRANCH   2   3
ENDBRANCH   1   2
BRANCH   1  23
ATOM     23  O   UNL A   1      36.335  23.413  24.150  1.00  0.00    -0.376 OA
BRANCH  23  24
ATOM     24  C   UNL A   1      36.903  22.289  23.501  1.00  0.00     0.202 C 
BRANCH  24  25
ATOM     25  C   UNL A   1      37.261  21.093  24.392  1.00  0.00     0.261 C 
BRANCH  25  26
ATOM     26  O   UNL A   1      37.590  21.434  25.745  1.00  0.00    -0.460 OA
BRANCH  26  27
ATOM     27  C   UNL A   1      38.910  21.344  26.044  1.00  0.00     0.338 C 
ATOM     28  O   UNL A   1      39.664  20.430  25.747  1.00  0.00    -0.246 OA
BRANCH  27  29
ATOM     29  C   UNL A   1      39.373  22.578  26.718  1.00  0.00     0.060 A 
ATOM     30  C   UNL A   1      38.674  23.763  26.457  1.00  0.00     0.016 A 
ATOM     31  C   UNL A   1      40.514  22.603  27.526  1.00  0.00     0.016 A 
ATOM     32  C   UNL A   1      39.145  24.981  26.950  1.00  0.00     0.010 A 
ATOM     33  C   UNL A   1      40.988  23.828  28.015  1.00  0.00     0.010 A 
ATOM     34  C   UNL A   1      40.332  25.030  27.691  1.00  0.00    -0.014 A 
BRANCH  34  35
ATOM     35  C   UNL A   1      40.955  26.344  27.993  1.00  0.00     0.031 A 
ATOM     36  C   UNL A   1      42.366  26.605  27.561  1.00  0.00     0.074 A 
ATOM     37  C   UNL A   1      40.282  27.312  28.641  1.00  0.00     0.049 A 
ATOM     38  N   UNL A   1      43.050  27.717  27.627  1.00  0.00    -0.248 NA
ATOM     39  C   UNL A   1      43.097  25.480  26.959  1.00  0.00     0.031 C 
ATOM     40  C   UNL A   1      38.907  27.202  29.098  1.00  0.00     0.029 A 
ATOM     41  N   UNL A   1      40.669  28.563  29.053  1.00  0.00    -0.354 N 
ATOM     42  C   UNL A   1      44.282  27.437  27.058  1.00  0.00     0.074 A 
ATOM     43  C   UNL A   1      44.271  26.035  26.696  1.00  0.00     0.031 C 
ATOM     44  C   UNL A   1      38.585  28.293  29.811  1.00  0.00     0.029 A 
ATOM     45  C   UNL A   1      39.727  29.200  29.826  1.00  0.00     0.049 A 
ATOM     46  H   UNL A   1      41.537  28.965  28.819  1.00  0.00     0.167 HD
ATOM     47  C   UNL A   1      45.313  28.280  26.822  1.00  0.00     0.034 A 
ATOM     48  C   UNL A   1      39.769  30.383  30.469  1.00  0.00     0.034 A 
ATOM     49  C   UNL A   1      45.323  29.671  27.187  1.00  0.00     0.049 A 
ATOM     50  C   UNL A   1      40.943  31.291  30.241  1.00  0.00     0.074 A 
ATOM     51  C   UNL A   1      46.287  30.625  26.914  1.00  0.00     0.029 A 
ATOM     52  N   UNL A   1      44.339  30.302  27.933  1.00  0.00    -0.354 N 
ATOM     53  N   UNL A   1      42.016  31.078  29.518  1.00  0.00    -0.248 NA
ATOM     54  C   UNL A   1      40.882  32.629  30.845  1.00  0.00     0.031 C 
ATOM     55  C   UNL A   1      45.902  31.825  27.524  1.00  0.00     0.029 A 
ATOM     56  C   UNL A   1      44.684  31.624  28.155  1.00  0.00     0.049 A 
ATOM     57  H   UNL A   1      43.515  29.871  28.258  1.00  0.00     0.167 HD
ATOM     58  C   UNL A   1      42.727  32.271  29.529  1.00  0.00     0.074 A 
ATOM     59  C   UNL A   1      41.965  33.203  30.336  1.00  0.00     0.031 C 
ATOM     60  C   UNL A   1      43.902  32.564  28.920  1.00  0.00     0.034 A 
BRANCH  47  61
ATOM     61  C   UNL A   1      46.501  27.719  26.093  1.00  0.00     0.023 A 
ATOM     62  C   UNL A   1      46.608  27.907  24.699  1.00  0.00     0.012 A 
ATOM     63  C   UNL A   1      47.515  27.032  26.781  1.00  0.00     0.148 A 
ATOM     64  C   UNL A   1      47.694  27.390  23.996  1.00  0.00     0.002 A 
ATOM     65  C   UNL A   1      48.615  26.551  26.078  1.00  0.00     0.091 A 
ATOM     66  F   UNL A   1      47.378  26.836  28.100  1.00  0.00    -0.205 F 
ATOM     67  C   UNL A   1      48.700  26.721  24.686  1.00  0.00     0.022 A 
BRANCH  65  68
ATOM     68  S   UNL A   1      49.989  25.734  26.894  1.00  0.00     0.127 S 
ATOM     69  O   UNL A   1      50.946  25.600  25.797  1.00  0.00    -0.237 OA
ATOM     70  O   UNL A   1      50.367  26.709  27.918  1.00  0.00    -0.237 OA
ATOM     71  O   UNL A   1      49.453  24.486  27.420  1.00  0.00    -0.744 OA
ENDBRANCH  65  68
ENDBRANCH  47  61
BRANCH  48  72
ATOM     72  C   UNL A   1      38.621  30.794  31.323  1.00  0.00     0.023 A 
ATOM     73  C   UNL A   1      38.674  30.602  32.716  1.00  0.00     0.012 A 
ATOM     74  C   UNL A   1      37.495  31.423  30.755  1.00  0.00     0.148 A 
ATOM     75  C   UNL A   1      37.611  31.003  33.528  1.00  0.00     0.002 A 
ATOM     76  C   UNL A   1      36.462  31.862  31.574  1.00  0.00     0.091 A 
ATOM     77  F   UNL A   1      37.464  31.590  29.426  1.00  0.00    -0.205 F 
ATOM     78  C   UNL A   1      36.511  31.640  32.958  1.00  0.00     0.022 A 
BRANCH  76  79
ATOM     79  S   UNL A   1      35.064  32.798  30.943  1.00  0.00     0.127 S 
ATOM     80  O   UNL A   1      34.141  32.758  32.075  1.00  0.00    -0.237 OA
ATOM     81  O   UNL A   1      35.669  34.105  30.684  1.00  0.00    -0.237 OA
ATOM     82  O   UNL A   1      34.626  32.094  29.745  1.00  0.00    -0.744 OA
ENDBRANCH  76  79
ENDBRANCH  48  72
BRANCH  60  83
ATOM     83  C   UNL A   1      44.436  33.965  29.063  1.00  0.00     0.023 A 
ATOM     84  C   UNL A   1      45.554  34.210  29.884  1.00  0.00     0.012 A 
ATOM     85  C   UNL A   1      43.873  35.027  28.328  1.00  0.00     0.148 A 
ATOM     86  C   UNL A   1      46.085  35.494  29.995  1.00  0.00     0.002 A 
ATOM     87  C   UNL A   1      44.436  36.295  28.405  1.00  0.00     0.091 A 
ATOM     88  F   UNL A   1      42.793  34.781  27.571  1.00  0.00    -0.205 F 
ATOM     89  C   UNL A   1      45.535  36.534  29.247  1.00  0.00     0.022 A 
BRANCH  87  90
ATOM     90  S   UNL A   1      43.851  37.665  27.402  1.00  0.00     0.127 S 
ATOM     91  O   UNL A   1      42.909  36.998  26.504  1.00  0.00    -0.237 OA
ATOM     92  O   UNL A   1      43.228  38.540  28.396  1.00  0.00    -0.237 OA
ATOM     93  O   UNL A   1      45.036  38.227  26.767  1.00  0.00    -0.744 OA
ENDBRANCH  87  90
ENDBRANCH  60  83
ENDBRANCH  34  35
ENDBRANCH  27  29
ENDBRANCH  26  27
ENDBRANCH  25  26
ENDBRANCH  24  25
ENDBRANCH  23  24
ENDBRANCH   1  23
TORSDOF 21
ENDMDL
MODEL 2
REMARK VINA RESULT:     -10.8      1.772      2.111
REMARK SMILES Cc1ccc(-c2ncccc2C(=O)OCCOCCOCCOC(=O)c2ccc(-c3c4nc(c(-c5cccc(S(=O)(=O)[O-])c5F)c5ccc([nH]5)c(-c5cccc(S(=O)(=O)[O-])c5F)c5nc(c(-c6cccc(S(=O)(=O)[O-])c6F)c6ccc3[nH]6)C=C5)C=C4)cc2)c(Cl)c1
REMARK SMILES IDX 19 1 18 2 17 3 16 4 15 5 14 6 12 7 13 8 11 9 6 10 7 11 8 12
REMARK SMILES IDX 10 13 9 14 5 15 1 16 2 17 3 18 91 19 4 20 89 21 90 22 20 23
REMARK SMILES IDX 21 24 22 25 23 26 24 27 25 28 26 29 27 30 88 31 28 32 87 33
REMARK SMILES IDX 29 34 30 35 31 36 81 37 32 38 86 39 80 40 82 41 33 42 85 43
REMARK SMILES IDX 79 44 78 45 34 47 66 48 46 49 65 50 47 51 50 52 64 53 83 54
REMARK SMILES IDX 48 55 49 56 63 58 84 59 51 60 35 61 36 62 44 63 37 64 39 65
REMARK SMILES IDX 45 66 38 67 40 68 41 69 42 70 43 71 67 72 68 73 76 74 69 75
REMARK SMILES IDX 71 76 77 77 70 78 72 79 73 80 74 81 75 82 52 83 53 84 61 85
REMARK SMILES IDX 54 86 56 87 62 88 55 89 57 90 58 91 59 92 60 93
REMARK H PARENT 82 46 50 57
REMARK Flexibility Score: inf
ROOT
ATOM      1  C   UNL A   1      34.722  22.800  25.004  1.00  0.00     0.188 C 
ENDROOT
BRANCH   1   2
ATOM      2  C   UNL A   1      33.980  23.388  26.218  1.00  0.00     0.188 C 
BRANCH   2   3
ATOM      3  O   UNL A   1      32.648  22.898  26.357  1.00  0.00    -0.376 OA
BRANCH   3   4
ATOM      4  C   UNL A   1      31.724  23.854  26.876  1.00  0.00     0.202 C 
BRANCH   4   5
ATOM      5  C   UNL A   1      30.670  24.208  25.829  1.00  0.00     0.261 C 
BRANCH   5   6
ATOM      6  O   UNL A   1      30.576  25.621  25.574  1.00  0.00    -0.460 OA
BRANCH   6   7
ATOM      7  C   UNL A   1      31.178  26.081  24.450  1.00  0.00     0.340 C 
ATOM      8  O   UNL A   1      32.054  25.508  23.830  1.00  0.00    -0.246 OA
BRANCH   7   9
ATOM      9  C   UNL A   1      30.542  27.368  24.080  1.00  0.00     0.086 A 
ATOM     10  C   UNL A   1      30.997  28.589  24.590  1.00  0.00     0.086 A 
ATOM     11  N   UNL A   1      30.453  29.777  24.202  1.00  0.00    -0.255 NA
ATOM     12  C   UNL A   1      29.437  29.752  23.314  1.00  0.00     0.112 A 
ATOM     13  C   UNL A   1      29.494  27.381  23.147  1.00  0.00     0.019 A 
ATOM     14  C   UNL A   1      28.933  28.592  22.755  1.00  0.00     0.021 A 
BRANCH  10  15
ATOM     15  C   UNL A   1      32.194  28.720  25.430  1.00  0.00     0.020 A 
ATOM     16  C   UNL A   1      35.550  29.449  28.075  1.00  0.00     0.044 C 
ATOM     17  C   UNL A   1      34.383  29.195  27.162  1.00  0.00    -0.050 A 
ATOM     18  C   UNL A   1      33.094  29.052  27.676  1.00  0.00     0.004 A 
ATOM     19  C   UNL A   1      34.580  29.069  25.780  1.00  0.00     0.024 A 
ATOM     20  C   UNL A   1      32.028  28.762  26.824  1.00  0.00     0.012 A 
ATOM     21  C   UNL A   1      33.494  28.846  24.920  1.00  0.00     0.050 A 
ATOM     22  Cl  UNL A   1      33.810  28.743  23.222  1.00  0.00    -0.084 Cl
ENDBRANCH  10  15
ENDBRANCH   7   9
ENDBRANCH   6   7
ENDBRANCH   5   6
ENDBRANCH   4   5
ENDBRANCH   3   4
ENDBRANCH   2   3
ENDBRANCH   1   2
BRANCH   1  23
ATOM     23  O   UNL A   1      35.929  23.392  24.528  1.00  0.00    -0.376 OA
BRANCH  23  24
ATOM     24  C   UNL A   1      36.866  22.577  23.848  1.00  0.00     0.202 C 
BRANCH  24  25
ATOM     25  C   UNL A   1      37.370  21.340  24.599  1.00  0.00     0.261 C 
BRANCH  25  26
ATOM     26  O   UNL A   1      37.787  21.588  25.949  1.00  0.00    -0.460 OA
BRANCH  26  27
ATOM     27  C   UNL A   1      39.131  21.586  26.132  1.00  0.00     0.338 C 
ATOM     28  O   UNL A   1      39.921  20.752  25.719  1.00  0.00    -0.246 OA
BRANCH  27  29
ATOM     29  C   UNL A   1      39.559  22.814  26.841  1.00  0.00     0.060 A 
ATOM     30  C   UNL A   1      38.839  23.990  26.597  1.00  0.00     0.016 A 
ATOM     31  C   UNL A   1      40.687  22.843  27.666  1.00  0.00     0.016 A 
ATOM     32  C   UNL A   1      39.277  25.206  27.124  1.00  0.00     0.010 A 
ATOM     33  C   UNL A   1      41.129  24.067  28.189  1.00  0.00     0.010 A 
ATOM     34  C   UNL A   1      40.452  25.262  27.883  1.00  0.00    -0.014 A 
BRANCH  34  35
ATOM     35  C   UNL A   1      41.043  26.582  28.224  1.00  0.00     0.031 A 
ATOM     36  C   UNL A   1      42.489  26.839  27.925  1.00  0.00     0.074 A 
ATOM     37  C   UNL A   1      40.311  27.558  28.790  1.00  0.00     0.049 A 
ATOM     38  N   UNL A   1      43.163  27.952  28.039  1.00  0.00    -0.248 NA
ATOM     39  C   UNL A   1      43.274  25.705  27.411  1.00  0.00     0.031 C 
ATOM     40  C   UNL A   1      38.900  27.452  29.117  1.00  0.00     0.029 A 
ATOM     41  N   UNL A   1      40.658  28.815  29.220  1.00  0.00    -0.354 N 
ATOM     42  C   UNL A   1      44.444  27.666  27.594  1.00  0.00     0.074 A 
ATOM     43  C   UNL A   1      44.468  26.259  27.253  1.00  0.00     0.031 C 
ATOM     44  C   UNL A   1      38.511  28.552  29.780  1.00  0.00     0.029 A 
ATOM     45  C   UNL A   1      39.646  29.462  29.890  1.00  0.00     0.049 A 
ATOM     46  H   UNL A   1      41.543  29.214  29.063  1.00  0.00     0.167 HD
ATOM     47  C   UNL A   1      45.492  28.507  27.445  1.00  0.00     0.034 A 
ATOM     48  C   UNL A   1      39.626  30.654  30.516  1.00  0.00     0.034 A 
ATOM     49  C   UNL A   1      45.468  29.903  27.789  1.00  0.00     0.049 A 
ATOM     50  C   UNL A   1      40.816  31.560  30.388  1.00  0.00     0.074 A 
ATOM     51  C   UNL A   1      46.453  30.855  27.595  1.00  0.00     0.029 A 
ATOM     52  N   UNL A   1      44.417  30.543  28.429  1.00  0.00    -0.354 N 
ATOM     53  N   UNL A   1      41.953  31.339  29.774  1.00  0.00    -0.248 NA
ATOM     54  C   UNL A   1      40.697  32.907  30.964  1.00  0.00     0.031 C 
ATOM     55  C   UNL A   1      46.011  32.062  28.148  1.00  0.00     0.029 A 
ATOM     56  C   UNL A   1      44.739  31.869  28.663  1.00  0.00     0.049 A 
ATOM     57  H   UNL A   1      43.565  30.115  28.679  1.00  0.00     0.167 HD
ATOM     58  C   UNL A   1      42.660  32.533  29.835  1.00  0.00     0.074 A 
ATOM     59  C   UNL A   1      41.824  33.475  30.552  1.00  0.00     0.031 C 
ATOM     60  C   UNL A   1      43.887  32.819  29.336  1.00  0.00     0.034 A 
BRANCH  47  61
ATOM     61  C   UNL A   1      46.744  27.937  26.841  1.00  0.00     0.023 A 
ATOM     62  C   UNL A   1      47.701  27.327  27.679  1.00  0.00     0.012 A 
ATOM     63  C   UNL A   1      46.965  27.981  25.453  1.00  0.00     0.148 A 
ATOM     64  C   UNL A   1      48.875  26.798  27.147  1.00  0.00     0.002 A 
ATOM     65  C   UNL A   1      48.121  27.417  24.925  1.00  0.00     0.091 A 
ATOM     66  F   UNL A   1      46.058  28.593  24.678  1.00  0.00    -0.205 F 
ATOM     67  C   UNL A   1      49.080  26.835  25.771  1.00  0.00     0.022 A 
BRANCH  65  68
ATOM     68  S   UNL A   1      48.438  27.361  23.159  1.00  0.00     0.127 S 
ATOM     69  O   UNL A   1      49.799  27.888  23.088  1.00  0.00    -0.237 OA
ATOM     70  O   UNL A   1      48.320  25.932  22.867  1.00  0.00    -0.237 OA
ATOM     71  O   UNL A   1      47.408  28.188  22.546  1.00  0.00    -0.744 OA
ENDBRANCH  65  68
ENDBRANCH  47  61
BRANCH  48  72
ATOM     72  C   UNL A   1      38.402  31.075  31.251  1.00  0.00     0.023 A 
ATOM     73  C   UNL A   1      38.303  30.861  32.638  1.00  0.00     0.012 A 
ATOM     74  C   UNL A   1      37.355  31.737  30.578  1.00  0.00     0.148 A 
ATOM     75  C   UNL A   1      37.168  31.272  33.340  1.00  0.00     0.002 A 
ATOM     76  C   UNL A   1      36.249  32.184  31.290  1.00  0.00     0.091 A 
ATOM     77  F   UNL A   1      37.468  31.925  29.256  1.00  0.00    -0.205 F 
ATOM     78  C   UNL A   1      36.147  31.939  32.668  1.00  0.00     0.022 A 
BRANCH  76  79
ATOM     79  S   UNL A   1      34.944  33.158  30.532  1.00  0.00     0.127 S 
ATOM     80  O   UNL A   1      34.390  32.216  29.564  1.00  0.00    -0.237 OA
ATOM     81  O   UNL A   1      34.080  33.448  31.678  1.00  0.00    -0.237 OA
ATOM     82  O   UNL A   1      35.602  34.330  29.969  1.00  0.00    -0.744 OA
ENDBRANCH  76  79
ENDBRANCH  48  72
BRANCH  60  83
ATOM     83  C   UNL A   1      44.404  34.223  29.510  1.00  0.00     0.023 A 
ATOM     84  C   UNL A   1      44.143  35.193  28.523  1.00  0.00     0.012 A 
ATOM     85  C   UNL A   1      45.087  34.597  30.683  1.00  0.00     0.148 A 
ATOM     86  C   UNL A   1      44.579  36.508  28.688  1.00  0.00     0.002 A 
ATOM     87  C   UNL A   1      45.477  35.919  30.864  1.00  0.00     0.091 A 
ATOM     88  F   UNL A   1      45.350  33.654  31.601  1.00  0.00    -0.205 F 
ATOM     89  C   UNL A   1      45.234  36.873  29.863  1.00  0.00     0.022 A 
BRANCH  87  90
ATOM     90  S   UNL A   1      46.238  36.493  32.387  1.00  0.00     0.127 S 
ATOM     91  O   UNL A   1      46.453  37.910  32.098  1.00  0.00    -0.237 OA
ATOM     92  O   UNL A   1      45.196  36.226  33.379  1.00  0.00    -0.237 OA
ATOM     93  O   UNL A   1      47.444  35.693  32.554  1.00  0.00    -0.744 OA
ENDBRANCH  87  90
ENDBRANCH  60  83
ENDBRANCH  34  35
ENDBRANCH  27  29
ENDBRANCH  26  27
ENDBRANCH  25  26
ENDBRANCH  24  25
ENDBRANCH  23  24
ENDBRANCH   1  23
TORSDOF 21
ENDMDL
MODEL 3
REMARK VINA RESULT:     -10.5      1.940      2.866
REMARK SMILES Cc1ccc(-c2ncccc2C(=O)OCCOCCOCCOC(=O)c2ccc(-c3c4nc(c(-c5cccc(S(=O)(=O)[O-])c5F)c5ccc([nH]5)c(-c5cccc(S(=O)(=O)[O-])c5F)c5nc(c(-c6cccc(S(=O)(=O)[O-])c6F)c6ccc3[nH]6)C=C5)C=C4)cc2)c(Cl)c1
REMARK SMILES IDX 19 1 18 2 17 3 16 4 15 5 14 6 12 7 13 8 11 9 6 10 7 11 8 12
REMARK SMILES IDX 10 13 9 14 5 15 1 16 2 17 3 18 91 19 4 20 89 21 90 22 20 23
REMARK SMILES IDX 21 24 22 25 23 26 24 27 25 28 26 29 27 30 88 31 28 32 87 33
REMARK SMILES IDX 29 34 30 35 31 36 81 37 32 38 86 39 80 40 82 41 33 42 85 43
REMARK SMILES IDX 79 44 78 45 34 47 66 48 46 49 65 50 47 51 50 52 64 53 83 54
REMARK SMILES IDX 48 55 49 56 63 58 84 59 51 60 35 61 36 62 44 63 37 64 39 65
REMARK SMILES IDX 45 66 38 67 40 68 41 69 42 70 43 71 67 72 68 73 76 74 69 75
REMARK SMILES IDX 71 76 77 77 70 78 72 79 73 80 74 81 75 82 52 83 53 84 61 85
REMARK SMILES IDX 54 86 56 87 62 88 55 89 57 90 58 91 59 92 60 93
REMARK H PARENT 82 46 50 57
REMARK Flexibility Score: inf
ROOT
ATOM      1  C   UNL A   1      36.775  22.868  25.202  1.00  0.00     0.188 C 
ENDROOT
BRANCH   1   2
ATOM      2  C   UNL A   1      35.452  23.039  25.972  1.00  0.00     0.188 C 
BRANCH   2   3
ATOM      3  O   UNL A   1      34.827  21.801  26.302  1.00  0.00    -0.376 OA
BRANCH   3   4
ATOM      4  C   UNL A   1      34.127  21.812  27.546  1.00  0.00     0.202 C 
BRANCH   4   5
ATOM      5  C   UNL A   1      33.048  22.893  27.548  1.00  0.00     0.261 C 
BRANCH   5   6
ATOM      6  O   UNL A   1      31.847  22.497  26.863  1.00  0.00    -0.460 OA
BRANCH   6   7
ATOM      7  C   UNL A   1      31.229  23.443  26.114  1.00  0.00     0.340 C 
ATOM      8  O   UNL A   1      30.349  24.189  26.500  1.00  0.00    -0.246 OA
BRANCH   7   9
ATOM      9  C   UNL A   1      31.856  23.449  24.771  1.00  0.00     0.086 A 
ATOM     10  C   UNL A   1      32.279  24.635  24.159  1.00  0.00     0.086 A 
ATOM     11  N   UNL A   1      32.912  24.636  22.953  1.00  0.00    -0.255 NA
ATOM     12  C   UNL A   1      33.112  23.450  22.338  1.00  0.00     0.112 A 
ATOM     13  C   UNL A   1      32.094  22.234  24.110  1.00  0.00     0.019 A 
ATOM     14  C   UNL A   1      32.734  22.233  22.876  1.00  0.00     0.021 A 
BRANCH  10  15
ATOM     15  C   UNL A   1      32.248  25.944  24.824  1.00  0.00     0.020 A 
ATOM     16  C   UNL A   1      32.153  29.598  27.153  1.00  0.00     0.044 C 
ATOM     17  C   UNL A   1      32.190  28.330  26.347  1.00  0.00    -0.050 A 
ATOM     18  C   UNL A   1      33.204  27.391  26.544  1.00  0.00     0.004 A 
ATOM     19  C   UNL A   1      31.223  28.087  25.364  1.00  0.00     0.024 A 
ATOM     20  C   UNL A   1      33.258  26.244  25.752  1.00  0.00     0.012 A 
ATOM     21  C   UNL A   1      31.242  26.900  24.617  1.00  0.00     0.050 A 
ATOM     22  Cl  UNL A   1      29.989  26.651  23.450  1.00  0.00    -0.084 Cl
ENDBRANCH  10  15
ENDBRANCH   7   9
ENDBRANCH   6   7
ENDBRANCH   5   6
ENDBRANCH   4   5
ENDBRANCH   3   4
ENDBRANCH   2   3
ENDBRANCH   1   2
BRANCH   1  23
ATOM     23  O   UNL A   1      37.067  21.655  24.512  1.00  0.00    -0.376 OA
BRANCH  23  24
ATOM     24  C   UNL A   1      37.983  20.744  25.092  1.00  0.00     0.202 C 
BRANCH  24  25
ATOM     25  C   UNL A   1      39.128  21.353  25.911  1.00  0.00     0.261 C 
BRANCH  25  26
ATOM     26  O   UNL A   1      39.974  20.393  26.558  1.00  0.00    -0.460 OA
BRANCH  26  27
ATOM     27  C   UNL A   1      41.267  20.415  26.147  1.00  0.00     0.338 C 
ATOM     28  O   UNL A   1      41.833  19.565  25.478  1.00  0.00    -0.246 OA
BRANCH  27  29
ATOM     29  C   UNL A   1      41.913  21.689  26.538  1.00  0.00     0.060 A 
ATOM     30  C   UNL A   1      41.995  21.984  27.905  1.00  0.00     0.016 A 
ATOM     31  C   UNL A   1      42.361  22.618  25.594  1.00  0.00     0.016 A 
ATOM     32  C   UNL A   1      42.464  23.228  28.329  1.00  0.00     0.010 A 
ATOM     33  C   UNL A   1      42.827  23.869  26.023  1.00  0.00     0.010 A 
ATOM     34  C   UNL A   1      42.838  24.198  27.391  1.00  0.00    -0.014 A 
BRANCH  34  35
ATOM     35  C   UNL A   1      43.093  25.592  27.838  1.00  0.00     0.031 A 
ATOM     36  C   UNL A   1      44.504  26.095  27.906  1.00  0.00     0.074 A 
ATOM     37  C   UNL A   1      42.089  26.419  28.178  1.00  0.00     0.049 A 
ATOM     38  N   UNL A   1      44.930  27.304  28.160  1.00  0.00    -0.248 NA
ATOM     39  C   UNL A   1      45.572  25.120  27.634  1.00  0.00     0.031 C 
ATOM     40  C   UNL A   1      40.679  26.070  28.141  1.00  0.00     0.029 A 
ATOM     41  N   UNL A   1      42.099  27.708  28.650  1.00  0.00    -0.354 N 
ATOM     42  C   UNL A   1      46.311  27.246  28.058  1.00  0.00     0.074 A 
ATOM     43  C   UNL A   1      46.656  25.870  27.768  1.00  0.00     0.031 C 
ATOM     44  C   UNL A   1      39.957  27.076  28.658  1.00  0.00     0.029 A 
ATOM     45  C   UNL A   1      40.857  28.162  29.029  1.00  0.00     0.049 A 
ATOM     46  H   UNL A   1      42.916  28.254  28.712  1.00  0.00     0.167 HD
ATOM     47  C   UNL A   1      47.206  28.255  28.158  1.00  0.00     0.034 A 
ATOM     48  C   UNL A   1      40.480  29.321  29.601  1.00  0.00     0.034 A 
ATOM     49  C   UNL A   1      46.861  29.620  28.451  1.00  0.00     0.049 A 
ATOM     50  C   UNL A   1      41.495  30.417  29.755  1.00  0.00     0.074 A 
ATOM     51  C   UNL A   1      47.689  30.728  28.489  1.00  0.00     0.029 A 
ATOM     52  N   UNL A   1      45.591  30.060  28.790  1.00  0.00    -0.354 N 
ATOM     53  N   UNL A   1      42.770  30.403  29.452  1.00  0.00    -0.248 NA
ATOM     54  C   UNL A   1      41.010  31.713  30.250  1.00  0.00     0.031 C 
ATOM     55  C   UNL A   1      46.925  31.832  28.883  1.00  0.00     0.029 A 
ATOM     56  C   UNL A   1      45.616  31.417  29.066  1.00  0.00     0.049 A 
ATOM     57  H   UNL A   1      44.788  29.491  28.829  1.00  0.00     0.167 HD
ATOM     58  C   UNL A   1      43.227  31.697  29.661  1.00  0.00     0.074 A 
ATOM     59  C   UNL A   1      42.092  32.471  30.121  1.00  0.00     0.031 C 
ATOM     60  C   UNL A   1      44.475  32.196  29.480  1.00  0.00     0.034 A 
BRANCH  47  61
ATOM     61  C   UNL A   1      48.647  27.916  27.902  1.00  0.00     0.023 A 
ATOM     62  C   UNL A   1      49.464  27.511  28.978  1.00  0.00     0.012 A 
ATOM     63  C   UNL A   1      49.186  27.973  26.605  1.00  0.00     0.148 A 
ATOM     64  C   UNL A   1      50.806  27.199  28.771  1.00  0.00     0.002 A 
ATOM     65  C   UNL A   1      50.516  27.624  26.400  1.00  0.00     0.091 A 
ATOM     66  F   UNL A   1      48.402  28.392  25.601  1.00  0.00    -0.205 F 
ATOM     67  C   UNL A   1      51.329  27.247  27.483  1.00  0.00     0.022 A 
BRANCH  65  68
ATOM     68  S   UNL A   1      51.257  27.595  24.765  1.00  0.00     0.127 S 
ATOM     69  O   UNL A   1      50.352  26.700  24.047  1.00  0.00    -0.237 OA
ATOM     70  O   UNL A   1      51.174  29.000  24.361  1.00  0.00    -0.237 OA
ATOM     71  O   UNL A   1      52.614  27.102  24.954  1.00  0.00    -0.744 OA
ENDBRANCH  65  68
ENDBRANCH  47  61
BRANCH  48  72
ATOM     72  C   UNL A   1      39.058  29.515  29.994  1.00  0.00     0.023 A 
ATOM     73  C   UNL A   1      38.610  29.086  31.256  1.00  0.00     0.012 A 
ATOM     74  C   UNL A   1      38.160  30.175  29.130  1.00  0.00     0.148 A 
ATOM     75  C   UNL A   1      37.282  29.283  31.642  1.00  0.00     0.002 A 
ATOM     76  C   UNL A   1      36.853  30.409  29.539  1.00  0.00     0.091 A 
ATOM     77  F   UNL A   1      38.608  30.570  27.931  1.00  0.00    -0.205 F 
ATOM     78  C   UNL A   1      36.408  29.950  30.788  1.00  0.00     0.022 A 
BRANCH  76  79
ATOM     79  S   UNL A   1      35.693  31.366  28.556  1.00  0.00     0.127 S 
ATOM     80  O   UNL A   1      34.618  31.610  29.515  1.00  0.00    -0.237 OA
ATOM     81  O   UNL A   1      36.491  32.542  28.209  1.00  0.00    -0.237 OA
ATOM     82  O   UNL A   1      35.347  30.521  27.420  1.00  0.00    -0.744 OA
ENDBRANCH  76  79
ENDBRANCH  48  72
BRANCH  60  83
ATOM     83  C   UNL A   1      44.688  33.664  29.744  1.00  0.00     0.023 A 
ATOM     84  C   UNL A   1      45.087  34.096  31.024  1.00  0.00     0.012 A 
ATOM     85  C   UNL A   1      44.562  34.606  28.705  1.00  0.00     0.148 A 
ATOM     86  C   UNL A   1      45.329  35.446  31.274  1.00  0.00     0.002 A 
ATOM     87  C   UNL A   1      44.851  35.944  28.948  1.00  0.00     0.091 A 
ATOM     88  F   UNL A   1      44.157  34.181  27.499  1.00  0.00    -0.205 F 
ATOM     89  C   UNL A   1      45.223  36.368  30.234  1.00  0.00     0.022 A 
BRANCH  87  90
ATOM     90  S   UNL A   1      44.835  37.178  27.642  1.00  0.00     0.127 S 
ATOM     91  O   UNL A   1      45.835  36.649  26.716  1.00  0.00    -0.237 OA
ATOM     92  O   UNL A   1      43.456  37.105  27.157  1.00  0.00    -0.237 OA
ATOM     93  O   UNL A   1      45.177  38.440  28.285  1.00  0.00    -0.744 OA
ENDBRANCH  87  90
ENDBRANCH  60  83
ENDBRANCH  34  35
ENDBRANCH  27  29
ENDBRANCH  26  27
ENDBRANCH  25  26
ENDBRANCH  24  25
ENDBRANCH  23  24
ENDBRANCH   1  23
TORSDOF 21
ENDMDL
