MODEL 1
REMARK VINA RESULT:      -7.6      0.000      0.000
REMARK SMILES COc1ccc2c(c1)CC[C@@](C)(CCC(=O)OCCOCCOCCOC(=O)c1ccc(-c3c4nc(c(-c5cccc(S(=O)(=O)[O-])c5F)c5ccc([nH]5)c(-c5cccc(S(=O)(=O)[O-])c5F)c5nc(c(-c6cccc(S(=O)(=O)[O-])c6F)c6ccc3[nH]6)C=C5)C=C4)cc1)C2=O
REMARK SMILES IDX 21 1 20 2 19 3 18 4 17 5 15 6 16 7 14 8 13 9 11 10 3 11 4 12
REMARK SMILES IDX 8 13 5 14 7 15 6 16 9 17 92 18 10 19 93 20 12 21 2 22 1 23
REMARK SMILES IDX 22 24 23 25 24 26 25 27 26 28 27 29 28 30 29 31 30 32 91 33
REMARK SMILES IDX 31 34 90 35 32 36 33 37 34 38 84 39 35 40 89 41 83 42 85 43
REMARK SMILES IDX 36 44 88 45 82 46 81 47 37 49 69 50 49 51 68 52 50 53 53 54
REMARK SMILES IDX 67 55 86 56 51 57 52 58 66 60 87 61 54 62 38 63 39 64 47 65
REMARK SMILES IDX 40 66 42 67 48 68 41 69 43 70 44 71 45 72 46 73 70 74 71 75
REMARK SMILES IDX 79 76 72 77 74 78 80 79 73 80 75 81 76 82 77 83 78 84 55 85
REMARK SMILES IDX 56 86 64 87 57 88 59 89 65 90 58 91 60 92 61 93 62 94 63 95
REMARK H PARENT 85 48 53 59
REMARK Flexibility Score: inf
ROOT
ATOM      1  C   UNL A   1      34.808  32.497  29.224  1.00  0.00     0.188 C 
ENDROOT
BRANCH   1   2
ATOM      2  O   UNL A   1      34.153  31.836  28.152  1.00  0.00    -0.376 OA
BRANCH   2   3
ATOM      3  C   UNL A   1      34.755  30.608  27.745  1.00  0.00     0.202 C 
BRANCH   3   4
ATOM      4  C   UNL A   1      35.872  30.038  28.653  1.00  0.00     0.261 C 
BRANCH   4   5
ATOM      5  O   UNL A   1      37.220  30.278  28.181  1.00  0.00    -0.463 OA
BRANCH   5   6
ATOM      6  C   UNL A   1      38.176  29.416  28.613  1.00  0.00     0.305 C 
ATOM      7  O   UNL A   1      38.157  28.849  29.699  1.00  0.00    -0.252 OA
BRANCH   6   8
ATOM      8  C   UNL A   1      39.305  29.226  27.613  1.00  0.00     0.124 C 
BRANCH   8   9
ATOM      9  C   UNL A   1      40.774  29.201  28.087  1.00  0.00     0.026 C 
BRANCH   9  10
ATOM     10  C   UNL A   1      41.890  28.568  27.195  1.00  0.00     0.032 C 
ATOM     11  C   UNL A   1      44.661  24.416  25.678  1.00  0.00     0.119 A 
ATOM     12  C   UNL A   1      44.809  24.497  27.060  1.00  0.00     0.047 A 
ATOM     13  C   UNL A   1      43.877  25.362  25.000  1.00  0.00     0.050 A 
ATOM     14  C   UNL A   1      44.137  25.488  27.762  1.00  0.00     0.016 A 
ATOM     15  C   UNL A   1      43.180  26.360  25.697  1.00  0.00    -0.033 A 
ATOM     16  C   UNL A   1      43.321  26.405  27.083  1.00  0.00     0.022 A 
ATOM     17  C   UNL A   1      42.357  27.385  24.966  1.00  0.00     0.037 C 
ATOM     18  C   UNL A   1      42.631  27.433  27.881  1.00  0.00     0.169 C 
ATOM     19  C   UNL A   1      41.314  28.053  25.867  1.00  0.00     0.020 C 
ATOM     20  O   UNL A   1      42.772  27.360  29.091  1.00  0.00    -0.294 OA
ATOM     21  C   UNL A   1      42.966  29.662  26.976  1.00  0.00     0.020 C 
BRANCH  11  22
ATOM     22  O   UNL A   1      45.269  23.469  24.898  1.00  0.00    -0.497 OA
ATOM     23  C   UNL A   1      46.283  22.719  25.566  1.00  0.00     0.278 C 
ENDBRANCH  11  22
ENDBRANCH   9  10
ENDBRANCH   8   9
ENDBRANCH   6   8
ENDBRANCH   5   6
ENDBRANCH   4   5
ENDBRANCH   3   4
ENDBRANCH   2   3
ENDBRANCH   1   2
BRANCH   1  24
ATOM     24  C   UNL A   1      34.229  33.844  29.612  1.00  0.00     0.188 C 
BRANCH  24  25
ATOM     25  O   UNL A   1      34.037  34.126  30.996  1.00  0.00    -0.376 OA
BRANCH  25  26
ATOM     26  C   UNL A   1      34.478  33.109  31.884  1.00  0.00     0.202 C 
BRANCH  26  27
ATOM     27  C   UNL A   1      35.116  33.656  33.173  1.00  0.00     0.261 C 
BRANCH  27  28
ATOM     28  O   UNL A   1      35.696  32.620  33.984  1.00  0.00    -0.460 OA
BRANCH  28  29
ATOM     29  C   UNL A   1      36.749  33.006  34.765  1.00  0.00     0.338 C 
ATOM     30  O   UNL A   1      36.687  33.557  35.845  1.00  0.00    -0.246 OA
BRANCH  29  31
ATOM     31  C   UNL A   1      37.996  32.416  34.193  1.00  0.00     0.060 A 
ATOM     32  C   UNL A   1      37.949  31.464  33.172  1.00  0.00     0.016 A 
ATOM     33  C   UNL A   1      39.228  32.738  34.790  1.00  0.00     0.016 A 
ATOM     34  C   UNL A   1      39.131  30.866  32.728  1.00  0.00     0.010 A 
ATOM     35  C   UNL A   1      40.408  32.119  34.363  1.00  0.00     0.010 A 
ATOM     36  C   UNL A   1      40.373  31.209  33.299  1.00  0.00    -0.014 A 
BRANCH  36  37
ATOM     37  C   UNL A   1      41.616  30.868  32.563  1.00  0.00     0.031 A 
ATOM     38  C   UNL A   1      42.355  29.576  32.725  1.00  0.00     0.074 A 
ATOM     39  C   UNL A   1      42.060  31.799  31.696  1.00  0.00     0.049 A 
ATOM     40  N   UNL A   1      43.353  29.122  32.009  1.00  0.00    -0.248 NA
ATOM     41  C   UNL A   1      41.945  28.684  33.818  1.00  0.00     0.031 C 
ATOM     42  C   UNL A   1      41.453  33.122  31.510  1.00  0.00     0.029 A 
ATOM     43  N   UNL A   1      43.098  31.781  30.803  1.00  0.00    -0.354 N 
ATOM     44  C   UNL A   1      43.691  27.890  32.553  1.00  0.00     0.074 A 
ATOM     45  C   UNL A   1      42.804  27.677  33.681  1.00  0.00     0.031 C 
ATOM     46  C   UNL A   1      42.101  33.770  30.533  1.00  0.00     0.029 A 
ATOM     47  C   UNL A   1      43.176  32.920  30.035  1.00  0.00     0.049 A 
ATOM     48  H   UNL A   1      43.727  31.028  30.719  1.00  0.00     0.167 HD
ATOM     49  C   UNL A   1      44.638  27.016  32.131  1.00  0.00     0.034 A 
ATOM     50  C   UNL A   1      44.002  33.243  29.025  1.00  0.00     0.034 A 
ATOM     51  C   UNL A   1      45.506  27.239  31.002  1.00  0.00     0.049 A 
ATOM     52  C   UNL A   1      45.025  32.247  28.569  1.00  0.00     0.074 A 
ATOM     53  C   UNL A   1      46.450  26.379  30.465  1.00  0.00     0.029 A 
ATOM     54  N   UNL A   1      45.552  28.400  30.246  1.00  0.00    -0.354 N 
ATOM     55  N   UNL A   1      45.230  31.029  29.003  1.00  0.00    -0.248 NA
ATOM     56  C   UNL A   1      45.909  32.656  27.469  1.00  0.00     0.031 C 
ATOM     57  C   UNL A   1      47.078  27.025  29.397  1.00  0.00     0.029 A 
ATOM     58  C   UNL A   1      46.513  28.281  29.254  1.00  0.00     0.049 A 
ATOM     59  H   UNL A   1      44.985  29.191  30.392  1.00  0.00     0.167 HD
ATOM     60  C   UNL A   1      46.253  30.515  28.218  1.00  0.00     0.074 A 
ATOM     61  C   UNL A   1      46.617  31.550  27.271  1.00  0.00     0.031 C 
ATOM     62  C   UNL A   1      46.841  29.299  28.290  1.00  0.00     0.034 A 
BRANCH  49  63
ATOM     63  C   UNL A   1      44.753  25.684  32.824  1.00  0.00     0.023 A 
ATOM     64  C   UNL A   1      43.995  24.600  32.337  1.00  0.00     0.012 A 
ATOM     65  C   UNL A   1      45.717  25.460  33.828  1.00  0.00     0.148 A 
ATOM     66  C   UNL A   1      44.190  23.314  32.838  1.00  0.00     0.002 A 
ATOM     67  C   UNL A   1      45.923  24.169  34.307  1.00  0.00     0.091 A 
ATOM     68  F   UNL A   1      46.433  26.503  34.271  1.00  0.00    -0.205 F 
ATOM     69  C   UNL A   1      45.160  23.097  33.814  1.00  0.00     0.022 A 
BRANCH  67  70
ATOM     70  S   UNL A   1      47.182  23.765  35.525  1.00  0.00     0.127 S 
ATOM     71  O   UNL A   1      46.444  22.888  36.433  1.00  0.00    -0.237 OA
ATOM     72  O   UNL A   1      48.191  23.087  34.711  1.00  0.00    -0.237 OA
ATOM     73  O   UNL A   1      47.608  25.031  36.104  1.00  0.00    -0.744 OA
ENDBRANCH  67  70
ENDBRANCH  49  63
BRANCH  50  74
ATOM     74  C   UNL A   1      43.816  34.541  28.327  1.00  0.00     0.023 A 
ATOM     75  C   UNL A   1      43.037  34.585  27.154  1.00  0.00     0.012 A 
ATOM     76  C   UNL A   1      44.333  35.735  28.862  1.00  0.00     0.148 A 
ATOM     77  C   UNL A   1      42.786  35.799  26.519  1.00  0.00     0.002 A 
ATOM     78  C   UNL A   1      44.050  36.946  28.244  1.00  0.00     0.091 A 
ATOM     79  F   UNL A   1      45.062  35.662  29.985  1.00  0.00    -0.205 F 
ATOM     80  C   UNL A   1      43.284  36.980  27.067  1.00  0.00     0.022 A 
BRANCH  78  81
ATOM     81  S   UNL A   1      44.570  38.525  28.921  1.00  0.00     0.127 S 
ATOM     82  O   UNL A   1      44.206  39.443  27.845  1.00  0.00    -0.237 OA
ATOM     83  O   UNL A   1      43.741  38.623  30.122  1.00  0.00    -0.237 OA
ATOM     84  O   UNL A   1      45.998  38.397  29.177  1.00  0.00    -0.744 OA
ENDBRANCH  78  81
ENDBRANCH  50  74
BRANCH  62  85
ATOM     85  C   UNL A   1      47.947  28.990  27.318  1.00  0.00     0.023 A 
ATOM     86  C   UNL A   1      49.284  29.214  27.700  1.00  0.00     0.012 A 
ATOM     87  C   UNL A   1      47.670  28.357  26.091  1.00  0.00     0.148 A 
ATOM     88  C   UNL A   1      50.331  28.813  26.872  1.00  0.00     0.002 A 
ATOM     89  C   UNL A   1      48.718  27.930  25.286  1.00  0.00     0.091 A 
ATOM     90  F   UNL A   1      46.387  28.164  25.750  1.00  0.00    -0.205 F 
ATOM     91  C   UNL A   1      50.049  28.161  25.673  1.00  0.00     0.022 A 
BRANCH  89  92
ATOM     92  S   UNL A   1      48.462  27.023  23.757  1.00  0.00     0.127 S 
ATOM     93  O   UNL A   1      47.506  25.998  24.177  1.00  0.00    -0.237 OA
ATOM     94  O   UNL A   1      47.906  28.051  22.879  1.00  0.00    -0.237 OA
ATOM     95  O   UNL A   1      49.769  26.517  23.360  1.00  0.00    -0.744 OA
ENDBRANCH  89  92
ENDBRANCH  62  85
ENDBRANCH  36  37
ENDBRANCH  29  31
ENDBRANCH  28  29
ENDBRANCH  27  28
ENDBRANCH  26  27
ENDBRANCH  25  26
ENDBRANCH  24  25
ENDBRANCH   1  24
TORSDOF 23
ENDMDL
MODEL 2
REMARK VINA RESULT:      -7.1      1.902      7.663
REMARK SMILES COc1ccc2c(c1)CC[C@@](C)(CCC(=O)OCCOCCOCCOC(=O)c1ccc(-c3c4nc(c(-c5cccc(S(=O)(=O)[O-])c5F)c5ccc([nH]5)c(-c5cccc(S(=O)(=O)[O-])c5F)c5nc(c(-c6cccc(S(=O)(=O)[O-])c6F)c6ccc3[nH]6)C=C5)C=C4)cc1)C2=O
REMARK SMILES IDX 21 1 20 2 19 3 18 4 17 5 15 6 16 7 14 8 13 9 11 10 3 11 4 12
REMARK SMILES IDX 8 13 5 14 7 15 6 16 9 17 92 18 10 19 93 20 12 21 2 22 1 23
REMARK SMILES IDX 22 24 23 25 24 26 25 27 26 28 27 29 28 30 29 31 30 32 91 33
REMARK SMILES IDX 31 34 90 35 32 36 33 37 34 38 84 39 35 40 89 41 83 42 85 43
REMARK SMILES IDX 36 44 88 45 82 46 81 47 37 49 69 50 49 51 68 52 50 53 53 54
REMARK SMILES IDX 67 55 86 56 51 57 52 58 66 60 87 61 54 62 38 63 39 64 47 65
REMARK SMILES IDX 40 66 42 67 48 68 41 69 43 70 44 71 45 72 46 73 70 74 71 75
REMARK SMILES IDX 79 76 72 77 74 78 80 79 73 80 75 81 76 82 77 83 78 84 55 85
REMARK SMILES IDX 56 86 64 87 57 88 59 89 65 90 58 91 60 92 61 93 62 94 63 95
REMARK H PARENT 85 48 53 59
REMARK Flexibility Score: inf
ROOT
ATOM      1  C   UNL A   1      34.876  33.310  31.663  1.00  0.00     0.188 C 
ENDROOT
BRANCH   1   2
ATOM      2  O   UNL A   1      35.165  31.995  31.211  1.00  0.00    -0.376 OA
BRANCH   2   3
ATOM      3  C   UNL A   1      36.521  31.585  31.385  1.00  0.00     0.202 C 
BRANCH   3   4
ATOM      4  C   UNL A   1      36.788  30.064  31.492  1.00  0.00     0.261 C 
BRANCH   4   5
ATOM      5  O   UNL A   1      37.066  29.406  30.232  1.00  0.00    -0.463 OA
BRANCH   5   6
ATOM      6  C   UNL A   1      38.173  29.819  29.564  1.00  0.00     0.305 C 
ATOM      7  O   UNL A   1      38.182  30.712  28.724  1.00  0.00    -0.252 OA
BRANCH   6   8
ATOM      8  C   UNL A   1      39.425  29.046  29.945  1.00  0.00     0.124 C 
BRANCH   8   9
ATOM      9  C   UNL A   1      39.463  27.508  29.824  1.00  0.00     0.026 C 
BRANCH   9  10
ATOM     10  C   UNL A   1      40.036  26.821  28.543  1.00  0.00     0.032 C 
ATOM     11  C   UNL A   1      43.340  23.464  26.300  1.00  0.00     0.119 A 
ATOM     12  C   UNL A   1      44.123  24.329  27.059  1.00  0.00     0.047 A 
ATOM     13  C   UNL A   1      41.946  23.624  26.269  1.00  0.00     0.050 A 
ATOM     14  C   UNL A   1      43.510  25.314  27.821  1.00  0.00     0.016 A 
ATOM     15  C   UNL A   1      41.311  24.605  27.044  1.00  0.00    -0.033 A 
ATOM     16  C   UNL A   1      42.113  25.442  27.818  1.00  0.00     0.022 A 
ATOM     17  C   UNL A   1      39.819  24.787  26.993  1.00  0.00     0.037 C 
ATOM     18  C   UNL A   1      41.519  26.504  28.647  1.00  0.00     0.169 C 
ATOM     19  C   UNL A   1      39.275  25.527  28.219  1.00  0.00     0.020 C 
ATOM     20  O   UNL A   1      42.295  27.151  29.331  1.00  0.00    -0.294 OA
ATOM     21  C   UNL A   1      39.937  27.856  27.394  1.00  0.00     0.020 C 
BRANCH  11  22
ATOM     22  O   UNL A   1      43.847  22.453  25.528  1.00  0.00    -0.497 OA
ATOM     23  C   UNL A   1      44.311  22.869  24.244  1.00  0.00     0.278 C 
ENDBRANCH  11  22
ENDBRANCH   9  10
ENDBRANCH   8   9
ENDBRANCH   6   8
ENDBRANCH   5   6
ENDBRANCH   4   5
ENDBRANCH   3   4
ENDBRANCH   2   3
ENDBRANCH   1   2
BRANCH   1  24
ATOM     24  C   UNL A   1      34.027  33.396  32.917  1.00  0.00     0.188 C 
BRANCH  24  25
ATOM     25  O   UNL A   1      34.488  34.211  33.993  1.00  0.00    -0.376 OA
BRANCH  25  26
ATOM     26  C   UNL A   1      35.869  34.538  33.951  1.00  0.00     0.202 C 
BRANCH  26  27
ATOM     27  C   UNL A   1      36.722  33.722  34.937  1.00  0.00     0.261 C 
BRANCH  27  28
ATOM     28  O   UNL A   1      38.103  34.127  34.939  1.00  0.00    -0.460 OA
BRANCH  28  29
ATOM     29  C   UNL A   1      38.935  33.371  35.715  1.00  0.00     0.338 C 
ATOM     30  O   UNL A   1      38.863  33.214  36.917  1.00  0.00    -0.246 OA
BRANCH  29  31
ATOM     31  C   UNL A   1      39.807  32.561  34.813  1.00  0.00     0.060 A 
ATOM     32  C   UNL A   1      39.266  31.651  33.901  1.00  0.00     0.016 A 
ATOM     33  C   UNL A   1      41.201  32.629  34.985  1.00  0.00     0.016 A 
ATOM     34  C   UNL A   1      40.115  30.843  33.142  1.00  0.00     0.010 A 
ATOM     35  C   UNL A   1      42.050  31.801  34.243  1.00  0.00     0.010 A 
ATOM     36  C   UNL A   1      41.515  30.932  33.285  1.00  0.00    -0.014 A 
BRANCH  36  37
ATOM     37  C   UNL A   1      42.378  30.368  32.217  1.00  0.00     0.031 A 
ATOM     38  C   UNL A   1      42.821  31.134  31.009  1.00  0.00     0.074 A 
ATOM     39  C   UNL A   1      42.775  29.092  32.393  1.00  0.00     0.049 A 
ATOM     40  N   UNL A   1      43.703  30.782  30.109  1.00  0.00    -0.248 NA
ATOM     41  C   UNL A   1      42.204  32.446  30.765  1.00  0.00     0.031 C 
ATOM     42  C   UNL A   1      42.346  28.232  33.501  1.00  0.00     0.029 A 
ATOM     43  N   UNL A   1      43.631  28.303  31.672  1.00  0.00    -0.354 N 
ATOM     44  C   UNL A   1      43.760  31.824  29.192  1.00  0.00     0.074 A 
ATOM     45  C   UNL A   1      42.799  32.817  29.633  1.00  0.00     0.031 C 
ATOM     46  C   UNL A   1      42.973  27.052  33.410  1.00  0.00     0.029 A 
ATOM     47  C   UNL A   1      43.834  27.065  32.233  1.00  0.00     0.049 A 
ATOM     48  H   UNL A   1      44.058  28.594  30.834  1.00  0.00     0.167 HD
ATOM     49  C   UNL A   1      44.558  31.943  28.103  1.00  0.00     0.034 A 
ATOM     50  C   UNL A   1      44.639  26.053  31.863  1.00  0.00     0.034 A 
ATOM     51  C   UNL A   1      45.515  30.949  27.682  1.00  0.00     0.049 A 
ATOM     52  C   UNL A   1      45.523  26.223  30.665  1.00  0.00     0.074 A 
ATOM     53  C   UNL A   1      46.410  31.017  26.626  1.00  0.00     0.029 A 
ATOM     54  N   UNL A   1      45.696  29.711  28.278  1.00  0.00    -0.354 N 
ATOM     55  N   UNL A   1      45.667  27.275  29.898  1.00  0.00    -0.248 NA
ATOM     56  C   UNL A   1      46.374  25.084  30.297  1.00  0.00     0.031 C 
ATOM     57  C   UNL A   1      47.119  29.813  26.574  1.00  0.00     0.029 A 
ATOM     58  C   UNL A   1      46.681  29.004  27.608  1.00  0.00     0.049 A 
ATOM     59  H   UNL A   1      45.199  29.384  29.062  1.00  0.00     0.167 HD
ATOM     60  C   UNL A   1      46.638  26.934  28.967  1.00  0.00     0.074 A 
ATOM     61  C   UNL A   1      47.060  25.582  29.276  1.00  0.00     0.031 C 
ATOM     62  C   UNL A   1      47.124  27.675  27.945  1.00  0.00     0.034 A 
BRANCH  49  63
ATOM     63  C   UNL A   1      44.514  33.222  27.310  1.00  0.00     0.023 A 
ATOM     64  C   UNL A   1      43.789  33.245  26.102  1.00  0.00     0.012 A 
ATOM     65  C   UNL A   1      45.035  34.426  27.828  1.00  0.00     0.148 A 
ATOM     66  C   UNL A   1      43.582  34.443  25.419  1.00  0.00     0.002 A 
ATOM     67  C   UNL A   1      44.804  35.621  27.154  1.00  0.00     0.091 A 
ATOM     68  F   UNL A   1      45.714  34.382  28.983  1.00  0.00    -0.205 F 
ATOM     69  C   UNL A   1      44.080  35.630  25.950  1.00  0.00     0.022 A 
BRANCH  67  70
ATOM     70  S   UNL A   1      45.353  37.217  27.773  1.00  0.00     0.127 S 
ATOM     71  O   UNL A   1      46.616  36.864  28.421  1.00  0.00    -0.237 OA
ATOM     72  O   UNL A   1      45.497  37.992  26.540  1.00  0.00    -0.237 OA
ATOM     73  O   UNL A   1      44.309  37.684  28.675  1.00  0.00    -0.744 OA
ENDBRANCH  67  70
ENDBRANCH  49  63
BRANCH  50  74
ATOM     74  C   UNL A   1      44.699  24.832  32.707  1.00  0.00     0.023 A 
ATOM     75  C   UNL A   1      43.850  23.749  32.409  1.00  0.00     0.012 A 
ATOM     76  C   UNL A   1      45.644  24.709  33.742  1.00  0.00     0.148 A 
ATOM     77  C   UNL A   1      43.934  22.565  33.138  1.00  0.00     0.002 A 
ATOM     78  C   UNL A   1      45.747  23.514  34.442  1.00  0.00     0.091 A 
ATOM     79  F   UNL A   1      46.445  25.754  33.995  1.00  0.00    -0.205 F 
ATOM     80  C   UNL A   1      44.886  22.443  34.147  1.00  0.00     0.022 A 
BRANCH  78  81
ATOM     81  S   UNL A   1      46.998  23.230  35.697  1.00  0.00     0.127 S 
ATOM     82  O   UNL A   1      46.759  24.343  36.612  1.00  0.00    -0.237 OA
ATOM     83  O   UNL A   1      46.614  21.915  36.209  1.00  0.00    -0.237 OA
ATOM     84  O   UNL A   1      48.276  23.259  34.998  1.00  0.00    -0.744 OA
ENDBRANCH  78  81
ENDBRANCH  50  74
BRANCH  62  85
ATOM     85  C   UNL A   1      48.179  27.062  27.066  1.00  0.00     0.023 A 
ATOM     86  C   UNL A   1      47.795  26.410  25.878  1.00  0.00     0.012 A 
ATOM     87  C   UNL A   1      49.547  27.249  27.347  1.00  0.00     0.148 A 
ATOM     88  C   UNL A   1      48.758  25.951  24.982  1.00  0.00     0.002 A 
ATOM     89  C   UNL A   1      50.501  26.818  26.433  1.00  0.00     0.091 A 
ATOM     90  F   UNL A   1      49.883  27.866  28.489  1.00  0.00    -0.205 F 
ATOM     91  C   UNL A   1      50.108  26.167  25.252  1.00  0.00     0.022 A 
BRANCH  89  92
ATOM     92  S   UNL A   1      52.259  27.107  26.657  1.00  0.00     0.127 S 
ATOM     93  O   UNL A   1      52.838  26.189  25.675  1.00  0.00    -0.237 OA
ATOM     94  O   UNL A   1      52.384  28.523  26.314  1.00  0.00    -0.237 OA
ATOM     95  O   UNL A   1      52.552  26.784  28.046  1.00  0.00    -0.744 OA
ENDBRANCH  89  92
ENDBRANCH  62  85
ENDBRANCH  36  37
ENDBRANCH  29  31
ENDBRANCH  28  29
ENDBRANCH  27  28
ENDBRANCH  26  27
ENDBRANCH  25  26
ENDBRANCH  24  25
ENDBRANCH   1  24
TORSDOF 23
ENDMDL
MODEL 3
REMARK VINA RESULT:      -7.0      4.634      8.280
REMARK SMILES COc1ccc2c(c1)CC[C@@](C)(CCC(=O)OCCOCCOCCOC(=O)c1ccc(-c3c4nc(c(-c5cccc(S(=O)(=O)[O-])c5F)c5ccc([nH]5)c(-c5cccc(S(=O)(=O)[O-])c5F)c5nc(c(-c6cccc(S(=O)(=O)[O-])c6F)c6ccc3[nH]6)C=C5)C=C4)cc1)C2=O
REMARK SMILES IDX 21 1 20 2 19 3 18 4 17 5 15 6 16 7 14 8 13 9 11 10 3 11 4 12
REMARK SMILES IDX 8 13 5 14 7 15 6 16 9 17 92 18 10 19 93 20 12 21 2 22 1 23
REMARK SMILES IDX 22 24 23 25 24 26 25 27 26 28 27 29 28 30 29 31 30 32 91 33
REMARK SMILES IDX 31 34 90 35 32 36 33 37 34 38 84 39 35 40 89 41 83 42 85 43
REMARK SMILES IDX 36 44 88 45 82 46 81 47 37 49 69 50 49 51 68 52 50 53 53 54
REMARK SMILES IDX 67 55 86 56 51 57 52 58 66 60 87 61 54 62 38 63 39 64 47 65
REMARK SMILES IDX 40 66 42 67 48 68 41 69 43 70 44 71 45 72 46 73 70 74 71 75
REMARK SMILES IDX 79 76 72 77 74 78 80 79 73 80 75 81 76 82 77 83 78 84 55 85
REMARK SMILES IDX 56 86 64 87 57 88 59 89 65 90 58 91 60 92 61 93 62 94 63 95
REMARK H PARENT 85 48 53 59
REMARK Flexibility Score: inf
ROOT
ATOM      1  C   UNL A   1      35.957  30.635  27.974  1.00  0.00     0.188 C 
ENDROOT
BRANCH   1   2
ATOM      2  O   UNL A   1      34.800  30.767  27.162  1.00  0.00    -0.376 OA
BRANCH   2   3
ATOM      3  C   UNL A   1      33.849  29.710  27.297  1.00  0.00     0.202 C 
BRANCH   3   4
ATOM      4  C   UNL A   1      32.665  29.697  26.301  1.00  0.00     0.261 C 
BRANCH   4   5
ATOM      5  O   UNL A   1      32.463  28.439  25.613  1.00  0.00    -0.463 OA
BRANCH   5   6
ATOM      6  C   UNL A   1      33.114  28.282  24.432  1.00  0.00     0.305 C 
ATOM      7  O   UNL A   1      34.166  28.839  24.143  1.00  0.00    -0.252 OA
BRANCH   6   8
ATOM      8  C   UNL A   1      32.396  27.346  23.473  1.00  0.00     0.124 C 
BRANCH   8   9
ATOM      9  C   UNL A   1      31.656  26.100  24.002  1.00  0.00     0.026 C 
BRANCH   9  10
ATOM     10  C   UNL A   1      32.450  24.838  24.471  1.00  0.00     0.032 C 
ATOM     11  C   UNL A   1      36.939  22.215  24.896  1.00  0.00     0.119 A 
ATOM     12  C   UNL A   1      36.783  22.499  23.542  1.00  0.00     0.047 A 
ATOM     13  C   UNL A   1      35.968  22.635  25.818  1.00  0.00     0.050 A 
ATOM     14  C   UNL A   1      35.689  23.243  23.123  1.00  0.00     0.016 A 
ATOM     15  C   UNL A   1      34.864  23.399  25.411  1.00  0.00    -0.033 A 
ATOM     16  C   UNL A   1      34.743  23.696  24.055  1.00  0.00     0.022 A 
ATOM     17  C   UNL A   1      33.815  23.831  26.397  1.00  0.00     0.037 C 
ATOM     18  C   UNL A   1      33.605  24.482  23.550  1.00  0.00     0.169 C 
ATOM     19  C   UNL A   1      32.992  25.022  25.897  1.00  0.00     0.020 C 
ATOM     20  O   UNL A   1      33.612  24.738  22.357  1.00  0.00    -0.294 OA
ATOM     21  C   UNL A   1      31.482  23.633  24.369  1.00  0.00     0.020 C 
BRANCH  11  22
ATOM     22  O   UNL A   1      37.988  21.502  25.412  1.00  0.00    -0.497 OA
ATOM     23  C   UNL A   1      38.891  22.273  26.204  1.00  0.00     0.278 C 
ENDBRANCH  11  22
ENDBRANCH   9  10
ENDBRANCH   8   9
ENDBRANCH   6   8
ENDBRANCH   5   6
ENDBRANCH   4   5
ENDBRANCH   3   4
ENDBRANCH   2   3
ENDBRANCH   1   2
BRANCH   1  24
ATOM     24  C   UNL A   1      35.783  31.027  29.428  1.00  0.00     0.188 C 
BRANCH  24  25
ATOM     25  O   UNL A   1      35.647  32.411  29.746  1.00  0.00    -0.376 OA
BRANCH  25  26
ATOM     26  C   UNL A   1      34.779  32.696  30.833  1.00  0.00     0.202 C 
BRANCH  26  27
ATOM     27  C   UNL A   1      35.327  32.231  32.193  1.00  0.00     0.261 C 
BRANCH  27  28
ATOM     28  O   UNL A   1      36.694  32.627  32.402  1.00  0.00    -0.460 OA
BRANCH  28  29
ATOM     29  C   UNL A   1      37.257  32.199  33.570  1.00  0.00     0.338 C 
ATOM     30  O   UNL A   1      36.777  32.287  34.683  1.00  0.00    -0.246 OA
BRANCH  29  31
ATOM     31  C   UNL A   1      38.456  31.374  33.236  1.00  0.00     0.060 A 
ATOM     32  C   UNL A   1      39.532  31.910  32.525  1.00  0.00     0.016 A 
ATOM     33  C   UNL A   1      38.433  30.000  33.536  1.00  0.00     0.016 A 
ATOM     34  C   UNL A   1      40.594  31.083  32.149  1.00  0.00     0.010 A 
ATOM     35  C   UNL A   1      39.484  29.168  33.136  1.00  0.00     0.010 A 
ATOM     36  C   UNL A   1      40.592  29.712  32.476  1.00  0.00    -0.014 A 
BRANCH  36  37
ATOM     37  C   UNL A   1      41.873  28.963  32.418  1.00  0.00     0.031 A 
ATOM     38  C   UNL A   1      42.357  28.230  31.206  1.00  0.00     0.074 A 
ATOM     39  C   UNL A   1      42.619  28.985  33.540  1.00  0.00     0.049 A 
ATOM     40  N   UNL A   1      43.532  27.686  31.008  1.00  0.00    -0.248 NA
ATOM     41  C   UNL A   1      41.424  28.070  30.082  1.00  0.00     0.031 C 
ATOM     42  C   UNL A   1      42.208  29.614  34.800  1.00  0.00     0.029 A 
ATOM     43  N   UNL A   1      43.868  28.492  33.806  1.00  0.00    -0.354 N 
ATOM     44  C   UNL A   1      43.490  27.125  29.738  1.00  0.00     0.074 A 
ATOM     45  C   UNL A   1      42.159  27.373  29.218  1.00  0.00     0.031 C 
ATOM     46  C   UNL A   1      43.205  29.508  35.690  1.00  0.00     0.029 A 
ATOM     47  C   UNL A   1      44.314  28.792  35.071  1.00  0.00     0.049 A 
ATOM     48  H   UNL A   1      44.395  27.975  33.155  1.00  0.00     0.167 HD
ATOM     49  C   UNL A   1      44.481  26.487  29.068  1.00  0.00     0.034 A 
ATOM     50  C   UNL A   1      45.493  28.543  35.669  1.00  0.00     0.034 A 
ATOM     51  C   UNL A   1      45.803  26.256  29.595  1.00  0.00     0.049 A 
ATOM     52  C   UNL A   1      46.575  27.853  34.896  1.00  0.00     0.074 A 
ATOM     53  C   UNL A   1      46.888  25.674  28.960  1.00  0.00     0.029 A 
ATOM     54  N   UNL A   1      46.220  26.578  30.878  1.00  0.00    -0.354 N 
ATOM     55  N   UNL A   1      46.563  27.461  33.646  1.00  0.00    -0.248 NA
ATOM     56  C   UNL A   1      47.838  27.595  35.600  1.00  0.00     0.031 C 
ATOM     57  C   UNL A   1      47.954  25.628  29.863  1.00  0.00     0.029 A 
ATOM     58  C   UNL A   1      47.541  26.200  31.055  1.00  0.00     0.049 A 
ATOM     59  H   UNL A   1      45.659  27.012  31.561  1.00  0.00     0.167 HD
ATOM     60  C   UNL A   1      47.822  26.928  33.405  1.00  0.00     0.074 A 
ATOM     61  C   UNL A   1      48.577  27.060  34.635  1.00  0.00     0.031 C 
ATOM     62  C   UNL A   1      48.298  26.371  32.268  1.00  0.00     0.034 A 
BRANCH  49  63
ATOM     63  C   UNL A   1      44.231  26.052  27.648  1.00  0.00     0.023 A 
ATOM     64  C   UNL A   1      44.505  26.958  26.604  1.00  0.00     0.012 A 
ATOM     65  C   UNL A   1      43.894  24.719  27.337  1.00  0.00     0.148 A 
ATOM     66  C   UNL A   1      44.446  26.548  25.273  1.00  0.00     0.002 A 
ATOM     67  C   UNL A   1      43.861  24.310  26.007  1.00  0.00     0.091 A 
ATOM     68  F   UNL A   1      43.646  23.871  28.346  1.00  0.00    -0.205 F 
ATOM     69  C   UNL A   1      44.135  25.224  24.976  1.00  0.00     0.022 A 
BRANCH  67  70
ATOM     70  S   UNL A   1      43.524  22.616  25.510  1.00  0.00     0.127 S 
ATOM     71  O   UNL A   1      43.560  22.723  24.051  1.00  0.00    -0.237 OA
ATOM     72  O   UNL A   1      44.654  21.894  26.094  1.00  0.00    -0.237 OA
ATOM     73  O   UNL A   1      42.223  22.280  26.070  1.00  0.00    -0.744 OA
ENDBRANCH  67  70
ENDBRANCH  49  63
BRANCH  50  74
ATOM     74  C   UNL A   1      45.722  29.043  37.050  1.00  0.00     0.023 A 
ATOM     75  C   UNL A   1      45.926  30.421  37.255  1.00  0.00     0.012 A 
ATOM     76  C   UNL A   1      45.657  28.177  38.157  1.00  0.00     0.148 A 
ATOM     77  C   UNL A   1      46.071  30.927  38.545  1.00  0.00     0.002 A 
ATOM     78  C   UNL A   1      45.768  28.692  39.441  1.00  0.00     0.091 A 
ATOM     79  F   UNL A   1      45.452  26.872  37.928  1.00  0.00    -0.205 F 
ATOM     80  C   UNL A   1      45.985  30.067  39.638  1.00  0.00     0.022 A 
BRANCH  78  81
ATOM     81  S   UNL A   1      45.581  27.681  40.912  1.00  0.00     0.127 S 
ATOM     82  O   UNL A   1      44.282  27.056  40.679  1.00  0.00    -0.237 OA
ATOM     83  O   UNL A   1      46.728  26.780  40.803  1.00  0.00    -0.237 OA
ATOM     84  O   UNL A   1      45.638  28.602  42.038  1.00  0.00    -0.744 OA
ENDBRANCH  78  81
ENDBRANCH  50  74
BRANCH  62  85
ATOM     85  C   UNL A   1      49.710  25.854  32.271  1.00  0.00     0.023 A 
ATOM     86  C   UNL A   1      50.761  26.713  31.894  1.00  0.00     0.012 A 
ATOM     87  C   UNL A   1      50.005  24.571  32.773  1.00  0.00     0.148 A 
ATOM     88  C   UNL A   1      52.087  26.301  32.016  1.00  0.00     0.002 A 
ATOM     89  C   UNL A   1      51.330  24.180  32.923  1.00  0.00     0.091 A 
ATOM     90  F   UNL A   1      48.984  23.772  33.116  1.00  0.00    -0.205 F 
ATOM     91  C   UNL A   1      52.371  25.042  32.542  1.00  0.00     0.022 A 
BRANCH  89  92
ATOM     92  S   UNL A   1      51.801  22.607  33.651  1.00  0.00     0.127 S 
ATOM     93  O   UNL A   1      53.239  22.790  33.848  1.00  0.00    -0.237 OA
ATOM     94  O   UNL A   1      51.015  22.590  34.883  1.00  0.00    -0.237 OA
ATOM     95  O   UNL A   1      51.440  21.584  32.679  1.00  0.00    -0.744 OA
ENDBRANCH  89  92
ENDBRANCH  62  85
ENDBRANCH  36  37
ENDBRANCH  29  31
ENDBRANCH  28  29
ENDBRANCH  27  28
ENDBRANCH  26  27
ENDBRANCH  25  26
ENDBRANCH  24  25
ENDBRANCH   1  24
TORSDOF 23
ENDMDL
