MODEL 1
REMARK VINA RESULT:      -7.7      0.000      0.000
REMARK SMILES CCCCCCNC(=O)Oc1cccc(-c2ccc([C@@H](C)C(=O)OCCOCCOCCOC(=O)c3ccc(-c4c5nc(c(-c6cccc(S(=O)(=O)[O-])c6F)c6ccc([nH]6)c(-c6cccc(S(=O)(=O)[O-])c6F)c6nc(c(-c7cccc(S(=O)(=O)[O-])c7F)c7ccc4[nH]7)C=C6)C=C5)cc3)cc2)c1
REMARK SMILES IDX 25 1 24 2 22 3 23 4 20 5 21 6 19 7 16 8 17 9 100 10 18 11
REMARK SMILES IDX 99 12 15 13 11 14 12 15 101 16 13 17 14 18 10 19 8 20 7 21
REMARK SMILES IDX 9 23 6 24 5 25 4 26 3 27 2 28 1 29 26 30 27 31 28 32 29 33
REMARK SMILES IDX 30 34 31 35 32 36 33 37 34 38 35 39 36 40 37 41 98 42 38 43
REMARK SMILES IDX 97 44 39 45 40 46 41 47 91 48 42 49 96 50 90 51 92 52 43 53
REMARK SMILES IDX 95 54 89 55 88 56 44 58 76 59 56 60 75 61 57 62 60 63 74 64
REMARK SMILES IDX 93 65 58 66 59 67 73 69 94 70 61 71 45 72 46 73 54 74 47 75
REMARK SMILES IDX 49 76 55 77 48 78 50 79 51 80 52 81 53 82 77 83 78 84 86 85
REMARK SMILES IDX 79 86 81 87 87 88 80 89 82 90 83 91 84 92 85 93 62 94 63 95
REMARK SMILES IDX 71 96 64 97 66 98 72 99 65 100 67 101 68 102 69 103 70 104
REMARK H PARENT 7 22 92 57 60 68
REMARK Flexibility Score: inf
ROOT
ATOM      1  C   UNL A   1      40.780  21.930  26.973  1.00  0.00     0.261 C 
ENDROOT
BRANCH   1   2
ATOM      2  O   UNL A   1      39.924  23.050  27.298  1.00  0.00    -0.463 OA
BRANCH   2   3
ATOM      3  C   UNL A   1      40.548  24.214  27.607  1.00  0.00     0.313 C 
ATOM      4  O   UNL A   1      41.569  24.265  28.292  1.00  0.00    -0.252 OA
BRANCH   3   5
ATOM      5  C   UNL A   1      39.927  25.496  27.041  1.00  0.00     0.126 C 
ATOM      6  C   UNL A   1      40.744  25.923  25.821  1.00  0.00     0.025 C 
BRANCH   5   7
ATOM      7  C   UNL A   1      39.642  26.710  27.927  1.00  0.00    -0.034 A 
ATOM      8  C   UNL A   1      39.076  28.904  29.683  1.00  0.00    -0.018 A 
ATOM      9  C   UNL A   1      39.579  29.107  28.386  1.00  0.00     0.009 A 
ATOM     10  C   UNL A   1      38.847  27.582  30.083  1.00  0.00     0.009 A 
ATOM     11  C   UNL A   1      39.848  28.032  27.516  1.00  0.00     0.005 A 
ATOM     12  C   UNL A   1      39.116  26.507  29.221  1.00  0.00     0.005 A 
BRANCH   8  13
ATOM     13  C   UNL A   1      38.750  30.042  30.569  1.00  0.00    -0.015 A 
ATOM     14  C   UNL A   1      37.191  31.363  31.891  1.00  0.00     0.133 A 
ATOM     15  C   UNL A   1      38.192  32.276  32.216  1.00  0.00     0.047 A 
ATOM     16  C   UNL A   1      37.451  30.260  31.067  1.00  0.00     0.056 A 
ATOM     17  C   UNL A   1      39.479  32.073  31.733  1.00  0.00     0.004 A 
ATOM     18  C   UNL A   1      39.753  30.969  30.919  1.00  0.00     0.009 A 
BRANCH  14  19
ATOM     19  O   UNL A   1      35.889  31.676  32.323  1.00  0.00    -0.410 OA
BRANCH  19  20
ATOM     20  C   UNL A   1      35.042  32.283  31.411  1.00  0.00     0.412 C 
ATOM     21  N   UNL A   1      34.248  33.252  31.964  1.00  0.00    -0.321 N 
ATOM     22  H   UNL A   1      33.717  33.793  31.336  1.00  0.00     0.167 HD
ATOM     23  O   UNL A   1      34.939  31.992  30.220  1.00  0.00    -0.224 OA
BRANCH  21  24
ATOM     24  C   UNL A   1      34.102  33.570  33.372  1.00  0.00     0.119 C 
BRANCH  24  25
ATOM     25  C   UNL A   1      34.925  34.784  33.801  1.00  0.00     0.021 C 
BRANCH  25  26
ATOM     26  C   UNL A   1      34.144  36.099  33.912  1.00  0.00     0.002 C 
BRANCH  26  27
ATOM     27  C   UNL A   1      34.098  36.960  32.644  1.00  0.00    -0.000 C 
BRANCH  27  28
ATOM     28  C   UNL A   1      32.839  36.811  31.785  1.00  0.00    -0.003 C 
ATOM     29  C   UNL A   1      33.125  36.348  30.365  1.00  0.00     0.004 C 
ENDBRANCH  27  28
ENDBRANCH  26  27
ENDBRANCH  25  26
ENDBRANCH  24  25
ENDBRANCH  21  24
ENDBRANCH  19  20
ENDBRANCH  14  19
ENDBRANCH   8  13
ENDBRANCH   5   7
ENDBRANCH   3   5
ENDBRANCH   2   3
ENDBRANCH   1   2
BRANCH   1  30
ATOM     30  C   UNL A   1      41.880  22.225  25.943  1.00  0.00     0.202 C 
BRANCH  30  31
ATOM     31  O   UNL A   1      43.233  22.057  26.345  1.00  0.00    -0.376 OA
BRANCH  31  32
ATOM     32  C   UNL A   1      44.179  21.543  25.414  1.00  0.00     0.188 C 
BRANCH  32  33
ATOM     33  C   UNL A   1      45.446  22.358  25.116  1.00  0.00     0.188 C 
BRANCH  33  34
ATOM     34  O   UNL A   1      45.597  23.515  25.915  1.00  0.00    -0.376 OA
BRANCH  34  35
ATOM     35  C   UNL A   1      45.579  24.753  25.228  1.00  0.00     0.202 C 
BRANCH  35  36
ATOM     36  C   UNL A   1      44.295  25.568  25.433  1.00  0.00     0.261 C 
BRANCH  36  37
ATOM     37  O   UNL A   1      44.039  26.001  26.782  1.00  0.00    -0.460 OA
BRANCH  37  38
ATOM     38  C   UNL A   1      43.894  27.327  26.992  1.00  0.00     0.338 C 
ATOM     39  O   UNL A   1      43.595  28.179  26.162  1.00  0.00    -0.246 OA
BRANCH  38  40
ATOM     40  C   UNL A   1      43.944  27.571  28.448  1.00  0.00     0.060 A 
ATOM     41  C   UNL A   1      45.107  28.118  29.012  1.00  0.00     0.016 A 
ATOM     42  C   UNL A   1      42.844  27.271  29.253  1.00  0.00     0.016 A 
ATOM     43  C   UNL A   1      45.182  28.339  30.390  1.00  0.00     0.010 A 
ATOM     44  C   UNL A   1      42.928  27.476  30.633  1.00  0.00     0.010 A 
ATOM     45  C   UNL A   1      44.105  27.982  31.213  1.00  0.00    -0.014 A 
BRANCH  45  46
ATOM     46  C   UNL A   1      44.252  27.974  32.689  1.00  0.00     0.031 A 
ATOM     47  C   UNL A   1      43.985  29.247  33.445  1.00  0.00     0.074 A 
ATOM     48  C   UNL A   1      44.659  26.874  33.349  1.00  0.00     0.049 A 
ATOM     49  N   UNL A   1      44.142  29.510  34.715  1.00  0.00    -0.248 NA
ATOM     50  C   UNL A   1      43.478  30.381  32.653  1.00  0.00     0.031 C 
ATOM     51  C   UNL A   1      44.941  25.577  32.739  1.00  0.00     0.029 A 
ATOM     52  N   UNL A   1      44.943  26.692  34.680  1.00  0.00    -0.354 N 
ATOM     53  C   UNL A   1      43.796  30.846  34.871  1.00  0.00     0.074 A 
ATOM     54  C   UNL A   1      43.422  31.341  33.564  1.00  0.00     0.031 C 
ATOM     55  C   UNL A   1      45.389  24.739  33.689  1.00  0.00     0.029 A 
ATOM     56  C   UNL A   1      45.461  25.450  34.965  1.00  0.00     0.049 A 
ATOM     57  H   UNL A   1      44.790  27.383  35.365  1.00  0.00     0.167 HD
ATOM     58  C   UNL A   1      43.781  31.594  36.000  1.00  0.00     0.034 A 
ATOM     59  C   UNL A   1      45.965  24.956  36.115  1.00  0.00     0.034 A 
ATOM     60  C   UNL A   1      44.146  31.100  37.300  1.00  0.00     0.049 A 
ATOM     61  C   UNL A   1      45.979  25.821  37.350  1.00  0.00     0.074 A 
ATOM     62  C   UNL A   1      44.110  31.765  38.513  1.00  0.00     0.029 A 
ATOM     63  N   UNL A   1      44.634  29.829  37.556  1.00  0.00    -0.354 N 
ATOM     64  N   UNL A   1      45.539  27.046  37.510  1.00  0.00    -0.248 NA
ATOM     65  C   UNL A   1      46.541  25.224  38.572  1.00  0.00     0.031 C 
ATOM     66  C   UNL A   1      44.617  30.907  39.496  1.00  0.00     0.029 A 
ATOM     67  C   UNL A   1      44.927  29.694  38.903  1.00  0.00     0.049 A 
ATOM     68  H   UNL A   1      44.755  29.123  36.879  1.00  0.00     0.167 HD
ATOM     69  C   UNL A   1      45.737  27.354  38.853  1.00  0.00     0.074 A 
ATOM     70  C   UNL A   1      46.320  26.179  39.467  1.00  0.00     0.031 C 
ATOM     71  C   UNL A   1      45.470  28.507  39.515  1.00  0.00     0.034 A 
BRANCH  58  72
ATOM     72  C   UNL A   1      43.356  33.034  35.871  1.00  0.00     0.023 A 
ATOM     73  C   UNL A   1      44.318  34.031  35.608  1.00  0.00     0.012 A 
ATOM     74  C   UNL A   1      41.999  33.396  35.981  1.00  0.00     0.148 A 
ATOM     75  C   UNL A   1      43.942  35.370  35.501  1.00  0.00     0.002 A 
ATOM     76  C   UNL A   1      41.626  34.726  35.825  1.00  0.00     0.091 A 
ATOM     77  F   UNL A   1      41.101  32.438  36.254  1.00  0.00    -0.205 F 
ATOM     78  C   UNL A   1      42.598  35.715  35.600  1.00  0.00     0.022 A 
BRANCH  76  79
ATOM     79  S   UNL A   1      39.912  35.259  35.856  1.00  0.00     0.127 S 
ATOM     80  O   UNL A   1      40.053  36.709  35.740  1.00  0.00    -0.237 OA
ATOM     81  O   UNL A   1      39.365  34.602  34.668  1.00  0.00    -0.237 OA
ATOM     82  O   UNL A   1      39.365  34.780  37.118  1.00  0.00    -0.744 OA
ENDBRANCH  76  79
ENDBRANCH  58  72
BRANCH  59  83
ATOM     83  C   UNL A   1      46.477  23.557  36.161  1.00  0.00     0.023 A 
ATOM     84  C   UNL A   1      45.619  22.520  36.575  1.00  0.00     0.012 A 
ATOM     85  C   UNL A   1      47.799  23.248  35.785  1.00  0.00     0.148 A 
ATOM     86  C   UNL A   1      46.074  21.202  36.634  1.00  0.00     0.002 A 
ATOM     87  C   UNL A   1      48.230  21.927  35.796  1.00  0.00     0.091 A 
ATOM     88  F   UNL A   1      48.603  24.252  35.412  1.00  0.00    -0.205 F 
ATOM     89  C   UNL A   1      47.374  20.904  36.236  1.00  0.00     0.022 A 
BRANCH  87  90
ATOM     90  S   UNL A   1      49.847  21.429  35.194  1.00  0.00     0.127 S 
ATOM     91  O   UNL A   1      50.682  21.632  36.376  1.00  0.00    -0.237 OA
ATOM     92  O   UNL A   1      49.613  20.028  34.838  1.00  0.00    -0.237 OA
ATOM     93  O   UNL A   1      50.135  22.301  34.064  1.00  0.00    -0.744 OA
ENDBRANCH  87  90
ENDBRANCH  59  83
BRANCH  71  94
ATOM     94  C   UNL A   1      45.769  28.557  40.993  1.00  0.00     0.023 A 
ATOM     95  C   UNL A   1      44.834  28.052  41.919  1.00  0.00     0.012 A 
ATOM     96  C   UNL A   1      47.010  29.036  41.460  1.00  0.00     0.148 A 
ATOM     97  C   UNL A   1      45.114  28.057  43.286  1.00  0.00     0.002 A 
ATOM     98  C   UNL A   1      47.303  28.989  42.818  1.00  0.00     0.091 A 
ATOM     99  F   UNL A   1      47.883  29.527  40.568  1.00  0.00    -0.205 F 
ATOM    100  C   UNL A   1      46.352  28.513  43.734  1.00  0.00     0.022 A 
BRANCH  98 101
ATOM    101  S   UNL A   1      48.906  29.464  43.479  1.00  0.00     0.127 S 
ATOM    102  O   UNL A   1      49.804  28.565  42.756  1.00  0.00    -0.237 OA
ATOM    103  O   UNL A   1      49.000  30.870  43.083  1.00  0.00    -0.237 OA
ATOM    104  O   UNL A   1      48.830  29.244  44.917  1.00  0.00    -0.744 OA
ENDBRANCH  98 101
ENDBRANCH  71  94
ENDBRANCH  45  46
ENDBRANCH  38  40
ENDBRANCH  37  38
ENDBRANCH  36  37
ENDBRANCH  35  36
ENDBRANCH  34  35
ENDBRANCH  33  34
ENDBRANCH  32  33
ENDBRANCH  31  32
ENDBRANCH  30  31
ENDBRANCH   1  30
TORSDOF 29
ENDMDL
MODEL 2
REMARK VINA RESULT:      -7.3      5.246     10.064
REMARK SMILES CCCCCCNC(=O)Oc1cccc(-c2ccc([C@@H](C)C(=O)OCCOCCOCCOC(=O)c3ccc(-c4c5nc(c(-c6cccc(S(=O)(=O)[O-])c6F)c6ccc([nH]6)c(-c6cccc(S(=O)(=O)[O-])c6F)c6nc(c(-c7cccc(S(=O)(=O)[O-])c7F)c7ccc4[nH]7)C=C6)C=C5)cc3)cc2)c1
REMARK SMILES IDX 25 1 24 2 22 3 23 4 20 5 21 6 19 7 16 8 17 9 100 10 18 11
REMARK SMILES IDX 99 12 15 13 11 14 12 15 101 16 13 17 14 18 10 19 8 20 7 21
REMARK SMILES IDX 9 23 6 24 5 25 4 26 3 27 2 28 1 29 26 30 27 31 28 32 29 33
REMARK SMILES IDX 30 34 31 35 32 36 33 37 34 38 35 39 36 40 37 41 98 42 38 43
REMARK SMILES IDX 97 44 39 45 40 46 41 47 91 48 42 49 96 50 90 51 92 52 43 53
REMARK SMILES IDX 95 54 89 55 88 56 44 58 76 59 56 60 75 61 57 62 60 63 74 64
REMARK SMILES IDX 93 65 58 66 59 67 73 69 94 70 61 71 45 72 46 73 54 74 47 75
REMARK SMILES IDX 49 76 55 77 48 78 50 79 51 80 52 81 53 82 77 83 78 84 86 85
REMARK SMILES IDX 79 86 81 87 87 88 80 89 82 90 83 91 84 92 85 93 62 94 63 95
REMARK SMILES IDX 71 96 64 97 66 98 72 99 65 100 67 101 68 102 69 103 70 104
REMARK H PARENT 7 22 92 57 60 68
REMARK Flexibility Score: inf
ROOT
ATOM      1  C   UNL A   1      32.276  27.899  26.425  1.00  0.00     0.261 C 
ENDROOT
BRANCH   1   2
ATOM      2  O   UNL A   1      31.276  27.014  26.979  1.00  0.00    -0.463 OA
BRANCH   2   3
ATOM      3  C   UNL A   1      31.060  25.855  26.307  1.00  0.00     0.313 C 
ATOM      4  O   UNL A   1      30.181  25.053  26.621  1.00  0.00    -0.252 OA
BRANCH   3   5
ATOM      5  C   UNL A   1      31.965  25.583  25.100  1.00  0.00     0.126 C 
ATOM      6  C   UNL A   1      31.075  25.236  23.906  1.00  0.00     0.025 C 
BRANCH   5   7
ATOM      7  C   UNL A   1      33.136  24.602  25.179  1.00  0.00    -0.034 A 
ATOM      8  C   UNL A   1      35.410  22.864  25.332  1.00  0.00    -0.018 A 
ATOM      9  C   UNL A   1      34.098  22.361  25.298  1.00  0.00     0.009 A 
ATOM     10  C   UNL A   1      35.567  24.254  25.273  1.00  0.00     0.009 A 
ATOM     11  C   UNL A   1      32.978  23.212  25.213  1.00  0.00     0.005 A 
ATOM     12  C   UNL A   1      34.454  25.106  25.189  1.00  0.00     0.005 A 
BRANCH   8  13
ATOM     13  C   UNL A   1      36.580  21.960  25.373  1.00  0.00    -0.015 A 
ATOM     14  C   UNL A   1      38.950  21.522  25.717  1.00  0.00     0.133 A 
ATOM     15  C   UNL A   1      38.782  20.181  25.374  1.00  0.00     0.047 A 
ATOM     16  C   UNL A   1      37.870  22.415  25.708  1.00  0.00     0.056 A 
ATOM     17  C   UNL A   1      37.515  19.718  25.042  1.00  0.00     0.004 A 
ATOM     18  C   UNL A   1      36.428  20.599  25.041  1.00  0.00     0.009 A 
BRANCH  14  19
ATOM     19  O   UNL A   1      40.269  21.953  25.942  1.00  0.00    -0.410 OA
BRANCH  19  20
ATOM     20  C   UNL A   1      40.662  22.148  27.256  1.00  0.00     0.412 C 
ATOM     21  N   UNL A   1      41.035  23.437  27.530  1.00  0.00    -0.321 N 
ATOM     22  H   UNL A   1      41.206  23.652  28.475  1.00  0.00     0.167 HD
ATOM     23  O   UNL A   1      40.729  21.279  28.124  1.00  0.00    -0.224 OA
BRANCH  21  24
ATOM     24  C   UNL A   1      41.206  24.521  26.581  1.00  0.00     0.119 C 
BRANCH  24  25
ATOM     25  C   UNL A   1      40.533  25.819  27.026  1.00  0.00     0.021 C 
BRANCH  25  26
ATOM     26  C   UNL A   1      40.335  25.969  28.540  1.00  0.00     0.002 C 
BRANCH  26  27
ATOM     27  C   UNL A   1      41.412  26.771  29.281  1.00  0.00    -0.000 C 
BRANCH  27  28
ATOM     28  C   UNL A   1      40.947  28.092  29.900  1.00  0.00    -0.003 C 
ATOM     29  C   UNL A   1      39.530  28.040  30.451  1.00  0.00     0.004 C 
ENDBRANCH  27  28
ENDBRANCH  26  27
ENDBRANCH  25  26
ENDBRANCH  24  25
ENDBRANCH  21  24
ENDBRANCH  19  20
ENDBRANCH  14  19
ENDBRANCH   8  13
ENDBRANCH   5   7
ENDBRANCH   3   5
ENDBRANCH   2   3
ENDBRANCH   1   2
BRANCH   1  30
ATOM     30  C   UNL A   1      31.724  29.133  25.695  1.00  0.00     0.202 C 
BRANCH  30  31
ATOM     31  O   UNL A   1      32.386  30.376  25.890  1.00  0.00    -0.376 OA
BRANCH  31  32
ATOM     32  C   UNL A   1      32.683  30.808  27.213  1.00  0.00     0.188 C 
BRANCH  32  33
ATOM     33  C   UNL A   1      34.096  31.322  27.526  1.00  0.00     0.188 C 
BRANCH  33  34
ATOM     34  O   UNL A   1      34.231  31.922  28.799  1.00  0.00    -0.376 OA
BRANCH  34  35
ATOM     35  C   UNL A   1      34.035  33.323  28.852  1.00  0.00     0.202 C 
BRANCH  35  36
ATOM     36  C   UNL A   1      35.041  34.067  29.739  1.00  0.00     0.261 C 
BRANCH  36  37
ATOM     37  O   UNL A   1      34.658  34.228  31.118  1.00  0.00    -0.460 OA
BRANCH  37  38
ATOM     38  C   UNL A   1      34.760  33.147  31.921  1.00  0.00     0.338 C 
ATOM     39  O   UNL A   1      33.842  32.450  32.342  1.00  0.00    -0.246 OA
BRANCH  38  40
ATOM     40  C   UNL A   1      36.189  32.797  32.045  1.00  0.00     0.060 A 
ATOM     41  C   UNL A   1      37.000  33.528  32.927  1.00  0.00     0.016 A 
ATOM     42  C   UNL A   1      36.727  31.746  31.301  1.00  0.00     0.016 A 
ATOM     43  C   UNL A   1      38.359  33.226  33.045  1.00  0.00     0.010 A 
ATOM     44  C   UNL A   1      38.090  31.458  31.407  1.00  0.00     0.010 A 
ATOM     45  C   UNL A   1      38.919  32.214  32.256  1.00  0.00    -0.014 A 
BRANCH  45  46
ATOM     46  C   UNL A   1      40.391  32.041  32.179  1.00  0.00     0.031 A 
ATOM     47  C   UNL A   1      41.180  32.979  31.308  1.00  0.00     0.074 A 
ATOM     48  C   UNL A   1      41.016  31.045  32.832  1.00  0.00     0.049 A 
ATOM     49  N   UNL A   1      42.452  32.964  31.006  1.00  0.00    -0.248 NA
ATOM     50  C   UNL A   1      40.426  34.081  30.686  1.00  0.00     0.031 C 
ATOM     51  C   UNL A   1      40.371  30.076  33.715  1.00  0.00     0.029 A 
ATOM     52  N   UNL A   1      42.335  30.664  32.816  1.00  0.00    -0.354 N 
ATOM     53  C   UNL A   1      42.645  34.022  30.128  1.00  0.00     0.074 A 
ATOM     54  C   UNL A   1      41.358  34.659  29.943  1.00  0.00     0.031 C 
ATOM     55  C   UNL A   1      41.291  29.190  34.134  1.00  0.00     0.029 A 
ATOM     56  C   UNL A   1      42.580  29.507  33.518  1.00  0.00     0.049 A 
ATOM     57  H   UNL A   1      43.039  31.170  32.349  1.00  0.00     0.167 HD
ATOM     58  C   UNL A   1      43.789  34.436  29.533  1.00  0.00     0.034 A 
ATOM     59  C   UNL A   1      43.706  28.771  33.625  1.00  0.00     0.034 A 
ATOM     60  C   UNL A   1      45.069  33.808  29.723  1.00  0.00     0.049 A 
ATOM     61  C   UNL A   1      44.958  29.225  32.919  1.00  0.00     0.074 A 
ATOM     62  C   UNL A   1      46.297  34.186  29.208  1.00  0.00     0.029 A 
ATOM     63  N   UNL A   1      45.285  32.658  30.466  1.00  0.00    -0.354 N 
ATOM     64  N   UNL A   1      45.156  30.295  32.187  1.00  0.00    -0.248 NA
ATOM     65  C   UNL A   1      46.153  28.380  33.076  1.00  0.00     0.031 C 
ATOM     66  C   UNL A   1      47.248  33.240  29.607  1.00  0.00     0.029 A 
ATOM     67  C   UNL A   1      46.621  32.297  30.405  1.00  0.00     0.049 A 
ATOM     68  H   UNL A   1      44.590  32.169  30.964  1.00  0.00     0.167 HD
ATOM     69  C   UNL A   1      46.500  30.270  31.825  1.00  0.00     0.074 A 
ATOM     70  C   UNL A   1      47.073  29.089  32.435  1.00  0.00     0.031 C 
ATOM     71  C   UNL A   1      47.193  31.141  31.049  1.00  0.00     0.034 A 
BRANCH  58  72
ATOM     72  C   UNL A   1      43.703  35.629  28.617  1.00  0.00     0.023 A 
ATOM     73  C   UNL A   1      43.289  35.460  27.280  1.00  0.00     0.012 A 
ATOM     74  C   UNL A   1      44.002  36.922  29.089  1.00  0.00     0.148 A 
ATOM     75  C   UNL A   1      43.218  36.553  26.415  1.00  0.00     0.002 A 
ATOM     76  C   UNL A   1      43.882  38.012  28.235  1.00  0.00     0.091 A 
ATOM     77  F   UNL A   1      44.416  37.061  30.357  1.00  0.00    -0.205 F 
ATOM     78  C   UNL A   1      43.505  37.827  26.895  1.00  0.00     0.022 A 
BRANCH  76  79
ATOM     79  S   UNL A   1      44.153  39.701  28.780  1.00  0.00     0.127 S 
ATOM     80  O   UNL A   1      43.439  39.717  30.056  1.00  0.00    -0.237 OA
ATOM     81  O   UNL A   1      45.611  39.755  28.898  1.00  0.00    -0.237 OA
ATOM     82  O   UNL A   1      43.597  40.553  27.739  1.00  0.00    -0.744 OA
ENDBRANCH  76  79
ENDBRANCH  58  72
BRANCH  59  83
ATOM     83  C   UNL A   1      43.709  27.534  34.457  1.00  0.00     0.023 A 
ATOM     84  C   UNL A   1      43.214  26.333  33.914  1.00  0.00     0.012 A 
ATOM     85  C   UNL A   1      44.213  27.538  35.773  1.00  0.00     0.148 A 
ATOM     86  C   UNL A   1      43.199  25.162  34.673  1.00  0.00     0.002 A 
ATOM     87  C   UNL A   1      44.245  26.357  36.505  1.00  0.00     0.091 A 
ATOM     88  F   UNL A   1      44.664  28.695  36.276  1.00  0.00    -0.205 F 
ATOM     89  C   UNL A   1      43.724  25.171  35.963  1.00  0.00     0.022 A 
BRANCH  87  90
ATOM     90  S   UNL A   1      45.002  26.243  38.129  1.00  0.00     0.127 S 
ATOM     91  O   UNL A   1      46.425  26.304  37.801  1.00  0.00    -0.237 OA
ATOM     92  O   UNL A   1      44.470  27.435  38.790  1.00  0.00    -0.237 OA
ATOM     93  O   UNL A   1      44.542  24.981  38.693  1.00  0.00    -0.744 OA
ENDBRANCH  87  90
ENDBRANCH  59  83
BRANCH  71  94
ATOM     94  C   UNL A   1      48.664  30.879  30.837  1.00  0.00     0.023 A 
ATOM     95  C   UNL A   1      49.611  31.405  31.739  1.00  0.00     0.012 A 
ATOM     96  C   UNL A   1      49.102  30.048  29.785  1.00  0.00     0.148 A 
ATOM     97  C   UNL A   1      50.971  31.138  31.575  1.00  0.00     0.002 A 
ATOM     98  C   UNL A   1      50.453  29.745  29.660  1.00  0.00     0.091 A 
ATOM     99  F   UNL A   1      48.190  29.568  28.927  1.00  0.00    -0.205 F 
ATOM    100  C   UNL A   1      51.390  30.300  30.545  1.00  0.00     0.022 A 
BRANCH  98 101
ATOM    101  S   UNL A   1      51.076  28.597  28.425  1.00  0.00     0.127 S 
ATOM    102  O   UNL A   1      52.376  28.233  28.985  1.00  0.00    -0.237 OA
ATOM    103  O   UNL A   1      50.074  27.531  28.460  1.00  0.00    -0.237 OA
ATOM    104  O   UNL A   1      51.123  29.341  27.173  1.00  0.00    -0.744 OA
ENDBRANCH  98 101
ENDBRANCH  71  94
ENDBRANCH  45  46
ENDBRANCH  38  40
ENDBRANCH  37  38
ENDBRANCH  36  37
ENDBRANCH  35  36
ENDBRANCH  34  35
ENDBRANCH  33  34
ENDBRANCH  32  33
ENDBRANCH  31  32
ENDBRANCH  30  31
ENDBRANCH   1  30
TORSDOF 29
ENDMDL
MODEL 3
REMARK VINA RESULT:      -7.1      6.479     10.936
REMARK SMILES CCCCCCNC(=O)Oc1cccc(-c2ccc([C@@H](C)C(=O)OCCOCCOCCOC(=O)c3ccc(-c4c5nc(c(-c6cccc(S(=O)(=O)[O-])c6F)c6ccc([nH]6)c(-c6cccc(S(=O)(=O)[O-])c6F)c6nc(c(-c7cccc(S(=O)(=O)[O-])c7F)c7ccc4[nH]7)C=C6)C=C5)cc3)cc2)c1
REMARK SMILES IDX 25 1 24 2 22 3 23 4 20 5 21 6 19 7 16 8 17 9 100 10 18 11
REMARK SMILES IDX 99 12 15 13 11 14 12 15 101 16 13 17 14 18 10 19 8 20 7 21
REMARK SMILES IDX 9 23 6 24 5 25 4 26 3 27 2 28 1 29 26 30 27 31 28 32 29 33
REMARK SMILES IDX 30 34 31 35 32 36 33 37 34 38 35 39 36 40 37 41 98 42 38 43
REMARK SMILES IDX 97 44 39 45 40 46 41 47 91 48 42 49 96 50 90 51 92 52 43 53
REMARK SMILES IDX 95 54 89 55 88 56 44 58 76 59 56 60 75 61 57 62 60 63 74 64
REMARK SMILES IDX 93 65 58 66 59 67 73 69 94 70 61 71 45 72 46 73 54 74 47 75
REMARK SMILES IDX 49 76 55 77 48 78 50 79 51 80 52 81 53 82 77 83 78 84 86 85
REMARK SMILES IDX 79 86 81 87 87 88 80 89 82 90 83 91 84 92 85 93 62 94 63 95
REMARK SMILES IDX 71 96 64 97 66 98 72 99 65 100 67 101 68 102 69 103 70 104
REMARK H PARENT 7 22 92 57 60 68
REMARK Flexibility Score: inf
ROOT
ATOM      1  C   UNL A   1      32.637  27.456  26.532  1.00  0.00     0.261 C 
ENDROOT
BRANCH   1   2
ATOM      2  O   UNL A   1      31.890  26.261  26.854  1.00  0.00    -0.463 OA
BRANCH   2   3
ATOM      3  C   UNL A   1      31.223  25.673  25.829  1.00  0.00     0.313 C 
ATOM      4  O   UNL A   1      30.004  25.510  25.830  1.00  0.00    -0.252 OA
BRANCH   3   5
ATOM      5  C   UNL A   1      32.067  25.221  24.632  1.00  0.00     0.126 C 
ATOM      6  C   UNL A   1      31.121  24.668  23.564  1.00  0.00     0.025 C 
BRANCH   5   7
ATOM      7  C   UNL A   1      33.265  24.286  24.800  1.00  0.00    -0.034 A 
ATOM      8  C   UNL A   1      35.583  22.634  25.140  1.00  0.00    -0.018 A 
ATOM      9  C   UNL A   1      34.315  22.083  24.887  1.00  0.00     0.009 A 
ATOM     10  C   UNL A   1      35.675  24.030  25.207  1.00  0.00     0.009 A 
ATOM     11  C   UNL A   1      33.175  22.892  24.709  1.00  0.00     0.005 A 
ATOM     12  C   UNL A   1      34.542  24.840  25.032  1.00  0.00     0.005 A 
BRANCH   8  13
ATOM     13  C   UNL A   1      36.782  21.779  25.277  1.00  0.00    -0.015 A 
ATOM     14  C   UNL A   1      39.104  21.413  25.907  1.00  0.00     0.133 A 
ATOM     15  C   UNL A   1      39.051  20.096  25.456  1.00  0.00     0.047 A 
ATOM     16  C   UNL A   1      37.992  22.260  25.814  1.00  0.00     0.056 A 
ATOM     17  C   UNL A   1      37.863  19.607  24.924  1.00  0.00     0.004 A 
ATOM     18  C   UNL A   1      36.743  20.440  24.837  1.00  0.00     0.009 A 
BRANCH  14  19
ATOM     19  O   UNL A   1      40.359  21.880  26.338  1.00  0.00    -0.410 OA
BRANCH  19  20
ATOM     20  C   UNL A   1      40.932  21.257  27.434  1.00  0.00     0.412 C 
ATOM     21  N   UNL A   1      41.849  22.035  28.088  1.00  0.00    -0.321 N 
ATOM     22  H   UNL A   1      42.193  21.683  28.941  1.00  0.00     0.167 HD
ATOM     23  O   UNL A   1      40.707  20.105  27.807  1.00  0.00    -0.224 OA
BRANCH  21  24
ATOM     24  C   UNL A   1      42.371  23.321  27.663  1.00  0.00     0.119 C 
BRANCH  24  25
ATOM     25  C   UNL A   1      42.068  24.447  28.651  1.00  0.00     0.021 C 
BRANCH  25  26
ATOM     26  C   UNL A   1      41.140  25.549  28.123  1.00  0.00     0.002 C 
BRANCH  26  27
ATOM     27  C   UNL A   1      41.753  26.504  27.092  1.00  0.00    -0.000 C 
BRANCH  27  28
ATOM     28  C   UNL A   1      40.799  27.548  26.505  1.00  0.00    -0.003 C 
ATOM     29  C   UNL A   1      40.557  28.735  27.424  1.00  0.00     0.004 C 
ENDBRANCH  27  28
ENDBRANCH  26  27
ENDBRANCH  25  26
ENDBRANCH  24  25
ENDBRANCH  21  24
ENDBRANCH  19  20
ENDBRANCH  14  19
ENDBRANCH   8  13
ENDBRANCH   5   7
ENDBRANCH   3   5
ENDBRANCH   2   3
ENDBRANCH   1   2
BRANCH   1  30
ATOM     30  C   UNL A   1      31.786  28.667  26.122  1.00  0.00     0.202 C 
BRANCH  30  31
ATOM     31  O   UNL A   1      32.454  29.892  25.848  1.00  0.00    -0.376 OA
BRANCH  31  32
ATOM     32  C   UNL A   1      32.815  30.746  26.927  1.00  0.00     0.188 C 
BRANCH  32  33
ATOM     33  C   UNL A   1      34.235  30.655  27.504  1.00  0.00     0.188 C 
BRANCH  33  34
ATOM     34  O   UNL A   1      34.851  31.906  27.740  1.00  0.00    -0.376 OA
BRANCH  34  35
ATOM     35  C   UNL A   1      34.143  32.801  28.575  1.00  0.00     0.202 C 
BRANCH  35  36
ATOM     36  C   UNL A   1      34.903  33.218  29.841  1.00  0.00     0.261 C 
BRANCH  36  37
ATOM     37  O   UNL A   1      34.667  32.407  31.007  1.00  0.00    -0.460 OA
BRANCH  37  38
ATOM     38  C   UNL A   1      35.630  31.528  31.358  1.00  0.00     0.338 C 
ATOM     39  O   UNL A   1      35.983  30.532  30.736  1.00  0.00    -0.246 OA
BRANCH  38  40
ATOM     40  C   UNL A   1      36.355  32.078  32.521  1.00  0.00     0.060 A 
ATOM     41  C   UNL A   1      36.033  33.363  32.984  1.00  0.00     0.016 A 
ATOM     42  C   UNL A   1      37.343  31.326  33.159  1.00  0.00     0.016 A 
ATOM     43  C   UNL A   1      36.720  33.911  34.071  1.00  0.00     0.010 A 
ATOM     44  C   UNL A   1      38.041  31.883  34.235  1.00  0.00     0.010 A 
ATOM     45  C   UNL A   1      37.755  33.187  34.677  1.00  0.00    -0.014 A 
BRANCH  45  46
ATOM     46  C   UNL A   1      38.656  33.836  35.661  1.00  0.00     0.031 A 
ATOM     47  C   UNL A   1      39.871  34.563  35.152  1.00  0.00     0.074 A 
ATOM     48  C   UNL A   1      38.432  33.747  36.985  1.00  0.00     0.049 A 
ATOM     49  N   UNL A   1      40.849  35.118  35.818  1.00  0.00    -0.248 NA
ATOM     50  C   UNL A   1      40.001  34.671  33.689  1.00  0.00     0.031 C 
ATOM     51  C   UNL A   1      37.290  33.082  37.607  1.00  0.00     0.029 A 
ATOM     52  N   UNL A   1      39.186  34.190  38.044  1.00  0.00    -0.354 N 
ATOM     53  C   UNL A   1      41.731  35.603  34.861  1.00  0.00     0.074 A 
ATOM     54  C   UNL A   1      41.173  35.274  33.567  1.00  0.00     0.031 C 
ATOM     55  C   UNL A   1      37.433  33.132  38.942  1.00  0.00     0.029 A 
ATOM     56  C   UNL A   1      38.694  33.799  39.267  1.00  0.00     0.049 A 
ATOM     57  H   UNL A   1      39.999  34.736  37.938  1.00  0.00     0.167 HD
ATOM     58  C   UNL A   1      42.897  36.268  35.039  1.00  0.00     0.034 A 
ATOM     59  C   UNL A   1      39.218  33.934  40.503  1.00  0.00     0.034 A 
ATOM     60  C   UNL A   1      43.447  36.601  36.325  1.00  0.00     0.049 A 
ATOM     61  C   UNL A   1      40.539  34.640  40.675  1.00  0.00     0.074 A 
ATOM     62  C   UNL A   1      44.594  37.322  36.609  1.00  0.00     0.029 A 
ATOM     63  N   UNL A   1      42.906  36.217  37.542  1.00  0.00    -0.354 N 
ATOM     64  N   UNL A   1      41.306  35.198  39.770  1.00  0.00    -0.248 NA
ATOM     65  C   UNL A   1      41.056  34.757  42.048  1.00  0.00     0.031 C 
ATOM     66  C   UNL A   1      44.768  37.338  37.998  1.00  0.00     0.029 A 
ATOM     67  C   UNL A   1      43.707  36.664  38.580  1.00  0.00     0.049 A 
ATOM     68  H   UNL A   1      42.074  35.702  37.653  1.00  0.00     0.167 HD
ATOM     69  C   UNL A   1      42.374  35.760  40.463  1.00  0.00     0.074 A 
ATOM     70  C   UNL A   1      42.146  35.491  41.868  1.00  0.00     0.031 C 
ATOM     71  C   UNL A   1      43.452  36.428  39.980  1.00  0.00     0.034 A 
BRANCH  58  72
ATOM     72  C   UNL A   1      43.656  36.680  33.804  1.00  0.00     0.023 A 
ATOM     73  C   UNL A   1      44.445  35.735  33.117  1.00  0.00     0.012 A 
ATOM     74  C   UNL A   1      43.564  37.995  33.307  1.00  0.00     0.148 A 
ATOM     75  C   UNL A   1      45.166  36.103  31.980  1.00  0.00     0.002 A 
ATOM     76  C   UNL A   1      44.246  38.342  32.147  1.00  0.00     0.091 A 
ATOM     77  F   UNL A   1      42.828  38.886  33.987  1.00  0.00    -0.205 F 
ATOM     78  C   UNL A   1      45.058  37.402  31.492  1.00  0.00     0.022 A 
BRANCH  76  79
ATOM     79  S   UNL A   1      44.109  39.967  31.395  1.00  0.00     0.127 S 
ATOM     80  O   UNL A   1      44.509  40.837  32.500  1.00  0.00    -0.237 OA
ATOM     81  O   UNL A   1      45.080  39.882  30.304  1.00  0.00    -0.237 OA
ATOM     82  O   UNL A   1      42.723  40.094  30.965  1.00  0.00    -0.744 OA
ENDBRANCH  76  79
ENDBRANCH  58  72
BRANCH  59  83
ATOM     83  C   UNL A   1      38.477  33.410  41.686  1.00  0.00     0.023 A 
ATOM     84  C   UNL A   1      37.455  34.188  42.263  1.00  0.00     0.012 A 
ATOM     85  C   UNL A   1      38.768  32.143  42.230  1.00  0.00     0.148 A 
ATOM     86  C   UNL A   1      36.750  33.725  43.374  1.00  0.00     0.002 A 
ATOM     87  C   UNL A   1      38.027  31.666  43.304  1.00  0.00     0.091 A 
ATOM     88  F   UNL A   1      39.756  31.427  41.677  1.00  0.00    -0.205 F 
ATOM     89  C   UNL A   1      37.027  32.461  43.888  1.00  0.00     0.022 A 
BRANCH  87  90
ATOM     90  S   UNL A   1      38.232  30.008  43.963  1.00  0.00     0.127 S 
ATOM     91  O   UNL A   1      37.072  29.890  44.845  1.00  0.00    -0.237 OA
ATOM     92  O   UNL A   1      38.167  29.195  42.749  1.00  0.00    -0.237 OA
ATOM     93  O   UNL A   1      39.528  30.003  44.628  1.00  0.00    -0.744 OA
ENDBRANCH  87  90
ENDBRANCH  59  83
BRANCH  71  94
ATOM     94  C   UNL A   1      44.458  36.954  40.973  1.00  0.00     0.023 A 
ATOM     95  C   UNL A   1      45.374  36.071  41.582  1.00  0.00     0.012 A 
ATOM     96  C   UNL A   1      44.547  38.334  41.245  1.00  0.00     0.148 A 
ATOM     97  C   UNL A   1      46.335  36.551  42.473  1.00  0.00     0.002 A 
ATOM     98  C   UNL A   1      45.541  38.810  42.092  1.00  0.00     0.091 A 
ATOM     99  F   UNL A   1      43.660  39.158  40.668  1.00  0.00    -0.205 F 
ATOM    100  C   UNL A   1      46.427  37.918  42.718  1.00  0.00     0.022 A 
BRANCH  98 101
ATOM    101  S   UNL A   1      45.798  40.563  42.393  1.00  0.00     0.127 S 
ATOM    102  O   UNL A   1      46.369  41.002  41.121  1.00  0.00    -0.237 OA
ATOM    103  O   UNL A   1      44.438  41.037  42.648  1.00  0.00    -0.237 OA
ATOM    104  O   UNL A   1      46.693  40.647  43.539  1.00  0.00    -0.744 OA
ENDBRANCH  98 101
ENDBRANCH  71  94
ENDBRANCH  45  46
ENDBRANCH  38  40
ENDBRANCH  37  38
ENDBRANCH  36  37
ENDBRANCH  35  36
ENDBRANCH  34  35
ENDBRANCH  33  34
ENDBRANCH  32  33
ENDBRANCH  31  32
ENDBRANCH  30  31
ENDBRANCH   1  30
TORSDOF 29
ENDMDL
