MODEL 1
REMARK VINA RESULT:     -11.3      0.000      0.000
REMARK SMILES Cc1cc(OC(F)(F)F)cc2c1O[C@H](C(F)(F)F)C(C(=O)OCCOCCOCCOC(=O)c1ccc(-c3c4nc(c(-c5cccc(S(=O)(=O)[O-])c5F)c5ccc([nH]5)c(-c5cccc(S(=O)(=O)[O-])c5F)c5nc(c(-c6cccc(S(=O)(=O)[O-])c6F)c6ccc3[nH]6)C=C5)C=C4)cc1)=C2
REMARK SMILES IDX 27 1 26 2 25 3 24 4 23 5 22 6 20 7 21 8 19 9 1 10 2 11 3 12
REMARK SMILES IDX 12 13 4 14 11 15 13 16 10 17 97 18 14 19 5 20 6 21 7 22 8 23
REMARK SMILES IDX 9 24 15 25 16 26 17 27 18 28 28 29 29 30 30 31 31 32 32 33
REMARK SMILES IDX 33 34 34 35 35 36 96 37 36 38 95 39 37 40 38 41 39 42 89 43
REMARK SMILES IDX 40 44 94 45 88 46 90 47 41 48 93 49 87 50 86 51 42 53 74 54
REMARK SMILES IDX 54 55 73 56 55 57 58 58 72 59 91 60 56 61 57 62 71 64 92 65
REMARK SMILES IDX 59 66 43 67 44 68 52 69 45 70 47 71 53 72 46 73 48 74 49 75
REMARK SMILES IDX 50 76 51 77 75 78 76 79 84 80 77 81 79 82 85 83 78 84 80 85
REMARK SMILES IDX 81 86 82 87 83 88 60 89 61 90 69 91 62 92 64 93 70 94 63 95
REMARK SMILES IDX 65 96 66 97 67 98 68 99
REMARK H PARENT 90 52 58 63
REMARK Flexibility Score: inf
ROOT
ATOM      1  C   UNL A   1      36.824  22.208  25.744  1.00  0.00     0.188 C 
ENDROOT
BRANCH   1   2
ATOM      2  C   UNL A   1      35.336  21.793  25.799  1.00  0.00     0.188 C 
BRANCH   2   3
ATOM      3  O   UNL A   1      34.727  21.819  24.527  1.00  0.00    -0.376 OA
BRANCH   3   4
ATOM      4  C   UNL A   1      33.695  22.751  24.277  1.00  0.00     0.202 C 
BRANCH   4   5
ATOM      5  C   UNL A   1      33.622  23.552  22.964  1.00  0.00     0.261 C 
BRANCH   5   6
ATOM      6  O   UNL A   1      32.521  24.456  22.807  1.00  0.00    -0.460 OA
BRANCH   6   7
ATOM      7  C   UNL A   1      32.635  25.673  23.385  1.00  0.00     0.338 C 
ATOM      8  O   UNL A   1      33.644  26.160  23.864  1.00  0.00    -0.246 OA
BRANCH   7   9
ATOM      9  C   UNL A   1      31.342  26.383  23.262  1.00  0.00     0.087 C 
ATOM     10  C   UNL A   1      26.499  27.961  23.815  1.00  0.00     0.048 C 
ATOM     11  C   UNL A   1      27.747  28.513  23.183  1.00  0.00    -0.005 A 
ATOM     12  C   UNL A   1      27.725  29.799  22.617  1.00  0.00     0.054 A 
ATOM     13  C   UNL A   1      28.931  27.759  23.134  1.00  0.00     0.131 A 
ATOM     14  C   UNL A   1      28.868  30.336  22.023  1.00  0.00     0.130 A 
ATOM     15  C   UNL A   1      30.088  28.302  22.572  1.00  0.00     0.021 A 
ATOM     16  O   UNL A   1      28.876  26.496  23.652  1.00  0.00    -0.475 OA
ATOM     17  C   UNL A   1      30.043  29.578  21.996  1.00  0.00     0.058 A 
ATOM     18  C   UNL A   1      31.345  27.570  22.643  1.00  0.00     0.027 C 
ATOM     19  C   UNL A   1      30.100  25.733  23.814  1.00  0.00     0.316 C 
BRANCH  14  20
ATOM     20  O   UNL A   1      28.974  31.570  21.448  1.00  0.00    -0.406 OA
BRANCH  20  21
ATOM     21  C   UNL A   1      28.393  32.671  22.129  1.00  0.00     0.573 C 
ATOM     22  F   UNL A   1      27.561  32.252  23.107  1.00  0.00    -0.132 F 
ATOM     23  F   UNL A   1      29.345  33.466  22.667  1.00  0.00    -0.132 F 
ATOM     24  F   UNL A   1      27.679  33.407  21.253  1.00  0.00    -0.132 F 
ENDBRANCH  20  21
ENDBRANCH  14  20
BRANCH  19  25
ATOM     25  C   UNL A   1      30.240  25.371  25.297  1.00  0.00     0.430 C 
ATOM     26  F   UNL A   1      30.608  24.075  25.454  1.00  0.00    -0.167 F 
ATOM     27  F   UNL A   1      31.188  26.115  25.914  1.00  0.00    -0.167 F 
ATOM     28  F   UNL A   1      29.083  25.546  25.976  1.00  0.00    -0.167 F 
ENDBRANCH  19  25
ENDBRANCH   7   9
ENDBRANCH   6   7
ENDBRANCH   5   6
ENDBRANCH   4   5
ENDBRANCH   3   4
ENDBRANCH   2   3
ENDBRANCH   1   2
BRANCH   1  29
ATOM     29  O   UNL A   1      37.725  21.484  24.914  1.00  0.00    -0.376 OA
BRANCH  29  30
ATOM     30  C   UNL A   1      37.585  20.069  24.835  1.00  0.00     0.202 C 
BRANCH  30  31
ATOM     31  C   UNL A   1      38.704  19.152  25.360  1.00  0.00     0.261 C 
BRANCH  31  32
ATOM     32  O   UNL A   1      39.388  19.613  26.536  1.00  0.00    -0.460 OA
BRANCH  32  33
ATOM     33  C   UNL A   1      40.706  19.901  26.387  1.00  0.00     0.338 C 
ATOM     34  O   UNL A   1      41.563  19.200  25.873  1.00  0.00    -0.246 OA
BRANCH  33  35
ATOM     35  C   UNL A   1      40.938  21.303  26.784  1.00  0.00     0.060 A 
ATOM     36  C   UNL A   1      40.689  22.324  25.854  1.00  0.00     0.016 A 
ATOM     37  C   UNL A   1      41.418  21.608  28.057  1.00  0.00     0.016 A 
ATOM     38  C   UNL A   1      40.894  23.657  26.205  1.00  0.00     0.010 A 
ATOM     39  C   UNL A   1      41.665  22.942  28.393  1.00  0.00     0.010 A 
ATOM     40  C   UNL A   1      41.413  23.969  27.467  1.00  0.00    -0.014 A 
BRANCH  40  41
ATOM     41  C   UNL A   1      41.851  25.354  27.749  1.00  0.00     0.031 A 
ATOM     42  C   UNL A   1      43.250  25.752  27.373  1.00  0.00     0.074 A 
ATOM     43  C   UNL A   1      41.021  26.243  28.324  1.00  0.00     0.049 A 
ATOM     44  N   UNL A   1      43.843  26.906  27.517  1.00  0.00    -0.248 NA
ATOM     45  C   UNL A   1      44.088  24.715  26.745  1.00  0.00     0.031 C 
ATOM     46  C   UNL A   1      39.641  25.975  28.723  1.00  0.00     0.029 A 
ATOM     47  N   UNL A   1      41.232  27.550  28.687  1.00  0.00    -0.354 N 
ATOM     48  C   UNL A   1      45.125  26.733  27.013  1.00  0.00     0.074 A 
ATOM     49  C   UNL A   1      45.229  25.364  26.563  1.00  0.00     0.031 C 
ATOM     50  C   UNL A   1      39.134  27.080  29.300  1.00  0.00     0.029 A 
ATOM     51  C   UNL A   1      40.156  28.125  29.321  1.00  0.00     0.049 A 
ATOM     52  H   UNL A   1      42.073  28.029  28.511  1.00  0.00     0.167 HD
ATOM     53  C   UNL A   1      46.121  27.642  26.919  1.00  0.00     0.034 A 
ATOM     54  C   UNL A   1      40.018  29.351  29.865  1.00  0.00     0.034 A 
ATOM     55  C   UNL A   1      46.015  29.004  27.357  1.00  0.00     0.049 A 
ATOM     56  C   UNL A   1      41.158  30.334  29.784  1.00  0.00     0.074 A 
ATOM     57  C   UNL A   1      46.965  30.006  27.264  1.00  0.00     0.029 A 
ATOM     58  N   UNL A   1      44.908  29.550  27.981  1.00  0.00    -0.354 N 
ATOM     59  N   UNL A   1      42.328  30.187  29.213  1.00  0.00    -0.248 NA
ATOM     60  C   UNL A   1      40.953  31.656  30.398  1.00  0.00     0.031 C 
ATOM     61  C   UNL A   1      46.437  31.156  27.851  1.00  0.00     0.029 A 
ATOM     62  C   UNL A   1      45.152  30.875  28.289  1.00  0.00     0.049 A 
ATOM     63  H   UNL A   1      44.072  29.068  28.177  1.00  0.00     0.167 HD
ATOM     64  C   UNL A   1      42.986  31.402  29.370  1.00  0.00     0.074 A 
ATOM     65  C   UNL A   1      42.086  32.278  30.089  1.00  0.00     0.031 C 
ATOM     66  C   UNL A   1      44.228  31.753  28.958  1.00  0.00     0.034 A 
BRANCH  53  67
ATOM     67  C   UNL A   1      47.409  27.212  26.281  1.00  0.00     0.023 A 
ATOM     68  C   UNL A   1      47.710  27.654  24.979  1.00  0.00     0.012 A 
ATOM     69  C   UNL A   1      48.359  26.467  27.004  1.00  0.00     0.148 A 
ATOM     70  C   UNL A   1      48.942  27.358  24.401  1.00  0.00     0.002 A 
ATOM     71  C   UNL A   1      49.596  26.201  26.432  1.00  0.00     0.091 A 
ATOM     72  F   UNL A   1      48.037  26.048  28.236  1.00  0.00    -0.205 F 
ATOM     73  C   UNL A   1      49.888  26.643  25.131  1.00  0.00     0.022 A 
BRANCH  71  74
ATOM     74  S   UNL A   1      50.903  25.332  27.305  1.00  0.00     0.127 S 
ATOM     75  O   UNL A   1      51.784  24.944  26.205  1.00  0.00    -0.237 OA
ATOM     76  O   UNL A   1      51.438  26.379  28.175  1.00  0.00    -0.237 OA
ATOM     77  O   UNL A   1      50.261  24.225  28.000  1.00  0.00    -0.744 OA
ENDBRANCH  71  74
ENDBRANCH  53  67
BRANCH  54  78
ATOM     78  C   UNL A   1      38.723  29.732  30.490  1.00  0.00     0.023 A 
ATOM     79  C   UNL A   1      38.445  29.318  31.806  1.00  0.00     0.012 A 
ATOM     80  C   UNL A   1      37.796  30.547  29.810  1.00  0.00     0.148 A 
ATOM     81  C   UNL A   1      37.262  29.706  32.435  1.00  0.00     0.002 A 
ATOM     82  C   UNL A   1      36.634  30.957  30.455  1.00  0.00     0.091 A 
ATOM     83  F   UNL A   1      38.084  30.923  28.557  1.00  0.00    -0.205 F 
ATOM     84  C   UNL A   1      36.361  30.531  31.765  1.00  0.00     0.022 A 
BRANCH  82  85
ATOM     85  S   UNL A   1      35.454  32.086  29.709  1.00  0.00     0.127 S 
ATOM     86  O   UNL A   1      34.929  31.284  28.606  1.00  0.00    -0.237 OA
ATOM     87  O   UNL A   1      34.516  32.306  30.811  1.00  0.00    -0.237 OA
ATOM     88  O   UNL A   1      36.219  33.260  29.316  1.00  0.00    -0.744 OA
ENDBRANCH  82  85
ENDBRANCH  54  78
BRANCH  66  89
ATOM     89  C   UNL A   1      44.720  33.148  29.232  1.00  0.00     0.023 A 
ATOM     90  C   UNL A   1      45.344  33.429  30.461  1.00  0.00     0.012 A 
ATOM     91  C   UNL A   1      44.745  34.108  28.200  1.00  0.00     0.148 A 
ATOM     92  C   UNL A   1      45.998  34.645  30.656  1.00  0.00     0.002 A 
ATOM     93  C   UNL A   1      45.427  35.302  28.390  1.00  0.00     0.091 A 
ATOM     94  F   UNL A   1      44.145  33.808  27.038  1.00  0.00    -0.205 F 
ATOM     95  C   UNL A   1      46.053  35.574  29.618  1.00  0.00     0.022 A 
BRANCH  93  96
ATOM     96  S   UNL A   1      45.627  36.525  27.088  1.00  0.00     0.127 S 
ATOM     97  O   UNL A   1      44.364  37.257  27.170  1.00  0.00    -0.237 OA
ATOM     98  O   UNL A   1      46.796  37.273  27.547  1.00  0.00    -0.237 OA
ATOM     99  O   UNL A   1      45.822  35.777  25.854  1.00  0.00    -0.744 OA
ENDBRANCH  93  96
ENDBRANCH  66  89
ENDBRANCH  40  41
ENDBRANCH  33  35
ENDBRANCH  32  33
ENDBRANCH  31  32
ENDBRANCH  30  31
ENDBRANCH  29  30
ENDBRANCH   1  29
TORSDOF 23
ENDMDL
MODEL 2
REMARK VINA RESULT:     -11.0      5.064     10.853
REMARK SMILES Cc1cc(OC(F)(F)F)cc2c1O[C@H](C(F)(F)F)C(C(=O)OCCOCCOCCOC(=O)c1ccc(-c3c4nc(c(-c5cccc(S(=O)(=O)[O-])c5F)c5ccc([nH]5)c(-c5cccc(S(=O)(=O)[O-])c5F)c5nc(c(-c6cccc(S(=O)(=O)[O-])c6F)c6ccc3[nH]6)C=C5)C=C4)cc1)=C2
REMARK SMILES IDX 27 1 26 2 25 3 24 4 23 5 22 6 20 7 21 8 19 9 1 10 2 11 3 12
REMARK SMILES IDX 12 13 4 14 11 15 13 16 10 17 97 18 14 19 5 20 6 21 7 22 8 23
REMARK SMILES IDX 9 24 15 25 16 26 17 27 18 28 28 29 29 30 30 31 31 32 32 33
REMARK SMILES IDX 33 34 34 35 35 36 96 37 36 38 95 39 37 40 38 41 39 42 89 43
REMARK SMILES IDX 40 44 94 45 88 46 90 47 41 48 93 49 87 50 86 51 42 53 74 54
REMARK SMILES IDX 54 55 73 56 55 57 58 58 72 59 91 60 56 61 57 62 71 64 92 65
REMARK SMILES IDX 59 66 43 67 44 68 52 69 45 70 47 71 53 72 46 73 48 74 49 75
REMARK SMILES IDX 50 76 51 77 75 78 76 79 84 80 77 81 79 82 85 83 78 84 80 85
REMARK SMILES IDX 81 86 82 87 83 88 60 89 61 90 69 91 62 92 64 93 70 94 63 95
REMARK SMILES IDX 65 96 66 97 67 98 68 99
REMARK H PARENT 90 52 58 63
REMARK Flexibility Score: inf
ROOT
ATOM      1  C   UNL A   1      31.897  27.873  26.282  1.00  0.00     0.188 C 
ENDROOT
BRANCH   1   2
ATOM      2  C   UNL A   1      31.188  26.665  26.937  1.00  0.00     0.188 C 
BRANCH   2   3
ATOM      3  O   UNL A   1      30.357  25.977  26.029  1.00  0.00    -0.376 OA
BRANCH   3   4
ATOM      4  C   UNL A   1      29.940  26.630  24.847  1.00  0.00     0.202 C 
BRANCH   4   5
ATOM      5  C   UNL A   1      30.048  25.960  23.465  1.00  0.00     0.261 C 
BRANCH   5   6
ATOM      6  O   UNL A   1      30.713  24.691  23.401  1.00  0.00    -0.460 OA
BRANCH   6   7
ATOM      7  C   UNL A   1      31.794  24.602  22.595  1.00  0.00     0.338 C 
ATOM      8  O   UNL A   1      32.074  25.342  21.668  1.00  0.00    -0.246 OA
BRANCH   7   9
ATOM      9  C   UNL A   1      32.659  23.501  23.076  1.00  0.00     0.087 C 
ATOM     10  C   UNL A   1      36.370  20.728  25.266  1.00  0.00     0.048 C 
ATOM     11  C   UNL A   1      34.998  20.450  24.715  1.00  0.00    -0.005 A 
ATOM     12  C   UNL A   1      34.462  19.155  24.817  1.00  0.00     0.054 A 
ATOM     13  C   UNL A   1      34.249  21.458  24.086  1.00  0.00     0.131 A 
ATOM     14  C   UNL A   1      33.192  18.868  24.314  1.00  0.00     0.130 A 
ATOM     15  C   UNL A   1      32.964  21.188  23.611  1.00  0.00     0.021 A 
ATOM     16  O   UNL A   1      34.845  22.683  23.970  1.00  0.00    -0.475 OA
ATOM     17  C   UNL A   1      32.453  19.887  23.704  1.00  0.00     0.058 A 
ATOM     18  C   UNL A   1      32.141  22.266  23.082  1.00  0.00     0.027 C 
ATOM     19  C   UNL A   1      34.065  23.818  23.511  1.00  0.00     0.316 C 
BRANCH  14  20
ATOM     20  O   UNL A   1      32.563  17.657  24.357  1.00  0.00    -0.406 OA
BRANCH  20  21
ATOM     21  C   UNL A   1      33.347  16.513  24.652  1.00  0.00     0.573 C 
ATOM     22  F   UNL A   1      32.593  15.392  24.646  1.00  0.00    -0.132 F 
ATOM     23  F   UNL A   1      34.356  16.372  23.762  1.00  0.00    -0.132 F 
ATOM     24  F   UNL A   1      33.889  16.651  25.880  1.00  0.00    -0.132 F 
ENDBRANCH  20  21
ENDBRANCH  14  20
BRANCH  19  25
ATOM     25  C   UNL A   1      34.112  24.895  24.602  1.00  0.00     0.430 C 
ATOM     26  F   UNL A   1      35.292  24.867  25.271  1.00  0.00    -0.167 F 
ATOM     27  F   UNL A   1      33.993  26.142  24.089  1.00  0.00    -0.167 F 
ATOM     28  F   UNL A   1      33.128  24.738  25.516  1.00  0.00    -0.167 F 
ENDBRANCH  19  25
ENDBRANCH   7   9
ENDBRANCH   6   7
ENDBRANCH   5   6
ENDBRANCH   4   5
ENDBRANCH   3   4
ENDBRANCH   2   3
ENDBRANCH   1   2
BRANCH   1  29
ATOM     29  O   UNL A   1      31.422  29.190  26.539  1.00  0.00    -0.376 OA
BRANCH  29  30
ATOM     30  C   UNL A   1      32.200  30.292  26.080  1.00  0.00     0.202 C 
BRANCH  30  31
ATOM     31  C   UNL A   1      31.835  31.724  26.507  1.00  0.00     0.261 C 
BRANCH  31  32
ATOM     32  O   UNL A   1      32.416  32.176  27.741  1.00  0.00    -0.460 OA
BRANCH  32  33
ATOM     33  C   UNL A   1      33.448  33.050  27.632  1.00  0.00     0.338 C 
ATOM     34  O   UNL A   1      33.386  34.235  27.340  1.00  0.00    -0.246 OA
BRANCH  33  35
ATOM     35  C   UNL A   1      34.682  32.397  28.106  1.00  0.00     0.060 A 
ATOM     36  C   UNL A   1      34.611  31.090  28.610  1.00  0.00     0.016 A 
ATOM     37  C   UNL A   1      35.899  33.077  28.073  1.00  0.00     0.016 A 
ATOM     38  C   UNL A   1      35.764  30.448  29.059  1.00  0.00     0.010 A 
ATOM     39  C   UNL A   1      37.047  32.449  28.564  1.00  0.00     0.010 A 
ATOM     40  C   UNL A   1      36.982  31.138  29.067  1.00  0.00    -0.014 A 
BRANCH  40  41
ATOM     41  C   UNL A   1      38.148  30.544  29.758  1.00  0.00     0.031 A 
ATOM     42  C   UNL A   1      38.461  31.003  31.154  1.00  0.00     0.074 A 
ATOM     43  C   UNL A   1      38.911  29.610  29.161  1.00  0.00     0.049 A 
ATOM     44  N   UNL A   1      39.422  30.618  31.949  1.00  0.00    -0.248 NA
ATOM     45  C   UNL A   1      37.571  32.026  31.730  1.00  0.00     0.031 C 
ATOM     46  C   UNL A   1      38.698  29.079  27.816  1.00  0.00     0.029 A 
ATOM     47  N   UNL A   1      40.032  28.958  29.610  1.00  0.00    -0.354 N 
ATOM     48  C   UNL A   1      39.262  31.358  33.114  1.00  0.00     0.074 A 
ATOM     49  C   UNL A   1      38.118  32.219  32.923  1.00  0.00     0.031 C 
ATOM     50  C   UNL A   1      39.675  28.197  27.539  1.00  0.00     0.029 A 
ATOM     51  C   UNL A   1      40.586  28.112  28.679  1.00  0.00     0.049 A 
ATOM     52  H   UNL A   1      40.403  29.085  30.512  1.00  0.00     0.167 HD
ATOM     53  C   UNL A   1      39.997  31.310  34.247  1.00  0.00     0.034 A 
ATOM     54  C   UNL A   1      41.705  27.362  28.739  1.00  0.00     0.034 A 
ATOM     55  C   UNL A   1      41.128  30.450  34.441  1.00  0.00     0.049 A 
ATOM     56  C   UNL A   1      42.531  27.357  30.000  1.00  0.00     0.074 A 
ATOM     57  C   UNL A   1      41.907  30.308  35.576  1.00  0.00     0.029 A 
ATOM     58  N   UNL A   1      41.648  29.600  33.481  1.00  0.00    -0.354 N 
ATOM     59  N   UNL A   1      42.308  27.986  31.129  1.00  0.00    -0.248 NA
ATOM     60  C   UNL A   1      43.744  26.524  30.008  1.00  0.00     0.031 C 
ATOM     61  C   UNL A   1      42.915  29.385  35.294  1.00  0.00     0.029 A 
ATOM     62  C   UNL A   1      42.748  28.936  33.993  1.00  0.00     0.049 A 
ATOM     63  H   UNL A   1      41.291  29.485  32.572  1.00  0.00     0.167 HD
ATOM     64  C   UNL A   1      43.332  27.603  31.989  1.00  0.00     0.074 A 
ATOM     65  C   UNL A   1      44.178  26.686  31.254  1.00  0.00     0.031 C 
ATOM     66  C   UNL A   1      43.550  27.985  33.270  1.00  0.00     0.034 A 
BRANCH  53  67
ATOM     67  C   UNL A   1      39.581  32.186  35.392  1.00  0.00     0.023 A 
ATOM     68  C   UNL A   1      38.745  31.656  36.393  1.00  0.00     0.012 A 
ATOM     69  C   UNL A   1      40.101  33.486  35.532  1.00  0.00     0.148 A 
ATOM     70  C   UNL A   1      38.428  32.410  37.520  1.00  0.00     0.002 A 
ATOM     71  C   UNL A   1      39.805  34.221  36.672  1.00  0.00     0.091 A 
ATOM     72  F   UNL A   1      40.883  33.969  34.555  1.00  0.00    -0.205 F 
ATOM     73  C   UNL A   1      38.967  33.686  37.665  1.00  0.00     0.022 A 
BRANCH  71  74
ATOM     74  S   UNL A   1      40.487  35.854  36.981  1.00  0.00     0.127 S 
ATOM     75  O   UNL A   1      39.763  36.665  36.003  1.00  0.00    -0.237 OA
ATOM     76  O   UNL A   1      40.102  36.087  38.373  1.00  0.00    -0.237 OA
ATOM     77  O   UNL A   1      41.921  35.744  36.751  1.00  0.00    -0.744 OA
ENDBRANCH  71  74
ENDBRANCH  53  67
BRANCH  54  78
ATOM     78  C   UNL A   1      42.078  26.511  27.577  1.00  0.00     0.023 A 
ATOM     79  C   UNL A   1      42.814  27.076  26.518  1.00  0.00     0.012 A 
ATOM     80  C   UNL A   1      41.761  25.139  27.545  1.00  0.00     0.148 A 
ATOM     81  C   UNL A   1      43.223  26.289  25.442  1.00  0.00     0.002 A 
ATOM     82  C   UNL A   1      42.200  24.353  26.485  1.00  0.00     0.091 A 
ATOM     83  F   UNL A   1      41.056  24.629  28.564  1.00  0.00    -0.205 F 
ATOM     84  C   UNL A   1      42.925  24.928  25.429  1.00  0.00     0.022 A 
BRANCH  82  85
ATOM     85  S   UNL A   1      41.939  22.578  26.417  1.00  0.00     0.127 S 
ATOM     86  O   UNL A   1      40.484  22.493  26.320  1.00  0.00    -0.237 OA
ATOM     87  O   UNL A   1      42.660  22.219  25.195  1.00  0.00    -0.237 OA
ATOM     88  O   UNL A   1      42.514  22.043  27.643  1.00  0.00    -0.744 OA
ENDBRANCH  82  85
ENDBRANCH  54  78
BRANCH  66  89
ATOM     89  C   UNL A   1      44.729  27.415  34.010  1.00  0.00     0.023 A 
ATOM     90  C   UNL A   1      45.925  28.154  34.073  1.00  0.00     0.012 A 
ATOM     91  C   UNL A   1      44.579  26.259  34.802  1.00  0.00     0.148 A 
ATOM     92  C   UNL A   1      46.954  27.754  34.926  1.00  0.00     0.002 A 
ATOM     93  C   UNL A   1      45.594  25.887  35.672  1.00  0.00     0.091 A 
ATOM     94  F   UNL A   1      43.425  25.579  34.722  1.00  0.00    -0.205 F 
ATOM     95  C   UNL A   1      46.784  26.632  35.735  1.00  0.00     0.022 A 
BRANCH  93  96
ATOM     96  S   UNL A   1      45.438  24.509  36.816  1.00  0.00     0.127 S 
ATOM     97  O   UNL A   1      44.414  25.001  37.737  1.00  0.00    -0.237 OA
ATOM     98  O   UNL A   1      44.999  23.428  35.937  1.00  0.00    -0.237 OA
ATOM     99  O   UNL A   1      46.755  24.322  37.408  1.00  0.00    -0.744 OA
ENDBRANCH  93  96
ENDBRANCH  66  89
ENDBRANCH  40  41
ENDBRANCH  33  35
ENDBRANCH  32  33
ENDBRANCH  31  32
ENDBRANCH  30  31
ENDBRANCH  29  30
ENDBRANCH   1  29
TORSDOF 23
ENDMDL
MODEL 3
REMARK VINA RESULT:     -10.7      4.798      7.511
REMARK SMILES Cc1cc(OC(F)(F)F)cc2c1O[C@H](C(F)(F)F)C(C(=O)OCCOCCOCCOC(=O)c1ccc(-c3c4nc(c(-c5cccc(S(=O)(=O)[O-])c5F)c5ccc([nH]5)c(-c5cccc(S(=O)(=O)[O-])c5F)c5nc(c(-c6cccc(S(=O)(=O)[O-])c6F)c6ccc3[nH]6)C=C5)C=C4)cc1)=C2
REMARK SMILES IDX 27 1 26 2 25 3 24 4 23 5 22 6 20 7 21 8 19 9 1 10 2 11 3 12
REMARK SMILES IDX 12 13 4 14 11 15 13 16 10 17 97 18 14 19 5 20 6 21 7 22 8 23
REMARK SMILES IDX 9 24 15 25 16 26 17 27 18 28 28 29 29 30 30 31 31 32 32 33
REMARK SMILES IDX 33 34 34 35 35 36 96 37 36 38 95 39 37 40 38 41 39 42 89 43
REMARK SMILES IDX 40 44 94 45 88 46 90 47 41 48 93 49 87 50 86 51 42 53 74 54
REMARK SMILES IDX 54 55 73 56 55 57 58 58 72 59 91 60 56 61 57 62 71 64 92 65
REMARK SMILES IDX 59 66 43 67 44 68 52 69 45 70 47 71 53 72 46 73 48 74 49 75
REMARK SMILES IDX 50 76 51 77 75 78 76 79 84 80 77 81 79 82 85 83 78 84 80 85
REMARK SMILES IDX 81 86 82 87 83 88 60 89 61 90 69 91 62 92 64 93 70 94 63 95
REMARK SMILES IDX 65 96 66 97 67 98 68 99
REMARK H PARENT 90 52 58 63
REMARK Flexibility Score: inf
ROOT
ATOM      1  C   UNL A   1      33.887  25.666  25.770  1.00  0.00     0.188 C 
ENDROOT
BRANCH   1   2
ATOM      2  C   UNL A   1      35.112  24.779  25.446  1.00  0.00     0.188 C 
BRANCH   2   3
ATOM      3  O   UNL A   1      34.877  23.419  25.735  1.00  0.00    -0.376 OA
BRANCH   3   4
ATOM      4  C   UNL A   1      34.431  23.057  27.026  1.00  0.00     0.202 C 
BRANCH   4   5
ATOM      5  C   UNL A   1      33.056  22.404  27.259  1.00  0.00     0.261 C 
BRANCH   5   6
ATOM      6  O   UNL A   1      32.443  21.749  26.141  1.00  0.00    -0.460 OA
BRANCH   6   7
ATOM      7  C   UNL A   1      31.230  22.199  25.751  1.00  0.00     0.338 C 
ATOM      8  O   UNL A   1      30.147  21.826  26.166  1.00  0.00    -0.246 OA
BRANCH   7   9
ATOM      9  C   UNL A   1      31.419  23.309  24.790  1.00  0.00     0.087 C 
ATOM     10  C   UNL A   1      32.505  26.136  20.656  1.00  0.00     0.048 C 
ATOM     11  C   UNL A   1      31.719  26.335  21.923  1.00  0.00    -0.005 A 
ATOM     12  C   UNL A   1      31.012  27.535  22.116  1.00  0.00     0.054 A 
ATOM     13  C   UNL A   1      31.691  25.350  22.924  1.00  0.00     0.131 A 
ATOM     14  C   UNL A   1      30.275  27.748  23.282  1.00  0.00     0.130 A 
ATOM     15  C   UNL A   1      30.929  25.542  24.078  1.00  0.00     0.021 A 
ATOM     16  O   UNL A   1      32.441  24.230  22.703  1.00  0.00    -0.475 OA
ATOM     17  C   UNL A   1      30.246  26.751  24.262  1.00  0.00     0.058 A 
ATOM     18  C   UNL A   1      30.796  24.465  25.050  1.00  0.00     0.027 C 
ATOM     19  C   UNL A   1      32.309  23.092  23.595  1.00  0.00     0.316 C 
BRANCH  14  20
ATOM     20  O   UNL A   1      29.546  28.863  23.582  1.00  0.00    -0.406 OA
BRANCH  20  21
ATOM     21  C   UNL A   1      28.304  29.039  22.920  1.00  0.00     0.573 C 
ATOM     22  F   UNL A   1      27.581  30.023  23.500  1.00  0.00    -0.132 F 
ATOM     23  F   UNL A   1      28.487  29.336  21.614  1.00  0.00    -0.132 F 
ATOM     24  F   UNL A   1      27.595  27.894  22.994  1.00  0.00    -0.132 F 
ENDBRANCH  20  21
ENDBRANCH  14  20
BRANCH  19  25
ATOM     25  C   UNL A   1      31.878  21.882  22.757  1.00  0.00     0.430 C 
ATOM     26  F   UNL A   1      32.524  21.855  21.564  1.00  0.00    -0.167 F 
ATOM     27  F   UNL A   1      32.165  20.711  23.373  1.00  0.00    -0.167 F 
ATOM     28  F   UNL A   1      30.552  21.888  22.496  1.00  0.00    -0.167 F 
ENDBRANCH  19  25
ENDBRANCH   7   9
ENDBRANCH   6   7
ENDBRANCH   5   6
ENDBRANCH   4   5
ENDBRANCH   3   4
ENDBRANCH   2   3
ENDBRANCH   1   2
BRANCH   1  29
ATOM     29  O   UNL A   1      34.042  27.079  25.841  1.00  0.00    -0.376 OA
BRANCH  29  30
ATOM     30  C   UNL A   1      33.787  27.848  24.669  1.00  0.00     0.202 C 
BRANCH  30  31
ATOM     31  C   UNL A   1      33.296  29.301  24.793  1.00  0.00     0.261 C 
BRANCH  31  32
ATOM     32  O   UNL A   1      32.583  29.619  25.999  1.00  0.00    -0.460 OA
BRANCH  32  33
ATOM     33  C   UNL A   1      32.888  30.807  26.579  1.00  0.00     0.338 C 
ATOM     34  O   UNL A   1      32.261  31.852  26.500  1.00  0.00    -0.246 OA
BRANCH  33  35
ATOM     35  C   UNL A   1      34.026  30.614  27.498  1.00  0.00     0.060 A 
ATOM     36  C   UNL A   1      34.979  31.636  27.627  1.00  0.00     0.016 A 
ATOM     37  C   UNL A   1      34.163  29.425  28.211  1.00  0.00     0.016 A 
ATOM     38  C   UNL A   1      36.059  31.481  28.492  1.00  0.00     0.010 A 
ATOM     39  C   UNL A   1      35.271  29.252  29.046  1.00  0.00     0.010 A 
ATOM     40  C   UNL A   1      36.227  30.274  29.182  1.00  0.00    -0.014 A 
BRANCH  40  41
ATOM     41  C   UNL A   1      37.491  30.024  29.910  1.00  0.00     0.031 A 
ATOM     42  C   UNL A   1      38.512  29.120  29.280  1.00  0.00     0.074 A 
ATOM     43  C   UNL A   1      37.731  30.592  31.105  1.00  0.00     0.049 A 
ATOM     44  N   UNL A   1      39.685  28.766  29.729  1.00  0.00    -0.248 NA
ATOM     45  C   UNL A   1      38.166  28.543  27.968  1.00  0.00     0.031 C 
ATOM     46  C   UNL A   1      36.821  31.495  31.810  1.00  0.00     0.029 A 
ATOM     47  N   UNL A   1      38.810  30.476  31.944  1.00  0.00    -0.354 N 
ATOM     48  C   UNL A   1      40.214  27.918  28.765  1.00  0.00     0.074 A 
ATOM     49  C   UNL A   1      39.235  27.802  27.709  1.00  0.00     0.031 C 
ATOM     50  C   UNL A   1      37.373  31.832  32.989  1.00  0.00     0.029 A 
ATOM     51  C   UNL A   1      38.664  31.161  33.127  1.00  0.00     0.049 A 
ATOM     52  H   UNL A   1      39.612  29.952  31.721  1.00  0.00     0.167 HD
ATOM     53  C   UNL A   1      41.418  27.302  28.756  1.00  0.00     0.034 A 
ATOM     54  C   UNL A   1      39.477  31.230  34.201  1.00  0.00     0.034 A 
ATOM     55  C   UNL A   1      42.394  27.423  29.800  1.00  0.00     0.049 A 
ATOM     56  C   UNL A   1      40.796  30.502  34.184  1.00  0.00     0.074 A 
ATOM     57  C   UNL A   1      43.659  26.864  29.854  1.00  0.00     0.029 A 
ATOM     58  N   UNL A   1      42.214  28.135  30.973  1.00  0.00    -0.354 N 
ATOM     59  N   UNL A   1      41.325  29.786  33.222  1.00  0.00    -0.248 NA
ATOM     60  C   UNL A   1      41.641  30.609  35.385  1.00  0.00     0.031 C 
ATOM     61  C   UNL A   1      44.238  27.223  31.071  1.00  0.00     0.029 A 
ATOM     62  C   UNL A   1      43.341  28.022  31.764  1.00  0.00     0.049 A 
ATOM     63  H   UNL A   1      41.406  28.644  31.208  1.00  0.00     0.167 HD
ATOM     64  C   UNL A   1      42.573  29.383  33.686  1.00  0.00     0.074 A 
ATOM     65  C   UNL A   1      42.725  29.934  35.016  1.00  0.00     0.031 C 
ATOM     66  C   UNL A   1      43.503  28.620  33.064  1.00  0.00     0.034 A 
BRANCH  53  67
ATOM     67  C   UNL A   1      41.773  26.469  27.560  1.00  0.00     0.023 A 
ATOM     68  C   UNL A   1      42.393  27.084  26.456  1.00  0.00     0.012 A 
ATOM     69  C   UNL A   1      41.594  25.073  27.574  1.00  0.00     0.148 A 
ATOM     70  C   UNL A   1      42.829  26.319  25.376  1.00  0.00     0.002 A 
ATOM     71  C   UNL A   1      42.058  24.315  26.508  1.00  0.00     0.091 A 
ATOM     72  F   UNL A   1      40.988  24.519  28.635  1.00  0.00    -0.205 F 
ATOM     73  C   UNL A   1      42.673  24.935  25.408  1.00  0.00     0.022 A 
BRANCH  71  74
ATOM     74  S   UNL A   1      41.952  22.522  26.471  1.00  0.00     0.127 S 
ATOM     75  O   UNL A   1      42.647  22.212  25.223  1.00  0.00    -0.237 OA
ATOM     76  O   UNL A   1      42.679  22.148  27.685  1.00  0.00    -0.237 OA
ATOM     77  O   UNL A   1      40.532  22.200  26.482  1.00  0.00    -0.744 OA
ENDBRANCH  71  74
ENDBRANCH  53  67
BRANCH  54  78
ATOM     78  C   UNL A   1      39.081  32.068  35.365  1.00  0.00     0.023 A 
ATOM     79  C   UNL A   1      38.203  31.537  36.329  1.00  0.00     0.012 A 
ATOM     80  C   UNL A   1      39.613  33.358  35.551  1.00  0.00     0.148 A 
ATOM     81  C   UNL A   1      37.857  32.279  37.458  1.00  0.00     0.002 A 
ATOM     82  C   UNL A   1      39.290  34.081  36.694  1.00  0.00     0.091 A 
ATOM     83  F   UNL A   1      40.442  33.841  34.616  1.00  0.00    -0.205 F 
ATOM     84  C   UNL A   1      38.406  33.546  37.645  1.00  0.00     0.022 A 
BRANCH  82  85
ATOM     85  S   UNL A   1      40.009  35.683  37.068  1.00  0.00     0.127 S 
ATOM     86  O   UNL A   1      39.652  36.456  35.881  1.00  0.00    -0.237 OA
ATOM     87  O   UNL A   1      39.286  36.056  38.285  1.00  0.00    -0.237 OA
ATOM     88  O   UNL A   1      41.433  35.448  37.254  1.00  0.00    -0.744 OA
ENDBRANCH  82  85
ENDBRANCH  54  78
BRANCH  66  89
ATOM     89  C   UNL A   1      44.799  28.330  33.770  1.00  0.00     0.023 A 
ATOM     90  C   UNL A   1      45.844  29.271  33.707  1.00  0.00     0.012 A 
ATOM     91  C   UNL A   1      44.897  27.235  34.651  1.00  0.00     0.148 A 
ATOM     92  C   UNL A   1      46.967  29.130  34.521  1.00  0.00     0.002 A 
ATOM     93  C   UNL A   1      46.003  27.120  35.483  1.00  0.00     0.091 A 
ATOM     94  F   UNL A   1      43.883  26.358  34.692  1.00  0.00    -0.205 F 
ATOM     95  C   UNL A   1      47.040  28.066  35.419  1.00  0.00     0.022 A 
BRANCH  93  96
ATOM     96  S   UNL A   1      46.153  25.836  36.731  1.00  0.00     0.127 S 
ATOM     97  O   UNL A   1      44.972  26.084  37.558  1.00  0.00    -0.237 OA
ATOM     98  O   UNL A   1      46.088  24.617  35.927  1.00  0.00    -0.237 OA
ATOM     99  O   UNL A   1      47.427  26.064  37.398  1.00  0.00    -0.744 OA
ENDBRANCH  93  96
ENDBRANCH  66  89
ENDBRANCH  40  41
ENDBRANCH  33  35
ENDBRANCH  32  33
ENDBRANCH  31  32
ENDBRANCH  30  31
ENDBRANCH  29  30
ENDBRANCH   1  29
TORSDOF 23
ENDMDL
