MODEL 1
REMARK VINA RESULT:     -10.8      0.000      0.000
REMARK SMILES CC(C)(NC(=O)[C@]1(C)CCCO1)C(C)(C)C(=O)OCCOCCOCCOC(=O)c1ccc(-c2c3nc(c(-c4cccc(S(=O)(=O)[O-])c4F)c4ccc([nH]4)c(-c4cccc(S(=O)(=O)[O-])c4F)c4nc(c(-c5cccc(S(=O)(=O)[O-])c5F)c5ccc2[nH]5)C=C4)C=C3)cc1
REMARK SMILES IDX 22 1 21 2 20 3 19 4 18 5 16 6 17 7 13 8 14 9 15 10 2 11 1 12
REMARK SMILES IDX 3 13 4 14 5 15 6 17 7 18 9 19 12 20 8 21 10 22 11 23 23 24
REMARK SMILES IDX 24 25 25 26 26 27 27 28 28 29 29 30 30 31 31 32 92 33 32 34
REMARK SMILES IDX 91 35 33 36 34 37 35 38 85 39 36 40 90 41 84 42 86 43 37 44
REMARK SMILES IDX 89 45 83 46 82 47 38 49 70 50 50 51 69 52 51 53 54 54 68 55
REMARK SMILES IDX 87 56 52 57 53 58 67 60 88 61 55 62 39 63 40 64 48 65 41 66
REMARK SMILES IDX 43 67 49 68 42 69 44 70 45 71 46 72 47 73 71 74 72 75 80 76
REMARK SMILES IDX 73 77 75 78 81 79 74 80 76 81 77 82 78 83 79 84 56 85 57 86
REMARK SMILES IDX 65 87 58 88 60 89 66 90 59 91 61 92 62 93 63 94 64 95
REMARK H PARENT 4 16 86 48 54 59
REMARK Flexibility Score: inf
ROOT
ATOM      1  C   UNL A   1      40.848  20.330  26.484  1.00  0.00     0.188 C 
ENDROOT
BRANCH   1   2
ATOM      2  O   UNL A   1      39.676  21.128  26.651  1.00  0.00    -0.376 OA
BRANCH   2   3
ATOM      3  C   UNL A   1      39.451  22.405  26.059  1.00  0.00     0.202 C 
BRANCH   3   4
ATOM      4  C   UNL A   1      37.886  23.048  26.160  1.00  0.00     0.261 C 
BRANCH   4   5
ATOM      5  O   UNL A   1      36.507  22.442  25.197  1.00  0.00    -0.463 OA
BRANCH   5   6
ATOM      6  C   UNL A   1      34.878  21.473  25.376  1.00  0.00     0.313 C 
ATOM      7  O   UNL A   1      34.709  20.323  24.862  1.00  0.00    -0.252 OA
BRANCH   6   8
ATOM      8  C   UNL A   1      33.496  21.769  26.140  1.00  0.00     0.085 C 
ATOM      9  C   UNL A   1      33.232  21.942  27.648  1.00  0.00     0.026 C 
ATOM     10  C   UNL A   1      32.591  20.526  25.740  1.00  0.00     0.026 C 
BRANCH   8  11
ATOM     11  C   UNL A   1      32.955  23.082  25.335  1.00  0.00     0.050 C 
ATOM     12  C   UNL A   1      33.398  24.400  26.023  1.00  0.00     0.035 C 
ATOM     13  C   UNL A   1      31.400  23.286  25.191  1.00  0.00     0.035 C 
BRANCH  11  14
ATOM     14  N   UNL A   1      33.529  23.098  23.982  1.00  0.00    -0.348 N 
ATOM     15  C   UNL A   1      33.470  23.981  22.957  1.00  0.00     0.252 C 
ATOM     16  H   UNL A   1      34.070  22.300  23.778  1.00  0.00     0.164 HD
ATOM     17  O   UNL A   1      34.081  23.631  21.939  1.00  0.00    -0.272 OA
BRANCH  15  18
ATOM     18  C   UNL A   1      32.731  25.373  23.006  1.00  0.00     0.143 C 
ATOM     19  C   UNL A   1      33.718  26.772  24.052  1.00  0.00     0.048 C 
ATOM     20  O   UNL A   1      30.975  25.341  23.636  1.00  0.00    -0.365 OA
ATOM     21  C   UNL A   1      32.430  25.749  21.516  1.00  0.00     0.053 C 
ATOM     22  C   UNL A   1      32.310  27.559  25.386  1.00  0.00     0.032 C 
ATOM     23  C   UNL A   1      30.591  26.643  24.939  1.00  0.00     0.162 C 
ENDBRANCH  15  18
ENDBRANCH  11  14
ENDBRANCH   8  11
ENDBRANCH   6   8
ENDBRANCH   5   6
ENDBRANCH   4   5
ENDBRANCH   3   4
ENDBRANCH   2   3
ENDBRANCH   1   2
BRANCH   1  24
ATOM     24  C   UNL A   1      42.146  20.837  25.832  1.00  0.00     0.188 C 
BRANCH  24  25
ATOM     25  O   UNL A   1      43.184  19.915  25.506  1.00  0.00    -0.376 OA
BRANCH  25  26
ATOM     26  C   UNL A   1      44.489  20.283  25.916  1.00  0.00     0.202 C 
BRANCH  26  27
ATOM     27  C   UNL A   1      45.061  21.619  25.393  1.00  0.00     0.261 C 
BRANCH  27  28
ATOM     28  O   UNL A   1      44.636  22.801  26.097  1.00  0.00    -0.460 OA
BRANCH  28  29
ATOM     29  C   UNL A   1      43.900  23.688  25.365  1.00  0.00     0.338 C 
ATOM     30  O   UNL A   1      43.665  23.617  24.170  1.00  0.00    -0.246 OA
BRANCH  29  31
ATOM     31  C   UNL A   1      43.221  24.659  26.273  1.00  0.00     0.060 A 
ATOM     32  C   UNL A   1      43.503  26.026  26.111  1.00  0.00     0.016 A 
ATOM     33  C   UNL A   1      42.283  24.257  27.224  1.00  0.00     0.016 A 
ATOM     34  C   UNL A   1      42.872  26.988  26.913  1.00  0.00     0.010 A 
ATOM     35  C   UNL A   1      41.672  25.219  28.045  1.00  0.00     0.010 A 
ATOM     36  C   UNL A   1      41.978  26.589  27.913  1.00  0.00    -0.014 A 
BRANCH  36  37
ATOM     37  C   UNL A   1      41.499  27.552  28.945  1.00  0.00     0.031 A 
ATOM     38  C   UNL A   1      42.273  27.659  30.234  1.00  0.00     0.074 A 
ATOM     39  C   UNL A   1      40.383  28.289  28.786  1.00  0.00     0.049 A 
ATOM     40  N   UNL A   1      41.977  28.300  31.335  1.00  0.00    -0.248 NA
ATOM     41  C   UNL A   1      43.557  26.940  30.281  1.00  0.00     0.031 C 
ATOM     42  C   UNL A   1      39.556  28.331  27.583  1.00  0.00     0.029 A 
ATOM     43  N   UNL A   1      39.731  29.118  29.672  1.00  0.00    -0.354 N 
ATOM     44  C   UNL A   1      43.013  28.030  32.220  1.00  0.00     0.074 A 
ATOM     45  C   UNL A   1      43.950  27.173  31.525  1.00  0.00     0.031 C 
ATOM     46  C   UNL A   1      38.479  29.103  27.822  1.00  0.00     0.029 A 
ATOM     47  C   UNL A   1      38.520  29.577  29.206  1.00  0.00     0.049 A 
ATOM     48  H   UNL A   1      40.096  29.359  30.553  1.00  0.00     0.167 HD
ATOM     49  C   UNL A   1      43.176  28.451  33.497  1.00  0.00     0.034 A 
ATOM     50  C   UNL A   1      37.538  30.259  29.835  1.00  0.00     0.034 A 
ATOM     51  C   UNL A   1      42.254  29.305  34.196  1.00  0.00     0.049 A 
ATOM     52  C   UNL A   1      37.707  30.656  31.285  1.00  0.00     0.074 A 
ATOM     53  C   UNL A   1      42.357  29.807  35.483  1.00  0.00     0.029 A 
ATOM     54  N   UNL A   1      41.051  29.763  33.684  1.00  0.00    -0.354 N 
ATOM     55  N   UNL A   1      38.731  30.472  32.082  1.00  0.00    -0.248 NA
ATOM     56  C   UNL A   1      36.585  31.374  31.915  1.00  0.00     0.031 C 
ATOM     57  C   UNL A   1      41.196  30.534  35.763  1.00  0.00     0.029 A 
ATOM     58  C   UNL A   1      40.390  30.522  34.636  1.00  0.00     0.049 A 
ATOM     59  H   UNL A   1      40.717  29.576  32.778  1.00  0.00     0.167 HD
ATOM     60  C   UNL A   1      38.392  31.078  33.290  1.00  0.00     0.074 A 
ATOM     61  C   UNL A   1      37.077  31.655  33.114  1.00  0.00     0.031 C 
ATOM     62  C   UNL A   1      39.101  31.137  34.445  1.00  0.00     0.034 A 
BRANCH  49  63
ATOM     63  C   UNL A   1      44.406  27.986  34.231  1.00  0.00     0.023 A 
ATOM     64  C   UNL A   1      44.371  26.786  34.971  1.00  0.00     0.012 A 
ATOM     65  C   UNL A   1      45.608  28.714  34.147  1.00  0.00     0.148 A 
ATOM     66  C   UNL A   1      45.506  26.337  35.645  1.00  0.00     0.002 A 
ATOM     67  C   UNL A   1      46.747  28.235  34.782  1.00  0.00     0.091 A 
ATOM     68  F   UNL A   1      45.614  29.862  33.456  1.00  0.00    -0.205 F 
ATOM     69  C   UNL A   1      46.695  27.054  35.542  1.00  0.00     0.022 A 
BRANCH  67  70
ATOM     70  S   UNL A   1      48.345  29.043  34.646  1.00  0.00     0.127 S 
ATOM     71  O   UNL A   1      49.060  28.478  35.789  1.00  0.00    -0.237 OA
ATOM     72  O   UNL A   1      48.815  28.576  33.342  1.00  0.00    -0.237 OA
ATOM     73  O   UNL A   1      48.082  30.473  34.722  1.00  0.00    -0.744 OA
ENDBRANCH  67  70
ENDBRANCH  49  63
BRANCH  50  74
ATOM     74  C   UNL A   1      36.279  30.608  29.110  1.00  0.00     0.023 A 
ATOM     75  C   UNL A   1      35.514  29.589  28.511  1.00  0.00     0.012 A 
ATOM     76  C   UNL A   1      35.853  31.945  28.988  1.00  0.00     0.148 A 
ATOM     77  C   UNL A   1      34.365  29.896  27.781  1.00  0.00     0.002 A 
ATOM     78  C   UNL A   1      34.679  32.240  28.305  1.00  0.00     0.091 A 
ATOM     79  F   UNL A   1      36.610  32.904  29.541  1.00  0.00    -0.205 F 
ATOM     80  C   UNL A   1      33.942  31.219  27.686  1.00  0.00     0.022 A 
BRANCH  78  81
ATOM     81  S   UNL A   1      34.003  33.902  28.218  1.00  0.00     0.127 S 
ATOM     82  O   UNL A   1      32.683  33.659  27.640  1.00  0.00    -0.237 OA
ATOM     83  O   UNL A   1      33.995  34.298  29.626  1.00  0.00    -0.237 OA
ATOM     84  O   UNL A   1      34.924  34.661  27.384  1.00  0.00    -0.744 OA
ENDBRANCH  78  81
ENDBRANCH  50  74
BRANCH  62  85
ATOM     85  C   UNL A   1      38.500  31.882  35.613  1.00  0.00     0.023 A 
ATOM     86  C   UNL A   1      38.352  33.282  35.554  1.00  0.00     0.012 A 
ATOM     87  C   UNL A   1      38.010  31.186  36.737  1.00  0.00     0.148 A 
ATOM     88  C   UNL A   1      37.757  33.979  36.607  1.00  0.00     0.002 A 
ATOM     89  C   UNL A   1      37.373  31.881  37.759  1.00  0.00     0.091 A 
ATOM     90  F   UNL A   1      38.169  29.855  36.784  1.00  0.00    -0.205 F 
ATOM     91  C   UNL A   1      37.258  33.279  37.703  1.00  0.00     0.022 A 
BRANCH  89  92
ATOM     92  S   UNL A   1      36.613  31.057  39.164  1.00  0.00     0.127 S 
ATOM     93  O   UNL A   1      35.604  32.033  39.573  1.00  0.00    -0.237 OA
ATOM     94  O   UNL A   1      36.071  29.842  38.554  1.00  0.00    -0.237 OA
ATOM     95  O   UNL A   1      37.682  30.828  40.126  1.00  0.00    -0.744 OA
ENDBRANCH  89  92
ENDBRANCH  62  85
ENDBRANCH  36  37
ENDBRANCH  29  31
ENDBRANCH  28  29
ENDBRANCH  27  28
ENDBRANCH  26  27
ENDBRANCH  25  26
ENDBRANCH  24  25
ENDBRANCH   1  24
TORSDOF 23
ENDMDL
MODEL 2
REMARK VINA RESULT:     -10.5      1.974      2.289
REMARK SMILES CC(C)(NC(=O)[C@]1(C)CCCO1)C(C)(C)C(=O)OCCOCCOCCOC(=O)c1ccc(-c2c3nc(c(-c4cccc(S(=O)(=O)[O-])c4F)c4ccc([nH]4)c(-c4cccc(S(=O)(=O)[O-])c4F)c4nc(c(-c5cccc(S(=O)(=O)[O-])c5F)c5ccc2[nH]5)C=C4)C=C3)cc1
REMARK SMILES IDX 22 1 21 2 20 3 19 4 18 5 16 6 17 7 13 8 14 9 15 10 2 11 1 12
REMARK SMILES IDX 3 13 4 14 5 15 6 17 7 18 9 19 12 20 8 21 10 22 11 23 23 24
REMARK SMILES IDX 24 25 25 26 26 27 27 28 28 29 29 30 30 31 31 32 92 33 32 34
REMARK SMILES IDX 91 35 33 36 34 37 35 38 85 39 36 40 90 41 84 42 86 43 37 44
REMARK SMILES IDX 89 45 83 46 82 47 38 49 70 50 50 51 69 52 51 53 54 54 68 55
REMARK SMILES IDX 87 56 52 57 53 58 67 60 88 61 55 62 39 63 40 64 48 65 41 66
REMARK SMILES IDX 43 67 49 68 42 69 44 70 45 71 46 72 47 73 71 74 72 75 80 76
REMARK SMILES IDX 73 77 75 78 81 79 74 80 76 81 77 82 78 83 79 84 56 85 57 86
REMARK SMILES IDX 65 87 58 88 60 89 66 90 59 91 61 92 62 93 63 94 64 95
REMARK H PARENT 4 16 86 48 54 59
REMARK Flexibility Score: inf
ROOT
ATOM      1  C   UNL A   1      40.835  20.196  26.510  1.00  0.00     0.188 C 
ENDROOT
BRANCH   1   2
ATOM      2  O   UNL A   1      39.706  21.046  26.710  1.00  0.00    -0.376 OA
BRANCH   2   3
ATOM      3  C   UNL A   1      39.488  22.301  26.069  1.00  0.00     0.202 C 
BRANCH   3   4
ATOM      4  C   UNL A   1      37.950  22.997  26.218  1.00  0.00     0.261 C 
BRANCH   4   5
ATOM      5  O   UNL A   1      36.545  22.507  25.229  1.00  0.00    -0.463 OA
BRANCH   5   6
ATOM      6  C   UNL A   1      34.917  21.526  25.338  1.00  0.00     0.313 C 
ATOM      7  O   UNL A   1      34.754  20.408  24.755  1.00  0.00    -0.252 OA
BRANCH   6   8
ATOM      8  C   UNL A   1      33.529  21.774  26.108  1.00  0.00     0.085 C 
ATOM      9  C   UNL A   1      33.252  21.848  27.622  1.00  0.00     0.026 C 
ATOM     10  C   UNL A   1      32.625  20.562  25.620  1.00  0.00     0.026 C 
BRANCH   8  11
ATOM     11  C   UNL A   1      32.996  23.138  25.386  1.00  0.00     0.050 C 
ATOM     12  C   UNL A   1      33.498  24.409  26.120  1.00  0.00     0.035 C 
ATOM     13  C   UNL A   1      31.443  23.388  25.307  1.00  0.00     0.035 C 
BRANCH  11  14
ATOM     14  N   UNL A   1      33.524  23.205  24.016  1.00  0.00    -0.348 N 
ATOM     15  C   UNL A   1      33.465  24.144  23.042  1.00  0.00     0.252 C 
ATOM     16  H   UNL A   1      34.026  22.400  23.751  1.00  0.00     0.164 HD
ATOM     17  O   UNL A   1      34.028  23.827  21.985  1.00  0.00    -0.272 OA
BRANCH  15  18
ATOM     18  C   UNL A   1      32.784  25.558  23.190  1.00  0.00     0.143 C 
ATOM     19  C   UNL A   1      33.569  26.960  21.989  1.00  0.00     0.048 C 
ATOM     20  O   UNL A   1      32.741  26.264  24.917  1.00  0.00    -0.365 OA
ATOM     21  C   UNL A   1      31.248  25.313  23.007  1.00  0.00     0.053 C 
ATOM     22  C   UNL A   1      33.987  28.587  23.237  1.00  0.00     0.032 C 
ATOM     23  C   UNL A   1      33.311  28.053  25.041  1.00  0.00     0.162 C 
ENDBRANCH  15  18
ENDBRANCH  11  14
ENDBRANCH   8  11
ENDBRANCH   6   8
ENDBRANCH   5   6
ENDBRANCH   4   5
ENDBRANCH   3   4
ENDBRANCH   2   3
ENDBRANCH   1   2
BRANCH   1  24
ATOM     24  C   UNL A   1      42.118  20.631  25.779  1.00  0.00     0.188 C 
BRANCH  24  25
ATOM     25  O   UNL A   1      43.091  19.655  25.414  1.00  0.00    -0.376 OA
BRANCH  25  26
ATOM     26  C   UNL A   1      44.438  19.988  25.701  1.00  0.00     0.202 C 
BRANCH  26  27
ATOM     27  C   UNL A   1      45.027  21.253  25.039  1.00  0.00     0.261 C 
BRANCH  27  28
ATOM     28  O   UNL A   1      44.722  22.501  25.690  1.00  0.00    -0.460 OA
BRANCH  28  29
ATOM     29  C   UNL A   1      43.839  23.307  25.031  1.00  0.00     0.338 C 
ATOM     30  O   UNL A   1      43.445  23.161  23.886  1.00  0.00    -0.246 OA
BRANCH  29  31
ATOM     31  C   UNL A   1      43.234  24.285  25.982  1.00  0.00     0.060 A 
ATOM     32  C   UNL A   1      43.526  25.649  25.805  1.00  0.00     0.016 A 
ATOM     33  C   UNL A   1      42.352  23.895  26.990  1.00  0.00     0.016 A 
ATOM     34  C   UNL A   1      42.962  26.617  26.647  1.00  0.00     0.010 A 
ATOM     35  C   UNL A   1      41.809  24.864  27.849  1.00  0.00     0.010 A 
ATOM     36  C   UNL A   1      42.127  26.229  27.702  1.00  0.00    -0.014 A 
BRANCH  36  37
ATOM     37  C   UNL A   1      41.729  27.197  28.764  1.00  0.00     0.031 A 
ATOM     38  C   UNL A   1      42.520  27.211  30.047  1.00  0.00     0.074 A 
ATOM     39  C   UNL A   1      40.669  28.017  28.636  1.00  0.00     0.049 A 
ATOM     40  N   UNL A   1      42.282  27.841  31.167  1.00  0.00    -0.248 NA
ATOM     41  C   UNL A   1      43.748  26.399  30.061  1.00  0.00     0.031 C 
ATOM     42  C   UNL A   1      39.837  28.153  27.444  1.00  0.00     0.029 A 
ATOM     43  N   UNL A   1      40.088  28.868  29.551  1.00  0.00    -0.354 N 
ATOM     44  C   UNL A   1      43.303  27.472  32.034  1.00  0.00     0.074 A 
ATOM     45  C   UNL A   1      44.168  26.568  31.306  1.00  0.00     0.031 C 
ATOM     46  C   UNL A   1      38.823  28.995  27.714  1.00  0.00     0.029 A 
ATOM     47  C   UNL A   1      38.910  29.427  29.110  1.00  0.00     0.049 A 
ATOM     48  H   UNL A   1      40.478  29.057  30.434  1.00  0.00     0.167 HD
ATOM     49  C   UNL A   1      43.508  27.846  33.320  1.00  0.00     0.034 A 
ATOM     50  C   UNL A   1      37.987  30.162  29.767  1.00  0.00     0.034 A 
ATOM     51  C   UNL A   1      42.657  28.745  34.051  1.00  0.00     0.049 A 
ATOM     52  C   UNL A   1      38.196  30.506  31.225  1.00  0.00     0.074 A 
ATOM     53  C   UNL A   1      42.808  29.203  35.349  1.00  0.00     0.029 A 
ATOM     54  N   UNL A   1      41.487  29.304  33.565  1.00  0.00    -0.354 N 
ATOM     55  N   UNL A   1      39.212  30.226  32.006  1.00  0.00    -0.248 NA
ATOM     56  C   UNL A   1      37.136  31.287  31.886  1.00  0.00     0.031 C 
ATOM     57  C   UNL A   1      41.705  30.006  35.661  1.00  0.00     0.029 A 
ATOM     58  C   UNL A   1      40.892  30.083  34.543  1.00  0.00     0.049 A 
ATOM     59  H   UNL A   1      41.131  29.167  32.657  1.00  0.00     0.167 HD
ATOM     60  C   UNL A   1      38.929  30.821  33.233  1.00  0.00     0.074 A 
ATOM     61  C   UNL A   1      37.658  31.498  33.086  1.00  0.00     0.031 C 
ATOM     62  C   UNL A   1      39.650  30.796  34.382  1.00  0.00     0.034 A 
BRANCH  49  63
ATOM     63  C   UNL A   1      44.706  27.271  34.028  1.00  0.00     0.023 A 
ATOM     64  C   UNL A   1      45.937  27.957  33.996  1.00  0.00     0.012 A 
ATOM     65  C   UNL A   1      44.598  26.077  34.765  1.00  0.00     0.148 A 
ATOM     66  C   UNL A   1      47.052  27.443  34.657  1.00  0.00     0.002 A 
ATOM     67  C   UNL A   1      45.700  25.596  35.461  1.00  0.00     0.091 A 
ATOM     68  F   UNL A   1      43.424  25.429  34.765  1.00  0.00    -0.205 F 
ATOM     69  C   UNL A   1      46.931  26.270  35.398  1.00  0.00     0.022 A 
BRANCH  67  70
ATOM     70  S   UNL A   1      45.625  24.137  36.506  1.00  0.00     0.127 S 
ATOM     71  O   UNL A   1      45.311  23.093  35.531  1.00  0.00    -0.237 OA
ATOM     72  O   UNL A   1      46.982  24.078  37.047  1.00  0.00    -0.237 OA
ATOM     73  O   UNL A   1      44.586  24.400  37.492  1.00  0.00    -0.744 OA
ENDBRANCH  67  70
ENDBRANCH  49  63
BRANCH  50  74
ATOM     74  C   UNL A   1      36.751  30.622  29.065  1.00  0.00     0.023 A 
ATOM     75  C   UNL A   1      35.926  29.682  28.416  1.00  0.00     0.012 A 
ATOM     76  C   UNL A   1      36.404  31.987  29.015  1.00  0.00     0.148 A 
ATOM     77  C   UNL A   1      34.798  30.095  27.706  1.00  0.00     0.002 A 
ATOM     78  C   UNL A   1      35.250  32.385  28.352  1.00  0.00     0.091 A 
ATOM     79  F   UNL A   1      37.216  32.869  29.615  1.00  0.00    -0.205 F 
ATOM     80  C   UNL A   1      34.454  31.444  27.682  1.00  0.00     0.022 A 
BRANCH  78  81
ATOM     81  S   UNL A   1      34.673  34.087  28.354  1.00  0.00     0.127 S 
ATOM     82  O   UNL A   1      35.390  34.648  27.211  1.00  0.00    -0.237 OA
ATOM     83  O   UNL A   1      33.234  33.916  28.154  1.00  0.00    -0.237 OA
ATOM     84  O   UNL A   1      35.041  34.628  29.655  1.00  0.00    -0.744 OA
ENDBRANCH  78  81
ENDBRANCH  50  74
BRANCH  62  85
ATOM     85  C   UNL A   1      39.115  31.551  35.576  1.00  0.00     0.023 A 
ATOM     86  C   UNL A   1      38.177  30.942  36.432  1.00  0.00     0.012 A 
ATOM     87  C   UNL A   1      39.602  32.836  35.893  1.00  0.00     0.148 A 
ATOM     88  C   UNL A   1      37.708  31.610  37.564  1.00  0.00     0.002 A 
ATOM     89  C   UNL A   1      39.169  33.475  37.049  1.00  0.00     0.091 A 
ATOM     90  F   UNL A   1      40.486  33.408  35.061  1.00  0.00    -0.205 F 
ATOM     91  C   UNL A   1      38.211  32.870  37.879  1.00  0.00     0.022 A 
BRANCH  89  92
ATOM     92  S   UNL A   1      39.832  35.057  37.589  1.00  0.00     0.127 S 
ATOM     93  O   UNL A   1      39.028  35.327  38.780  1.00  0.00    -0.237 OA
ATOM     94  O   UNL A   1      41.231  34.729  37.861  1.00  0.00    -0.237 OA
ATOM     95  O   UNL A   1      39.629  35.979  36.480  1.00  0.00    -0.744 OA
ENDBRANCH  89  92
ENDBRANCH  62  85
ENDBRANCH  36  37
ENDBRANCH  29  31
ENDBRANCH  28  29
ENDBRANCH  27  28
ENDBRANCH  26  27
ENDBRANCH  25  26
ENDBRANCH  24  25
ENDBRANCH   1  24
TORSDOF 23
ENDMDL
MODEL 3
REMARK VINA RESULT:     -10.5      3.462      5.251
REMARK SMILES CC(C)(NC(=O)[C@]1(C)CCCO1)C(C)(C)C(=O)OCCOCCOCCOC(=O)c1ccc(-c2c3nc(c(-c4cccc(S(=O)(=O)[O-])c4F)c4ccc([nH]4)c(-c4cccc(S(=O)(=O)[O-])c4F)c4nc(c(-c5cccc(S(=O)(=O)[O-])c5F)c5ccc2[nH]5)C=C4)C=C3)cc1
REMARK SMILES IDX 22 1 21 2 20 3 19 4 18 5 16 6 17 7 13 8 14 9 15 10 2 11 1 12
REMARK SMILES IDX 3 13 4 14 5 15 6 17 7 18 9 19 12 20 8 21 10 22 11 23 23 24
REMARK SMILES IDX 24 25 25 26 26 27 27 28 28 29 29 30 30 31 31 32 92 33 32 34
REMARK SMILES IDX 91 35 33 36 34 37 35 38 85 39 36 40 90 41 84 42 86 43 37 44
REMARK SMILES IDX 89 45 83 46 82 47 38 49 70 50 50 51 69 52 51 53 54 54 68 55
REMARK SMILES IDX 87 56 52 57 53 58 67 60 88 61 55 62 39 63 40 64 48 65 41 66
REMARK SMILES IDX 43 67 49 68 42 69 44 70 45 71 46 72 47 73 71 74 72 75 80 76
REMARK SMILES IDX 73 77 75 78 81 79 74 80 76 81 77 82 78 83 79 84 56 85 57 86
REMARK SMILES IDX 65 87 58 88 60 89 66 90 59 91 61 92 62 93 63 94 64 95
REMARK H PARENT 4 16 86 48 54 59
REMARK Flexibility Score: inf
ROOT
ATOM      1  C   UNL A   1      41.148  20.130  27.256  1.00  0.00     0.188 C 
ENDROOT
BRANCH   1   2
ATOM      2  O   UNL A   1      40.109  21.108  27.212  1.00  0.00    -0.376 OA
BRANCH   2   3
ATOM      3  C   UNL A   1      39.828  21.971  26.112  1.00  0.00     0.202 C 
BRANCH   3   4
ATOM      4  C   UNL A   1      38.402  22.884  26.181  1.00  0.00     0.261 C 
BRANCH   4   5
ATOM      5  O   UNL A   1      36.946  22.516  25.211  1.00  0.00    -0.463 OA
BRANCH   5   6
ATOM      6  C   UNL A   1      35.267  21.627  25.326  1.00  0.00     0.313 C 
ATOM      7  O   UNL A   1      35.010  20.568  24.671  1.00  0.00    -0.252 OA
BRANCH   6   8
ATOM      8  C   UNL A   1      33.931  21.897  26.176  1.00  0.00     0.085 C 
ATOM      9  C   UNL A   1      33.762  22.074  27.697  1.00  0.00     0.026 C 
ATOM     10  C   UNL A   1      33.031  20.631  25.843  1.00  0.00     0.026 C 
BRANCH   8  11
ATOM     11  C   UNL A   1      33.308  23.191  25.401  1.00  0.00     0.050 C 
ATOM     12  C   UNL A   1      33.809  24.524  26.016  1.00  0.00     0.035 C 
ATOM     13  C   UNL A   1      31.745  23.388  25.404  1.00  0.00     0.035 C 
BRANCH  11  14
ATOM     14  N   UNL A   1      33.749  23.180  23.999  1.00  0.00    -0.348 N 
ATOM     15  C   UNL A   1      33.522  24.003  22.946  1.00  0.00     0.252 C 
ATOM     16  H   UNL A   1      34.330  22.417  23.778  1.00  0.00     0.164 HD
ATOM     17  O   UNL A   1      34.060  23.647  21.889  1.00  0.00    -0.272 OA
BRANCH  15  18
ATOM     18  C   UNL A   1      32.682  25.335  23.006  1.00  0.00     0.143 C 
ATOM     19  C   UNL A   1      33.631  26.844  23.925  1.00  0.00     0.048 C 
ATOM     20  O   UNL A   1      30.986  25.195  23.772  1.00  0.00    -0.365 OA
ATOM     21  C   UNL A   1      32.241  25.629  21.532  1.00  0.00     0.053 C 
ATOM     22  C   UNL A   1      32.271  27.575  25.338  1.00  0.00     0.032 C 
ATOM     23  C   UNL A   1      30.600  26.514  25.057  1.00  0.00     0.162 C 
ENDBRANCH  15  18
ENDBRANCH  11  14
ENDBRANCH   8  11
ENDBRANCH   6   8
ENDBRANCH   5   6
ENDBRANCH   4   5
ENDBRANCH   3   4
ENDBRANCH   2   3
ENDBRANCH   1   2
BRANCH   1  24
ATOM     24  C   UNL A   1      42.396  20.162  26.357  1.00  0.00     0.188 C 
BRANCH  24  25
ATOM     25  O   UNL A   1      42.546  19.198  25.317  1.00  0.00    -0.376 OA
BRANCH  25  26
ATOM     26  C   UNL A   1      43.878  18.837  24.997  1.00  0.00     0.202 C 
BRANCH  26  27
ATOM     27  C   UNL A   1      44.647  19.725  23.994  1.00  0.00     0.261 C 
BRANCH  27  28
ATOM     28  O   UNL A   1      45.325  20.864  24.556  1.00  0.00    -0.460 OA
BRANCH  28  29
ATOM     29  C   UNL A   1      44.876  22.082  24.135  1.00  0.00     0.338 C 
ATOM     30  O   UNL A   1      44.439  22.346  23.027  1.00  0.00    -0.246 OA
BRANCH  29  31
ATOM     31  C   UNL A   1      44.778  23.018  25.293  1.00  0.00     0.060 A 
ATOM     32  C   UNL A   1      44.876  24.397  25.041  1.00  0.00     0.016 A 
ATOM     33  C   UNL A   1      44.536  22.572  26.593  1.00  0.00     0.016 A 
ATOM     34  C   UNL A   1      44.760  25.327  26.084  1.00  0.00     0.010 A 
ATOM     35  C   UNL A   1      44.448  23.502  27.640  1.00  0.00     0.010 A 
ATOM     36  C   UNL A   1      44.582  24.885  27.400  1.00  0.00    -0.014 A 
BRANCH  36  37
ATOM     37  C   UNL A   1      44.720  25.822  28.551  1.00  0.00     0.031 A 
ATOM     38  C   UNL A   1      46.070  25.951  29.207  1.00  0.00     0.074 A 
ATOM     39  C   UNL A   1      43.678  26.516  29.049  1.00  0.00     0.049 A 
ATOM     40  N   UNL A   1      46.408  26.572  30.307  1.00  0.00    -0.248 NA
ATOM     41  C   UNL A   1      47.190  25.283  28.524  1.00  0.00     0.031 C 
ATOM     42  C   UNL A   1      42.326  26.533  28.498  1.00  0.00     0.029 A 
ATOM     43  N   UNL A   1      43.595  27.313  30.169  1.00  0.00    -0.354 N 
ATOM     44  C   UNL A   1      47.767  26.337  30.472  1.00  0.00     0.074 A 
ATOM     45  C   UNL A   1      48.194  25.522  29.354  1.00  0.00     0.031 C 
ATOM     46  C   UNL A   1      41.535  27.261  29.308  1.00  0.00     0.029 A 
ATOM     47  C   UNL A   1      42.314  27.728  30.456  1.00  0.00     0.049 A 
ATOM     48  H   UNL A   1      44.377  27.562  30.712  1.00  0.00     0.167 HD
ATOM     49  C   UNL A   1      48.592  26.757  31.461  1.00  0.00     0.034 A 
ATOM     50  C   UNL A   1      41.820  28.366  31.538  1.00  0.00     0.034 A 
ATOM     51  C   UNL A   1      48.181  27.569  32.574  1.00  0.00     0.049 A 
ATOM     52  C   UNL A   1      42.744  28.760  32.668  1.00  0.00     0.074 A 
ATOM     53  C   UNL A   1      48.957  28.067  33.607  1.00  0.00     0.029 A 
ATOM     54  N   UNL A   1      46.881  27.983  32.818  1.00  0.00    -0.354 N 
ATOM     55  N   UNL A   1      44.043  28.612  32.768  1.00  0.00    -0.248 NA
ATOM     56  C   UNL A   1      42.131  29.430  33.829  1.00  0.00     0.031 C 
ATOM     57  C   UNL A   1      48.119  28.746  34.497  1.00  0.00     0.029 A 
ATOM     58  C   UNL A   1      46.829  28.710  33.995  1.00  0.00     0.049 A 
ATOM     59  H   UNL A   1      46.109  27.790  32.238  1.00  0.00     0.167 HD
ATOM     60  C   UNL A   1      44.405  29.195  33.980  1.00  0.00     0.074 A 
ATOM     61  C   UNL A   1      43.192  29.722  34.569  1.00  0.00     0.031 C 
ATOM     62  C   UNL A   1      45.629  29.275  34.559  1.00  0.00     0.034 A 
BRANCH  49  63
ATOM     63  C   UNL A   1      50.036  26.335  31.389  1.00  0.00     0.023 A 
ATOM     64  C   UNL A   1      50.965  27.127  30.682  1.00  0.00     0.012 A 
ATOM     65  C   UNL A   1      50.479  25.181  32.061  1.00  0.00     0.148 A 
ATOM     66  C   UNL A   1      52.307  26.755  30.617  1.00  0.00     0.002 A 
ATOM     67  C   UNL A   1      51.826  24.842  32.031  1.00  0.00     0.091 A 
ATOM     68  F   UNL A   1      49.576  24.431  32.709  1.00  0.00    -0.205 F 
ATOM     69  C   UNL A   1      52.739  25.621  31.299  1.00  0.00     0.022 A 
BRANCH  67  70
ATOM     70  S   UNL A   1      52.495  23.446  32.941  1.00  0.00     0.127 S 
ATOM     71  O   UNL A   1      51.690  22.342  32.420  1.00  0.00    -0.237 OA
ATOM     72  O   UNL A   1      53.892  23.439  32.508  1.00  0.00    -0.237 OA
ATOM     73  O   UNL A   1      52.295  23.751  34.351  1.00  0.00    -0.744 OA
ENDBRANCH  67  70
ENDBRANCH  49  63
BRANCH  50  74
ATOM     74  C   UNL A   1      40.360  28.670  31.631  1.00  0.00     0.023 A 
ATOM     75  C   UNL A   1      39.498  27.762  32.276  1.00  0.00     0.012 A 
ATOM     76  C   UNL A   1      39.819  29.839  31.060  1.00  0.00     0.148 A 
ATOM     77  C   UNL A   1      38.123  27.996  32.326  1.00  0.00     0.002 A 
ATOM     78  C   UNL A   1      38.456  30.094  31.160  1.00  0.00     0.091 A 
ATOM     79  F   UNL A   1      40.651  30.678  30.426  1.00  0.00    -0.205 F 
ATOM     80  C   UNL A   1      37.603  29.166  31.777  1.00  0.00     0.022 A 
BRANCH  78  81
ATOM     81  S   UNL A   1      37.712  31.621  30.574  1.00  0.00     0.127 S 
ATOM     82  O   UNL A   1      36.349  31.505  31.084  1.00  0.00    -0.237 OA
ATOM     83  O   UNL A   1      38.536  32.630  31.239  1.00  0.00    -0.237 OA
ATOM     84  O   UNL A   1      37.846  31.594  29.124  1.00  0.00    -0.744 OA
ENDBRANCH  78  81
ENDBRANCH  50  74
BRANCH  62  85
ATOM     85  C   UNL A   1      45.746  29.988  35.885  1.00  0.00     0.023 A 
ATOM     86  C   UNL A   1      45.655  31.393  35.939  1.00  0.00     0.012 A 
ATOM     87  C   UNL A   1      45.866  29.261  37.087  1.00  0.00     0.148 A 
ATOM     88  C   UNL A   1      45.717  32.064  37.162  1.00  0.00     0.002 A 
ATOM     89  C   UNL A   1      45.875  29.932  38.305  1.00  0.00     0.091 A 
ATOM     90  F   UNL A   1      45.963  27.925  37.018  1.00  0.00    -0.205 F 
ATOM     91  C   UNL A   1      45.815  31.334  38.344  1.00  0.00     0.022 A 
BRANCH  89  92
ATOM     92  S   UNL A   1      45.901  29.073  39.884  1.00  0.00     0.127 S 
ATOM     93  O   UNL A   1      45.579  30.152  40.816  1.00  0.00    -0.237 OA
ATOM     94  O   UNL A   1      44.841  28.080  39.713  1.00  0.00    -0.237 OA
ATOM     95  O   UNL A   1      47.240  28.515  40.019  1.00  0.00    -0.744 OA
ENDBRANCH  89  92
ENDBRANCH  62  85
ENDBRANCH  36  37
ENDBRANCH  29  31
ENDBRANCH  28  29
ENDBRANCH  27  28
ENDBRANCH  26  27
ENDBRANCH  25  26
ENDBRANCH  24  25
ENDBRANCH   1  24
TORSDOF 23
ENDMDL
