MODEL 1
REMARK VINA RESULT:      -9.6      0.000      0.000
REMARK SMILES C#CCOc1ccccc1/C=C(\C#N)C(=O)OCCOCCOCCOC(=O)c1ccc(-c2c3nc(c(-c4cccc(S(=O)(=O)[O-])c4F)c4ccc([nH]4)c(-c4cccc(S(=O)(=O)[O-])c4F)c4nc(c(-c5cccc(S(=O)(=O)[O-])c5F)c5ccc2[nH]5)C=C4)C=C3)cc1
REMARK SMILES IDX 21 1 20 2 19 3 18 4 17 5 15 6 16 7 12 8 11 9 10 10 5 11 6 12
REMARK SMILES IDX 7 13 9 14 8 15 4 16 3 17 2 18 1 19 13 20 14 21 22 22 23 23
REMARK SMILES IDX 24 24 25 25 26 26 27 27 28 28 29 29 30 30 91 31 31 32 90 33
REMARK SMILES IDX 32 34 33 35 34 36 84 37 35 38 89 39 83 40 85 41 36 42 88 43
REMARK SMILES IDX 82 44 81 45 37 47 69 48 49 49 68 50 50 51 53 52 67 53 86 54
REMARK SMILES IDX 51 55 52 56 66 58 87 59 54 60 38 61 39 62 47 63 40 64 42 65
REMARK SMILES IDX 48 66 41 67 43 68 44 69 45 70 46 71 70 72 71 73 79 74 72 75
REMARK SMILES IDX 74 76 80 77 73 78 75 79 76 80 77 81 78 82 55 83 56 84 64 85
REMARK SMILES IDX 57 86 59 87 65 88 58 89 60 90 61 91 62 92 63 93
REMARK H PARENT 85 46 53 57
REMARK Flexibility Score: inf
ROOT
ATOM      1  C   UNL A   1      30.226  28.886  23.531  1.00  0.00     0.188 C 
ENDROOT
BRANCH   1   2
ATOM      2  O   UNL A   1      31.511  28.344  23.267  1.00  0.00    -0.376 OA
BRANCH   2   3
ATOM      3  C   UNL A   1      32.086  27.601  24.321  1.00  0.00     0.202 C 
BRANCH   3   4
ATOM      4  C   UNL A   1      33.610  27.334  24.243  1.00  0.00     0.261 C 
BRANCH   4   5
ATOM      5  O   UNL A   1      34.035  25.968  23.997  1.00  0.00    -0.459 OA
BRANCH   5   6
ATOM      6  C   UNL A   1      33.535  25.287  22.910  1.00  0.00     0.348 C 
ATOM      7  O   UNL A   1      33.666  25.642  21.750  1.00  0.00    -0.245 OA
BRANCH   6   8
ATOM      8  C   UNL A   1      32.914  23.970  23.327  1.00  0.00     0.138 C 
ATOM      9  C   UNL A   1      33.563  22.792  23.073  1.00  0.00     0.039 C 
BRANCH   9  10
ATOM     10  C   UNL A   1      33.293  21.400  23.607  1.00  0.00     0.018 A 
ATOM     11  C   UNL A   1      33.865  20.742  24.769  1.00  0.00     0.128 A 
ATOM     12  C   UNL A   1      33.597  19.379  24.979  1.00  0.00     0.047 A 
ATOM     13  C   UNL A   1      32.748  18.665  24.134  1.00  0.00     0.004 A 
ATOM     14  C   UNL A   1      32.434  20.635  22.786  1.00  0.00     0.012 A 
ATOM     15  C   UNL A   1      32.151  19.295  23.053  1.00  0.00     0.001 A 
BRANCH  11  16
ATOM     16  O   UNL A   1      34.830  21.201  25.682  1.00  0.00    -0.480 OA
BRANCH  16  17
ATOM     17  C   UNL A   1      36.279  20.984  25.359  1.00  0.00     0.318 C 
BRANCH  17  18
ATOM     18  C   UNL A   1      36.687  22.446  25.448  1.00  0.00    -0.065 C 
ATOM     19  C   UNL A   1      37.038  23.700  25.524  1.00  0.00     0.007 C 
ENDBRANCH  17  18
ENDBRANCH  16  17
ENDBRANCH  11  16
ENDBRANCH   9  10
BRANCH   8  20
ATOM     20  C   UNL A   1      31.710  24.086  24.083  1.00  0.00     0.107 C 
ATOM     21  N   UNL A   1      30.728  24.256  24.674  1.00  0.00    -0.192 NA
ENDBRANCH   8  20
ENDBRANCH   6   8
ENDBRANCH   5   6
ENDBRANCH   4   5
ENDBRANCH   3   4
ENDBRANCH   2   3
ENDBRANCH   1   2
BRANCH   1  22
ATOM     22  C   UNL A   1      30.335  30.337  24.032  1.00  0.00     0.188 C 
BRANCH  22  23
ATOM     23  O   UNL A   1      31.131  30.614  25.181  1.00  0.00    -0.376 OA
BRANCH  23  24
ATOM     24  C   UNL A   1      30.655  31.558  26.121  1.00  0.00     0.202 C 
BRANCH  24  25
ATOM     25  C   UNL A   1      31.655  32.595  26.651  1.00  0.00     0.261 C 
BRANCH  25  26
ATOM     26  O   UNL A   1      32.917  32.088  27.124  1.00  0.00    -0.460 OA
BRANCH  26  27
ATOM     27  C   UNL A   1      33.720  33.000  27.728  1.00  0.00     0.338 C 
ATOM     28  O   UNL A   1      33.429  34.154  28.000  1.00  0.00    -0.246 OA
BRANCH  27  29
ATOM     29  C   UNL A   1      35.003  32.386  28.149  1.00  0.00     0.060 A 
ATOM     30  C   UNL A   1      34.964  31.087  28.670  1.00  0.00     0.016 A 
ATOM     31  C   UNL A   1      36.206  33.100  28.158  1.00  0.00     0.016 A 
ATOM     32  C   UNL A   1      36.110  30.521  29.236  1.00  0.00     0.010 A 
ATOM     33  C   UNL A   1      37.357  32.523  28.725  1.00  0.00     0.010 A 
ATOM     34  C   UNL A   1      37.313  31.234  29.284  1.00  0.00    -0.014 A 
BRANCH  34  35
ATOM     35  C   UNL A   1      38.453  30.679  30.067  1.00  0.00     0.031 A 
ATOM     36  C   UNL A   1      39.325  29.629  29.434  1.00  0.00     0.074 A 
ATOM     37  C   UNL A   1      38.755  31.133  31.299  1.00  0.00     0.049 A 
ATOM     38  N   UNL A   1      40.354  28.995  29.933  1.00  0.00    -0.248 NA
ATOM     39  C   UNL A   1      38.994  29.247  28.052  1.00  0.00     0.031 C 
ATOM     40  C   UNL A   1      38.016  32.163  32.023  1.00  0.00     0.029 A 
ATOM     41  N   UNL A   1      39.762  30.774  32.166  1.00  0.00    -0.354 N 
ATOM     42  C   UNL A   1      40.781  28.124  28.938  1.00  0.00     0.074 A 
ATOM     43  C   UNL A   1      39.900  28.313  27.805  1.00  0.00     0.031 C 
ATOM     44  C   UNL A   1      38.589  32.352  33.226  1.00  0.00     0.029 A 
ATOM     45  C   UNL A   1      39.701  31.415  33.384  1.00  0.00     0.049 A 
ATOM     46  H   UNL A   1      40.460  30.120  31.937  1.00  0.00     0.167 HD
ATOM     47  C   UNL A   1      41.814  27.248  28.960  1.00  0.00     0.034 A 
ATOM     48  C   UNL A   1      40.427  31.237  34.508  1.00  0.00     0.034 A 
ATOM     49  C   UNL A   1      42.686  27.042  30.084  1.00  0.00     0.049 A 
ATOM     50  C   UNL A   1      41.530  30.204  34.525  1.00  0.00     0.074 A 
ATOM     51  C   UNL A   1      43.746  26.158  30.198  1.00  0.00     0.029 A 
ATOM     52  N   UNL A   1      42.599  27.717  31.290  1.00  0.00    -0.354 N 
ATOM     53  N   UNL A   1      41.963  29.437  33.553  1.00  0.00    -0.248 NA
ATOM     54  C   UNL A   1      42.259  30.023  35.793  1.00  0.00     0.031 C 
ATOM     55  C   UNL A   1      44.283  26.280  31.483  1.00  0.00     0.029 A 
ATOM     56  C   UNL A   1      43.584  27.269  32.154  1.00  0.00     0.049 A 
ATOM     57  H   UNL A   1      41.935  28.412  31.501  1.00  0.00     0.167 HD
ATOM     58  C   UNL A   1      43.030  28.716  34.081  1.00  0.00     0.074 A 
ATOM     59  C   UNL A   1      43.200  29.155  35.449  1.00  0.00     0.031 C 
ATOM     60  C   UNL A   1      43.790  27.760  33.491  1.00  0.00     0.034 A 
BRANCH  47  61
ATOM     61  C   UNL A   1      42.065  26.440  27.716  1.00  0.00     0.023 A 
ATOM     62  C   UNL A   1      42.740  27.029  26.628  1.00  0.00     0.012 A 
ATOM     63  C   UNL A   1      41.694  25.083  27.649  1.00  0.00     0.148 A 
ATOM     64  C   UNL A   1      43.021  26.286  25.482  1.00  0.00     0.002 A 
ATOM     65  C   UNL A   1      42.015  24.338  26.521  1.00  0.00     0.091 A 
ATOM     66  F   UNL A   1      41.037  24.549  28.689  1.00  0.00    -0.205 F 
ATOM     67  C   UNL A   1      42.668  24.939  25.433  1.00  0.00     0.022 A 
BRANCH  65  68
ATOM     68  S   UNL A   1      41.673  22.579  26.389  1.00  0.00     0.127 S 
ATOM     69  O   UNL A   1      42.318  22.248  25.120  1.00  0.00    -0.237 OA
ATOM     70  O   UNL A   1      42.346  22.049  27.574  1.00  0.00    -0.237 OA
ATOM     71  O   UNL A   1      40.223  22.448  26.399  1.00  0.00    -0.744 OA
ENDBRANCH  65  68
ENDBRANCH  47  61
BRANCH  48  72
ATOM     72  C   UNL A   1      40.129  32.023  35.745  1.00  0.00     0.023 A 
ATOM     73  C   UNL A   1      41.036  33.005  36.195  1.00  0.00     0.012 A 
ATOM     74  C   UNL A   1      38.978  31.758  36.511  1.00  0.00     0.148 A 
ATOM     75  C   UNL A   1      40.827  33.666  37.408  1.00  0.00     0.002 A 
ATOM     76  C   UNL A   1      38.742  32.467  37.683  1.00  0.00     0.091 A 
ATOM     77  F   UNL A   1      38.139  30.803  36.088  1.00  0.00    -0.205 F 
ATOM     78  C   UNL A   1      39.677  33.404  38.147  1.00  0.00     0.022 A 
BRANCH  76  79
ATOM     79  S   UNL A   1      37.224  32.284  38.622  1.00  0.00     0.127 S 
ATOM     80  O   UNL A   1      36.274  33.039  37.809  1.00  0.00    -0.237 OA
ATOM     81  O   UNL A   1      37.032  30.834  38.609  1.00  0.00    -0.237 OA
ATOM     82  O   UNL A   1      37.512  32.835  39.940  1.00  0.00    -0.744 OA
ENDBRANCH  76  79
ENDBRANCH  48  72
BRANCH  60  83
ATOM     83  C   UNL A   1      44.921  27.159  34.289  1.00  0.00     0.023 A 
ATOM     84  C   UNL A   1      46.215  27.713  34.216  1.00  0.00     0.012 A 
ATOM     85  C   UNL A   1      44.679  26.091  35.176  1.00  0.00     0.148 A 
ATOM     86  C   UNL A   1      47.256  27.191  34.983  1.00  0.00     0.002 A 
ATOM     87  C   UNL A   1      45.708  25.609  35.977  1.00  0.00     0.091 A 
ATOM     88  F   UNL A   1      43.446  25.566  35.223  1.00  0.00    -0.205 F 
ATOM     89  C   UNL A   1      47.000  26.148  35.873  1.00  0.00     0.022 A 
BRANCH  87  90
ATOM     90  S   UNL A   1      45.451  24.337  37.220  1.00  0.00     0.127 S 
ATOM     91  O   UNL A   1      46.771  24.261  37.845  1.00  0.00    -0.237 OA
ATOM     92  O   UNL A   1      44.411  24.932  38.060  1.00  0.00    -0.237 OA
ATOM     93  O   UNL A   1      45.036  23.144  36.495  1.00  0.00    -0.744 OA
ENDBRANCH  87  90
ENDBRANCH  60  83
ENDBRANCH  34  35
ENDBRANCH  27  29
ENDBRANCH  26  27
ENDBRANCH  25  26
ENDBRANCH  24  25
ENDBRANCH  23  24
ENDBRANCH  22  23
ENDBRANCH   1  22
TORSDOF 25
ENDMDL
MODEL 2
REMARK VINA RESULT:      -9.5      1.733      7.741
REMARK SMILES C#CCOc1ccccc1/C=C(\C#N)C(=O)OCCOCCOCCOC(=O)c1ccc(-c2c3nc(c(-c4cccc(S(=O)(=O)[O-])c4F)c4ccc([nH]4)c(-c4cccc(S(=O)(=O)[O-])c4F)c4nc(c(-c5cccc(S(=O)(=O)[O-])c5F)c5ccc2[nH]5)C=C4)C=C3)cc1
REMARK SMILES IDX 21 1 20 2 19 3 18 4 17 5 15 6 16 7 12 8 11 9 10 10 5 11 6 12
REMARK SMILES IDX 7 13 9 14 8 15 4 16 3 17 2 18 1 19 13 20 14 21 22 22 23 23
REMARK SMILES IDX 24 24 25 25 26 26 27 27 28 28 29 29 30 30 91 31 31 32 90 33
REMARK SMILES IDX 32 34 33 35 34 36 84 37 35 38 89 39 83 40 85 41 36 42 88 43
REMARK SMILES IDX 82 44 81 45 37 47 69 48 49 49 68 50 50 51 53 52 67 53 86 54
REMARK SMILES IDX 51 55 52 56 66 58 87 59 54 60 38 61 39 62 47 63 40 64 42 65
REMARK SMILES IDX 48 66 41 67 43 68 44 69 45 70 46 71 70 72 71 73 79 74 72 75
REMARK SMILES IDX 74 76 80 77 73 78 75 79 76 80 77 81 78 82 55 83 56 84 64 85
REMARK SMILES IDX 57 86 59 87 65 88 58 89 60 90 61 91 62 92 63 93
REMARK H PARENT 85 46 53 57
REMARK Flexibility Score: inf
ROOT
ATOM      1  C   UNL A   1      31.089  29.337  24.160  1.00  0.00     0.188 C 
ENDROOT
BRANCH   1   2
ATOM      2  O   UNL A   1      29.850  28.800  23.723  1.00  0.00    -0.376 OA
BRANCH   2   3
ATOM      3  C   UNL A   1      29.916  27.517  23.139  1.00  0.00     0.202 C 
BRANCH   3   4
ATOM      4  C   UNL A   1      31.169  27.197  22.284  1.00  0.00     0.261 C 
BRANCH   4   5
ATOM      5  O   UNL A   1      31.653  25.828  22.297  1.00  0.00    -0.459 OA
BRANCH   5   6
ATOM      6  C   UNL A   1      32.988  25.579  22.074  1.00  0.00     0.348 C 
ATOM      7  O   UNL A   1      33.765  26.369  21.561  1.00  0.00    -0.245 OA
BRANCH   6   8
ATOM      8  C   UNL A   1      33.403  24.247  22.666  1.00  0.00     0.138 C 
ATOM      9  C   UNL A   1      34.687  24.059  23.103  1.00  0.00     0.039 C 
BRANCH   9  10
ATOM     10  C   UNL A   1      35.269  22.948  23.952  1.00  0.00     0.018 A 
ATOM     11  C   UNL A   1      34.693  22.289  25.111  1.00  0.00     0.128 A 
ATOM     12  C   UNL A   1      35.489  21.399  25.852  1.00  0.00     0.047 A 
ATOM     13  C   UNL A   1      36.792  21.089  25.463  1.00  0.00     0.004 A 
ATOM     14  C   UNL A   1      36.590  22.595  23.595  1.00  0.00     0.012 A 
ATOM     15  C   UNL A   1      37.335  21.669  24.326  1.00  0.00     0.001 A 
BRANCH  11  16
ATOM     16  O   UNL A   1      33.471  22.519  25.765  1.00  0.00    -0.480 OA
BRANCH  16  17
ATOM     17  C   UNL A   1      33.333  23.753  26.608  1.00  0.00     0.318 C 
BRANCH  17  18
ATOM     18  C   UNL A   1      31.816  23.823  26.550  1.00  0.00    -0.065 C 
ATOM     19  C   UNL A   1      30.514  23.883  26.500  1.00  0.00     0.007 C 
ENDBRANCH  17  18
ENDBRANCH  16  17
ENDBRANCH  11  16
ENDBRANCH   9  10
BRANCH   8  20
ATOM     20  C   UNL A   1      32.345  23.306  22.827  1.00  0.00     0.107 C 
ATOM     21  N   UNL A   1      31.524  22.492  22.909  1.00  0.00    -0.192 NA
ENDBRANCH   8  20
ENDBRANCH   6   8
ENDBRANCH   5   6
ENDBRANCH   4   5
ENDBRANCH   3   4
ENDBRANCH   2   3
ENDBRANCH   1   2
BRANCH   1  22
ATOM     22  C   UNL A   1      31.457  28.804  25.556  1.00  0.00     0.188 C 
BRANCH  22  23
ATOM     23  O   UNL A   1      31.554  29.720  26.643  1.00  0.00    -0.376 OA
BRANCH  23  24
ATOM     24  C   UNL A   1      32.555  30.719  26.597  1.00  0.00     0.202 C 
BRANCH  24  25
ATOM     25  C   UNL A   1      32.101  32.182  26.694  1.00  0.00     0.261 C 
BRANCH  25  26
ATOM     26  O   UNL A   1      32.360  32.854  27.941  1.00  0.00    -0.460 OA
BRANCH  26  27
ATOM     27  C   UNL A   1      33.446  33.669  27.945  1.00  0.00     0.338 C 
ATOM     28  O   UNL A   1      33.443  34.882  27.814  1.00  0.00    -0.246 OA
BRANCH  27  29
ATOM     29  C   UNL A   1      34.681  32.909  28.260  1.00  0.00     0.060 A 
ATOM     30  C   UNL A   1      34.544  31.697  28.947  1.00  0.00     0.016 A 
ATOM     31  C   UNL A   1      35.958  33.421  28.007  1.00  0.00     0.016 A 
ATOM     32  C   UNL A   1      35.674  31.021  29.417  1.00  0.00     0.010 A 
ATOM     33  C   UNL A   1      37.092  32.734  28.479  1.00  0.00     0.010 A 
ATOM     34  C   UNL A   1      36.957  31.537  29.203  1.00  0.00    -0.014 A 
BRANCH  34  35
ATOM     35  C   UNL A   1      38.117  30.897  29.884  1.00  0.00     0.031 A 
ATOM     36  C   UNL A   1      38.444  31.303  31.296  1.00  0.00     0.074 A 
ATOM     37  C   UNL A   1      38.842  29.929  29.291  1.00  0.00     0.049 A 
ATOM     38  N   UNL A   1      39.414  30.895  32.073  1.00  0.00    -0.248 NA
ATOM     39  C   UNL A   1      37.554  32.298  31.915  1.00  0.00     0.031 C 
ATOM     40  C   UNL A   1      38.624  29.417  27.942  1.00  0.00     0.029 A 
ATOM     41  N   UNL A   1      39.921  29.207  29.749  1.00  0.00    -0.354 N 
ATOM     42  C   UNL A   1      39.267  31.597  33.263  1.00  0.00     0.074 A 
ATOM     43  C   UNL A   1      38.113  32.456  33.106  1.00  0.00     0.031 C 
ATOM     44  C   UNL A   1      39.540  28.469  27.676  1.00  0.00     0.029 A 
ATOM     45  C   UNL A   1      40.450  28.345  28.814  1.00  0.00     0.049 A 
ATOM     46  H   UNL A   1      40.281  29.299  30.661  1.00  0.00     0.167 HD
ATOM     47  C   UNL A   1      40.020  31.533  34.387  1.00  0.00     0.034 A 
ATOM     48  C   UNL A   1      41.561  27.579  28.854  1.00  0.00     0.034 A 
ATOM     49  C   UNL A   1      41.176  30.694  34.548  1.00  0.00     0.049 A 
ATOM     50  C   UNL A   1      42.420  27.579  30.098  1.00  0.00     0.074 A 
ATOM     51  C   UNL A   1      42.009  30.584  35.648  1.00  0.00     0.029 A 
ATOM     52  N   UNL A   1      41.670  29.830  33.586  1.00  0.00    -0.354 N 
ATOM     53  N   UNL A   1      42.228  28.198  31.238  1.00  0.00    -0.248 NA
ATOM     54  C   UNL A   1      43.643  26.758  30.067  1.00  0.00     0.031 C 
ATOM     55  C   UNL A   1      43.023  29.672  35.341  1.00  0.00     0.029 A 
ATOM     56  C   UNL A   1      42.797  29.184  34.065  1.00  0.00     0.049 A 
ATOM     57  H   UNL A   1      41.278  29.695  32.692  1.00  0.00     0.167 HD
ATOM     58  C   UNL A   1      43.281  27.815  32.064  1.00  0.00     0.074 A 
ATOM     59  C   UNL A   1      44.093  26.887  31.308  1.00  0.00     0.031 C 
ATOM     60  C   UNL A   1      43.561  28.210  33.331  1.00  0.00     0.034 A 
BRANCH  47  61
ATOM     61  C   UNL A   1      39.609  32.399  35.547  1.00  0.00     0.023 A 
ATOM     62  C   UNL A   1      38.878  31.835  36.612  1.00  0.00     0.012 A 
ATOM     63  C   UNL A   1      40.003  33.749  35.616  1.00  0.00     0.148 A 
ATOM     64  C   UNL A   1      38.524  32.608  37.716  1.00  0.00     0.002 A 
ATOM     65  C   UNL A   1      39.684  34.502  36.738  1.00  0.00     0.091 A 
ATOM     66  F   UNL A   1      40.683  34.268  34.582  1.00  0.00    -0.205 F 
ATOM     67  C   UNL A   1      38.936  33.937  37.784  1.00  0.00     0.022 A 
BRANCH  65  68
ATOM     68  S   UNL A   1      40.230  36.199  36.957  1.00  0.00     0.127 S 
ATOM     69  O   UNL A   1      41.672  36.025  37.121  1.00  0.00    -0.237 OA
ATOM     70  O   UNL A   1      39.828  36.813  35.692  1.00  0.00    -0.237 OA
ATOM     71  O   UNL A   1      39.529  36.701  38.131  1.00  0.00    -0.744 OA
ENDBRANCH  65  68
ENDBRANCH  47  61
BRANCH  48  72
ATOM     72  C   UNL A   1      41.971  26.760  27.672  1.00  0.00     0.023 A 
ATOM     73  C   UNL A   1      42.605  27.373  26.572  1.00  0.00     0.012 A 
ATOM     74  C   UNL A   1      41.678  25.385  27.607  1.00  0.00     0.148 A 
ATOM     75  C   UNL A   1      42.890  26.645  25.415  1.00  0.00     0.002 A 
ATOM     76  C   UNL A   1      42.025  24.650  26.479  1.00  0.00     0.091 A 
ATOM     77  F   UNL A   1      41.049  24.819  28.647  1.00  0.00    -0.205 F 
ATOM     78  C   UNL A   1      42.609  25.282  25.372  1.00  0.00     0.022 A 
BRANCH  76  79
ATOM     79  S   UNL A   1      41.817  22.869  26.397  1.00  0.00     0.127 S 
ATOM     80  O   UNL A   1      42.465  22.549  25.128  1.00  0.00    -0.237 OA
ATOM     81  O   UNL A   1      42.539  22.424  27.589  1.00  0.00    -0.237 OA
ATOM     82  O   UNL A   1      40.379  22.643  26.452  1.00  0.00    -0.744 OA
ENDBRANCH  76  79
ENDBRANCH  48  72
BRANCH  60  83
ATOM     83  C   UNL A   1      44.759  27.601  34.016  1.00  0.00     0.023 A 
ATOM     84  C   UNL A   1      45.972  28.315  34.095  1.00  0.00     0.012 A 
ATOM     85  C   UNL A   1      44.656  26.347  34.652  1.00  0.00     0.148 A 
ATOM     86  C   UNL A   1      47.071  27.775  34.764  1.00  0.00     0.002 A 
ATOM     87  C   UNL A   1      45.738  25.839  35.361  1.00  0.00     0.091 A 
ATOM     88  F   UNL A   1      43.500  25.674  34.554  1.00  0.00    -0.205 F 
ATOM     89  C   UNL A   1      46.950  26.545  35.408  1.00  0.00     0.022 A 
BRANCH  87  90
ATOM     90  S   UNL A   1      45.645  24.311  36.302  1.00  0.00     0.127 S 
ATOM     91  O   UNL A   1      46.851  24.395  37.125  1.00  0.00    -0.237 OA
ATOM     92  O   UNL A   1      44.391  24.477  37.038  1.00  0.00    -0.237 OA
ATOM     93  O   UNL A   1      45.634  23.234  35.322  1.00  0.00    -0.744 OA
ENDBRANCH  87  90
ENDBRANCH  60  83
ENDBRANCH  34  35
ENDBRANCH  27  29
ENDBRANCH  26  27
ENDBRANCH  25  26
ENDBRANCH  24  25
ENDBRANCH  23  24
ENDBRANCH  22  23
ENDBRANCH   1  22
TORSDOF 25
ENDMDL
MODEL 3
REMARK VINA RESULT:      -9.4      2.693      8.066
REMARK SMILES C#CCOc1ccccc1/C=C(\C#N)C(=O)OCCOCCOCCOC(=O)c1ccc(-c2c3nc(c(-c4cccc(S(=O)(=O)[O-])c4F)c4ccc([nH]4)c(-c4cccc(S(=O)(=O)[O-])c4F)c4nc(c(-c5cccc(S(=O)(=O)[O-])c5F)c5ccc2[nH]5)C=C4)C=C3)cc1
REMARK SMILES IDX 21 1 20 2 19 3 18 4 17 5 15 6 16 7 12 8 11 9 10 10 5 11 6 12
REMARK SMILES IDX 7 13 9 14 8 15 4 16 3 17 2 18 1 19 13 20 14 21 22 22 23 23
REMARK SMILES IDX 24 24 25 25 26 26 27 27 28 28 29 29 30 30 91 31 31 32 90 33
REMARK SMILES IDX 32 34 33 35 34 36 84 37 35 38 89 39 83 40 85 41 36 42 88 43
REMARK SMILES IDX 82 44 81 45 37 47 69 48 49 49 68 50 50 51 53 52 67 53 86 54
REMARK SMILES IDX 51 55 52 56 66 58 87 59 54 60 38 61 39 62 47 63 40 64 42 65
REMARK SMILES IDX 48 66 41 67 43 68 44 69 45 70 46 71 70 72 71 73 79 74 72 75
REMARK SMILES IDX 74 76 80 77 73 78 75 79 76 80 77 81 78 82 55 83 56 84 64 85
REMARK SMILES IDX 57 86 59 87 65 88 58 89 60 90 61 91 62 92 63 93
REMARK H PARENT 85 46 53 57
REMARK Flexibility Score: inf
ROOT
ATOM      1  C   UNL A   1      30.594  29.183  23.354  1.00  0.00     0.188 C 
ENDROOT
BRANCH   1   2
ATOM      2  O   UNL A   1      29.635  28.159  23.570  1.00  0.00    -0.376 OA
BRANCH   2   3
ATOM      3  C   UNL A   1      29.968  26.893  23.041  1.00  0.00     0.202 C 
BRANCH   3   4
ATOM      4  C   UNL A   1      30.245  25.757  24.058  1.00  0.00     0.261 C 
BRANCH   4   5
ATOM      5  O   UNL A   1      31.584  25.669  24.611  1.00  0.00    -0.459 OA
BRANCH   5   6
ATOM      6  C   UNL A   1      31.758  25.210  25.897  1.00  0.00     0.348 C 
ATOM      7  O   UNL A   1      31.101  25.575  26.859  1.00  0.00    -0.245 OA
BRANCH   6   8
ATOM      8  C   UNL A   1      32.781  24.093  25.946  1.00  0.00     0.138 C 
ATOM      9  C   UNL A   1      33.740  23.996  24.974  1.00  0.00     0.039 C 
BRANCH   9  10
ATOM     10  C   UNL A   1      35.002  23.159  24.938  1.00  0.00     0.018 A 
ATOM     11  C   UNL A   1      35.154  21.751  24.613  1.00  0.00     0.128 A 
ATOM     12  C   UNL A   1      36.402  21.138  24.814  1.00  0.00     0.047 A 
ATOM     13  C   UNL A   1      37.509  21.864  25.254  1.00  0.00     0.004 A 
ATOM     14  C   UNL A   1      36.155  23.852  25.374  1.00  0.00     0.012 A 
ATOM     15  C   UNL A   1      37.391  23.221  25.514  1.00  0.00     0.001 A 
BRANCH  11  16
ATOM     16  O   UNL A   1      34.182  20.793  24.279  1.00  0.00    -0.480 OA
BRANCH  16  17
ATOM     17  C   UNL A   1      34.200  19.476  24.998  1.00  0.00     0.318 C 
BRANCH  17  18
ATOM     18  C   UNL A   1      33.291  18.745  24.023  1.00  0.00    -0.065 C 
ATOM     19  C   UNL A   1      32.512  18.117  23.186  1.00  0.00     0.007 C 
ENDBRANCH  17  18
ENDBRANCH  16  17
ENDBRANCH  11  16
ENDBRANCH   9  10
BRANCH   8  20
ATOM     20  C   UNL A   1      32.722  23.275  27.112  1.00  0.00     0.107 C 
ATOM     21  N   UNL A   1      32.616  22.569  28.024  1.00  0.00    -0.192 NA
ENDBRANCH   8  20
ENDBRANCH   6   8
ENDBRANCH   5   6
ENDBRANCH   4   5
ENDBRANCH   3   4
ENDBRANCH   2   3
ENDBRANCH   1   2
BRANCH   1  22
ATOM     22  C   UNL A   1      31.420  29.439  24.627  1.00  0.00     0.188 C 
BRANCH  22  23
ATOM     23  O   UNL A   1      31.164  28.651  25.787  1.00  0.00    -0.376 OA
BRANCH  23  24
ATOM     24  C   UNL A   1      31.776  29.026  27.007  1.00  0.00     0.202 C 
BRANCH  24  25
ATOM     25  C   UNL A   1      33.228  28.582  27.236  1.00  0.00     0.261 C 
BRANCH  25  26
ATOM     26  O   UNL A   1      34.252  29.404  26.644  1.00  0.00    -0.460 OA
BRANCH  26  27
ATOM     27  C   UNL A   1      34.645  30.467  27.390  1.00  0.00     0.338 C 
ATOM     28  O   UNL A   1      34.020  31.501  27.564  1.00  0.00    -0.246 OA
BRANCH  27  29
ATOM     29  C   UNL A   1      35.916  30.180  28.098  1.00  0.00     0.060 A 
ATOM     30  C   UNL A   1      37.106  30.266  27.365  1.00  0.00     0.016 A 
ATOM     31  C   UNL A   1      35.948  29.712  29.416  1.00  0.00     0.016 A 
ATOM     32  C   UNL A   1      38.314  29.847  27.930  1.00  0.00     0.010 A 
ATOM     33  C   UNL A   1      37.167  29.295  29.981  1.00  0.00     0.010 A 
ATOM     34  C   UNL A   1      38.358  29.344  29.235  1.00  0.00    -0.014 A 
BRANCH  34  35
ATOM     35  C   UNL A   1      39.620  28.727  29.730  1.00  0.00     0.031 A 
ATOM     36  C   UNL A   1      40.253  29.273  30.981  1.00  0.00     0.074 A 
ATOM     37  C   UNL A   1      40.174  27.661  29.121  1.00  0.00     0.049 A 
ATOM     38  N   UNL A   1      41.356  28.906  31.580  1.00  0.00    -0.248 NA
ATOM     39  C   UNL A   1      39.544  30.377  31.647  1.00  0.00     0.031 C 
ATOM     40  C   UNL A   1      39.657  27.011  27.920  1.00  0.00     0.029 A 
ATOM     41  N   UNL A   1      41.307  26.941  29.426  1.00  0.00    -0.354 N 
ATOM     42  C   UNL A   1      41.488  29.746  32.679  1.00  0.00     0.074 A 
ATOM     43  C   UNL A   1      40.350  30.640  32.665  1.00  0.00     0.031 C 
ATOM     44  C   UNL A   1      40.470  25.993  27.586  1.00  0.00     0.029 A 
ATOM     45  C   UNL A   1      41.600  25.952  28.514  1.00  0.00     0.049 A 
ATOM     46  H   UNL A   1      41.858  27.117  30.223  1.00  0.00     0.167 HD
ATOM     47  C   UNL A   1      42.463  29.772  33.619  1.00  0.00     0.034 A 
ATOM     48  C   UNL A   1      42.673  25.138  28.412  1.00  0.00     0.034 A 
ATOM     49  C   UNL A   1      43.604  28.897  33.635  1.00  0.00     0.049 A 
ATOM     50  C   UNL A   1      43.779  25.235  29.438  1.00  0.00     0.074 A 
ATOM     51  C   UNL A   1      44.652  28.869  34.540  1.00  0.00     0.029 A 
ATOM     52  N   UNL A   1      43.857  27.905  32.703  1.00  0.00    -0.354 N 
ATOM     53  N   UNL A   1      43.853  25.990  30.508  1.00  0.00    -0.248 NA
ATOM     54  C   UNL A   1      44.945  24.354  29.251  1.00  0.00     0.031 C 
ATOM     55  C   UNL A   1      45.551  27.877  34.140  1.00  0.00     0.029 A 
ATOM     56  C   UNL A   1      45.043  27.259  33.010  1.00  0.00     0.049 A 
ATOM     57  H   UNL A   1      43.278  27.690  31.936  1.00  0.00     0.167 HD
ATOM     58  C   UNL A   1      45.048  25.648  31.135  1.00  0.00     0.074 A 
ATOM     59  C   UNL A   1      45.654  24.599  30.343  1.00  0.00     0.031 C 
ATOM     60  C   UNL A   1      45.605  26.170  32.256  1.00  0.00     0.034 A 
BRANCH  47  61
ATOM     61  C   UNL A   1      42.335  30.784  34.725  1.00  0.00     0.023 A 
ATOM     62  C   UNL A   1      41.629  30.447  35.898  1.00  0.00     0.012 A 
ATOM     63  C   UNL A   1      42.967  32.038  34.632  1.00  0.00     0.148 A 
ATOM     64  C   UNL A   1      41.534  31.354  36.952  1.00  0.00     0.002 A 
ATOM     65  C   UNL A   1      42.904  32.920  35.703  1.00  0.00     0.091 A 
ATOM     66  F   UNL A   1      43.618  32.343  33.499  1.00  0.00    -0.205 F 
ATOM     67  C   UNL A   1      42.180  32.585  36.859  1.00  0.00     0.022 A 
BRANCH  65  68
ATOM     68  S   UNL A   1      43.763  34.498  35.714  1.00  0.00     0.127 S 
ATOM     69  O   UNL A   1      43.527  34.952  37.083  1.00  0.00    -0.237 OA
ATOM     70  O   UNL A   1      45.141  34.096  35.432  1.00  0.00    -0.237 OA
ATOM     71  O   UNL A   1      43.137  35.306  34.677  1.00  0.00    -0.744 OA
ENDBRANCH  65  68
ENDBRANCH  47  61
BRANCH  48  72
ATOM     72  C   UNL A   1      42.796  24.170  27.279  1.00  0.00     0.023 A 
ATOM     73  C   UNL A   1      43.403  24.569  26.070  1.00  0.00     0.012 A 
ATOM     74  C   UNL A   1      42.260  22.872  27.374  1.00  0.00     0.148 A 
ATOM     75  C   UNL A   1      43.424  23.714  24.966  1.00  0.00     0.002 A 
ATOM     76  C   UNL A   1      42.344  22.002  26.293  1.00  0.00     0.091 A 
ATOM     77  F   UNL A   1      41.661  22.514  28.518  1.00  0.00    -0.205 F 
ATOM     78  C   UNL A   1      42.903  22.429  25.080  1.00  0.00     0.022 A 
BRANCH  76  79
ATOM     79  S   UNL A   1      41.816  20.290  26.401  1.00  0.00     0.127 S 
ATOM     80  O   UNL A   1      42.621  19.661  25.359  1.00  0.00    -0.237 OA
ATOM     81  O   UNL A   1      42.194  19.942  27.771  1.00  0.00    -0.237 OA
ATOM     82  O   UNL A   1      40.377  20.311  26.168  1.00  0.00    -0.744 OA
ENDBRANCH  76  79
ENDBRANCH  48  72
BRANCH  60  83
ATOM     83  C   UNL A   1      46.906  25.581  32.743  1.00  0.00     0.023 A 
ATOM     84  C   UNL A   1      48.133  26.173  32.381  1.00  0.00     0.012 A 
ATOM     85  C   UNL A   1      46.905  24.484  33.627  1.00  0.00     0.148 A 
ATOM     86  C   UNL A   1      49.338  25.659  32.862  1.00  0.00     0.002 A 
ATOM     87  C   UNL A   1      48.105  24.010  34.144  1.00  0.00     0.091 A 
ATOM     88  F   UNL A   1      45.730  23.923  33.949  1.00  0.00    -0.205 F 
ATOM     89  C   UNL A   1      49.324  24.588  33.753  1.00  0.00     0.022 A 
BRANCH  87  90
ATOM     90  S   UNL A   1      48.179  22.699  35.371  1.00  0.00     0.127 S 
ATOM     91  O   UNL A   1      48.064  21.504  34.537  1.00  0.00    -0.237 OA
ATOM     92  O   UNL A   1      49.501  22.906  35.964  1.00  0.00    -0.237 OA
ATOM     93  O   UNL A   1      47.064  22.934  36.279  1.00  0.00    -0.744 OA
ENDBRANCH  87  90
ENDBRANCH  60  83
ENDBRANCH  34  35
ENDBRANCH  27  29
ENDBRANCH  26  27
ENDBRANCH  25  26
ENDBRANCH  24  25
ENDBRANCH  23  24
ENDBRANCH  22  23
ENDBRANCH   1  22
TORSDOF 25
ENDMDL
