MODEL 1
REMARK VINA RESULT:     -10.3      0.000      0.000
REMARK SMILES C#CCN(CC(=O)OCCOCCOCCOC(=O)c1ccc(-c2c3nc(c(-c4cccc(S(=O)(=O)[O-])c4F)c4ccc([nH]4)c(-c4cccc(S(=O)(=O)[O-])c4F)c4nc(c(-c5cccc(S(=O)(=O)[O-])c5F)c5ccc2[nH]5)C=C4)C=C3)cc1)C(=O)Nc1cccc(C#N)c1
REMARK SMILES IDX 12 1 11 2 10 3 9 4 8 5 6 6 7 7 5 8 4 9 3 10 2 11 1 12 83 13
REMARK SMILES IDX 84 14 85 15 86 17 87 18 93 19 88 20 90 21 89 22 91 23 92 24
REMARK SMILES IDX 13 25 14 26 15 27 16 28 17 29 18 30 19 31 20 32 21 33 82 34
REMARK SMILES IDX 22 35 81 36 23 37 24 38 25 39 75 40 26 41 80 42 74 43 76 44
REMARK SMILES IDX 27 45 79 46 73 47 72 48 28 50 60 51 40 52 59 53 41 54 44 55
REMARK SMILES IDX 58 56 77 57 42 58 43 59 57 61 78 62 45 63 29 64 30 65 38 66
REMARK SMILES IDX 31 67 33 68 39 69 32 70 34 71 35 72 36 73 37 74 61 75 62 76
REMARK SMILES IDX 70 77 63 78 65 79 71 80 64 81 66 82 67 83 68 84 69 85 46 86
REMARK SMILES IDX 47 87 55 88 48 89 50 90 56 91 49 92 51 93 52 94 53 95 54 96
REMARK H PARENT 85 16 76 49 44 60
REMARK Flexibility Score: inf
ROOT
ATOM      1  C   UNL A   1      32.552  21.187  24.543  1.00  0.00     0.188 C 
ENDROOT
BRANCH   1   2
ATOM      2  O   UNL A   1      31.672  21.497  25.618  1.00  0.00    -0.376 OA
BRANCH   2   3
ATOM      3  C   UNL A   1      32.167  22.404  26.584  1.00  0.00     0.202 C 
BRANCH   3   4
ATOM      4  C   UNL A   1      31.756  23.869  26.380  1.00  0.00     0.261 C 
BRANCH   4   5
ATOM      5  O   UNL A   1      30.670  24.065  25.447  1.00  0.00    -0.462 OA
BRANCH   5   6
ATOM      6  C   UNL A   1      30.866  25.064  24.541  1.00  0.00     0.325 C 
ATOM      7  O   UNL A   1      30.671  26.250  24.791  1.00  0.00    -0.250 OA
BRANCH   6   8
ATOM      8  C   UNL A   1      31.513  24.617  23.212  1.00  0.00     0.245 C 
BRANCH   8   9
ATOM      9  N   UNL A   1      32.858  25.065  22.881  1.00  0.00    -0.302 N 
BRANCH   9  10
ATOM     10  C   UNL A   1      33.911  24.061  23.137  1.00  0.00     0.211 C 
BRANCH  10  11
ATOM     11  C   UNL A   1      34.680  24.220  24.438  1.00  0.00    -0.085 C 
ATOM     12  C   UNL A   1      35.340  24.356  25.554  1.00  0.00     0.006 C 
ENDBRANCH  10  11
ENDBRANCH   9  10
BRANCH   9  13
ATOM     13  C   UNL A   1      33.259  26.285  22.451  1.00  0.00     0.323 C 
ATOM     14  O   UNL A   1      33.717  26.427  21.306  1.00  0.00    -0.248 OA
ATOM     15  N   UNL A   1      33.292  27.445  23.116  1.00  0.00    -0.308 N 
ATOM     16  H   UNL A   1      33.439  28.148  22.444  1.00  0.00     0.171 HD
BRANCH  15  17
ATOM     17  C   UNL A   1      33.208  28.092  24.359  1.00  0.00     0.044 A 
ATOM     18  C   UNL A   1      33.682  27.319  25.431  1.00  0.00     0.026 A 
ATOM     19  C   UNL A   1      32.637  29.311  24.688  1.00  0.00     0.045 A 
ATOM     20  C   UNL A   1      33.537  27.715  26.767  1.00  0.00     0.004 A 
ATOM     21  C   UNL A   1      32.477  29.718  26.030  1.00  0.00     0.054 A 
ATOM     22  C   UNL A   1      32.929  28.918  27.070  1.00  0.00     0.019 A 
BRANCH  21  23
ATOM     23  C   UNL A   1      31.774  30.934  26.313  1.00  0.00     0.099 C 
ATOM     24  N   UNL A   1      31.230  31.945  26.476  1.00  0.00    -0.192 NA
ENDBRANCH  21  23
ENDBRANCH  15  17
ENDBRANCH   9  13
ENDBRANCH   8   9
ENDBRANCH   6   8
ENDBRANCH   5   6
ENDBRANCH   4   5
ENDBRANCH   3   4
ENDBRANCH   2   3
ENDBRANCH   1   2
BRANCH   1  25
ATOM     25  C   UNL A   1      32.933  19.702  24.585  1.00  0.00     0.188 C 
BRANCH  25  26
ATOM     26  O   UNL A   1      34.316  19.364  24.710  1.00  0.00    -0.376 OA
BRANCH  26  27
ATOM     27  C   UNL A   1      35.243  20.404  24.986  1.00  0.00     0.202 C 
BRANCH  27  28
ATOM     28  C   UNL A   1      36.724  20.040  24.903  1.00  0.00     0.261 C 
BRANCH  28  29
ATOM     29  O   UNL A   1      37.618  21.150  25.084  1.00  0.00    -0.460 OA
BRANCH  29  30
ATOM     30  C   UNL A   1      38.763  20.855  25.750  1.00  0.00     0.338 C 
ATOM     31  O   UNL A   1      39.290  19.759  25.842  1.00  0.00    -0.246 OA
BRANCH  30  32
ATOM     32  C   UNL A   1      39.362  22.081  26.329  1.00  0.00     0.060 A 
ATOM     33  C   UNL A   1      38.829  23.321  25.951  1.00  0.00     0.016 A 
ATOM     34  C   UNL A   1      40.488  22.029  27.156  1.00  0.00     0.016 A 
ATOM     35  C   UNL A   1      39.441  24.506  26.371  1.00  0.00     0.010 A 
ATOM     36  C   UNL A   1      41.111  23.219  27.559  1.00  0.00     0.010 A 
ATOM     37  C   UNL A   1      40.604  24.465  27.154  1.00  0.00    -0.014 A 
BRANCH  37  38
ATOM     38  C   UNL A   1      41.316  25.725  27.504  1.00  0.00     0.031 A 
ATOM     39  C   UNL A   1      40.629  26.771  28.321  1.00  0.00     0.074 A 
ATOM     40  C   UNL A   1      42.573  25.948  27.080  1.00  0.00     0.049 A 
ATOM     41  N   UNL A   1      41.095  27.920  28.730  1.00  0.00    -0.248 NA
ATOM     42  C   UNL A   1      39.235  26.505  28.703  1.00  0.00     0.031 C 
ATOM     43  C   UNL A   1      43.302  25.037  26.220  1.00  0.00     0.029 A 
ATOM     44  N   UNL A   1      43.453  26.981  27.282  1.00  0.00    -0.354 N 
ATOM     45  C   UNL A   1      40.043  28.538  29.387  1.00  0.00     0.074 A 
ATOM     46  C   UNL A   1      38.920  27.622  29.345  1.00  0.00     0.031 C 
ATOM     47  C   UNL A   1      44.541  25.503  26.008  1.00  0.00     0.029 A 
ATOM     48  C   UNL A   1      44.663  26.808  26.643  1.00  0.00     0.049 A 
ATOM     49  H   UNL A   1      43.242  27.771  27.830  1.00  0.00     0.167 HD
ATOM     50  C   UNL A   1      40.013  29.764  29.957  1.00  0.00     0.034 A 
ATOM     51  C   UNL A   1      45.733  27.623  26.535  1.00  0.00     0.034 A 
ATOM     52  C   UNL A   1      41.118  30.685  29.968  1.00  0.00     0.049 A 
ATOM     53  C   UNL A   1      45.664  28.978  27.180  1.00  0.00     0.074 A 
ATOM     54  C   UNL A   1      41.181  31.940  30.548  1.00  0.00     0.029 A 
ATOM     55  N   UNL A   1      42.338  30.473  29.343  1.00  0.00    -0.354 N 
ATOM     56  N   UNL A   1      44.708  29.490  27.916  1.00  0.00    -0.248 NA
ATOM     57  C   UNL A   1      46.812  29.874  26.977  1.00  0.00     0.031 C 
ATOM     58  C   UNL A   1      42.426  32.500  30.245  1.00  0.00     0.029 A 
ATOM     59  C   UNL A   1      43.152  31.582  29.503  1.00  0.00     0.049 A 
ATOM     60  H   UNL A   1      42.588  29.654  28.857  1.00  0.00     0.167 HD
ATOM     61  C   UNL A   1      45.137  30.763  28.265  1.00  0.00     0.074 A 
ATOM     62  C   UNL A   1      46.461  30.929  27.700  1.00  0.00     0.031 C 
ATOM     63  C   UNL A   1      44.481  31.720  28.964  1.00  0.00     0.034 A 
BRANCH  50  64
ATOM     64  C   UNL A   1      38.724  30.185  30.602  1.00  0.00     0.023 A 
ATOM     65  C   UNL A   1      38.497  29.899  31.963  1.00  0.00     0.012 A 
ATOM     66  C   UNL A   1      37.752  30.888  29.865  1.00  0.00     0.148 A 
ATOM     67  C   UNL A   1      37.307  30.285  32.576  1.00  0.00     0.002 A 
ATOM     68  C   UNL A   1      36.586  31.303  30.493  1.00  0.00     0.091 A 
ATOM     69  F   UNL A   1      37.982  31.124  28.566  1.00  0.00    -0.205 F 
ATOM     70  C   UNL A   1      36.357  30.994  31.844  1.00  0.00     0.022 A 
BRANCH  68  71
ATOM     71  S   UNL A   1      35.327  32.270  29.655  1.00  0.00     0.127 S 
ATOM     72  O   UNL A   1      34.418  32.588  30.756  1.00  0.00    -0.237 OA
ATOM     73  O   UNL A   1      36.099  33.407  29.153  1.00  0.00    -0.237 OA
ATOM     74  O   UNL A   1      34.773  31.405  28.623  1.00  0.00    -0.744 OA
ENDBRANCH  68  71
ENDBRANCH  50  64
BRANCH  51  75
ATOM     75  C   UNL A   1      46.945  27.200  25.771  1.00  0.00     0.023 A 
ATOM     76  C   UNL A   1      47.871  26.317  26.361  1.00  0.00     0.012 A 
ATOM     77  C   UNL A   1      47.188  27.662  24.463  1.00  0.00     0.148 A 
ATOM     78  C   UNL A   1      49.026  25.931  25.678  1.00  0.00     0.002 A 
ATOM     79  C   UNL A   1      48.300  27.215  23.760  1.00  0.00     0.091 A 
ATOM     80  F   UNL A   1      46.318  28.528  23.922  1.00  0.00    -0.205 F 
ATOM     81  C   UNL A   1      49.234  26.367  24.373  1.00  0.00     0.022 A 
BRANCH  79  82
ATOM     82  S   UNL A   1      48.534  27.595  22.020  1.00  0.00     0.127 S 
ATOM     83  O   UNL A   1      49.653  28.531  22.064  1.00  0.00    -0.237 OA
ATOM     84  O   UNL A   1      48.846  26.280  21.459  1.00  0.00    -0.237 OA
ATOM     85  O   UNL A   1      47.257  28.138  21.573  1.00  0.00    -0.744 OA
ENDBRANCH  79  82
ENDBRANCH  51  75
BRANCH  63  86
ATOM     86  C   UNL A   1      45.188  33.033  29.168  1.00  0.00     0.023 A 
ATOM     87  C   UNL A   1      46.076  33.187  30.251  1.00  0.00     0.012 A 
ATOM     88  C   UNL A   1      45.022  34.089  28.252  1.00  0.00     0.148 A 
ATOM     89  C   UNL A   1      46.769  34.384  30.434  1.00  0.00     0.002 A 
ATOM     90  C   UNL A   1      45.753  35.259  28.411  1.00  0.00     0.091 A 
ATOM     91  F   UNL A   1      44.152  33.929  27.243  1.00  0.00    -0.205 F 
ATOM     92  C   UNL A   1      46.618  35.413  29.508  1.00  0.00     0.022 A 
BRANCH  90  93
ATOM     93  S   UNL A   1      45.692  36.601  27.220  1.00  0.00     0.127 S 
ATOM     94  O   UNL A   1      46.329  37.687  27.961  1.00  0.00    -0.237 OA
ATOM     95  O   UNL A   1      46.487  36.068  26.113  1.00  0.00    -0.237 OA
ATOM     96  O   UNL A   1      44.281  36.799  26.911  1.00  0.00    -0.744 OA
ENDBRANCH  90  93
ENDBRANCH  63  86
ENDBRANCH  37  38
ENDBRANCH  30  32
ENDBRANCH  29  30
ENDBRANCH  28  29
ENDBRANCH  27  28
ENDBRANCH  26  27
ENDBRANCH  25  26
ENDBRANCH   1  25
TORSDOF 26
ENDMDL
MODEL 2
REMARK VINA RESULT:      -9.5      1.606      2.081
REMARK SMILES C#CCN(CC(=O)OCCOCCOCCOC(=O)c1ccc(-c2c3nc(c(-c4cccc(S(=O)(=O)[O-])c4F)c4ccc([nH]4)c(-c4cccc(S(=O)(=O)[O-])c4F)c4nc(c(-c5cccc(S(=O)(=O)[O-])c5F)c5ccc2[nH]5)C=C4)C=C3)cc1)C(=O)Nc1cccc(C#N)c1
REMARK SMILES IDX 12 1 11 2 10 3 9 4 8 5 6 6 7 7 5 8 4 9 3 10 2 11 1 12 83 13
REMARK SMILES IDX 84 14 85 15 86 17 87 18 93 19 88 20 90 21 89 22 91 23 92 24
REMARK SMILES IDX 13 25 14 26 15 27 16 28 17 29 18 30 19 31 20 32 21 33 82 34
REMARK SMILES IDX 22 35 81 36 23 37 24 38 25 39 75 40 26 41 80 42 74 43 76 44
REMARK SMILES IDX 27 45 79 46 73 47 72 48 28 50 60 51 40 52 59 53 41 54 44 55
REMARK SMILES IDX 58 56 77 57 42 58 43 59 57 61 78 62 45 63 29 64 30 65 38 66
REMARK SMILES IDX 31 67 33 68 39 69 32 70 34 71 35 72 36 73 37 74 61 75 62 76
REMARK SMILES IDX 70 77 63 78 65 79 71 80 64 81 66 82 67 83 68 84 69 85 46 86
REMARK SMILES IDX 47 87 55 88 48 89 50 90 56 91 49 92 51 93 52 94 53 95 54 96
REMARK H PARENT 85 16 76 49 44 60
REMARK Flexibility Score: inf
ROOT
ATOM      1  C   UNL A   1      32.905  21.229  24.549  1.00  0.00     0.188 C 
ENDROOT
BRANCH   1   2
ATOM      2  O   UNL A   1      32.119  21.511  25.702  1.00  0.00    -0.376 OA
BRANCH   2   3
ATOM      3  C   UNL A   1      32.745  22.282  26.708  1.00  0.00     0.202 C 
BRANCH   3   4
ATOM      4  C   UNL A   1      32.425  23.783  26.678  1.00  0.00     0.261 C 
BRANCH   4   5
ATOM      5  O   UNL A   1      31.027  24.097  26.486  1.00  0.00    -0.462 OA
BRANCH   5   6
ATOM      6  C   UNL A   1      30.785  25.313  25.921  1.00  0.00     0.325 C 
ATOM      7  O   UNL A   1      30.910  26.375  26.524  1.00  0.00    -0.250 OA
BRANCH   6   8
ATOM      8  C   UNL A   1      30.496  25.278  24.405  1.00  0.00     0.245 C 
BRANCH   8   9
ATOM      9  N   UNL A   1      31.394  25.961  23.485  1.00  0.00    -0.302 N 
BRANCH   9  10
ATOM     10  C   UNL A   1      32.818  25.901  23.873  1.00  0.00     0.211 C 
BRANCH  10  11
ATOM     11  C   UNL A   1      33.433  27.205  24.353  1.00  0.00    -0.085 C 
ATOM     12  C   UNL A   1      33.961  28.324  24.765  1.00  0.00     0.006 C 
ENDBRANCH  10  11
ENDBRANCH   9  10
BRANCH   9  13
ATOM     13  C   UNL A   1      31.083  26.693  22.389  1.00  0.00     0.323 C 
ATOM     14  O   UNL A   1      31.402  26.293  21.257  1.00  0.00    -0.248 OA
ATOM     15  N   UNL A   1      30.485  27.886  22.313  1.00  0.00    -0.308 N 
ATOM     16  H   UNL A   1      30.238  28.015  21.369  1.00  0.00     0.171 HD
BRANCH  15  17
ATOM     17  C   UNL A   1      30.057  29.035  22.998  1.00  0.00     0.044 A 
ATOM     18  C   UNL A   1      29.028  29.731  22.343  1.00  0.00     0.026 A 
ATOM     19  C   UNL A   1      30.565  29.626  24.143  1.00  0.00     0.045 A 
ATOM     20  C   UNL A   1      28.574  30.984  22.775  1.00  0.00     0.004 A 
ATOM     21  C   UNL A   1      30.123  30.891  24.583  1.00  0.00     0.054 A 
ATOM     22  C   UNL A   1      29.124  31.570  23.898  1.00  0.00     0.019 A 
BRANCH  21  23
ATOM     23  C   UNL A   1      30.767  31.507  25.706  1.00  0.00     0.099 C 
ATOM     24  N   UNL A   1      31.355  31.986  26.583  1.00  0.00    -0.192 NA
ENDBRANCH  21  23
ENDBRANCH  15  17
ENDBRANCH   9  13
ENDBRANCH   8   9
ENDBRANCH   6   8
ENDBRANCH   5   6
ENDBRANCH   4   5
ENDBRANCH   3   4
ENDBRANCH   2   3
ENDBRANCH   1   2
BRANCH   1  25
ATOM     25  C   UNL A   1      33.299  19.747  24.529  1.00  0.00     0.188 C 
BRANCH  25  26
ATOM     26  O   UNL A   1      34.683  19.415  24.669  1.00  0.00    -0.376 OA
BRANCH  26  27
ATOM     27  C   UNL A   1      35.598  20.454  24.981  1.00  0.00     0.202 C 
BRANCH  27  28
ATOM     28  C   UNL A   1      37.079  20.078  24.999  1.00  0.00     0.261 C 
BRANCH  28  29
ATOM     29  O   UNL A   1      37.969  21.190  25.183  1.00  0.00    -0.460 OA
BRANCH  29  30
ATOM     30  C   UNL A   1      39.025  20.944  26.000  1.00  0.00     0.338 C 
ATOM     31  O   UNL A   1      39.520  19.856  26.241  1.00  0.00    -0.246 OA
BRANCH  30  32
ATOM     32  C   UNL A   1      39.574  22.209  26.542  1.00  0.00     0.060 A 
ATOM     33  C   UNL A   1      39.030  23.417  26.085  1.00  0.00     0.016 A 
ATOM     34  C   UNL A   1      40.668  22.223  27.413  1.00  0.00     0.016 A 
ATOM     35  C   UNL A   1      39.599  24.634  26.471  1.00  0.00     0.010 A 
ATOM     36  C   UNL A   1      41.249  23.444  27.783  1.00  0.00     0.010 A 
ATOM     37  C   UNL A   1      40.731  24.657  27.300  1.00  0.00    -0.014 A 
BRANCH  37  38
ATOM     38  C   UNL A   1      41.401  25.949  27.616  1.00  0.00     0.031 A 
ATOM     39  C   UNL A   1      40.714  26.957  28.480  1.00  0.00     0.074 A 
ATOM     40  C   UNL A   1      42.618  26.235  27.120  1.00  0.00     0.049 A 
ATOM     41  N   UNL A   1      41.148  28.126  28.868  1.00  0.00    -0.248 NA
ATOM     42  C   UNL A   1      39.359  26.622  28.941  1.00  0.00     0.031 C 
ATOM     43  C   UNL A   1      43.338  25.363  26.212  1.00  0.00     0.029 A 
ATOM     44  N   UNL A   1      43.458  27.308  27.277  1.00  0.00    -0.354 N 
ATOM     45  C   UNL A   1      40.108  28.689  29.591  1.00  0.00     0.074 A 
ATOM     46  C   UNL A   1      39.030  27.720  29.608  1.00  0.00     0.031 C 
ATOM     47  C   UNL A   1      44.539  25.889  25.931  1.00  0.00     0.029 A 
ATOM     48  C   UNL A   1      44.635  27.196  26.567  1.00  0.00     0.049 A 
ATOM     49  H   UNL A   1      43.242  28.085  27.842  1.00  0.00     0.167 HD
ATOM     50  C   UNL A   1      40.053  29.909  30.171  1.00  0.00     0.034 A 
ATOM     51  C   UNL A   1      45.656  28.062  26.402  1.00  0.00     0.034 A 
ATOM     52  C   UNL A   1      41.111  30.883  30.123  1.00  0.00     0.049 A 
ATOM     53  C   UNL A   1      45.561  29.410  27.059  1.00  0.00     0.074 A 
ATOM     54  C   UNL A   1      41.148  32.137  30.707  1.00  0.00     0.029 A 
ATOM     55  N   UNL A   1      42.301  30.733  29.425  1.00  0.00    -0.354 N 
ATOM     56  N   UNL A   1      44.626  29.871  27.854  1.00  0.00    -0.248 NA
ATOM     57  C   UNL A   1      46.651  30.361  26.796  1.00  0.00     0.031 C 
ATOM     58  C   UNL A   1      42.345  32.758  30.335  1.00  0.00     0.029 A 
ATOM     59  C   UNL A   1      43.069  31.879  29.545  1.00  0.00     0.049 A 
ATOM     60  H   UNL A   1      42.560  29.929  28.919  1.00  0.00     0.167 HD
ATOM     61  C   UNL A   1      45.014  31.163  28.186  1.00  0.00     0.074 A 
ATOM     62  C   UNL A   1      46.292  31.395  27.545  1.00  0.00     0.031 C 
ATOM     63  C   UNL A   1      44.355  32.084  28.930  1.00  0.00     0.034 A 
BRANCH  50  64
ATOM     64  C   UNL A   1      38.786  30.265  30.893  1.00  0.00     0.023 A 
ATOM     65  C   UNL A   1      38.611  29.867  32.233  1.00  0.00     0.012 A 
ATOM     66  C   UNL A   1      37.783  31.016  30.251  1.00  0.00     0.148 A 
ATOM     67  C   UNL A   1      37.441  30.192  32.919  1.00  0.00     0.002 A 
ATOM     68  C   UNL A   1      36.638  31.368  30.952  1.00  0.00     0.091 A 
ATOM     69  F   UNL A   1      37.964  31.359  28.969  1.00  0.00    -0.205 F 
ATOM     70  C   UNL A   1      36.460  30.948  32.281  1.00  0.00     0.022 A 
BRANCH  68  71
ATOM     71  S   UNL A   1      35.343  32.388  30.241  1.00  0.00     0.127 S 
ATOM     72  O   UNL A   1      35.001  31.633  29.037  1.00  0.00    -0.237 OA
ATOM     73  O   UNL A   1      34.323  32.362  31.290  1.00  0.00    -0.237 OA
ATOM     74  O   UNL A   1      35.943  33.695  30.005  1.00  0.00    -0.744 OA
ENDBRANCH  68  71
ENDBRANCH  50  64
BRANCH  51  75
ATOM     75  C   UNL A   1      46.840  27.702  25.565  1.00  0.00     0.023 A 
ATOM     76  C   UNL A   1      46.808  27.928  24.174  1.00  0.00     0.012 A 
ATOM     77  C   UNL A   1      47.999  27.140  26.134  1.00  0.00     0.148 A 
ATOM     78  C   UNL A   1      47.892  27.571  23.368  1.00  0.00     0.002 A 
ATOM     79  C   UNL A   1      49.102  26.858  25.337  1.00  0.00     0.091 A 
ATOM     80  F   UNL A   1      48.008  26.899  27.454  1.00  0.00    -0.205 F 
ATOM     81  C   UNL A   1      49.043  27.050  23.949  1.00  0.00     0.022 A 
BRANCH  79  82
ATOM     82  S   UNL A   1      50.675  26.355  26.044  1.00  0.00     0.127 S 
ATOM     83  O   UNL A   1      50.982  27.478  26.925  1.00  0.00    -0.237 OA
ATOM     84  O   UNL A   1      50.321  25.110  26.725  1.00  0.00    -0.237 OA
ATOM     85  O   UNL A   1      51.564  26.170  24.904  1.00  0.00    -0.744 OA
ENDBRANCH  79  82
ENDBRANCH  51  75
BRANCH  63  86
ATOM     86  C   UNL A   1      45.009  33.429  29.101  1.00  0.00     0.023 A 
ATOM     87  C   UNL A   1      45.919  33.633  30.157  1.00  0.00     0.012 A 
ATOM     88  C   UNL A   1      44.772  34.466  28.180  1.00  0.00     0.148 A 
ATOM     89  C   UNL A   1      46.564  34.861  30.309  1.00  0.00     0.002 A 
ATOM     90  C   UNL A   1      45.455  35.669  28.307  1.00  0.00     0.091 A 
ATOM     91  F   UNL A   1      43.883  34.257  27.197  1.00  0.00    -0.205 F 
ATOM     92  C   UNL A   1      46.342  35.872  29.377  1.00  0.00     0.022 A 
BRANCH  90  93
ATOM     93  S   UNL A   1      45.302  36.993  27.105  1.00  0.00     0.127 S 
ATOM     94  O   UNL A   1      45.767  38.147  27.872  1.00  0.00    -0.237 OA
ATOM     95  O   UNL A   1      46.212  36.557  26.046  1.00  0.00    -0.237 OA
ATOM     96  O   UNL A   1      43.897  37.025  26.719  1.00  0.00    -0.744 OA
ENDBRANCH  90  93
ENDBRANCH  63  86
ENDBRANCH  37  38
ENDBRANCH  30  32
ENDBRANCH  29  30
ENDBRANCH  28  29
ENDBRANCH  27  28
ENDBRANCH  26  27
ENDBRANCH  25  26
ENDBRANCH   1  25
TORSDOF 26
ENDMDL
MODEL 3
REMARK VINA RESULT:      -9.4      2.151      7.731
REMARK SMILES C#CCN(CC(=O)OCCOCCOCCOC(=O)c1ccc(-c2c3nc(c(-c4cccc(S(=O)(=O)[O-])c4F)c4ccc([nH]4)c(-c4cccc(S(=O)(=O)[O-])c4F)c4nc(c(-c5cccc(S(=O)(=O)[O-])c5F)c5ccc2[nH]5)C=C4)C=C3)cc1)C(=O)Nc1cccc(C#N)c1
REMARK SMILES IDX 12 1 11 2 10 3 9 4 8 5 6 6 7 7 5 8 4 9 3 10 2 11 1 12 83 13
REMARK SMILES IDX 84 14 85 15 86 17 87 18 93 19 88 20 90 21 89 22 91 23 92 24
REMARK SMILES IDX 13 25 14 26 15 27 16 28 17 29 18 30 19 31 20 32 21 33 82 34
REMARK SMILES IDX 22 35 81 36 23 37 24 38 25 39 75 40 26 41 80 42 74 43 76 44
REMARK SMILES IDX 27 45 79 46 73 47 72 48 28 50 60 51 40 52 59 53 41 54 44 55
REMARK SMILES IDX 58 56 77 57 42 58 43 59 57 61 78 62 45 63 29 64 30 65 38 66
REMARK SMILES IDX 31 67 33 68 39 69 32 70 34 71 35 72 36 73 37 74 61 75 62 76
REMARK SMILES IDX 70 77 63 78 65 79 71 80 64 81 66 82 67 83 68 84 69 85 46 86
REMARK SMILES IDX 47 87 55 88 48 89 50 90 56 91 49 92 51 93 52 94 53 95 54 96
REMARK H PARENT 85 16 76 49 44 60
REMARK Flexibility Score: inf
ROOT
ATOM      1  C   UNL A   1      36.870  23.428  25.412  1.00  0.00     0.188 C 
ENDROOT
BRANCH   1   2
ATOM      2  O   UNL A   1      35.521  23.732  25.751  1.00  0.00    -0.376 OA
BRANCH   2   3
ATOM      3  C   UNL A   1      34.605  22.658  25.675  1.00  0.00     0.202 C 
BRANCH   3   4
ATOM      4  C   UNL A   1      33.194  23.031  25.197  1.00  0.00     0.261 C 
BRANCH   4   5
ATOM      5  O   UNL A   1      32.921  22.703  23.816  1.00  0.00    -0.462 OA
BRANCH   5   6
ATOM      6  C   UNL A   1      33.069  23.736  22.941  1.00  0.00     0.325 C 
ATOM      7  O   UNL A   1      33.994  23.812  22.136  1.00  0.00    -0.250 OA
BRANCH   6   8
ATOM      8  C   UNL A   1      31.895  24.737  22.914  1.00  0.00     0.245 C 
BRANCH   8   9
ATOM      9  N   UNL A   1      32.138  26.139  23.221  1.00  0.00    -0.302 N 
BRANCH   9  10
ATOM     10  C   UNL A   1      32.097  26.459  24.663  1.00  0.00     0.211 C 
BRANCH  10  11
ATOM     11  C   UNL A   1      30.884  25.948  25.423  1.00  0.00    -0.085 C 
ATOM     12  C   UNL A   1      29.843  25.510  26.076  1.00  0.00     0.006 C 
ENDBRANCH  10  11
ENDBRANCH   9  10
BRANCH   9  13
ATOM     13  C   UNL A   1      32.316  27.173  22.364  1.00  0.00     0.323 C 
ATOM     14  O   UNL A   1      33.404  27.327  21.786  1.00  0.00    -0.248 OA
ATOM     15  N   UNL A   1      31.471  28.158  22.044  1.00  0.00    -0.308 N 
ATOM     16  H   UNL A   1      31.848  28.603  21.251  1.00  0.00     0.171 HD
BRANCH  15  17
ATOM     17  C   UNL A   1      30.279  28.833  22.351  1.00  0.00     0.044 A 
ATOM     18  C   UNL A   1      29.300  28.012  22.934  1.00  0.00     0.026 A 
ATOM     19  C   UNL A   1      29.897  30.134  22.068  1.00  0.00     0.045 A 
ATOM     20  C   UNL A   1      27.990  28.450  23.165  1.00  0.00     0.004 A 
ATOM     21  C   UNL A   1      28.579  30.585  22.287  1.00  0.00     0.054 A 
ATOM     22  C   UNL A   1      27.624  29.741  22.838  1.00  0.00     0.019 A 
BRANCH  21  23
ATOM     23  C   UNL A   1      28.211  31.906  21.867  1.00  0.00     0.099 C 
ATOM     24  N   UNL A   1      27.985  32.995  21.541  1.00  0.00    -0.192 NA
ENDBRANCH  21  23
ENDBRANCH  15  17
ENDBRANCH   9  13
ENDBRANCH   8   9
ENDBRANCH   6   8
ENDBRANCH   5   6
ENDBRANCH   4   5
ENDBRANCH   3   4
ENDBRANCH   2   3
ENDBRANCH   1   2
BRANCH   1  25
ATOM     25  C   UNL A   1      36.909  22.453  24.229  1.00  0.00     0.188 C 
BRANCH  25  26
ATOM     26  O   UNL A   1      37.526  21.178  24.426  1.00  0.00    -0.376 OA
BRANCH  26  27
ATOM     27  C   UNL A   1      38.532  21.061  25.422  1.00  0.00     0.202 C 
BRANCH  27  28
ATOM     28  C   UNL A   1      39.328  19.758  25.440  1.00  0.00     0.261 C 
BRANCH  28  29
ATOM     29  O   UNL A   1      40.247  19.641  26.537  1.00  0.00    -0.460 OA
BRANCH  29  30
ATOM     30  C   UNL A   1      41.558  19.719  26.191  1.00  0.00     0.338 C 
ATOM     31  O   UNL A   1      42.227  18.840  25.672  1.00  0.00    -0.246 OA
BRANCH  30  32
ATOM     32  C   UNL A   1      42.094  21.072  26.470  1.00  0.00     0.060 A 
ATOM     33  C   UNL A   1      42.253  21.458  27.807  1.00  0.00     0.016 A 
ATOM     34  C   UNL A   1      42.350  21.987  25.444  1.00  0.00     0.016 A 
ATOM     35  C   UNL A   1      42.635  22.767  28.119  1.00  0.00     0.010 A 
ATOM     36  C   UNL A   1      42.712  23.304  25.760  1.00  0.00     0.010 A 
ATOM     37  C   UNL A   1      42.839  23.709  27.099  1.00  0.00    -0.014 A 
BRANCH  37  38
ATOM     38  C   UNL A   1      43.134  25.128  27.439  1.00  0.00     0.031 A 
ATOM     39  C   UNL A   1      44.519  25.666  27.274  1.00  0.00     0.074 A 
ATOM     40  C   UNL A   1      42.170  25.938  27.914  1.00  0.00     0.049 A 
ATOM     41  N   UNL A   1      44.955  26.874  27.508  1.00  0.00    -0.248 NA
ATOM     42  C   UNL A   1      45.547  24.721  26.815  1.00  0.00     0.031 C 
ATOM     43  C   UNL A   1      40.815  25.500  28.185  1.00  0.00     0.029 A 
ATOM     44  N   UNL A   1      42.160  27.265  28.265  1.00  0.00    -0.354 N 
ATOM     45  C   UNL A   1      46.318  26.833  27.262  1.00  0.00     0.074 A 
ATOM     46  C   UNL A   1      46.632  25.483  26.836  1.00  0.00     0.031 C 
ATOM     47  C   UNL A   1      40.074  26.537  28.600  1.00  0.00     0.029 A 
ATOM     48  C   UNL A   1      40.935  27.706  28.721  1.00  0.00     0.049 A 
ATOM     49  H   UNL A   1      42.951  27.847  28.198  1.00  0.00     0.167 HD
ATOM     50  C   UNL A   1      47.226  27.826  27.399  1.00  0.00     0.034 A 
ATOM     51  C   UNL A   1      40.554  28.897  29.226  1.00  0.00     0.034 A 
ATOM     52  C   UNL A   1      46.919  29.154  27.856  1.00  0.00     0.049 A 
ATOM     53  C   UNL A   1      41.589  29.977  29.365  1.00  0.00     0.074 A 
ATOM     54  C   UNL A   1      47.777  30.231  27.998  1.00  0.00     0.029 A 
ATOM     55  N   UNL A   1      45.670  29.581  28.281  1.00  0.00    -0.354 N 
ATOM     56  N   UNL A   1      42.847  29.959  28.997  1.00  0.00    -0.248 NA
ATOM     57  C   UNL A   1      41.163  31.236  29.992  1.00  0.00     0.031 C 
ATOM     58  C   UNL A   1      47.054  31.298  28.540  1.00  0.00     0.029 A 
ATOM     59  C   UNL A   1      45.738  30.898  28.706  1.00  0.00     0.049 A 
ATOM     60  H   UNL A   1      44.854  29.029  28.279  1.00  0.00     0.167 HD
ATOM     61  C   UNL A   1      43.362  31.201  29.345  1.00  0.00     0.074 A 
ATOM     62  C   UNL A   1      42.268  31.964  29.911  1.00  0.00     0.031 C 
ATOM     63  C   UNL A   1      44.633  31.657  29.236  1.00  0.00     0.034 A 
BRANCH  50  64
ATOM     64  C   UNL A   1      48.653  27.496  27.064  1.00  0.00     0.023 A 
ATOM     65  C   UNL A   1      49.461  26.846  28.017  1.00  0.00     0.012 A 
ATOM     66  C   UNL A   1      49.180  27.805  25.796  1.00  0.00     0.148 A 
ATOM     67  C   UNL A   1      50.786  26.530  27.721  1.00  0.00     0.002 A 
ATOM     68  C   UNL A   1      50.489  27.453  25.495  1.00  0.00     0.091 A 
ATOM     69  F   UNL A   1      48.397  28.446  24.918  1.00  0.00    -0.205 F 
ATOM     70  C   UNL A   1      51.296  26.826  26.459  1.00  0.00     0.022 A 
BRANCH  68  71
ATOM     71  S   UNL A   1      51.221  27.737  23.881  1.00  0.00     0.127 S 
ATOM     72  O   UNL A   1      52.538  27.125  24.043  1.00  0.00    -0.237 OA
ATOM     73  O   UNL A   1      50.311  27.005  23.000  1.00  0.00    -0.237 OA
ATOM     74  O   UNL A   1      51.227  29.181  23.689  1.00  0.00    -0.744 OA
ENDBRANCH  68  71
ENDBRANCH  50  64
BRANCH  51  75
ATOM     75  C   UNL A   1      39.144  29.129  29.662  1.00  0.00     0.023 A 
ATOM     76  C   UNL A   1      38.750  28.782  30.969  1.00  0.00     0.012 A 
ATOM     77  C   UNL A   1      38.190  29.694  28.794  1.00  0.00     0.148 A 
ATOM     78  C   UNL A   1      37.430  28.962  31.390  1.00  0.00     0.002 A 
ATOM     79  C   UNL A   1      36.898  29.941  29.243  1.00  0.00     0.091 A 
ATOM     80  F   UNL A   1      38.566  29.992  27.541  1.00  0.00    -0.205 F 
ATOM     81  C   UNL A   1      36.508  29.555  30.533  1.00  0.00     0.022 A 
BRANCH  79  82
ATOM     82  S   UNL A   1      35.714  30.862  28.254  1.00  0.00     0.127 S 
ATOM     83  O   UNL A   1      36.489  32.039  27.874  1.00  0.00    -0.237 OA
ATOM     84  O   UNL A   1      35.431  29.927  27.165  1.00  0.00    -0.237 OA
ATOM     85  O   UNL A   1      34.579  31.097  29.138  1.00  0.00    -0.744 OA
ENDBRANCH  79  82
ENDBRANCH  51  75
BRANCH  63  86
ATOM     86  C   UNL A   1      44.912  33.051  29.729  1.00  0.00     0.023 A 
ATOM     87  C   UNL A   1      45.343  33.249  31.055  1.00  0.00     0.012 A 
ATOM     88  C   UNL A   1      44.811  34.154  28.861  1.00  0.00     0.148 A 
ATOM     89  C   UNL A   1      45.644  34.530  31.518  1.00  0.00     0.002 A 
ATOM     90  C   UNL A   1      45.160  35.420  29.313  1.00  0.00     0.091 A 
ATOM     91  F   UNL A   1      44.375  33.945  27.609  1.00  0.00    -0.205 F 
ATOM     92  C   UNL A   1      45.565  35.612  30.645  1.00  0.00     0.022 A 
BRANCH  90  93
ATOM     93  S   UNL A   1      45.178  36.856  28.236  1.00  0.00     0.127 S 
ATOM     94  O   UNL A   1      43.809  37.349  28.374  1.00  0.00    -0.237 OA
ATOM     95  O   UNL A   1      46.197  37.699  28.860  1.00  0.00    -0.237 OA
ATOM     96  O   UNL A   1      45.532  36.359  26.912  1.00  0.00    -0.744 OA
ENDBRANCH  90  93
ENDBRANCH  63  86
ENDBRANCH  37  38
ENDBRANCH  30  32
ENDBRANCH  29  30
ENDBRANCH  28  29
ENDBRANCH  27  28
ENDBRANCH  26  27
ENDBRANCH  25  26
ENDBRANCH   1  25
TORSDOF 26
ENDMDL
