MODEL 1
REMARK VINA RESULT:      -8.5      0.000      0.000
REMARK SMILES O=C(OCCOCCOCCOC(=O)[C@H]1CCCC[C@H]1C(=O)N1CCN(S(=O)(=O)c2ccc(F)cc2)CC1)c1ccc(-c2c3nc(c(-c4cccc(S(=O)(=O)[O-])c4F)c4ccc([nH]4)c(-c4cccc(S(=O)(=O)[O-])c4F)c4nc(c(-c5cccc(S(=O)(=O)[O-])c5F)c5ccc2[nH]5)C=C4)C=C3)cc1
REMARK SMILES IDX 7 1 6 2 5 3 4 4 3 5 2 6 1 7 39 8 40 9 101 10 41 11 100 12
REMARK SMILES IDX 42 13 43 14 44 15 94 16 45 17 99 18 93 19 95 20 46 21 98 22
REMARK SMILES IDX 92 23 91 24 47 26 79 27 59 28 78 29 60 30 63 31 77 32 96 33
REMARK SMILES IDX 61 34 62 35 76 37 97 38 64 39 48 40 49 41 57 42 50 43 52 44
REMARK SMILES IDX 58 45 51 46 53 47 54 48 55 49 56 50 80 51 81 52 89 53 82 54
REMARK SMILES IDX 84 55 90 56 83 57 85 58 86 59 87 60 88 61 65 62 66 63 74 64
REMARK SMILES IDX 67 65 69 66 75 67 68 68 70 69 71 70 72 71 73 72 8 73 9 74
REMARK SMILES IDX 10 75 11 76 12 77 13 78 14 79 15 80 16 81 20 82 17 83 19 84
REMARK SMILES IDX 18 85 21 86 22 87 23 88 24 89 38 90 25 91 37 92 26 93 27 94
REMARK SMILES IDX 28 95 29 96 30 97 31 98 36 99 32 100 35 101 33 102 34 103
REMARK H PARENT 95 25 63 36
REMARK Flexibility Score: inf
ROOT
ATOM      1  C   UNL A   1      44.528  22.421  24.197  1.00  0.00     0.188 C 
ENDROOT
BRANCH   1   2
ATOM      2  O   UNL A   1      43.776  20.911  24.644  1.00  0.00    -0.376 OA
BRANCH   2   3
ATOM      3  C   UNL A   1      42.581  20.539  26.201  1.00  0.00     0.202 C 
BRANCH   3   4
ATOM      4  C   UNL A   1      40.891  21.529  26.173  1.00  0.00     0.261 C 
BRANCH   4   5
ATOM      5  O   UNL A   1      40.644  23.024  27.151  1.00  0.00    -0.460 OA
BRANCH   5   6
ATOM      6  C   UNL A   1      41.022  24.003  28.155  1.00  0.00     0.338 C 
ATOM      7  O   UNL A   1      40.174  24.844  28.472  1.00  0.00    -0.246 OA
BRANCH   6   8
ATOM      8  C   UNL A   1      42.423  24.221  28.891  1.00  0.00     0.060 A 
ATOM      9  C   UNL A   1      43.061  23.250  29.618  1.00  0.00     0.016 A 
ATOM     10  C   UNL A   1      43.345  25.251  28.702  1.00  0.00     0.016 A 
ATOM     11  C   UNL A   1      44.053  23.467  30.594  1.00  0.00     0.010 A 
ATOM     12  C   UNL A   1      44.451  25.477  29.647  1.00  0.00     0.010 A 
ATOM     13  C   UNL A   1      44.632  24.667  30.785  1.00  0.00    -0.014 A 
BRANCH  13  14
ATOM     14  C   UNL A   1      44.880  25.034  32.255  1.00  0.00     0.031 A 
ATOM     15  C   UNL A   1      44.119  26.241  32.744  1.00  0.00     0.074 A 
ATOM     16  C   UNL A   1      45.384  24.242  33.257  1.00  0.00     0.049 A 
ATOM     17  N   UNL A   1      44.266  26.931  33.838  1.00  0.00    -0.248 NA
ATOM     18  C   UNL A   1      43.034  26.733  31.880  1.00  0.00     0.031 C 
ATOM     19  C   UNL A   1      45.900  22.875  33.123  1.00  0.00     0.029 A 
ATOM     20  N   UNL A   1      45.459  24.436  34.637  1.00  0.00    -0.354 N 
ATOM     21  C   UNL A   1      43.448  28.039  33.677  1.00  0.00     0.074 A 
ATOM     22  C   UNL A   1      42.735  27.890  32.437  1.00  0.00     0.031 C 
ATOM     23  C   UNL A   1      46.088  22.323  34.336  1.00  0.00     0.029 A 
ATOM     24  C   UNL A   1      45.942  23.349  35.357  1.00  0.00     0.049 A 
ATOM     25  H   UNL A   1      45.189  25.280  35.068  1.00  0.00     0.167 HD
ATOM     26  C   UNL A   1      43.341  29.115  34.479  1.00  0.00     0.034 A 
ATOM     27  C   UNL A   1      46.315  23.204  36.657  1.00  0.00     0.034 A 
ATOM     28  C   UNL A   1      43.945  29.194  35.770  1.00  0.00     0.049 A 
ATOM     29  C   UNL A   1      46.277  24.433  37.537  1.00  0.00     0.074 A 
ATOM     30  C   UNL A   1      44.001  30.278  36.622  1.00  0.00     0.029 A 
ATOM     31  N   UNL A   1      44.571  28.137  36.407  1.00  0.00    -0.354 N 
ATOM     32  N   UNL A   1      45.718  25.593  37.294  1.00  0.00    -0.248 NA
ATOM     33  C   UNL A   1      46.966  24.367  38.839  1.00  0.00     0.031 C 
ATOM     34  C   UNL A   1      44.706  29.888  37.760  1.00  0.00     0.029 A 
ATOM     35  C   UNL A   1      45.029  28.545  37.641  1.00  0.00     0.049 A 
ATOM     36  H   UNL A   1      44.674  27.231  36.035  1.00  0.00     0.167 HD
ATOM     37  C   UNL A   1      46.003  26.395  38.394  1.00  0.00     0.074 A 
ATOM     38  C   UNL A   1      46.738  25.577  39.333  1.00  0.00     0.031 C 
ATOM     39  C   UNL A   1      45.714  27.704  38.586  1.00  0.00     0.034 A 
BRANCH  26  40
ATOM     40  C   UNL A   1      42.686  30.331  33.903  1.00  0.00     0.023 A 
ATOM     41  C   UNL A   1      41.330  30.625  34.125  1.00  0.00     0.012 A 
ATOM     42  C   UNL A   1      43.476  31.201  33.126  1.00  0.00     0.148 A 
ATOM     43  C   UNL A   1      40.765  31.772  33.567  1.00  0.00     0.002 A 
ATOM     44  C   UNL A   1      42.926  32.371  32.632  1.00  0.00     0.091 A 
ATOM     45  F   UNL A   1      44.751  30.861  32.885  1.00  0.00    -0.205 F 
ATOM     46  C   UNL A   1      41.567  32.652  32.839  1.00  0.00     0.022 A 
BRANCH  44  47
ATOM     47  S   UNL A   1      43.905  33.601  31.770  1.00  0.00     0.127 S 
ATOM     48  O   UNL A   1      45.046  33.756  32.671  1.00  0.00    -0.237 OA
ATOM     49  O   UNL A   1      44.204  32.915  30.513  1.00  0.00    -0.237 OA
ATOM     50  O   UNL A   1      43.059  34.779  31.643  1.00  0.00    -0.744 OA
ENDBRANCH  44  47
ENDBRANCH  26  40
BRANCH  27  51
ATOM     51  C   UNL A   1      46.904  21.919  37.198  1.00  0.00     0.023 A 
ATOM     52  C   UNL A   1      46.092  20.958  37.843  1.00  0.00     0.012 A 
ATOM     53  C   UNL A   1      48.291  21.664  37.131  1.00  0.00     0.148 A 
ATOM     54  C   UNL A   1      46.644  19.793  38.399  1.00  0.00     0.002 A 
ATOM     55  C   UNL A   1      48.822  20.467  37.605  1.00  0.00     0.091 A 
ATOM     56  F   UNL A   1      49.085  22.613  36.616  1.00  0.00    -0.205 F 
ATOM     57  C   UNL A   1      48.005  19.536  38.259  1.00  0.00     0.022 A 
BRANCH  55  58
ATOM     58  S   UNL A   1      50.539  20.006  37.336  1.00  0.00     0.127 S 
ATOM     59  O   UNL A   1      50.709  18.906  38.283  1.00  0.00    -0.237 OA
ATOM     60  O   UNL A   1      50.530  19.610  35.928  1.00  0.00    -0.237 OA
ATOM     61  O   UNL A   1      51.318  21.205  37.618  1.00  0.00    -0.744 OA
ENDBRANCH  55  58
ENDBRANCH  27  51
BRANCH  39  62
ATOM     62  C   UNL A   1      46.150  28.360  39.865  1.00  0.00     0.023 A 
ATOM     63  C   UNL A   1      47.305  29.165  39.882  1.00  0.00     0.012 A 
ATOM     64  C   UNL A   1      45.305  28.324  40.991  1.00  0.00     0.148 A 
ATOM     65  C   UNL A   1      47.614  29.925  41.008  1.00  0.00     0.002 A 
ATOM     66  C   UNL A   1      45.588  29.127  42.085  1.00  0.00     0.091 A 
ATOM     67  F   UNL A   1      44.215  27.544  40.945  1.00  0.00    -0.205 F 
ATOM     68  C   UNL A   1      46.746  29.922  42.101  1.00  0.00     0.022 A 
BRANCH  66  69
ATOM     69  S   UNL A   1      44.470  29.277  43.482  1.00  0.00     0.127 S 
ATOM     70  O   UNL A   1      44.599  27.963  44.107  1.00  0.00    -0.237 OA
ATOM     71  O   UNL A   1      45.071  30.376  44.239  1.00  0.00    -0.237 OA
ATOM     72  O   UNL A   1      43.157  29.568  42.922  1.00  0.00    -0.744 OA
ENDBRANCH  66  69
ENDBRANCH  39  62
ENDBRANCH  13  14
ENDBRANCH   6   8
ENDBRANCH   5   6
ENDBRANCH   4   5
ENDBRANCH   3   4
ENDBRANCH   2   3
ENDBRANCH   1   2
BRANCH   1  73
ATOM     73  C   UNL A   1      45.903  23.072  24.285  1.00  0.00     0.188 C 
BRANCH  73  74
ATOM     74  O   UNL A   1      46.050  24.383  24.722  1.00  0.00    -0.376 OA
BRANCH  74  75
ATOM     75  C   UNL A   1      44.898  25.097  25.092  1.00  0.00     0.202 C 
BRANCH  75  76
ATOM     76  C   UNL A   1      44.840  26.633  25.317  1.00  0.00     0.261 C 
BRANCH  76  77
ATOM     77  O   UNL A   1      43.848  27.186  26.222  1.00  0.00    -0.463 OA
BRANCH  77  78
ATOM     78  C   UNL A   1      42.959  28.016  25.614  1.00  0.00     0.309 C 
ATOM     79  O   UNL A   1      42.568  27.794  24.468  1.00  0.00    -0.252 OA
BRANCH  78  80
ATOM     80  C   UNL A   1      42.503  29.250  26.408  1.00  0.00     0.111 C 
ATOM     81  C   UNL A   1      40.982  29.056  26.654  1.00  0.00     0.016 C 
ATOM     82  C   UNL A   1      43.163  29.755  27.736  1.00  0.00     0.093 C 
ATOM     83  C   UNL A   1      40.712  28.035  27.757  1.00  0.00     0.001 C 
ATOM     84  C   UNL A   1      42.562  29.133  29.026  1.00  0.00     0.014 C 
ATOM     85  C   UNL A   1      41.113  28.656  29.065  1.00  0.00     0.001 C 
BRANCH  82  86
ATOM     86  C   UNL A   1      44.633  30.319  27.473  1.00  0.00     0.226 C 
ATOM     87  O   UNL A   1      44.800  30.907  26.391  1.00  0.00    -0.275 OA
ATOM     88  N   UNL A   1      45.770  30.034  28.182  1.00  0.00    -0.340 N 
ATOM     89  C   UNL A   1      46.092  30.234  29.696  1.00  0.00     0.136 C 
ATOM     90  C   UNL A   1      46.973  29.282  27.418  1.00  0.00     0.136 C 
ATOM     91  C   UNL A   1      46.302  28.630  30.879  1.00  0.00     0.124 C 
ATOM     92  C   UNL A   1      47.501  27.604  27.969  1.00  0.00     0.124 C 
ATOM     93  N   UNL A   1      47.362  27.054  29.870  1.00  0.00    -0.194 NA
BRANCH  93  94
ATOM     94  S   UNL A   1      49.269  26.381  29.793  1.00  0.00     0.243 S 
ATOM     95  O   UNL A   1      49.397  25.276  28.859  1.00  0.00    -0.207 OA
ATOM     96  O   UNL A   1      50.145  27.524  29.665  1.00  0.00    -0.207 OA
BRANCH  94  97
ATOM     97  C   UNL A   1      49.724  25.525  31.401  1.00  0.00     0.082 A 
ATOM     98  C   UNL A   1      48.861  25.262  32.494  1.00  0.00     0.025 A 
ATOM     99  C   UNL A   1      50.899  24.763  31.353  1.00  0.00     0.025 A 
ATOM    100  C   UNL A   1      49.240  24.456  33.580  1.00  0.00     0.040 A 
ATOM    101  C   UNL A   1      51.239  23.881  32.395  1.00  0.00     0.040 A 
ATOM    102  C   UNL A   1      50.434  23.771  33.520  1.00  0.00     0.123 A 
ATOM    103  F   UNL A   1      50.776  22.951  34.522  1.00  0.00    -0.207 F 
ENDBRANCH  94  97
ENDBRANCH  93  94
ENDBRANCH  82  86
ENDBRANCH  78  80
ENDBRANCH  77  78
ENDBRANCH  76  77
ENDBRANCH  75  76
ENDBRANCH  74  75
ENDBRANCH  73  74
ENDBRANCH   1  73
TORSDOF 23
ENDMDL
MODEL 2
REMARK VINA RESULT:      -7.8      4.030      6.703
REMARK SMILES O=C(OCCOCCOCCOC(=O)[C@H]1CCCC[C@H]1C(=O)N1CCN(S(=O)(=O)c2ccc(F)cc2)CC1)c1ccc(-c2c3nc(c(-c4cccc(S(=O)(=O)[O-])c4F)c4ccc([nH]4)c(-c4cccc(S(=O)(=O)[O-])c4F)c4nc(c(-c5cccc(S(=O)(=O)[O-])c5F)c5ccc2[nH]5)C=C4)C=C3)cc1
REMARK SMILES IDX 7 1 6 2 5 3 4 4 3 5 2 6 1 7 39 8 40 9 101 10 41 11 100 12
REMARK SMILES IDX 42 13 43 14 44 15 94 16 45 17 99 18 93 19 95 20 46 21 98 22
REMARK SMILES IDX 92 23 91 24 47 26 79 27 59 28 78 29 60 30 63 31 77 32 96 33
REMARK SMILES IDX 61 34 62 35 76 37 97 38 64 39 48 40 49 41 57 42 50 43 52 44
REMARK SMILES IDX 58 45 51 46 53 47 54 48 55 49 56 50 80 51 81 52 89 53 82 54
REMARK SMILES IDX 84 55 90 56 83 57 85 58 86 59 87 60 88 61 65 62 66 63 74 64
REMARK SMILES IDX 67 65 69 66 75 67 68 68 70 69 71 70 72 71 73 72 8 73 9 74
REMARK SMILES IDX 10 75 11 76 12 77 13 78 14 79 15 80 16 81 20 82 17 83 19 84
REMARK SMILES IDX 18 85 21 86 22 87 23 88 24 89 38 90 25 91 37 92 26 93 27 94
REMARK SMILES IDX 28 95 29 96 30 97 31 98 36 99 32 100 35 101 33 102 34 103
REMARK H PARENT 95 25 63 36
REMARK Flexibility Score: inf
ROOT
ATOM      1  C   UNL A   1      41.428  20.471  26.185  1.00  0.00     0.188 C 
ENDROOT
BRANCH   1   2
ATOM      2  O   UNL A   1      42.951  20.714  25.368  1.00  0.00    -0.376 OA
BRANCH   2   3
ATOM      3  C   UNL A   1      44.507  19.467  25.258  1.00  0.00     0.202 C 
BRANCH   3   4
ATOM      4  C   UNL A   1      46.219  20.346  24.892  1.00  0.00     0.261 C 
BRANCH   4   5
ATOM      5  O   UNL A   1      46.392  22.141  24.898  1.00  0.00    -0.460 OA
BRANCH   5   6
ATOM      6  C   UNL A   1      45.917  23.497  24.693  1.00  0.00     0.338 C 
ATOM      7  O   UNL A   1      44.869  23.639  24.053  1.00  0.00    -0.246 OA
BRANCH   6   8
ATOM      8  C   UNL A   1      46.585  24.887  25.112  1.00  0.00     0.060 A 
ATOM      9  C   UNL A   1      47.937  25.082  25.216  1.00  0.00     0.016 A 
ATOM     10  C   UNL A   1      45.994  26.151  25.151  1.00  0.00     0.016 A 
ATOM     11  C   UNL A   1      48.570  26.110  25.940  1.00  0.00     0.010 A 
ATOM     12  C   UNL A   1      46.646  27.285  25.825  1.00  0.00     0.010 A 
ATOM     13  C   UNL A   1      47.895  27.151  26.463  1.00  0.00    -0.014 A 
BRANCH  13  14
ATOM     14  C   UNL A   1      48.368  27.590  27.856  1.00  0.00     0.031 A 
ATOM     15  C   UNL A   1      47.571  28.712  28.472  1.00  0.00     0.074 A 
ATOM     16  C   UNL A   1      49.144  26.894  28.750  1.00  0.00     0.049 A 
ATOM     17  N   UNL A   1      47.835  29.448  29.513  1.00  0.00    -0.248 NA
ATOM     18  C   UNL A   1      46.290  29.045  27.827  1.00  0.00     0.031 C 
ATOM     19  C   UNL A   1      49.789  25.594  28.530  1.00  0.00     0.029 A 
ATOM     20  N   UNL A   1      49.453  27.137  30.089  1.00  0.00    -0.354 N 
ATOM     21  C   UNL A   1      46.872  30.445  29.503  1.00  0.00     0.074 A 
ATOM     22  C   UNL A   1      45.962  30.175  28.422  1.00  0.00     0.031 C 
ATOM     23  C   UNL A   1      50.268  25.106  29.689  1.00  0.00     0.029 A 
ATOM     24  C   UNL A   1      50.192  26.138  30.712  1.00  0.00     0.049 A 
ATOM     25  H   UNL A   1      49.168  27.956  30.557  1.00  0.00     0.167 HD
ATOM     26  C   UNL A   1      46.788  31.525  30.302  1.00  0.00     0.034 A 
ATOM     27  C   UNL A   1      50.818  26.078  31.918  1.00  0.00     0.034 A 
ATOM     28  C   UNL A   1      47.610  31.714  31.454  1.00  0.00     0.049 A 
ATOM     29  C   UNL A   1      50.795  27.320  32.780  1.00  0.00     0.074 A 
ATOM     30  C   UNL A   1      47.691  32.823  32.271  1.00  0.00     0.029 A 
ATOM     31  N   UNL A   1      48.469  30.759  31.968  1.00  0.00    -0.354 N 
ATOM     32  N   UNL A   1      50.064  28.398  32.639  1.00  0.00    -0.248 NA
ATOM     33  C   UNL A   1      51.720  27.375  33.927  1.00  0.00     0.031 C 
ATOM     34  C   UNL A   1      48.640  32.555  33.258  1.00  0.00     0.029 A 
ATOM     35  C   UNL A   1      49.097  31.257  33.089  1.00  0.00     0.049 A 
ATOM     36  H   UNL A   1      48.609  29.861  31.590  1.00  0.00     0.167 HD
ATOM     37  C   UNL A   1      50.450  29.261  33.658  1.00  0.00     0.074 A 
ATOM     38  C   UNL A   1      51.443  28.565  34.447  1.00  0.00     0.031 C 
ATOM     39  C   UNL A   1      50.045  30.532  33.893  1.00  0.00     0.034 A 
BRANCH  26  40
ATOM     40  C   UNL A   1      45.892  32.637  29.852  1.00  0.00     0.023 A 
ATOM     41  C   UNL A   1      46.323  33.625  28.950  1.00  0.00     0.012 A 
ATOM     42  C   UNL A   1      44.576  32.668  30.352  1.00  0.00     0.148 A 
ATOM     43  C   UNL A   1      45.451  34.641  28.561  1.00  0.00     0.002 A 
ATOM     44  C   UNL A   1      43.696  33.639  29.909  1.00  0.00     0.091 A 
ATOM     45  F   UNL A   1      44.214  31.745  31.255  1.00  0.00    -0.205 F 
ATOM     46  C   UNL A   1      44.135  34.636  29.024  1.00  0.00     0.022 A 
BRANCH  44  47
ATOM     47  S   UNL A   1      41.966  33.652  30.379  1.00  0.00     0.127 S 
ATOM     48  O   UNL A   1      42.048  33.971  31.803  1.00  0.00    -0.237 OA
ATOM     49  O   UNL A   1      41.437  34.726  29.538  1.00  0.00    -0.237 OA
ATOM     50  O   UNL A   1      41.451  32.324  30.076  1.00  0.00    -0.744 OA
ENDBRANCH  44  47
ENDBRANCH  26  40
BRANCH  27  51
ATOM     51  C   UNL A   1      51.651  24.889  32.347  1.00  0.00     0.023 A 
ATOM     52  C   UNL A   1      53.053  24.878  32.171  1.00  0.00     0.012 A 
ATOM     53  C   UNL A   1      51.049  23.729  32.881  1.00  0.00     0.148 A 
ATOM     54  C   UNL A   1      53.821  23.753  32.511  1.00  0.00     0.002 A 
ATOM     55  C   UNL A   1      51.824  22.649  33.299  1.00  0.00     0.091 A 
ATOM     56  F   UNL A   1      49.712  23.686  32.956  1.00  0.00    -0.205 F 
ATOM     57  C   UNL A   1      53.210  22.649  33.098  1.00  0.00     0.022 A 
BRANCH  55  58
ATOM     58  S   UNL A   1      51.123  21.253  34.189  1.00  0.00     0.127 S 
ATOM     59  O   UNL A   1      50.387  21.916  35.262  1.00  0.00    -0.237 OA
ATOM     60  O   UNL A   1      50.287  20.629  33.164  1.00  0.00    -0.237 OA
ATOM     61  O   UNL A   1      52.259  20.444  34.610  1.00  0.00    -0.744 OA
ENDBRANCH  55  58
ENDBRANCH  27  51
BRANCH  39  62
ATOM     62  C   UNL A   1      50.630  31.273  35.060  1.00  0.00     0.023 A 
ATOM     63  C   UNL A   1      50.057  31.136  36.338  1.00  0.00     0.012 A 
ATOM     64  C   UNL A   1      51.858  31.948  34.913  1.00  0.00     0.148 A 
ATOM     65  C   UNL A   1      50.698  31.665  37.456  1.00  0.00     0.002 A 
ATOM     66  C   UNL A   1      52.518  32.422  36.037  1.00  0.00     0.091 A 
ATOM     67  F   UNL A   1      52.376  32.066  33.682  1.00  0.00    -0.205 F 
ATOM     68  C   UNL A   1      51.937  32.290  37.309  1.00  0.00     0.022 A 
BRANCH  66  69
ATOM     69  S   UNL A   1      54.166  33.130  35.956  1.00  0.00     0.127 S 
ATOM     70  O   UNL A   1      53.949  34.284  35.084  1.00  0.00    -0.237 OA
ATOM     71  O   UNL A   1      54.425  33.463  37.357  1.00  0.00    -0.237 OA
ATOM     72  O   UNL A   1      55.028  32.094  35.404  1.00  0.00    -0.744 OA
ENDBRANCH  66  69
ENDBRANCH  39  62
ENDBRANCH  13  14
ENDBRANCH   6   8
ENDBRANCH   5   6
ENDBRANCH   4   5
ENDBRANCH   3   4
ENDBRANCH   2   3
ENDBRANCH   1   2
BRANCH   1  73
ATOM     73  C   UNL A   1      40.222  21.302  26.605  1.00  0.00     0.188 C 
BRANCH  73  74
ATOM     74  O   UNL A   1      39.228  21.637  25.693  1.00  0.00    -0.376 OA
BRANCH  74  75
ATOM     75  C   UNL A   1      38.210  22.512  26.106  1.00  0.00     0.202 C 
BRANCH  75  76
ATOM     76  C   UNL A   1      38.442  23.947  26.655  1.00  0.00     0.261 C 
BRANCH  76  77
ATOM     77  O   UNL A   1      39.509  24.760  26.100  1.00  0.00    -0.463 OA
BRANCH  77  78
ATOM     78  C   UNL A   1      40.497  25.044  26.990  1.00  0.00     0.309 C 
ATOM     79  O   UNL A   1      40.330  24.868  28.197  1.00  0.00    -0.252 OA
BRANCH  78  80
ATOM     80  C   UNL A   1      41.801  25.625  26.422  1.00  0.00     0.111 C 
ATOM     81  C   UNL A   1      41.415  26.989  25.788  1.00  0.00     0.016 C 
ATOM     82  C   UNL A   1      43.127  25.809  27.235  1.00  0.00     0.093 C 
ATOM     83  C   UNL A   1      41.197  28.066  26.848  1.00  0.00     0.001 C 
ATOM     84  C   UNL A   1      43.244  27.175  27.967  1.00  0.00     0.014 C 
ATOM     85  C   UNL A   1      42.537  28.416  27.430  1.00  0.00     0.001 C 
BRANCH  82  86
ATOM     86  C   UNL A   1      43.777  24.400  27.609  1.00  0.00     0.226 C 
ATOM     87  O   UNL A   1      43.299  23.414  27.024  1.00  0.00    -0.275 OA
ATOM     88  N   UNL A   1      44.624  24.128  28.651  1.00  0.00    -0.340 N 
ATOM     89  C   UNL A   1      46.020  24.731  29.001  1.00  0.00     0.136 C 
ATOM     90  C   UNL A   1      44.123  23.102  29.789  1.00  0.00     0.136 C 
ATOM     91  C   UNL A   1      46.213  25.894  30.622  1.00  0.00     0.124 C 
ATOM     92  C   UNL A   1      43.913  23.690  31.524  1.00  0.00     0.124 C 
ATOM     93  N   UNL A   1      45.054  25.133  32.266  1.00  0.00    -0.194 NA
BRANCH  93  94
ATOM     94  S   UNL A   1      45.397  23.991  33.901  1.00  0.00     0.243 S 
ATOM     95  O   UNL A   1      45.117  22.592  33.632  1.00  0.00    -0.207 OA
ATOM     96  O   UNL A   1      46.682  24.365  34.450  1.00  0.00    -0.207 OA
BRANCH  94  97
ATOM     97  C   UNL A   1      44.117  24.349  35.227  1.00  0.00     0.082 A 
ATOM     98  C   UNL A   1      44.213  25.315  36.260  1.00  0.00     0.025 A 
ATOM     99  C   UNL A   1      42.824  23.888  34.940  1.00  0.00     0.025 A 
ATOM    100  C   UNL A   1      43.132  25.639  37.095  1.00  0.00     0.040 A 
ATOM    101  C   UNL A   1      41.720  24.285  35.716  1.00  0.00     0.040 A 
ATOM    102  C   UNL A   1      41.889  25.116  36.815  1.00  0.00     0.123 A 
ATOM    103  F   UNL A   1      40.839  25.468  37.568  1.00  0.00    -0.207 F 
ENDBRANCH  94  97
ENDBRANCH  93  94
ENDBRANCH  82  86
ENDBRANCH  78  80
ENDBRANCH  77  78
ENDBRANCH  76  77
ENDBRANCH  75  76
ENDBRANCH  74  75
ENDBRANCH  73  74
ENDBRANCH   1  73
TORSDOF 23
ENDMDL
MODEL 3
REMARK VINA RESULT:      -7.8      6.817     10.214
REMARK SMILES O=C(OCCOCCOCCOC(=O)[C@H]1CCCC[C@H]1C(=O)N1CCN(S(=O)(=O)c2ccc(F)cc2)CC1)c1ccc(-c2c3nc(c(-c4cccc(S(=O)(=O)[O-])c4F)c4ccc([nH]4)c(-c4cccc(S(=O)(=O)[O-])c4F)c4nc(c(-c5cccc(S(=O)(=O)[O-])c5F)c5ccc2[nH]5)C=C4)C=C3)cc1
REMARK SMILES IDX 7 1 6 2 5 3 4 4 3 5 2 6 1 7 39 8 40 9 101 10 41 11 100 12
REMARK SMILES IDX 42 13 43 14 44 15 94 16 45 17 99 18 93 19 95 20 46 21 98 22
REMARK SMILES IDX 92 23 91 24 47 26 79 27 59 28 78 29 60 30 63 31 77 32 96 33
REMARK SMILES IDX 61 34 62 35 76 37 97 38 64 39 48 40 49 41 57 42 50 43 52 44
REMARK SMILES IDX 58 45 51 46 53 47 54 48 55 49 56 50 80 51 81 52 89 53 82 54
REMARK SMILES IDX 84 55 90 56 83 57 85 58 86 59 87 60 88 61 65 62 66 63 74 64
REMARK SMILES IDX 67 65 69 66 75 67 68 68 70 69 71 70 72 71 73 72 8 73 9 74
REMARK SMILES IDX 10 75 11 76 12 77 13 78 14 79 15 80 16 81 20 82 17 83 19 84
REMARK SMILES IDX 18 85 21 86 22 87 23 88 24 89 38 90 25 91 37 92 26 93 27 94
REMARK SMILES IDX 28 95 29 96 30 97 31 98 36 99 32 100 35 101 33 102 34 103
REMARK H PARENT 95 25 63 36
REMARK Flexibility Score: inf
ROOT
ATOM      1  C   UNL A   1      49.275  28.542  26.191  1.00  0.00     0.188 C 
ENDROOT
BRANCH   1   2
ATOM      2  O   UNL A   1      49.312  26.836  26.561  1.00  0.00    -0.376 OA
BRANCH   2   3
ATOM      3  C   UNL A   1      50.896  25.700  26.995  1.00  0.00     0.202 C 
BRANCH   3   4
ATOM      4  C   UNL A   1      51.783  26.166  28.678  1.00  0.00     0.261 C 
BRANCH   4   5
ATOM      5  O   UNL A   1      51.438  27.709  29.545  1.00  0.00    -0.460 OA
BRANCH   5   6
ATOM      6  C   UNL A   1      51.277  28.531  30.731  1.00  0.00     0.338 C 
ATOM      7  O   UNL A   1      52.022  28.295  31.688  1.00  0.00    -0.246 OA
BRANCH   6   8
ATOM      8  C   UNL A   1      50.214  29.684  31.037  1.00  0.00     0.060 A 
ATOM      9  C   UNL A   1      49.462  29.743  32.181  1.00  0.00     0.016 A 
ATOM     10  C   UNL A   1      50.073  30.918  30.401  1.00  0.00     0.016 A 
ATOM     11  C   UNL A   1      48.264  30.464  32.346  1.00  0.00     0.010 A 
ATOM     12  C   UNL A   1      48.878  31.753  30.597  1.00  0.00     0.010 A 
ATOM     13  C   UNL A   1      47.819  31.349  31.434  1.00  0.00    -0.014 A 
BRANCH  13  14
ATOM     14  C   UNL A   1      46.302  31.322  31.199  1.00  0.00     0.031 A 
ATOM     15  C   UNL A   1      45.570  32.564  31.639  1.00  0.00     0.074 A 
ATOM     16  C   UNL A   1      45.587  30.519  30.344  1.00  0.00     0.049 A 
ATOM     17  N   UNL A   1      44.293  32.772  31.783  1.00  0.00    -0.248 NA
ATOM     18  C   UNL A   1      46.396  33.742  31.952  1.00  0.00     0.031 C 
ATOM     19  C   UNL A   1      46.111  29.423  29.521  1.00  0.00     0.029 A 
ATOM     20  N   UNL A   1      44.253  30.563  29.937  1.00  0.00    -0.354 N 
ATOM     21  C   UNL A   1      44.196  34.011  32.398  1.00  0.00     0.074 A 
ATOM     22  C   UNL A   1      45.523  34.554  32.514  1.00  0.00     0.031 C 
ATOM     23  C   UNL A   1      45.183  29.015  28.637  1.00  0.00     0.029 A 
ATOM     24  C   UNL A   1      43.908  29.638  28.958  1.00  0.00     0.049 A 
ATOM     25  H   UNL A   1      43.605  31.201  30.315  1.00  0.00     0.167 HD
ATOM     26  C   UNL A   1      43.093  34.618  32.871  1.00  0.00     0.034 A 
ATOM     27  C   UNL A   1      42.709  29.258  28.439  1.00  0.00     0.034 A 
ATOM     28  C   UNL A   1      41.769  34.139  32.631  1.00  0.00     0.049 A 
ATOM     29  C   UNL A   1      41.463  29.878  29.029  1.00  0.00     0.074 A 
ATOM     30  C   UNL A   1      40.583  34.608  33.156  1.00  0.00     0.029 A 
ATOM     31  N   UNL A   1      41.458  33.101  31.771  1.00  0.00    -0.354 N 
ATOM     32  N   UNL A   1      41.366  30.911  29.830  1.00  0.00    -0.248 NA
ATOM     33  C   UNL A   1      40.167  29.255  28.703  1.00  0.00     0.031 C 
ATOM     34  C   UNL A   1      39.552  33.818  32.648  1.00  0.00     0.029 A 
ATOM     35  C   UNL A   1      40.093  32.904  31.758  1.00  0.00     0.049 A 
ATOM     36  H   UNL A   1      42.111  32.582  31.248  1.00  0.00     0.167 HD
ATOM     37  C   UNL A   1      40.013  31.048  30.118  1.00  0.00     0.074 A 
ATOM     38  C   UNL A   1      39.315  30.029  29.365  1.00  0.00     0.031 C 
ATOM     39  C   UNL A   1      39.410  31.918  30.963  1.00  0.00     0.034 A 
BRANCH  26  40
ATOM     40  C   UNL A   1      43.296  35.758  33.820  1.00  0.00     0.023 A 
ATOM     41  C   UNL A   1      43.394  35.565  35.208  1.00  0.00     0.012 A 
ATOM     42  C   UNL A   1      43.401  37.055  33.281  1.00  0.00     0.148 A 
ATOM     43  C   UNL A   1      43.584  36.659  36.052  1.00  0.00     0.002 A 
ATOM     44  C   UNL A   1      43.657  38.127  34.118  1.00  0.00     0.091 A 
ATOM     45  F   UNL A   1      43.245  37.211  31.958  1.00  0.00    -0.205 F 
ATOM     46  C   UNL A   1      43.735  37.935  35.506  1.00  0.00     0.022 A 
BRANCH  44  47
ATOM     47  S   UNL A   1      43.959  39.780  33.492  1.00  0.00     0.127 S 
ATOM     48  O   UNL A   1      44.255  40.513  34.723  1.00  0.00    -0.237 OA
ATOM     49  O   UNL A   1      45.108  39.562  32.616  1.00  0.00    -0.237 OA
ATOM     50  O   UNL A   1      42.736  40.189  32.815  1.00  0.00    -0.744 OA
ENDBRANCH  44  47
ENDBRANCH  26  40
BRANCH  27  51
ATOM     51  C   UNL A   1      42.577  28.144  27.422  1.00  0.00     0.023 A 
ATOM     52  C   UNL A   1      42.490  28.424  26.039  1.00  0.00     0.012 A 
ATOM     53  C   UNL A   1      42.476  26.795  27.824  1.00  0.00     0.148 A 
ATOM     54  C   UNL A   1      42.308  27.398  25.098  1.00  0.00     0.002 A 
ATOM     55  C   UNL A   1      42.383  25.773  26.881  1.00  0.00     0.091 A 
ATOM     56  F   UNL A   1      42.451  26.524  29.136  1.00  0.00    -0.205 F 
ATOM     57  C   UNL A   1      42.278  26.072  25.517  1.00  0.00     0.022 A 
BRANCH  55  58
ATOM     58  S   UNL A   1      42.480  24.036  27.337  1.00  0.00     0.127 S 
ATOM     59  O   UNL A   1      41.106  23.753  27.745  1.00  0.00    -0.237 OA
ATOM     60  O   UNL A   1      42.888  23.415  26.077  1.00  0.00    -0.237 OA
ATOM     61  O   UNL A   1      43.480  23.961  28.394  1.00  0.00    -0.744 OA
ENDBRANCH  55  58
ENDBRANCH  27  51
BRANCH  39  62
ATOM     62  C   UNL A   1      37.918  31.856  31.121  1.00  0.00     0.023 A 
ATOM     63  C   UNL A   1      37.358  31.331  32.300  1.00  0.00     0.012 A 
ATOM     64  C   UNL A   1      37.090  32.494  30.176  1.00  0.00     0.148 A 
ATOM     65  C   UNL A   1      35.989  31.440  32.537  1.00  0.00     0.002 A 
ATOM     66  C   UNL A   1      35.738  32.649  30.445  1.00  0.00     0.091 A 
ATOM     67  F   UNL A   1      37.653  32.980  29.061  1.00  0.00    -0.205 F 
ATOM     68  C   UNL A   1      35.183  32.115  31.620  1.00  0.00     0.022 A 
BRANCH  66  69
ATOM     69  S   UNL A   1      34.651  33.605  29.383  1.00  0.00     0.127 S 
ATOM     70  O   UNL A   1      33.681  34.125  30.345  1.00  0.00    -0.237 OA
ATOM     71  O   UNL A   1      35.564  34.607  28.833  1.00  0.00    -0.237 OA
ATOM     72  O   UNL A   1      34.111  32.669  28.406  1.00  0.00    -0.744 OA
ENDBRANCH  66  69
ENDBRANCH  39  62
ENDBRANCH  13  14
ENDBRANCH   6   8
ENDBRANCH   5   6
ENDBRANCH   4   5
ENDBRANCH   3   4
ENDBRANCH   2   3
ENDBRANCH   1   2
BRANCH   1  73
ATOM     73  C   UNL A   1      49.182  29.863  26.944  1.00  0.00     0.188 C 
BRANCH  73  74
ATOM     74  O   UNL A   1      47.953  30.465  27.188  1.00  0.00    -0.376 OA
BRANCH  74  75
ATOM     75  C   UNL A   1      47.863  31.863  27.084  1.00  0.00     0.202 C 
BRANCH  75  76
ATOM     76  C   UNL A   1      46.542  32.653  26.874  1.00  0.00     0.261 C 
BRANCH  76  77
ATOM     77  O   UNL A   1      46.599  34.062  26.524  1.00  0.00    -0.463 OA
BRANCH  77  78
ATOM     78  C   UNL A   1      45.544  34.482  25.776  1.00  0.00     0.309 C 
ATOM     79  O   UNL A   1      45.320  33.991  24.669  1.00  0.00    -0.252 OA
BRANCH  78  80
ATOM     80  C   UNL A   1      44.681  35.610  26.360  1.00  0.00     0.111 C 
ATOM     81  C   UNL A   1      43.353  34.938  26.805  1.00  0.00     0.016 C 
ATOM     82  C   UNL A   1      45.141  36.599  27.485  1.00  0.00     0.093 C 
ATOM     83  C   UNL A   1      43.520  34.159  28.108  1.00  0.00     0.001 C 
ATOM     84  C   UNL A   1      44.856  36.103  28.929  1.00  0.00     0.014 C 
ATOM     85  C   UNL A   1      43.695  35.155  29.219  1.00  0.00     0.001 C 
BRANCH  82  86
ATOM     86  C   UNL A   1      46.281  37.583  26.958  1.00  0.00     0.226 C 
ATOM     87  O   UNL A   1      45.888  38.559  26.297  1.00  0.00    -0.275 OA
ATOM     88  N   UNL A   1      47.633  37.358  26.949  1.00  0.00    -0.340 N 
ATOM     89  C   UNL A   1      48.610  37.045  28.124  1.00  0.00     0.136 C 
ATOM     90  C   UNL A   1      48.383  37.296  25.525  1.00  0.00     0.136 C 
ATOM     91  C   UNL A   1      49.445  35.227  28.255  1.00  0.00     0.124 C 
ATOM     92  C   UNL A   1      49.208  35.735  24.992  1.00  0.00     0.124 C 
ATOM     93  N   UNL A   1      50.004  34.489  26.314  1.00  0.00    -0.194 NA
BRANCH  93  94
ATOM     94  S   UNL A   1      51.692  34.419  25.199  1.00  0.00     0.243 S 
ATOM     95  O   UNL A   1      51.499  33.613  24.006  1.00  0.00    -0.207 OA
ATOM     96  O   UNL A   1      52.204  35.765  25.071  1.00  0.00    -0.207 OA
BRANCH  94  97
ATOM     97  C   UNL A   1      53.014  33.417  26.079  1.00  0.00     0.082 A 
ATOM     98  C   UNL A   1      53.227  33.340  27.478  1.00  0.00     0.025 A 
ATOM     99  C   UNL A   1      53.581  32.387  25.316  1.00  0.00     0.025 A 
ATOM    100  C   UNL A   1      54.121  32.425  28.058  1.00  0.00     0.040 A 
ATOM    101  C   UNL A   1      54.403  31.410  25.907  1.00  0.00     0.040 A 
ATOM    102  C   UNL A   1      54.706  31.464  27.261  1.00  0.00     0.123 A 
ATOM    103  F   UNL A   1      55.511  30.549  27.814  1.00  0.00    -0.207 F 
ENDBRANCH  94  97
ENDBRANCH  93  94
ENDBRANCH  82  86
ENDBRANCH  78  80
ENDBRANCH  77  78
ENDBRANCH  76  77
ENDBRANCH  75  76
ENDBRANCH  74  75
ENDBRANCH  73  74
ENDBRANCH   1  73
TORSDOF 23
ENDMDL
