MODEL 1
REMARK VINA RESULT:     -12.0      0.000      0.000
REMARK SMILES Cc1ccc(C(=O)N2C[C@@H](C(=O)OCCOCCOCCOC(=O)c3ccc(-c4c5nc(c(-c6cccc(S(=O)(=O)[O-])c6F)c6ccc([nH]6)c(-c6cccc(S(=O)(=O)[O-])c6F)c6nc(c(-c7cccc(S(=O)(=O)[O-])c7F)c7ccc4[nH]7)C=C6)C=C5)cc3)C[C@H](C(=O)N3CCOCC3)C2)cc1F
REMARK SMILES IDX 18 1 17 2 16 3 15 4 14 5 13 6 11 7 12 8 10 9 8 10 9 11 98 12
REMARK SMILES IDX 89 13 88 14 6 15 7 16 5 17 1 18 2 19 3 20 100 21 4 22 99 23
REMARK SMILES IDX 101 24 90 25 91 26 92 27 93 28 97 29 94 30 96 31 95 32 19 33
REMARK SMILES IDX 20 34 21 35 22 36 23 37 24 38 25 39 26 40 87 41 27 42 86 43
REMARK SMILES IDX 28 44 29 45 30 46 80 47 31 48 85 49 79 50 81 51 32 52 84 53
REMARK SMILES IDX 78 54 77 55 33 57 65 58 45 59 64 60 46 61 49 62 63 63 82 64
REMARK SMILES IDX 47 65 48 66 62 68 83 69 50 70 34 71 35 72 43 73 36 74 38 75
REMARK SMILES IDX 44 76 37 77 39 78 40 79 41 80 42 81 66 82 67 83 75 84 68 85
REMARK SMILES IDX 70 86 76 87 69 88 71 89 72 90 73 91 74 92 51 93 52 94 60 95
REMARK SMILES IDX 53 96 55 97 61 98 54 99 56 100 57 101 58 102 59 103
REMARK H PARENT 81 56 49 67
REMARK Flexibility Score: inf
ROOT
ATOM      1  C   UNL A   1      41.342  22.561  27.084  1.00  0.00     0.188 C 
ENDROOT
BRANCH   1   2
ATOM      2  C   UNL A   1      40.135  22.559  26.146  1.00  0.00     0.188 C 
BRANCH   2   3
ATOM      3  O   UNL A   1      39.144  21.568  26.403  1.00  0.00    -0.376 OA
BRANCH   3   4
ATOM      4  C   UNL A   1      38.160  21.398  25.385  1.00  0.00     0.202 C 
BRANCH   4   5
ATOM      5  C   UNL A   1      36.815  22.119  25.614  1.00  0.00     0.261 C 
BRANCH   5   6
ATOM      6  O   UNL A   1      36.698  23.429  25.011  1.00  0.00    -0.463 OA
BRANCH   6   7
ATOM      7  C   UNL A   1      36.087  23.448  23.809  1.00  0.00     0.310 C 
ATOM      8  O   UNL A   1      36.661  23.228  22.744  1.00  0.00    -0.252 OA
BRANCH   7   9
ATOM      9  C   UNL A   1      34.598  23.746  23.838  1.00  0.00     0.119 C 
ATOM     10  N   UNL A   1      32.508  22.540  23.708  1.00  0.00    -0.337 N 
ATOM     11  C   UNL A   1      33.923  22.465  23.432  1.00  0.00     0.135 C 
ATOM     12  C   UNL A   1      31.755  23.596  23.033  1.00  0.00     0.133 C 
ATOM     13  C   UNL A   1      32.406  24.988  23.214  1.00  0.00     0.099 C 
ATOM     14  C   UNL A   1      33.955  24.953  23.129  1.00  0.00     0.032 C 
BRANCH  10  15
ATOM     15  C   UNL A   1      31.986  21.650  24.626  1.00  0.00     0.254 C 
ATOM     16  O   UNL A   1      31.285  21.993  25.574  1.00  0.00    -0.269 OA
BRANCH  15  17
ATOM     17  C   UNL A   1      32.495  20.264  24.602  1.00  0.00     0.042 A 
ATOM     18  C   UNL A   1      32.847  15.999  24.739  1.00  0.00     0.047 C 
ATOM     19  C   UNL A   1      32.821  17.495  24.688  1.00  0.00    -0.015 A 
ATOM     20  C   UNL A   1      32.967  18.249  25.855  1.00  0.00     0.007 A 
ATOM     21  C   UNL A   1      32.567  18.151  23.477  1.00  0.00     0.126 A 
ATOM     22  C   UNL A   1      32.799  19.629  25.813  1.00  0.00     0.014 A 
ATOM     23  C   UNL A   1      32.398  19.528  23.422  1.00  0.00     0.053 A 
ATOM     24  F   UNL A   1      32.417  17.434  22.353  1.00  0.00    -0.207 F 
ENDBRANCH  15  17
ENDBRANCH  10  15
BRANCH  13  25
ATOM     25  C   UNL A   1      31.628  25.700  24.347  1.00  0.00     0.227 C 
ATOM     26  O   UNL A   1      30.804  25.028  24.983  1.00  0.00    -0.275 OA
ATOM     27  N   UNL A   1      32.040  26.908  24.853  1.00  0.00    -0.338 N 
ATOM     28  C   UNL A   1      32.274  28.148  24.122  1.00  0.00     0.148 C 
ATOM     29  C   UNL A   1      32.009  27.123  26.304  1.00  0.00     0.148 C 
ATOM     30  C   UNL A   1      33.569  28.810  24.615  1.00  0.00     0.181 C 
ATOM     31  C   UNL A   1      33.330  27.773  26.730  1.00  0.00     0.181 C 
ATOM     32  O   UNL A   1      33.529  29.020  26.040  1.00  0.00    -0.378 OA
ENDBRANCH  13  25
ENDBRANCH   7   9
ENDBRANCH   6   7
ENDBRANCH   5   6
ENDBRANCH   4   5
ENDBRANCH   3   4
ENDBRANCH   2   3
ENDBRANCH   1   2
BRANCH   1  33
ATOM     33  O   UNL A   1      41.574  23.714  27.885  1.00  0.00    -0.376 OA
BRANCH  33  34
ATOM     34  C   UNL A   1      41.547  25.004  27.251  1.00  0.00     0.202 C 
BRANCH  34  35
ATOM     35  C   UNL A   1      41.681  26.297  28.095  1.00  0.00     0.261 C 
BRANCH  35  36
ATOM     36  O   UNL A   1      40.715  27.306  27.841  1.00  0.00    -0.460 OA
BRANCH  36  37
ATOM     37  C   UNL A   1      39.632  27.197  28.621  1.00  0.00     0.338 C 
ATOM     38  O   UNL A   1      39.268  26.214  29.272  1.00  0.00    -0.246 OA
BRANCH  37  39
ATOM     39  C   UNL A   1      39.048  28.507  28.861  1.00  0.00     0.060 A 
ATOM     40  C   UNL A   1      39.916  29.594  28.646  1.00  0.00     0.016 A 
ATOM     41  C   UNL A   1      37.903  28.561  29.641  1.00  0.00     0.016 A 
ATOM     42  C   UNL A   1      39.930  30.573  29.589  1.00  0.00     0.010 A 
ATOM     43  C   UNL A   1      37.928  29.524  30.595  1.00  0.00     0.010 A 
ATOM     44  C   UNL A   1      39.034  30.394  30.622  1.00  0.00    -0.014 A 
BRANCH  44  45
ATOM     45  C   UNL A   1      39.251  30.987  31.902  1.00  0.00     0.031 A 
ATOM     46  C   UNL A   1      39.937  30.137  32.859  1.00  0.00     0.074 A 
ATOM     47  C   UNL A   1      39.067  32.324  31.938  1.00  0.00     0.049 A 
ATOM     48  N   UNL A   1      40.011  30.383  34.108  1.00  0.00    -0.248 NA
ATOM     49  C   UNL A   1      40.536  28.847  32.490  1.00  0.00     0.031 C 
ATOM     50  C   UNL A   1      39.713  33.312  32.779  1.00  0.00     0.029 A 
ATOM     51  N   UNL A   1      38.065  33.041  31.274  1.00  0.00    -0.354 N 
ATOM     52  C   UNL A   1      41.039  29.601  34.570  1.00  0.00     0.074 A 
ATOM     53  C   UNL A   1      41.179  28.531  33.616  1.00  0.00     0.031 C 
ATOM     54  C   UNL A   1      38.967  34.433  32.788  1.00  0.00     0.029 A 
ATOM     55  C   UNL A   1      37.721  34.131  32.099  1.00  0.00     0.049 A 
ATOM     56  H   UNL A   1      37.673  32.823  30.397  1.00  0.00     0.167 HD
ATOM     57  C   UNL A   1      41.800  30.098  35.579  1.00  0.00     0.034 A 
ATOM     58  C   UNL A   1      36.480  34.165  32.678  1.00  0.00     0.034 A 
ATOM     59  C   UNL A   1      41.313  31.419  35.966  1.00  0.00     0.049 A 
ATOM     60  C   UNL A   1      36.531  33.961  34.182  1.00  0.00     0.074 A 
ATOM     61  C   UNL A   1      41.719  32.713  35.686  1.00  0.00     0.029 A 
ATOM     62  N   UNL A   1      40.025  31.521  36.444  1.00  0.00    -0.354 N 
ATOM     63  N   UNL A   1      37.588  33.534  34.818  1.00  0.00    -0.248 NA
ATOM     64  C   UNL A   1      35.395  34.153  35.080  1.00  0.00     0.031 C 
ATOM     65  C   UNL A   1      40.659  33.596  36.046  1.00  0.00     0.029 A 
ATOM     66  C   UNL A   1      39.618  32.831  36.533  1.00  0.00     0.049 A 
ATOM     67  H   UNL A   1      39.465  30.751  36.692  1.00  0.00     0.167 HD
ATOM     68  C   UNL A   1      37.328  33.444  36.157  1.00  0.00     0.074 A 
ATOM     69  C   UNL A   1      35.919  33.782  36.263  1.00  0.00     0.031 C 
ATOM     70  C   UNL A   1      38.291  33.085  37.058  1.00  0.00     0.034 A 
BRANCH  57  71
ATOM     71  C   UNL A   1      43.105  29.529  36.049  1.00  0.00     0.023 A 
ATOM     72  C   UNL A   1      44.346  30.183  35.892  1.00  0.00     0.012 A 
ATOM     73  C   UNL A   1      43.140  28.260  36.663  1.00  0.00     0.148 A 
ATOM     74  C   UNL A   1      45.543  29.636  36.374  1.00  0.00     0.002 A 
ATOM     75  C   UNL A   1      44.330  27.708  37.121  1.00  0.00     0.091 A 
ATOM     76  F   UNL A   1      42.017  27.550  36.815  1.00  0.00    -0.205 F 
ATOM     77  C   UNL A   1      45.537  28.393  36.990  1.00  0.00     0.022 A 
BRANCH  75  78
ATOM     78  S   UNL A   1      44.272  26.084  37.873  1.00  0.00     0.127 S 
ATOM     79  O   UNL A   1      43.569  26.334  39.127  1.00  0.00    -0.237 OA
ATOM     80  O   UNL A   1      43.575  25.284  36.871  1.00  0.00    -0.237 OA
ATOM     81  O   UNL A   1      45.687  25.744  38.033  1.00  0.00    -0.744 OA
ENDBRANCH  75  78
ENDBRANCH  57  71
BRANCH  58  82
ATOM     82  C   UNL A   1      35.427  33.618  31.759  1.00  0.00     0.023 A 
ATOM     83  C   UNL A   1      35.598  32.356  31.164  1.00  0.00     0.012 A 
ATOM     84  C   UNL A   1      34.567  34.553  31.134  1.00  0.00     0.148 A 
ATOM     85  C   UNL A   1      35.039  32.092  29.905  1.00  0.00     0.002 A 
ATOM     86  C   UNL A   1      34.066  34.306  29.858  1.00  0.00     0.091 A 
ATOM     87  F   UNL A   1      34.372  35.743  31.727  1.00  0.00    -0.205 F 
ATOM     88  C   UNL A   1      34.315  33.082  29.230  1.00  0.00     0.022 A 
BRANCH  86  89
ATOM     89  S   UNL A   1      33.290  35.659  28.958  1.00  0.00     0.127 S 
ATOM     90  O   UNL A   1      32.665  36.446  30.017  1.00  0.00    -0.237 OA
ATOM     91  O   UNL A   1      34.420  36.286  28.274  1.00  0.00    -0.237 OA
ATOM     92  O   UNL A   1      32.323  35.002  28.075  1.00  0.00    -0.744 OA
ENDBRANCH  86  89
ENDBRANCH  58  82
BRANCH  70  93
ATOM     93  C   UNL A   1      38.059  32.847  38.526  1.00  0.00     0.023 A 
ATOM     94  C   UNL A   1      37.340  31.697  38.949  1.00  0.00     0.012 A 
ATOM     95  C   UNL A   1      38.552  33.681  39.530  1.00  0.00     0.148 A 
ATOM     96  C   UNL A   1      37.036  31.445  40.284  1.00  0.00     0.002 A 
ATOM     97  C   UNL A   1      38.185  33.471  40.857  1.00  0.00     0.091 A 
ATOM     98  F   UNL A   1      39.411  34.662  39.218  1.00  0.00    -0.205 F 
ATOM     99  C   UNL A   1      37.430  32.359  41.243  1.00  0.00     0.022 A 
BRANCH  97 100
ATOM    100  S   UNL A   1      38.578  34.742  42.049  1.00  0.00     0.127 S 
ATOM    101  O   UNL A   1      37.945  34.266  43.273  1.00  0.00    -0.237 OA
ATOM    102  O   UNL A   1      40.040  34.744  42.032  1.00  0.00    -0.237 OA
ATOM    103  O   UNL A   1      37.971  35.944  41.477  1.00  0.00    -0.744 OA
ENDBRANCH  97 100
ENDBRANCH  70  93
ENDBRANCH  44  45
ENDBRANCH  37  39
ENDBRANCH  36  37
ENDBRANCH  35  36
ENDBRANCH  34  35
ENDBRANCH  33  34
ENDBRANCH   1  33
TORSDOF 23
ENDMDL
MODEL 2
REMARK VINA RESULT:     -11.9      4.821      9.187
REMARK SMILES Cc1ccc(C(=O)N2C[C@@H](C(=O)OCCOCCOCCOC(=O)c3ccc(-c4c5nc(c(-c6cccc(S(=O)(=O)[O-])c6F)c6ccc([nH]6)c(-c6cccc(S(=O)(=O)[O-])c6F)c6nc(c(-c7cccc(S(=O)(=O)[O-])c7F)c7ccc4[nH]7)C=C6)C=C5)cc3)C[C@H](C(=O)N3CCOCC3)C2)cc1F
REMARK SMILES IDX 18 1 17 2 16 3 15 4 14 5 13 6 11 7 12 8 10 9 8 10 9 11 98 12
REMARK SMILES IDX 89 13 88 14 6 15 7 16 5 17 1 18 2 19 3 20 100 21 4 22 99 23
REMARK SMILES IDX 101 24 90 25 91 26 92 27 93 28 97 29 94 30 96 31 95 32 19 33
REMARK SMILES IDX 20 34 21 35 22 36 23 37 24 38 25 39 26 40 87 41 27 42 86 43
REMARK SMILES IDX 28 44 29 45 30 46 80 47 31 48 85 49 79 50 81 51 32 52 84 53
REMARK SMILES IDX 78 54 77 55 33 57 65 58 45 59 64 60 46 61 49 62 63 63 82 64
REMARK SMILES IDX 47 65 48 66 62 68 83 69 50 70 34 71 35 72 43 73 36 74 38 75
REMARK SMILES IDX 44 76 37 77 39 78 40 79 41 80 42 81 66 82 67 83 75 84 68 85
REMARK SMILES IDX 70 86 76 87 69 88 71 89 72 90 73 91 74 92 51 93 52 94 60 95
REMARK SMILES IDX 53 96 55 97 61 98 54 99 56 100 57 101 58 102 59 103
REMARK H PARENT 81 56 49 67
REMARK Flexibility Score: inf
ROOT
ATOM      1  C   UNL A   1      37.673  20.412  24.762  1.00  0.00     0.188 C 
ENDROOT
BRANCH   1   2
ATOM      2  C   UNL A   1      37.144  21.839  24.617  1.00  0.00     0.188 C 
BRANCH   2   3
ATOM      3  O   UNL A   1      36.228  22.062  23.548  1.00  0.00    -0.376 OA
BRANCH   3   4
ATOM      4  C   UNL A   1      35.654  23.366  23.488  1.00  0.00     0.202 C 
BRANCH   4   5
ATOM      5  C   UNL A   1      34.138  23.426  23.206  1.00  0.00     0.261 C 
BRANCH   5   6
ATOM      6  O   UNL A   1      33.767  23.636  21.823  1.00  0.00    -0.463 OA
BRANCH   6   7
ATOM      7  C   UNL A   1      33.275  24.861  21.547  1.00  0.00     0.310 C 
ATOM      8  O   UNL A   1      33.104  25.291  20.408  1.00  0.00    -0.252 OA
BRANCH   7   9
ATOM      9  C   UNL A   1      32.909  25.705  22.755  1.00  0.00     0.119 C 
ATOM     10  N   UNL A   1      30.961  26.194  24.099  1.00  0.00    -0.337 N 
ATOM     11  C   UNL A   1      31.408  25.675  22.828  1.00  0.00     0.135 C 
ATOM     12  C   UNL A   1      31.329  27.573  24.418  1.00  0.00     0.133 C 
ATOM     13  C   UNL A   1      32.844  27.832  24.241  1.00  0.00     0.099 C 
ATOM     14  C   UNL A   1      33.440  27.132  22.991  1.00  0.00     0.032 C 
BRANCH  10  15
ATOM     15  C   UNL A   1      30.274  25.338  24.936  1.00  0.00     0.254 C 
ATOM     16  O   UNL A   1      29.150  25.576  25.370  1.00  0.00    -0.269 OA
BRANCH  15  17
ATOM     17  C   UNL A   1      31.023  24.210  25.527  1.00  0.00     0.042 A 
ATOM     18  C   UNL A   1      33.845  21.078  26.276  1.00  0.00     0.047 C 
ATOM     19  C   UNL A   1      32.807  22.141  26.090  1.00  0.00    -0.015 A 
ATOM     20  C   UNL A   1      31.637  21.875  25.374  1.00  0.00     0.007 A 
ATOM     21  C   UNL A   1      33.039  23.438  26.563  1.00  0.00     0.126 A 
ATOM     22  C   UNL A   1      30.750  22.907  25.089  1.00  0.00     0.014 A 
ATOM     23  C   UNL A   1      32.162  24.478  26.285  1.00  0.00     0.053 A 
ATOM     24  F   UNL A   1      34.165  23.704  27.243  1.00  0.00    -0.207 F 
ENDBRANCH  15  17
ENDBRANCH  10  15
BRANCH  13  25
ATOM     25  C   UNL A   1      33.478  27.752  25.650  1.00  0.00     0.227 C 
ATOM     26  O   UNL A   1      34.288  26.838  25.860  1.00  0.00    -0.275 OA
ATOM     27  N   UNL A   1      33.416  28.806  26.528  1.00  0.00    -0.338 N 
ATOM     28  C   UNL A   1      32.224  29.494  27.013  1.00  0.00     0.148 C 
ATOM     29  C   UNL A   1      34.610  29.162  27.303  1.00  0.00     0.148 C 
ATOM     30  C   UNL A   1      32.459  31.012  27.010  1.00  0.00     0.181 C 
ATOM     31  C   UNL A   1      34.791  30.683  27.250  1.00  0.00     0.181 C 
ATOM     32  O   UNL A   1      33.631  31.353  27.775  1.00  0.00    -0.378 OA
ENDBRANCH  13  25
ENDBRANCH   7   9
ENDBRANCH   6   7
ENDBRANCH   5   6
ENDBRANCH   4   5
ENDBRANCH   3   4
ENDBRANCH   2   3
ENDBRANCH   1   2
BRANCH   1  33
ATOM     33  O   UNL A   1      38.843  20.201  25.543  1.00  0.00    -0.376 OA
BRANCH  33  34
ATOM     34  C   UNL A   1      39.489  21.343  26.129  1.00  0.00     0.202 C 
BRANCH  34  35
ATOM     35  C   UNL A   1      41.011  21.568  25.936  1.00  0.00     0.261 C 
BRANCH  35  36
ATOM     36  O   UNL A   1      41.454  22.915  26.024  1.00  0.00    -0.460 OA
BRANCH  36  37
ATOM     37  C   UNL A   1      41.293  23.435  27.246  1.00  0.00     0.338 C 
ATOM     38  O   UNL A   1      41.922  23.160  28.272  1.00  0.00    -0.246 OA
BRANCH  37  39
ATOM     39  C   UNL A   1      40.452  24.620  27.183  1.00  0.00     0.060 A 
ATOM     40  C   UNL A   1      40.856  25.588  26.245  1.00  0.00     0.016 A 
ATOM     41  C   UNL A   1      39.633  24.879  28.272  1.00  0.00     0.016 A 
ATOM     42  C   UNL A   1      40.867  26.884  26.655  1.00  0.00     0.010 A 
ATOM     43  C   UNL A   1      39.661  26.166  28.693  1.00  0.00     0.010 A 
ATOM     44  C   UNL A   1      40.419  27.087  27.944  1.00  0.00    -0.014 A 
BRANCH  44  45
ATOM     45  C   UNL A   1      40.828  28.225  28.701  1.00  0.00     0.031 A 
ATOM     46  C   UNL A   1      39.821  29.262  28.835  1.00  0.00     0.074 A 
ATOM     47  C   UNL A   1      41.955  28.041  29.422  1.00  0.00     0.049 A 
ATOM     48  N   UNL A   1      40.062  30.441  29.258  1.00  0.00    -0.248 NA
ATOM     49  C   UNL A   1      38.430  29.080  28.399  1.00  0.00     0.031 C 
ATOM     50  C   UNL A   1      42.343  28.649  30.680  1.00  0.00     0.029 A 
ATOM     51  N   UNL A   1      43.094  27.339  29.015  1.00  0.00    -0.354 N 
ATOM     52  C   UNL A   1      38.840  30.956  29.609  1.00  0.00     0.074 A 
ATOM     53  C   UNL A   1      37.865  30.194  28.871  1.00  0.00     0.031 C 
ATOM     54  C   UNL A   1      43.673  28.518  30.836  1.00  0.00     0.029 A 
ATOM     55  C   UNL A   1      44.207  27.984  29.592  1.00  0.00     0.049 A 
ATOM     56  H   UNL A   1      43.114  26.543  28.434  1.00  0.00     0.167 HD
ATOM     57  C   UNL A   1      38.798  31.805  30.668  1.00  0.00     0.034 A 
ATOM     58  C   UNL A   1      45.095  28.637  28.779  1.00  0.00     0.034 A 
ATOM     59  C   UNL A   1      40.140  31.990  31.211  1.00  0.00     0.049 A 
ATOM     60  C   UNL A   1      45.035  30.146  28.941  1.00  0.00     0.074 A 
ATOM     61  C   UNL A   1      40.821  31.461  32.295  1.00  0.00     0.029 A 
ATOM     62  N   UNL A   1      41.102  32.536  30.389  1.00  0.00    -0.354 N 
ATOM     63  N   UNL A   1      44.075  30.768  29.570  1.00  0.00    -0.248 NA
ATOM     64  C   UNL A   1      46.000  31.078  28.362  1.00  0.00     0.031 C 
ATOM     65  C   UNL A   1      42.208  31.739  32.122  1.00  0.00     0.029 A 
ATOM     66  C   UNL A   1      42.359  32.426  30.934  1.00  0.00     0.049 A 
ATOM     67  H   UNL A   1      40.913  32.955  29.519  1.00  0.00     0.167 HD
ATOM     68  C   UNL A   1      44.290  32.117  29.543  1.00  0.00     0.074 A 
ATOM     69  C   UNL A   1      45.477  32.266  28.718  1.00  0.00     0.031 C 
ATOM     70  C   UNL A   1      43.465  32.994  30.189  1.00  0.00     0.034 A 
BRANCH  57  71
ATOM     71  C   UNL A   1      37.554  32.270  31.364  1.00  0.00     0.023 A 
ATOM     72  C   UNL A   1      37.265  31.995  32.718  1.00  0.00     0.012 A 
ATOM     73  C   UNL A   1      36.581  33.002  30.654  1.00  0.00     0.148 A 
ATOM     74  C   UNL A   1      36.108  32.474  33.346  1.00  0.00     0.002 A 
ATOM     75  C   UNL A   1      35.423  33.460  31.271  1.00  0.00     0.091 A 
ATOM     76  F   UNL A   1      36.752  33.273  29.355  1.00  0.00    -0.205 F 
ATOM     77  C   UNL A   1      35.181  33.209  32.620  1.00  0.00     0.022 A 
BRANCH  75  78
ATOM     78  S   UNL A   1      34.242  34.368  30.278  1.00  0.00     0.127 S 
ATOM     79  O   UNL A   1      35.083  35.336  29.582  1.00  0.00    -0.237 OA
ATOM     80  O   UNL A   1      33.622  33.325  29.468  1.00  0.00    -0.237 OA
ATOM     81  O   UNL A   1      33.352  34.956  31.282  1.00  0.00    -0.744 OA
ENDBRANCH  75  78
ENDBRANCH  57  71
BRANCH  58  82
ATOM     82  C   UNL A   1      45.299  27.907  27.484  1.00  0.00     0.023 A 
ATOM     83  C   UNL A   1      44.429  28.134  26.403  1.00  0.00     0.012 A 
ATOM     84  C   UNL A   1      46.012  26.685  27.538  1.00  0.00     0.148 A 
ATOM     85  C   UNL A   1      44.172  27.107  25.482  1.00  0.00     0.002 A 
ATOM     86  C   UNL A   1      45.705  25.651  26.656  1.00  0.00     0.091 A 
ATOM     87  F   UNL A   1      46.874  26.488  28.549  1.00  0.00    -0.205 F 
ATOM     88  C   UNL A   1      44.771  25.852  25.635  1.00  0.00     0.022 A 
BRANCH  86  89
ATOM     89  S   UNL A   1      46.365  24.008  26.988  1.00  0.00     0.127 S 
ATOM     90  O   UNL A   1      47.778  24.264  27.246  1.00  0.00    -0.237 OA
ATOM     91  O   UNL A   1      45.572  23.565  28.135  1.00  0.00    -0.237 OA
ATOM     92  O   UNL A   1      46.126  23.263  25.750  1.00  0.00    -0.744 OA
ENDBRANCH  86  89
ENDBRANCH  58  82
BRANCH  70  93
ATOM     93  C   UNL A   1      43.561  34.494  30.111  1.00  0.00     0.023 A 
ATOM     94  C   UNL A   1      43.876  35.242  31.277  1.00  0.00     0.012 A 
ATOM     95  C   UNL A   1      43.398  35.217  28.929  1.00  0.00     0.148 A 
ATOM     96  C   UNL A   1      43.922  36.634  31.293  1.00  0.00     0.002 A 
ATOM     97  C   UNL A   1      43.369  36.610  28.959  1.00  0.00     0.091 A 
ATOM     98  F   UNL A   1      43.308  34.568  27.759  1.00  0.00    -0.205 F 
ATOM     99  C   UNL A   1      43.629  37.325  30.132  1.00  0.00     0.022 A 
BRANCH  97 100
ATOM    100  S   UNL A   1      42.841  37.471  27.485  1.00  0.00     0.127 S 
ATOM    101  O   UNL A   1      43.889  37.162  26.519  1.00  0.00    -0.237 OA
ATOM    102  O   UNL A   1      41.529  36.879  27.231  1.00  0.00    -0.237 OA
ATOM    103  O   UNL A   1      42.796  38.871  27.906  1.00  0.00    -0.744 OA
ENDBRANCH  97 100
ENDBRANCH  70  93
ENDBRANCH  44  45
ENDBRANCH  37  39
ENDBRANCH  36  37
ENDBRANCH  35  36
ENDBRANCH  34  35
ENDBRANCH  33  34
ENDBRANCH   1  33
TORSDOF 23
ENDMDL
MODEL 3
REMARK VINA RESULT:     -11.9      4.360      8.403
REMARK SMILES Cc1ccc(C(=O)N2C[C@@H](C(=O)OCCOCCOCCOC(=O)c3ccc(-c4c5nc(c(-c6cccc(S(=O)(=O)[O-])c6F)c6ccc([nH]6)c(-c6cccc(S(=O)(=O)[O-])c6F)c6nc(c(-c7cccc(S(=O)(=O)[O-])c7F)c7ccc4[nH]7)C=C6)C=C5)cc3)C[C@H](C(=O)N3CCOCC3)C2)cc1F
REMARK SMILES IDX 18 1 17 2 16 3 15 4 14 5 13 6 11 7 12 8 10 9 8 10 9 11 98 12
REMARK SMILES IDX 89 13 88 14 6 15 7 16 5 17 1 18 2 19 3 20 100 21 4 22 99 23
REMARK SMILES IDX 101 24 90 25 91 26 92 27 93 28 97 29 94 30 96 31 95 32 19 33
REMARK SMILES IDX 20 34 21 35 22 36 23 37 24 38 25 39 26 40 87 41 27 42 86 43
REMARK SMILES IDX 28 44 29 45 30 46 80 47 31 48 85 49 79 50 81 51 32 52 84 53
REMARK SMILES IDX 78 54 77 55 33 57 65 58 45 59 64 60 46 61 49 62 63 63 82 64
REMARK SMILES IDX 47 65 48 66 62 68 83 69 50 70 34 71 35 72 43 73 36 74 38 75
REMARK SMILES IDX 44 76 37 77 39 78 40 79 41 80 42 81 66 82 67 83 75 84 68 85
REMARK SMILES IDX 70 86 76 87 69 88 71 89 72 90 73 91 74 92 51 93 52 94 60 95
REMARK SMILES IDX 53 96 55 97 61 98 54 99 56 100 57 101 58 102 59 103
REMARK H PARENT 81 56 49 67
REMARK Flexibility Score: inf
ROOT
ATOM      1  C   UNL A   1      38.085  20.402  24.874  1.00  0.00     0.188 C 
ENDROOT
BRANCH   1   2
ATOM      2  C   UNL A   1      37.205  21.650  24.945  1.00  0.00     0.188 C 
BRANCH   2   3
ATOM      3  O   UNL A   1      36.249  21.803  23.901  1.00  0.00    -0.376 OA
BRANCH   3   4
ATOM      4  C   UNL A   1      36.003  23.142  23.477  1.00  0.00     0.202 C 
BRANCH   4   5
ATOM      5  C   UNL A   1      34.522  23.568  23.401  1.00  0.00     0.261 C 
BRANCH   5   6
ATOM      6  O   UNL A   1      33.951  23.607  22.072  1.00  0.00    -0.463 OA
BRANCH   6   7
ATOM      7  C   UNL A   1      33.355  24.772  21.744  1.00  0.00     0.310 C 
ATOM      8  O   UNL A   1      33.117  25.120  20.589  1.00  0.00    -0.252 OA
BRANCH   7   9
ATOM      9  C   UNL A   1      32.958  25.654  22.915  1.00  0.00     0.119 C 
ATOM     10  N   UNL A   1      30.980  26.169  24.204  1.00  0.00    -0.337 N 
ATOM     11  C   UNL A   1      31.456  25.610  22.961  1.00  0.00     0.135 C 
ATOM     12  C   UNL A   1      31.327  27.563  24.481  1.00  0.00     0.133 C 
ATOM     13  C   UNL A   1      32.843  27.831  24.323  1.00  0.00     0.099 C 
ATOM     14  C   UNL A   1      33.470  27.094  23.110  1.00  0.00     0.032 C 
BRANCH  10  15
ATOM     15  C   UNL A   1      30.286  25.336  25.058  1.00  0.00     0.254 C 
ATOM     16  O   UNL A   1      29.186  25.615  25.527  1.00  0.00    -0.269 OA
BRANCH  15  17
ATOM     17  C   UNL A   1      31.008  24.176  25.619  1.00  0.00     0.042 A 
ATOM     18  C   UNL A   1      33.763  20.969  26.297  1.00  0.00     0.047 C 
ATOM     19  C   UNL A   1      32.747  22.057  26.134  1.00  0.00    -0.015 A 
ATOM     20  C   UNL A   1      31.580  21.835  25.399  1.00  0.00     0.007 A 
ATOM     21  C   UNL A   1      32.998  23.334  26.651  1.00  0.00     0.126 A 
ATOM     22  C   UNL A   1      30.715  22.893  25.138  1.00  0.00     0.014 A 
ATOM     23  C   UNL A   1      32.143  24.398  26.398  1.00  0.00     0.053 A 
ATOM     24  F   UNL A   1      34.120  23.556  27.351  1.00  0.00    -0.207 F 
ENDBRANCH  15  17
ENDBRANCH  10  15
BRANCH  13  25
ATOM     25  C   UNL A   1      33.451  27.808  25.745  1.00  0.00     0.227 C 
ATOM     26  O   UNL A   1      34.310  26.947  25.985  1.00  0.00    -0.275 OA
ATOM     27  N   UNL A   1      33.307  28.867  26.607  1.00  0.00    -0.338 N 
ATOM     28  C   UNL A   1      32.067  29.488  27.058  1.00  0.00     0.148 C 
ATOM     29  C   UNL A   1      34.461  29.304  27.400  1.00  0.00     0.148 C 
ATOM     30  C   UNL A   1      32.209  31.017  27.038  1.00  0.00     0.181 C 
ATOM     31  C   UNL A   1      34.552  30.833  27.330  1.00  0.00     0.181 C 
ATOM     32  O   UNL A   1      33.343  31.439  27.822  1.00  0.00    -0.378 OA
ENDBRANCH  13  25
ENDBRANCH   7   9
ENDBRANCH   6   7
ENDBRANCH   5   6
ENDBRANCH   4   5
ENDBRANCH   3   4
ENDBRANCH   2   3
ENDBRANCH   1   2
BRANCH   1  33
ATOM     33  O   UNL A   1      39.177  20.291  25.779  1.00  0.00    -0.376 OA
BRANCH  33  34
ATOM     34  C   UNL A   1      39.762  21.498  26.295  1.00  0.00     0.202 C 
BRANCH  34  35
ATOM     35  C   UNL A   1      41.271  21.790  26.087  1.00  0.00     0.261 C 
BRANCH  35  36
ATOM     36  O   UNL A   1      41.659  23.152  26.189  1.00  0.00    -0.460 OA
BRANCH  36  37
ATOM     37  C   UNL A   1      41.390  23.679  27.389  1.00  0.00     0.338 C 
ATOM     38  O   UNL A   1      41.937  23.423  28.465  1.00  0.00    -0.246 OA
BRANCH  37  39
ATOM     39  C   UNL A   1      40.539  24.850  27.247  1.00  0.00     0.060 A 
ATOM     40  C   UNL A   1      41.092  25.900  26.489  1.00  0.00     0.016 A 
ATOM     41  C   UNL A   1      39.507  25.003  28.161  1.00  0.00     0.016 A 
ATOM     42  C   UNL A   1      40.975  27.158  26.992  1.00  0.00     0.010 A 
ATOM     43  C   UNL A   1      39.405  26.252  28.677  1.00  0.00     0.010 A 
ATOM     44  C   UNL A   1      40.267  27.244  28.173  1.00  0.00    -0.014 A 
BRANCH  44  45
ATOM     45  C   UNL A   1      40.475  28.324  29.084  1.00  0.00     0.031 A 
ATOM     46  C   UNL A   1      39.582  29.454  28.902  1.00  0.00     0.074 A 
ATOM     47  C   UNL A   1      41.244  28.015  30.150  1.00  0.00     0.049 A 
ATOM     48  N   UNL A   1      39.758  30.596  29.444  1.00  0.00    -0.248 NA
ATOM     49  C   UNL A   1      38.432  29.421  27.989  1.00  0.00     0.031 C 
ATOM     50  C   UNL A   1      41.204  28.560  31.493  1.00  0.00     0.029 A 
ATOM     51  N   UNL A   1      42.387  27.207  30.141  1.00  0.00    -0.354 N 
ATOM     52  C   UNL A   1      38.542  31.225  29.361  1.00  0.00     0.074 A 
ATOM     53  C   UNL A   1      37.836  30.579  28.285  1.00  0.00     0.031 C 
ATOM     54  C   UNL A   1      42.371  28.292  32.108  1.00  0.00     0.029 A 
ATOM     55  C   UNL A   1      43.269  27.728  31.110  1.00  0.00     0.049 A 
ATOM     56  H   UNL A   1      42.545  26.424  29.566  1.00  0.00     0.167 HD
ATOM     57  C   UNL A   1      38.196  32.057  30.377  1.00  0.00     0.034 A 
ATOM     58  C   UNL A   1      44.445  28.301  30.703  1.00  0.00     0.034 A 
ATOM     59  C   UNL A   1      39.263  32.097  31.373  1.00  0.00     0.049 A 
ATOM     60  C   UNL A   1      44.463  29.806  30.911  1.00  0.00     0.074 A 
ATOM     61  C   UNL A   1      39.457  31.484  32.600  1.00  0.00     0.029 A 
ATOM     62  N   UNL A   1      40.500  32.557  30.979  1.00  0.00    -0.354 N 
ATOM     63  N   UNL A   1      43.400  30.511  31.186  1.00  0.00    -0.248 NA
ATOM     64  C   UNL A   1      45.650  30.644  30.764  1.00  0.00     0.031 C 
ATOM     65  C   UNL A   1      40.832  31.624  32.949  1.00  0.00     0.029 A 
ATOM     66  C   UNL A   1      41.461  32.312  31.931  1.00  0.00     0.049 A 
ATOM     67  H   UNL A   1      40.676  33.006  30.121  1.00  0.00     0.167 HD
ATOM     68  C   UNL A   1      43.729  31.832  31.307  1.00  0.00     0.074 A 
ATOM     69  C   UNL A   1      45.141  31.873  30.970  1.00  0.00     0.031 C 
ATOM     70  C   UNL A   1      42.807  32.777  31.660  1.00  0.00     0.034 A 
BRANCH  57  71
ATOM     71  C   UNL A   1      36.830  32.634  30.606  1.00  0.00     0.023 A 
ATOM     72  C   UNL A   1      36.094  32.453  31.795  1.00  0.00     0.012 A 
ATOM     73  C   UNL A   1      36.203  33.382  29.589  1.00  0.00     0.148 A 
ATOM     74  C   UNL A   1      34.833  33.035  31.988  1.00  0.00     0.002 A 
ATOM     75  C   UNL A   1      34.944  33.942  29.772  1.00  0.00     0.091 A 
ATOM     76  F   UNL A   1      36.810  33.568  28.412  1.00  0.00    -0.205 F 
ATOM     77  C   UNL A   1      34.254  33.782  30.972  1.00  0.00     0.022 A 
BRANCH  75  78
ATOM     78  S   UNL A   1      34.226  34.862  28.414  1.00  0.00     0.127 S 
ATOM     79  O   UNL A   1      34.788  34.198  27.241  1.00  0.00    -0.237 OA
ATOM     80  O   UNL A   1      32.792  34.710  28.636  1.00  0.00    -0.237 OA
ATOM     81  O   UNL A   1      34.727  36.219  28.635  1.00  0.00    -0.744 OA
ENDBRANCH  75  78
ENDBRANCH  57  71
BRANCH  58  82
ATOM     82  C   UNL A   1      45.036  27.575  29.531  1.00  0.00     0.023 A 
ATOM     83  C   UNL A   1      46.004  26.576  29.737  1.00  0.00     0.012 A 
ATOM     84  C   UNL A   1      44.992  28.230  28.277  1.00  0.00     0.148 A 
ATOM     85  C   UNL A   1      46.990  26.344  28.767  1.00  0.00     0.002 A 
ATOM     86  C   UNL A   1      46.010  28.037  27.345  1.00  0.00     0.091 A 
ATOM     87  F   UNL A   1      44.040  29.155  28.068  1.00  0.00    -0.205 F 
ATOM     88  C   UNL A   1      47.023  27.106  27.594  1.00  0.00     0.022 A 
BRANCH  86  89
ATOM     89  S   UNL A   1      46.112  29.152  25.934  1.00  0.00     0.127 S 
ATOM     90  O   UNL A   1      47.444  29.733  26.067  1.00  0.00    -0.237 OA
ATOM     91  O   UNL A   1      45.913  28.255  24.796  1.00  0.00    -0.237 OA
ATOM     92  O   UNL A   1      45.033  30.117  26.154  1.00  0.00    -0.744 OA
ENDBRANCH  86  89
ENDBRANCH  58  82
BRANCH  70  93
ATOM     93  C   UNL A   1      43.057  34.261  31.699  1.00  0.00     0.023 A 
ATOM     94  C   UNL A   1      43.345  34.958  30.495  1.00  0.00     0.012 A 
ATOM     95  C   UNL A   1      42.982  35.025  32.863  1.00  0.00     0.148 A 
ATOM     96  C   UNL A   1      43.647  36.318  30.464  1.00  0.00     0.002 A 
ATOM     97  C   UNL A   1      43.357  36.367  32.844  1.00  0.00     0.091 A 
ATOM     98  F   UNL A   1      42.512  34.475  33.991  1.00  0.00    -0.205 F 
ATOM     99  C   UNL A   1      43.689  37.020  31.653  1.00  0.00     0.022 A 
BRANCH  97 100
ATOM    100  S   UNL A   1      43.548  37.208  34.409  1.00  0.00     0.127 S 
ATOM    101  O   UNL A   1      42.191  37.247  34.940  1.00  0.00    -0.237 OA
ATOM    102  O   UNL A   1      44.496  36.345  35.112  1.00  0.00    -0.237 OA
ATOM    103  O   UNL A   1      44.091  38.512  34.030  1.00  0.00    -0.744 OA
ENDBRANCH  97 100
ENDBRANCH  70  93
ENDBRANCH  44  45
ENDBRANCH  37  39
ENDBRANCH  36  37
ENDBRANCH  35  36
ENDBRANCH  34  35
ENDBRANCH  33  34
ENDBRANCH   1  33
TORSDOF 23
ENDMDL
