MODEL 1
REMARK VINA RESULT:      -9.8      0.000      0.000
REMARK SMILES CC(C)CC[C@@H](C(=O)OCCOCCOCCOC(=O)c1ccc(-c2c3nc(c(-c4cccc(S(=O)(=O)[O-])c4F)c4ccc([nH]4)c(-c4cccc(S(=O)(=O)[O-])c4F)c4nc(c(-c5cccc(S(=O)(=O)[O-])c5F)c5ccc2[nH]5)C=C4)C=C3)cc1)c1ccc(Br)cc1
REMARK SMILES IDX 13 1 12 2 11 3 10 4 9 5 7 6 8 7 6 8 5 9 4 10 2 11 1 12 3 13
REMARK SMILES IDX 84 14 85 15 90 16 86 17 89 18 87 19 88 20 14 21 15 22 16 23
REMARK SMILES IDX 17 24 18 25 19 26 20 27 21 28 22 29 83 30 23 31 82 32 24 33
REMARK SMILES IDX 25 34 26 35 76 36 27 37 81 38 75 39 77 40 28 41 80 42 74 43
REMARK SMILES IDX 73 44 29 46 61 47 41 48 60 49 42 50 45 51 59 52 78 53 43 54
REMARK SMILES IDX 44 55 58 57 79 58 46 59 30 60 31 61 39 62 32 63 34 64 40 65
REMARK SMILES IDX 33 66 35 67 36 68 37 69 38 70 62 71 63 72 71 73 64 74 66 75
REMARK SMILES IDX 72 76 65 77 67 78 68 79 69 80 70 81 47 82 48 83 56 84 49 85
REMARK SMILES IDX 51 86 57 87 50 88 52 89 53 90 54 91 55 92
REMARK H PARENT 77 45 45 56
REMARK Flexibility Score: inf
ROOT
ATOM      1  C   UNL A   1      36.212  22.517  25.529  1.00  0.00     0.188 C 
ENDROOT
BRANCH   1   2
ATOM      2  O   UNL A   1      35.574  23.511  24.735  1.00  0.00    -0.376 OA
BRANCH   2   3
ATOM      3  C   UNL A   1      34.786  23.038  23.642  1.00  0.00     0.202 C 
BRANCH   3   4
ATOM      4  C   UNL A   1      33.736  24.014  23.088  1.00  0.00     0.261 C 
BRANCH   4   5
ATOM      5  O   UNL A   1      34.255  25.342  22.848  1.00  0.00    -0.463 OA
BRANCH   5   6
ATOM      6  C   UNL A   1      33.520  26.140  22.022  1.00  0.00     0.313 C 
ATOM      7  O   UNL A   1      33.133  25.795  20.909  1.00  0.00    -0.252 OA
BRANCH   6   8
ATOM      8  C   UNL A   1      33.177  27.516  22.622  1.00  0.00     0.129 C 
BRANCH   8   9
ATOM      9  C   UNL A   1      34.006  27.921  23.868  1.00  0.00     0.020 C 
BRANCH   9  10
ATOM     10  C   UNL A   1      33.297  28.667  25.005  1.00  0.00     0.004 C 
BRANCH  10  11
ATOM     11  C   UNL A   1      33.077  27.878  26.305  1.00  0.00    -0.017 C 
ATOM     12  C   UNL A   1      31.643  27.996  26.824  1.00  0.00     0.007 C 
ATOM     13  C   UNL A   1      33.422  26.406  26.063  1.00  0.00     0.007 C 
ENDBRANCH  10  11
ENDBRANCH   9  10
ENDBRANCH   8   9
BRANCH   8  14
ATOM     14  C   UNL A   1      31.668  27.770  22.850  1.00  0.00    -0.034 A 
ATOM     15  C   UNL A   1      31.100  28.995  22.439  1.00  0.00     0.006 A 
ATOM     16  C   UNL A   1      30.792  26.814  23.394  1.00  0.00     0.006 A 
ATOM     17  C   UNL A   1      29.736  29.265  22.591  1.00  0.00     0.016 A 
ATOM     18  C   UNL A   1      29.422  27.082  23.549  1.00  0.00     0.016 A 
ATOM     19  C   UNL A   1      28.899  28.303  23.138  1.00  0.00     0.017 A 
ATOM     20  Br  UNL A   1      27.047  28.651  23.257  1.00  0.00    -0.051 Br
ENDBRANCH   8  14
ENDBRANCH   6   8
ENDBRANCH   5   6
ENDBRANCH   4   5
ENDBRANCH   3   4
ENDBRANCH   2   3
ENDBRANCH   1   2
BRANCH   1  21
ATOM     21  C   UNL A   1      35.482  21.179  25.644  1.00  0.00     0.188 C 
BRANCH  21  22
ATOM     22  O   UNL A   1      36.082  20.093  24.951  1.00  0.00    -0.376 OA
BRANCH  22  23
ATOM     23  C   UNL A   1      37.406  20.307  24.458  1.00  0.00     0.202 C 
BRANCH  23  24
ATOM     24  C   UNL A   1      38.536  19.536  25.172  1.00  0.00     0.261 C 
BRANCH  24  25
ATOM     25  O   UNL A   1      39.055  20.147  26.374  1.00  0.00    -0.460 OA
BRANCH  25  26
ATOM     26  C   UNL A   1      40.397  20.279  26.493  1.00  0.00     0.338 C 
ATOM     27  O   UNL A   1      41.238  19.494  26.086  1.00  0.00    -0.246 OA
BRANCH  26  28
ATOM     28  C   UNL A   1      40.697  21.662  26.960  1.00  0.00     0.060 A 
ATOM     29  C   UNL A   1      39.976  22.724  26.394  1.00  0.00     0.016 A 
ATOM     30  C   UNL A   1      41.609  21.917  27.991  1.00  0.00     0.016 A 
ATOM     31  C   UNL A   1      40.200  24.038  26.817  1.00  0.00     0.010 A 
ATOM     32  C   UNL A   1      41.841  23.234  28.406  1.00  0.00     0.010 A 
ATOM     33  C   UNL A   1      41.165  24.306  27.796  1.00  0.00    -0.014 A 
BRANCH  33  34
ATOM     34  C   UNL A   1      41.623  25.702  28.030  1.00  0.00     0.031 A 
ATOM     35  C   UNL A   1      42.998  26.087  27.552  1.00  0.00     0.074 A 
ATOM     36  C   UNL A   1      40.857  26.613  28.657  1.00  0.00     0.049 A 
ATOM     37  N   UNL A   1      43.627  27.227  27.661  1.00  0.00    -0.248 NA
ATOM     38  C   UNL A   1      43.769  25.036  26.867  1.00  0.00     0.031 C 
ATOM     39  C   UNL A   1      39.513  26.378  29.177  1.00  0.00     0.029 A 
ATOM     40  N   UNL A   1      41.115  27.927  28.971  1.00  0.00    -0.354 N 
ATOM     41  C   UNL A   1      44.880  27.023  27.095  1.00  0.00     0.074 A 
ATOM     42  C   UNL A   1      44.924  25.648  26.647  1.00  0.00     0.031 C 
ATOM     43  C   UNL A   1      39.062  27.511  29.746  1.00  0.00     0.029 A 
ATOM     44  C   UNL A   1      40.093  28.546  29.652  1.00  0.00     0.049 A 
ATOM     45  H   UNL A   1      41.954  28.382  28.730  1.00  0.00     0.167 HD
ATOM     46  C   UNL A   1      45.903  27.896  26.951  1.00  0.00     0.034 A 
ATOM     47  C   UNL A   1      40.004  29.798  30.149  1.00  0.00     0.034 A 
ATOM     48  C   UNL A   1      45.868  29.267  27.380  1.00  0.00     0.049 A 
ATOM     49  C   UNL A   1      41.163  30.752  29.980  1.00  0.00     0.074 A 
ATOM     50  C   UNL A   1      46.851  30.234  27.250  1.00  0.00     0.029 A 
ATOM     51  N   UNL A   1      44.802  29.866  28.032  1.00  0.00    -0.354 N 
ATOM     52  N   UNL A   1      42.299  30.576  29.349  1.00  0.00    -0.248 NA
ATOM     53  C   UNL A   1      41.019  32.089  30.582  1.00  0.00     0.031 C 
ATOM     54  C   UNL A   1      46.389  31.409  27.848  1.00  0.00     0.029 A 
ATOM     55  C   UNL A   1      45.106  31.186  28.321  1.00  0.00     0.049 A 
ATOM     56  H   UNL A   1      43.954  29.419  28.256  1.00  0.00     0.167 HD
ATOM     57  C   UNL A   1      42.989  31.782  29.453  1.00  0.00     0.074 A 
ATOM     58  C   UNL A   1      42.132  32.691  30.184  1.00  0.00     0.031 C 
ATOM     59  C   UNL A   1      44.227  32.102  29.000  1.00  0.00     0.034 A 
BRANCH  46  60
ATOM     60  C   UNL A   1      47.155  27.390  26.285  1.00  0.00     0.023 A 
ATOM     61  C   UNL A   1      47.342  27.591  24.902  1.00  0.00     0.012 A 
ATOM     62  C   UNL A   1      48.161  26.748  27.034  1.00  0.00     0.148 A 
ATOM     63  C   UNL A   1      48.494  27.129  24.268  1.00  0.00     0.002 A 
ATOM     64  C   UNL A   1      49.326  26.331  26.403  1.00  0.00     0.091 A 
ATOM     65  F   UNL A   1      47.953  26.544  28.342  1.00  0.00    -0.205 F 
ATOM     66  C   UNL A   1      49.489  26.509  25.019  1.00  0.00     0.022 A 
BRANCH  64  67
ATOM     67  S   UNL A   1      50.697  25.592  27.296  1.00  0.00     0.127 S 
ATOM     68  O   UNL A   1      50.887  26.546  28.387  1.00  0.00    -0.237 OA
ATOM     69  O   UNL A   1      50.138  24.302  27.704  1.00  0.00    -0.237 OA
ATOM     70  O   UNL A   1      51.796  25.503  26.344  1.00  0.00    -0.744 OA
ENDBRANCH  64  67
ENDBRANCH  46  60
BRANCH  47  71
ATOM     71  C   UNL A   1      38.755  30.251  30.831  1.00  0.00     0.023 A 
ATOM     72  C   UNL A   1      38.566  29.962  32.197  1.00  0.00     0.012 A 
ATOM     73  C   UNL A   1      37.752  30.953  30.136  1.00  0.00     0.148 A 
ATOM     74  C   UNL A   1      37.391  30.334  32.850  1.00  0.00     0.002 A 
ATOM     75  C   UNL A   1      36.609  31.376  30.807  1.00  0.00     0.091 A 
ATOM     76  F   UNL A   1      37.935  31.197  28.831  1.00  0.00    -0.205 F 
ATOM     77  C   UNL A   1      36.418  31.050  32.159  1.00  0.00     0.022 A 
BRANCH  75  78
ATOM     78  S   UNL A   1      35.367  32.414  30.031  1.00  0.00     0.127 S 
ATOM     79  O   UNL A   1      34.951  31.589  28.899  1.00  0.00    -0.237 OA
ATOM     80  O   UNL A   1      34.373  32.543  31.098  1.00  0.00    -0.237 OA
ATOM     81  O   UNL A   1      36.048  33.656  29.692  1.00  0.00    -0.744 OA
ENDBRANCH  75  78
ENDBRANCH  47  71
BRANCH  59  82
ATOM     82  C   UNL A   1      44.734  33.502  29.246  1.00  0.00     0.023 A 
ATOM     83  C   UNL A   1      44.506  34.510  28.288  1.00  0.00     0.012 A 
ATOM     84  C   UNL A   1      45.357  33.838  30.465  1.00  0.00     0.148 A 
ATOM     85  C   UNL A   1      44.917  35.822  28.525  1.00  0.00     0.002 A 
ATOM     86  C   UNL A   1      45.720  35.157  30.715  1.00  0.00     0.091 A 
ATOM     87  F   UNL A   1      45.580  32.865  31.359  1.00  0.00    -0.205 F 
ATOM     88  C   UNL A   1      45.512  36.148  29.742  1.00  0.00     0.022 A 
BRANCH  86  89
ATOM     89  S   UNL A   1      46.404  35.689  32.290  1.00  0.00     0.127 S 
ATOM     90  O   UNL A   1      47.338  34.605  32.591  1.00  0.00    -0.237 OA
ATOM     91  O   UNL A   1      47.040  36.960  31.939  1.00  0.00    -0.237 OA
ATOM     92  O   UNL A   1      45.273  35.811  33.199  1.00  0.00    -0.744 OA
ENDBRANCH  86  89
ENDBRANCH  59  82
ENDBRANCH  33  34
ENDBRANCH  26  28
ENDBRANCH  25  26
ENDBRANCH  24  25
ENDBRANCH  23  24
ENDBRANCH  22  23
ENDBRANCH  21  22
ENDBRANCH   1  21
TORSDOF 24
ENDMDL
MODEL 2
REMARK VINA RESULT:      -9.1      2.721      4.004
REMARK SMILES CC(C)CC[C@@H](C(=O)OCCOCCOCCOC(=O)c1ccc(-c2c3nc(c(-c4cccc(S(=O)(=O)[O-])c4F)c4ccc([nH]4)c(-c4cccc(S(=O)(=O)[O-])c4F)c4nc(c(-c5cccc(S(=O)(=O)[O-])c5F)c5ccc2[nH]5)C=C4)C=C3)cc1)c1ccc(Br)cc1
REMARK SMILES IDX 13 1 12 2 11 3 10 4 9 5 7 6 8 7 6 8 5 9 4 10 2 11 1 12 3 13
REMARK SMILES IDX 84 14 85 15 90 16 86 17 89 18 87 19 88 20 14 21 15 22 16 23
REMARK SMILES IDX 17 24 18 25 19 26 20 27 21 28 22 29 83 30 23 31 82 32 24 33
REMARK SMILES IDX 25 34 26 35 76 36 27 37 81 38 75 39 77 40 28 41 80 42 74 43
REMARK SMILES IDX 73 44 29 46 61 47 41 48 60 49 42 50 45 51 59 52 78 53 43 54
REMARK SMILES IDX 44 55 58 57 79 58 46 59 30 60 31 61 39 62 32 63 34 64 40 65
REMARK SMILES IDX 33 66 35 67 36 68 37 69 38 70 62 71 63 72 71 73 64 74 66 75
REMARK SMILES IDX 72 76 65 77 67 78 68 79 69 80 70 81 47 82 48 83 56 84 49 85
REMARK SMILES IDX 51 86 57 87 50 88 52 89 53 90 54 91 55 92
REMARK H PARENT 77 45 45 56
REMARK Flexibility Score: inf
ROOT
ATOM      1  C   UNL A   1      35.340  23.231  25.806  1.00  0.00     0.188 C 
ENDROOT
BRANCH   1   2
ATOM      2  O   UNL A   1      34.152  23.959  26.092  1.00  0.00    -0.376 OA
BRANCH   2   3
ATOM      3  C   UNL A   1      34.080  25.285  25.567  1.00  0.00     0.202 C 
BRANCH   3   4
ATOM      4  C   UNL A   1      34.324  25.432  24.056  1.00  0.00     0.261 C 
BRANCH   4   5
ATOM      5  O   UNL A   1      33.188  25.042  23.250  1.00  0.00    -0.463 OA
BRANCH   5   6
ATOM      6  C   UNL A   1      33.209  23.775  22.746  1.00  0.00     0.313 C 
ATOM      7  O   UNL A   1      34.166  23.298  22.144  1.00  0.00    -0.252 OA
BRANCH   6   8
ATOM      8  C   UNL A   1      31.930  22.967  23.031  1.00  0.00     0.129 C 
BRANCH   8   9
ATOM      9  C   UNL A   1      30.899  23.661  23.958  1.00  0.00     0.020 C 
BRANCH   9  10
ATOM     10  C   UNL A   1      30.150  24.889  23.427  1.00  0.00     0.004 C 
BRANCH  10  11
ATOM     11  C   UNL A   1      29.829  25.988  24.453  1.00  0.00    -0.017 C 
ATOM     12  C   UNL A   1      30.532  25.759  25.792  1.00  0.00     0.007 C 
ATOM     13  C   UNL A   1      30.237  27.346  23.877  1.00  0.00     0.007 C 
ENDBRANCH  10  11
ENDBRANCH   9  10
ENDBRANCH   8   9
BRANCH   8  14
ATOM     14  C   UNL A   1      32.168  21.500  23.463  1.00  0.00    -0.034 A 
ATOM     15  C   UNL A   1      32.325  21.196  24.832  1.00  0.00     0.006 A 
ATOM     16  C   UNL A   1      32.175  20.417  22.567  1.00  0.00     0.006 A 
ATOM     17  C   UNL A   1      32.510  19.884  25.281  1.00  0.00     0.016 A 
ATOM     18  C   UNL A   1      32.361  19.099  23.013  1.00  0.00     0.016 A 
ATOM     19  C   UNL A   1      32.518  18.838  24.370  1.00  0.00     0.017 A 
ATOM     20  Br  UNL A   1      32.683  17.066  25.002  1.00  0.00    -0.051 Br
ENDBRANCH   8  14
ENDBRANCH   6   8
ENDBRANCH   5   6
ENDBRANCH   4   5
ENDBRANCH   3   4
ENDBRANCH   2   3
ENDBRANCH   1   2
BRANCH   1  21
ATOM     21  C   UNL A   1      35.386  21.791  26.317  1.00  0.00     0.188 C 
BRANCH  21  22
ATOM     22  O   UNL A   1      35.971  20.845  25.433  1.00  0.00    -0.376 OA
BRANCH  22  23
ATOM     23  C   UNL A   1      37.084  21.301  24.660  1.00  0.00     0.202 C 
BRANCH  23  24
ATOM     24  C   UNL A   1      38.458  21.286  25.362  1.00  0.00     0.261 C 
BRANCH  24  25
ATOM     25  O   UNL A   1      38.831  22.504  26.043  1.00  0.00    -0.460 OA
BRANCH  25  26
ATOM     26  C   UNL A   1      39.814  22.438  26.972  1.00  0.00     0.338 C 
ATOM     27  O   UNL A   1      40.380  21.427  27.353  1.00  0.00    -0.246 OA
BRANCH  26  28
ATOM     28  C   UNL A   1      40.284  23.822  27.263  1.00  0.00     0.060 A 
ATOM     29  C   UNL A   1      41.146  24.014  28.353  1.00  0.00     0.016 A 
ATOM     30  C   UNL A   1      39.958  24.907  26.441  1.00  0.00     0.016 A 
ATOM     31  C   UNL A   1      41.638  25.288  28.653  1.00  0.00     0.010 A 
ATOM     32  C   UNL A   1      40.442  26.185  26.748  1.00  0.00     0.010 A 
ATOM     33  C   UNL A   1      41.255  26.390  27.877  1.00  0.00    -0.014 A 
BRANCH  33  34
ATOM     34  C   UNL A   1      41.519  27.771  28.360  1.00  0.00     0.031 A 
ATOM     35  C   UNL A   1      42.940  28.269  28.343  1.00  0.00     0.074 A 
ATOM     36  C   UNL A   1      40.539  28.573  28.816  1.00  0.00     0.049 A 
ATOM     37  N   UNL A   1      43.424  29.418  28.735  1.00  0.00    -0.248 NA
ATOM     38  C   UNL A   1      43.953  27.336  27.821  1.00  0.00     0.031 C 
ATOM     39  C   UNL A   1      39.125  28.221  28.896  1.00  0.00     0.029 A 
ATOM     40  N   UNL A   1      40.596  29.854  29.310  1.00  0.00    -0.354 N 
ATOM     41  C   UNL A   1      44.798  29.335  28.544  1.00  0.00     0.074 A 
ATOM     42  C   UNL A   1      45.072  28.020  28.006  1.00  0.00     0.031 C 
ATOM     43  C   UNL A   1      38.445  29.262  29.408  1.00  0.00     0.029 A 
ATOM     44  C   UNL A   1      39.378  30.348  29.715  1.00  0.00     0.049 A 
ATOM     45  H   UNL A   1      41.432  30.372  29.368  1.00  0.00     0.167 HD
ATOM     46  C   UNL A   1      45.751  30.265  28.786  1.00  0.00     0.034 A 
ATOM     47  C   UNL A   1      39.056  31.533  30.276  1.00  0.00     0.034 A 
ATOM     48  C   UNL A   1      45.491  31.578  29.309  1.00  0.00     0.049 A 
ATOM     49  C   UNL A   1      40.139  32.552  30.541  1.00  0.00     0.074 A 
ATOM     50  C   UNL A   1      46.393  32.597  29.561  1.00  0.00     0.029 A 
ATOM     51  N   UNL A   1      44.240  32.052  29.671  1.00  0.00    -0.354 N 
ATOM     52  N   UNL A   1      41.418  32.498  30.258  1.00  0.00    -0.248 NA
ATOM     53  C   UNL A   1      39.727  33.808  31.193  1.00  0.00     0.031 C 
ATOM     54  C   UNL A   1      45.691  33.678  30.102  1.00  0.00     0.029 A 
ATOM     55  C   UNL A   1      44.347  33.345  30.156  1.00  0.00     0.049 A 
ATOM     56  H   UNL A   1      43.400  31.544  29.596  1.00  0.00     0.167 HD
ATOM     57  C   UNL A   1      41.956  33.717  30.668  1.00  0.00     0.074 A 
ATOM     58  C   UNL A   1      40.860  34.500  31.195  1.00  0.00     0.031 C 
ATOM     59  C   UNL A   1      43.244  34.140  30.628  1.00  0.00     0.034 A 
BRANCH  46  60
ATOM     60  C   UNL A   1      47.176  29.892  28.472  1.00  0.00     0.023 A 
ATOM     61  C   UNL A   1      47.713  30.189  27.203  1.00  0.00     0.012 A 
ATOM     62  C   UNL A   1      47.991  29.281  29.445  1.00  0.00     0.148 A 
ATOM     63  C   UNL A   1      49.029  29.852  26.895  1.00  0.00     0.002 A 
ATOM     64  C   UNL A   1      49.316  28.989  29.144  1.00  0.00     0.091 A 
ATOM     65  F   UNL A   1      47.454  28.984  30.636  1.00  0.00    -0.205 F 
ATOM     66  C   UNL A   1      49.832  29.262  27.867  1.00  0.00     0.022 A 
BRANCH  64  67
ATOM     67  S   UNL A   1      50.451  28.299  30.352  1.00  0.00     0.127 S 
ATOM     68  O   UNL A   1      51.728  28.400  29.648  1.00  0.00    -0.237 OA
ATOM     69  O   UNL A   1      50.300  29.223  31.478  1.00  0.00    -0.237 OA
ATOM     70  O   UNL A   1      49.985  26.945  30.613  1.00  0.00    -0.744 OA
ENDBRANCH  64  67
ENDBRANCH  46  60
BRANCH  47  71
ATOM     71  C   UNL A   1      37.634  31.851  30.601  1.00  0.00     0.023 A 
ATOM     72  C   UNL A   1      37.121  31.521  31.871  1.00  0.00     0.012 A 
ATOM     73  C   UNL A   1      36.785  32.465  29.660  1.00  0.00     0.148 A 
ATOM     74  C   UNL A   1      35.784  31.766  32.187  1.00  0.00     0.002 A 
ATOM     75  C   UNL A   1      35.470  32.764  30.003  1.00  0.00     0.091 A 
ATOM     76  F   UNL A   1      37.280  32.749  28.448  1.00  0.00    -0.205 F 
ATOM     77  C   UNL A   1      34.962  32.397  31.259  1.00  0.00     0.022 A 
BRANCH  75  78
ATOM     78  S   UNL A   1      34.380  33.691  28.918  1.00  0.00     0.127 S 
ATOM     79  O   UNL A   1      35.295  34.673  28.341  1.00  0.00    -0.237 OA
ATOM     80  O   UNL A   1      33.925  32.654  27.991  1.00  0.00    -0.237 OA
ATOM     81  O   UNL A   1      33.335  34.229  29.778  1.00  0.00    -0.744 OA
ENDBRANCH  75  78
ENDBRANCH  47  71
BRANCH  59  82
ATOM     82  C   UNL A   1      43.552  35.527  31.138  1.00  0.00     0.023 A 
ATOM     83  C   UNL A   1      43.895  35.719  32.491  1.00  0.00     0.012 A 
ATOM     84  C   UNL A   1      43.590  36.626  30.255  1.00  0.00     0.148 A 
ATOM     85  C   UNL A   1      44.240  36.985  32.965  1.00  0.00     0.002 A 
ATOM     86  C   UNL A   1      43.982  37.876  30.724  1.00  0.00     0.091 A 
ATOM     87  F   UNL A   1      43.248  36.430  28.975  1.00  0.00    -0.205 F 
ATOM     88  C   UNL A   1      44.295  38.060  32.080  1.00  0.00     0.022 A 
BRANCH  86  89
ATOM     89  S   UNL A   1      44.175  39.296  29.640  1.00  0.00     0.127 S 
ATOM     90  O   UNL A   1      45.165  38.808  28.682  1.00  0.00    -0.237 OA
ATOM     91  O   UNL A   1      42.827  39.456  29.094  1.00  0.00    -0.237 OA
ATOM     92  O   UNL A   1      44.616  40.394  30.490  1.00  0.00    -0.744 OA
ENDBRANCH  86  89
ENDBRANCH  59  82
ENDBRANCH  33  34
ENDBRANCH  26  28
ENDBRANCH  25  26
ENDBRANCH  24  25
ENDBRANCH  23  24
ENDBRANCH  22  23
ENDBRANCH  21  22
ENDBRANCH   1  21
TORSDOF 24
ENDMDL
MODEL 3
REMARK VINA RESULT:      -9.0      1.999      7.990
REMARK SMILES CC(C)CC[C@@H](C(=O)OCCOCCOCCOC(=O)c1ccc(-c2c3nc(c(-c4cccc(S(=O)(=O)[O-])c4F)c4ccc([nH]4)c(-c4cccc(S(=O)(=O)[O-])c4F)c4nc(c(-c5cccc(S(=O)(=O)[O-])c5F)c5ccc2[nH]5)C=C4)C=C3)cc1)c1ccc(Br)cc1
REMARK SMILES IDX 13 1 12 2 11 3 10 4 9 5 7 6 8 7 6 8 5 9 4 10 2 11 1 12 3 13
REMARK SMILES IDX 84 14 85 15 90 16 86 17 89 18 87 19 88 20 14 21 15 22 16 23
REMARK SMILES IDX 17 24 18 25 19 26 20 27 21 28 22 29 83 30 23 31 82 32 24 33
REMARK SMILES IDX 25 34 26 35 76 36 27 37 81 38 75 39 77 40 28 41 80 42 74 43
REMARK SMILES IDX 73 44 29 46 61 47 41 48 60 49 42 50 45 51 59 52 78 53 43 54
REMARK SMILES IDX 44 55 58 57 79 58 46 59 30 60 31 61 39 62 32 63 34 64 40 65
REMARK SMILES IDX 33 66 35 67 36 68 37 69 38 70 62 71 63 72 71 73 64 74 66 75
REMARK SMILES IDX 72 76 65 77 67 78 68 79 69 80 70 81 47 82 48 83 56 84 49 85
REMARK SMILES IDX 51 86 57 87 50 88 52 89 53 90 54 91 55 92
REMARK H PARENT 77 45 45 56
REMARK Flexibility Score: inf
ROOT
ATOM      1  C   UNL A   1      34.155  22.810  23.559  1.00  0.00     0.188 C 
ENDROOT
BRANCH   1   2
ATOM      2  O   UNL A   1      33.066  23.720  23.656  1.00  0.00    -0.376 OA
BRANCH   2   3
ATOM      3  C   UNL A   1      31.811  23.262  23.151  1.00  0.00     0.202 C 
BRANCH   3   4
ATOM      4  C   UNL A   1      30.556  23.872  23.794  1.00  0.00     0.261 C 
BRANCH   4   5
ATOM      5  O   UNL A   1      30.500  25.314  23.694  1.00  0.00    -0.463 OA
BRANCH   5   6
ATOM      6  C   UNL A   1      30.132  25.986  24.821  1.00  0.00     0.313 C 
ATOM      7  O   UNL A   1      29.641  25.444  25.807  1.00  0.00    -0.252 OA
BRANCH   6   8
ATOM      8  C   UNL A   1      30.418  27.498  24.770  1.00  0.00     0.129 C 
BRANCH   8   9
ATOM      9  C   UNL A   1      30.219  28.165  23.385  1.00  0.00     0.020 C 
BRANCH   9  10
ATOM     10  C   UNL A   1      30.038  29.687  23.326  1.00  0.00     0.004 C 
BRANCH  10  11
ATOM     11  C   UNL A   1      28.593  30.203  23.399  1.00  0.00    -0.017 C 
ATOM     12  C   UNL A   1      28.402  31.513  22.633  1.00  0.00     0.007 C 
ATOM     13  C   UNL A   1      27.649  29.134  22.844  1.00  0.00     0.007 C 
ENDBRANCH  10  11
ENDBRANCH   9  10
ENDBRANCH   8   9
BRANCH   8  14
ATOM     14  C   UNL A   1      31.761  27.929  25.408  1.00  0.00    -0.034 A 
ATOM     15  C   UNL A   1      31.803  29.071  26.234  1.00  0.00     0.006 A 
ATOM     16  C   UNL A   1      32.957  27.203  25.265  1.00  0.00     0.006 A 
ATOM     17  C   UNL A   1      32.982  29.487  26.862  1.00  0.00     0.016 A 
ATOM     18  C   UNL A   1      34.143  27.618  25.893  1.00  0.00     0.016 A 
ATOM     19  C   UNL A   1      34.147  28.753  26.696  1.00  0.00     0.017 A 
ATOM     20  Br  UNL A   1      35.709  29.279  27.619  1.00  0.00    -0.051 Br
ENDBRANCH   8  14
ENDBRANCH   6   8
ENDBRANCH   5   6
ENDBRANCH   4   5
ENDBRANCH   3   4
ENDBRANCH   2   3
ENDBRANCH   1   2
BRANCH   1  21
ATOM     21  C   UNL A   1      34.029  21.523  24.375  1.00  0.00     0.188 C 
BRANCH  21  22
ATOM     22  O   UNL A   1      35.256  20.923  24.766  1.00  0.00    -0.376 OA
BRANCH  22  23
ATOM     23  C   UNL A   1      36.426  21.737  24.655  1.00  0.00     0.202 C 
BRANCH  23  24
ATOM     24  C   UNL A   1      37.772  21.046  24.955  1.00  0.00     0.261 C 
BRANCH  24  25
ATOM     25  O   UNL A   1      38.306  21.252  26.280  1.00  0.00    -0.460 OA
BRANCH  25  26
ATOM     26  C   UNL A   1      39.648  21.179  26.445  1.00  0.00     0.338 C 
ATOM     27  O   UNL A   1      40.375  20.284  26.047  1.00  0.00    -0.246 OA
BRANCH  26  28
ATOM     28  C   UNL A   1      40.136  22.492  26.953  1.00  0.00     0.060 A 
ATOM     29  C   UNL A   1      39.558  23.660  26.433  1.00  0.00     0.016 A 
ATOM     30  C   UNL A   1      41.084  22.587  27.977  1.00  0.00     0.016 A 
ATOM     31  C   UNL A   1      39.960  24.917  26.895  1.00  0.00     0.010 A 
ATOM     32  C   UNL A   1      41.495  23.847  28.433  1.00  0.00     0.010 A 
ATOM     33  C   UNL A   1      40.963  25.020  27.868  1.00  0.00    -0.014 A 
BRANCH  33  34
ATOM     34  C   UNL A   1      41.606  26.332  28.141  1.00  0.00     0.031 A 
ATOM     35  C   UNL A   1      40.785  27.399  28.816  1.00  0.00     0.074 A 
ATOM     36  C   UNL A   1      42.881  26.593  27.796  1.00  0.00     0.049 A 
ATOM     37  N   UNL A   1      41.111  28.624  29.134  1.00  0.00    -0.248 NA
ATOM     38  C   UNL A   1      39.403  27.032  29.171  1.00  0.00     0.031 C 
ATOM     39  C   UNL A   1      43.787  25.661  27.132  1.00  0.00     0.029 A 
ATOM     40  N   UNL A   1      43.627  27.737  27.951  1.00  0.00    -0.354 N 
ATOM     41  C   UNL A   1      39.968  29.187  29.689  1.00  0.00     0.074 A 
ATOM     42  C   UNL A   1      38.939  28.172  29.661  1.00  0.00     0.031 C 
ATOM     43  C   UNL A   1      44.971  26.269  26.938  1.00  0.00     0.029 A 
ATOM     44  C   UNL A   1      44.901  27.642  27.441  1.00  0.00     0.049 A 
ATOM     45  H   UNL A   1      43.282  28.550  28.388  1.00  0.00     0.167 HD
ATOM     46  C   UNL A   1      39.787  30.432  30.187  1.00  0.00     0.034 A 
ATOM     47  C   UNL A   1      45.891  28.558  27.379  1.00  0.00     0.034 A 
ATOM     48  C   UNL A   1      40.804  31.446  30.232  1.00  0.00     0.049 A 
ATOM     49  C   UNL A   1      45.661  29.944  27.936  1.00  0.00     0.074 A 
ATOM     50  C   UNL A   1      40.717  32.729  30.743  1.00  0.00     0.029 A 
ATOM     51  N   UNL A   1      42.092  31.299  29.739  1.00  0.00    -0.354 N 
ATOM     52  N   UNL A   1      44.609  30.428  28.553  1.00  0.00    -0.248 NA
ATOM     53  C   UNL A   1      46.766  30.909  27.800  1.00  0.00     0.031 C 
ATOM     54  C   UNL A   1      41.943  33.367  30.534  1.00  0.00     0.029 A 
ATOM     55  C   UNL A   1      42.805  32.471  29.923  1.00  0.00     0.049 A 
ATOM     56  H   UNL A   1      42.445  30.481  29.319  1.00  0.00     0.167 HD
ATOM     57  C   UNL A   1      44.935  31.736  28.902  1.00  0.00     0.074 A 
ATOM     58  C   UNL A   1      46.292  31.963  28.452  1.00  0.00     0.031 C 
ATOM     59  C   UNL A   1      44.173  32.672  29.522  1.00  0.00     0.034 A 
BRANCH  46  60
ATOM     60  C   UNL A   1      38.425  30.765  30.736  1.00  0.00     0.023 A 
ATOM     61  C   UNL A   1      38.064  30.320  32.024  1.00  0.00     0.012 A 
ATOM     62  C   UNL A   1      37.519  31.547  29.993  1.00  0.00     0.148 A 
ATOM     63  C   UNL A   1      36.807  30.618  32.550  1.00  0.00     0.002 A 
ATOM     64  C   UNL A   1      36.287  31.878  30.543  1.00  0.00     0.091 A 
ATOM     65  F   UNL A   1      37.872  31.938  28.761  1.00  0.00    -0.205 F 
ATOM     66  C   UNL A   1      35.924  31.404  31.814  1.00  0.00     0.022 A 
BRANCH  64  67
ATOM     67  S   UNL A   1      35.112  32.947  29.706  1.00  0.00     0.127 S 
ATOM     68  O   UNL A   1      35.995  33.954  29.121  1.00  0.00    -0.237 OA
ATOM     69  O   UNL A   1      34.501  32.035  28.738  1.00  0.00    -0.237 OA
ATOM     70  O   UNL A   1      34.206  33.433  30.737  1.00  0.00    -0.744 OA
ENDBRANCH  64  67
ENDBRANCH  46  60
BRANCH  47  71
ATOM     71  C   UNL A   1      47.217  28.197  26.797  1.00  0.00     0.023 A 
ATOM     72  C   UNL A   1      48.329  28.037  27.649  1.00  0.00     0.012 A 
ATOM     73  C   UNL A   1      47.389  28.023  25.411  1.00  0.00     0.148 A 
ATOM     74  C   UNL A   1      49.590  27.743  27.130  1.00  0.00     0.002 A 
ATOM     75  C   UNL A   1      48.635  27.669  24.905  1.00  0.00     0.091 A 
ATOM     76  F   UNL A   1      46.328  28.204  24.612  1.00  0.00    -0.205 F 
ATOM     77  C   UNL A   1      49.741  27.548  25.760  1.00  0.00     0.022 A 
BRANCH  75  78
ATOM     78  S   UNL A   1      48.892  27.271  23.173  1.00  0.00     0.127 S 
ATOM     79  O   UNL A   1      50.347  27.149  23.106  1.00  0.00    -0.237 OA
ATOM     80  O   UNL A   1      48.162  26.009  23.042  1.00  0.00    -0.237 OA
ATOM     81  O   UNL A   1      48.314  28.379  22.425  1.00  0.00    -0.744 OA
ENDBRANCH  75  78
ENDBRANCH  47  71
BRANCH  59  82
ATOM     82  C   UNL A   1      44.786  34.025  29.789  1.00  0.00     0.023 A 
ATOM     83  C   UNL A   1      44.652  35.057  28.839  1.00  0.00     0.012 A 
ATOM     84  C   UNL A   1      45.415  34.301  31.021  1.00  0.00     0.148 A 
ATOM     85  C   UNL A   1      45.161  36.330  29.095  1.00  0.00     0.002 A 
ATOM     86  C   UNL A   1      45.877  35.585  31.289  1.00  0.00     0.091 A 
ATOM     87  F   UNL A   1      45.546  33.305  31.908  1.00  0.00    -0.205 F 
ATOM     88  C   UNL A   1      45.763  36.597  30.323  1.00  0.00     0.022 A 
BRANCH  86  89
ATOM     89  S   UNL A   1      46.577  36.046  32.879  1.00  0.00     0.127 S 
ATOM     90  O   UNL A   1      45.774  37.216  33.230  1.00  0.00    -0.237 OA
ATOM     91  O   UNL A   1      46.311  34.859  33.691  1.00  0.00    -0.237 OA
ATOM     92  O   UNL A   1      47.989  36.308  32.636  1.00  0.00    -0.744 OA
ENDBRANCH  86  89
ENDBRANCH  59  82
ENDBRANCH  33  34
ENDBRANCH  26  28
ENDBRANCH  25  26
ENDBRANCH  24  25
ENDBRANCH  23  24
ENDBRANCH  22  23
ENDBRANCH  21  22
ENDBRANCH   1  21
TORSDOF 24
ENDMDL
