MODEL 1
REMARK VINA RESULT:     -10.6      0.000      0.000
REMARK SMILES Cc1ccc(/C=C/C(=O)NC[C@H]2CC[C@@H](C(=O)OCCOCCOCCOC(=O)c3ccc(-c4c5nc(c(-c6cccc(S(=O)(=O)[O-])c6F)c6ccc([nH]6)c(-c6cccc(S(=O)(=O)[O-])c6F)c6nc(c(-c7cccc(S(=O)(=O)[O-])c7F)c7ccc4[nH]7)C=C6)C=C5)cc3)CC2)s1
REMARK SMILES IDX 22 1 21 2 20 3 19 4 18 5 16 6 17 7 15 8 12 9 13 10 94 11
REMARK SMILES IDX 14 12 93 13 11 14 10 15 8 16 9 17 7 19 6 20 5 21 1 22 2 23
REMARK SMILES IDX 3 24 95 25 4 26 23 27 24 28 25 29 26 30 27 31 28 32 29 33
REMARK SMILES IDX 30 34 31 35 92 36 32 37 91 38 33 39 34 40 35 41 85 42 36 43
REMARK SMILES IDX 90 44 84 45 86 46 37 47 89 48 83 49 82 50 38 52 70 53 50 54
REMARK SMILES IDX 69 55 51 56 54 57 68 58 87 59 52 60 53 61 67 63 88 64 55 65
REMARK SMILES IDX 39 66 40 67 48 68 41 69 43 70 49 71 42 72 44 73 45 74 46 75
REMARK SMILES IDX 47 76 71 77 72 78 80 79 73 80 75 81 81 82 74 83 76 84 77 85
REMARK SMILES IDX 78 86 79 87 56 88 57 89 65 90 58 91 60 92 66 93 59 94 61 95
REMARK SMILES IDX 62 96 63 97 64 98
REMARK H PARENT 10 18 86 51 54 62
REMARK Flexibility Score: inf
ROOT
ATOM      1  C   UNL A   1      33.480  27.497  22.420  1.00  0.00     0.188 C 
ENDROOT
BRANCH   1   2
ATOM      2  O   UNL A   1      32.524  26.859  21.590  1.00  0.00    -0.376 OA
BRANCH   2   3
ATOM      3  C   UNL A   1      32.210  25.509  21.912  1.00  0.00     0.202 C 
BRANCH   3   4
ATOM      4  C   UNL A   1      31.139  25.279  22.987  1.00  0.00     0.261 C 
BRANCH   4   5
ATOM      5  O   UNL A   1      31.058  26.264  24.049  1.00  0.00    -0.463 OA
BRANCH   5   6
ATOM      6  C   UNL A   1      30.328  25.886  25.134  1.00  0.00     0.309 C 
ATOM      7  O   UNL A   1      29.108  26.007  25.210  1.00  0.00    -0.252 OA
BRANCH   6   8
ATOM      8  C   UNL A   1      31.128  25.344  26.321  1.00  0.00     0.099 C 
ATOM      9  C   UNL A   1      33.901  24.594  25.461  1.00  0.00     0.008 C 
ATOM     10  C   UNL A   1      33.416  26.054  25.521  1.00  0.00     0.006 C 
ATOM     11  C   UNL A   1      32.730  23.601  25.349  1.00  0.00     0.006 C 
ATOM     12  C   UNL A   1      32.319  26.274  26.560  1.00  0.00     0.015 C 
ATOM     13  C   UNL A   1      31.619  23.899  26.348  1.00  0.00     0.015 C 
BRANCH   9  14
ATOM     14  C   UNL A   1      34.964  24.449  24.348  1.00  0.00     0.119 C 
BRANCH  14  15
ATOM     15  N   UNL A   1      36.182  23.798  24.788  1.00  0.00    -0.352 N 
ATOM     16  C   UNL A   1      36.465  22.512  25.122  1.00  0.00     0.244 C 
ATOM     17  O   UNL A   1      37.635  22.218  25.370  1.00  0.00    -0.270 OA
ATOM     18  H   UNL A   1      36.954  24.405  24.857  1.00  0.00     0.163 HD
BRANCH  16  19
ATOM     19  C   UNL A   1      35.453  21.424  25.132  1.00  0.00     0.072 C 
ATOM     20  C   UNL A   1      35.664  20.122  24.901  1.00  0.00     0.024 C 
BRANCH  20  21
ATOM     21  C   UNL A   1      34.635  19.135  24.887  1.00  0.00     0.027 A 
ATOM     22  C   UNL A   1      32.916  15.592  24.895  1.00  0.00     0.056 C 
ATOM     23  C   UNL A   1      33.324  17.025  24.941  1.00  0.00     0.002 A 
ATOM     24  C   UNL A   1      32.566  18.113  25.307  1.00  0.00     0.016 A 
ATOM     25  S   UNL A   1      34.916  17.479  24.516  1.00  0.00    -0.141 S 
ATOM     26  C   UNL A   1      33.311  19.324  25.251  1.00  0.00     0.020 A 
ENDBRANCH  20  21
ENDBRANCH  16  19
ENDBRANCH  14  15
ENDBRANCH   9  14
ENDBRANCH   6   8
ENDBRANCH   5   6
ENDBRANCH   4   5
ENDBRANCH   3   4
ENDBRANCH   2   3
ENDBRANCH   1   2
BRANCH   1  27
ATOM     27  C   UNL A   1      33.216  28.963  22.774  1.00  0.00     0.188 C 
BRANCH  27  28
ATOM     28  O   UNL A   1      32.346  29.217  23.862  1.00  0.00    -0.376 OA
BRANCH  28  29
ATOM     29  C   UNL A   1      32.980  29.616  25.080  1.00  0.00     0.202 C 
BRANCH  29  30
ATOM     30  C   UNL A   1      32.105  30.472  26.028  1.00  0.00     0.261 C 
BRANCH  30  31
ATOM     31  O   UNL A   1      32.632  30.708  27.355  1.00  0.00    -0.460 OA
BRANCH  31  32
ATOM     32  C   UNL A   1      33.440  31.785  27.520  1.00  0.00     0.338 C 
ATOM     33  O   UNL A   1      33.074  32.946  27.615  1.00  0.00    -0.246 OA
BRANCH  32  34
ATOM     34  C   UNL A   1      34.813  31.314  27.879  1.00  0.00     0.060 A 
ATOM     35  C   UNL A   1      35.049  29.928  27.890  1.00  0.00     0.016 A 
ATOM     36  C   UNL A   1      35.873  32.194  28.117  1.00  0.00     0.016 A 
ATOM     37  C   UNL A   1      36.311  29.423  28.224  1.00  0.00     0.010 A 
ATOM     38  C   UNL A   1      37.135  31.686  28.463  1.00  0.00     0.010 A 
ATOM     39  C   UNL A   1      37.346  30.298  28.575  1.00  0.00    -0.014 A 
BRANCH  39  40
ATOM     40  C   UNL A   1      38.531  29.774  29.312  1.00  0.00     0.031 A 
ATOM     41  C   UNL A   1      38.696  30.188  30.755  1.00  0.00     0.074 A 
ATOM     42  C   UNL A   1      39.430  28.940  28.757  1.00  0.00     0.049 A 
ATOM     43  N   UNL A   1      39.629  29.870  31.614  1.00  0.00    -0.248 NA
ATOM     44  C   UNL A   1      37.664  31.088  31.300  1.00  0.00     0.031 C 
ATOM     45  C   UNL A   1      39.398  28.444  27.385  1.00  0.00     0.029 A 
ATOM     46  N   UNL A   1      40.567  28.377  29.291  1.00  0.00    -0.354 N 
ATOM     47  C   UNL A   1      39.318  30.557  32.783  1.00  0.00     0.074 A 
ATOM     48  C   UNL A   1      38.118  31.319  32.521  1.00  0.00     0.031 C 
ATOM     49  C   UNL A   1      40.476  27.666  27.176  1.00  0.00     0.029 A 
ATOM     50  C   UNL A   1      41.288  27.624  28.393  1.00  0.00     0.049 A 
ATOM     51  H   UNL A   1      40.840  28.502  30.229  1.00  0.00     0.167 HD
ATOM     52  C   UNL A   1      39.959  30.549  33.975  1.00  0.00     0.034 A 
ATOM     53  C   UNL A   1      42.471  26.987  28.534  1.00  0.00     0.034 A 
ATOM     54  C   UNL A   1      41.139  29.780  34.256  1.00  0.00     0.049 A 
ATOM     55  C   UNL A   1      43.181  27.014  29.868  1.00  0.00     0.074 A 
ATOM     56  C   UNL A   1      41.827  29.668  35.450  1.00  0.00     0.029 A 
ATOM     57  N   UNL A   1      41.820  29.009  33.328  1.00  0.00    -0.354 N 
ATOM     58  N   UNL A   1      42.807  27.567  30.996  1.00  0.00    -0.248 NA
ATOM     59  C   UNL A   1      44.463  26.295  29.954  1.00  0.00     0.031 C 
ATOM     60  C   UNL A   1      42.947  28.858  35.236  1.00  0.00     0.029 A 
ATOM     61  C   UNL A   1      42.929  28.429  33.919  1.00  0.00     0.049 A 
ATOM     62  H   UNL A   1      41.554  28.890  32.388  1.00  0.00     0.167 HD
ATOM     63  C   UNL A   1      43.779  27.223  31.933  1.00  0.00     0.074 A 
ATOM     64  C   UNL A   1      44.750  26.402  31.245  1.00  0.00     0.031 C 
ATOM     65  C   UNL A   1      43.862  27.564  33.244  1.00  0.00     0.034 A 
BRANCH  52  66
ATOM     66  C   UNL A   1      39.386  31.402  35.077  1.00  0.00     0.023 A 
ATOM     67  C   UNL A   1      38.442  30.857  35.972  1.00  0.00     0.012 A 
ATOM     68  C   UNL A   1      39.817  32.731  35.252  1.00  0.00     0.148 A 
ATOM     69  C   UNL A   1      37.907  31.633  36.998  1.00  0.00     0.002 A 
ATOM     70  C   UNL A   1      39.317  33.483  36.308  1.00  0.00     0.091 A 
ATOM     71  F   UNL A   1      40.695  33.239  34.376  1.00  0.00    -0.205 F 
ATOM     72  C   UNL A   1      38.352  32.941  37.173  1.00  0.00     0.022 A 
BRANCH  70  73
ATOM     73  S   UNL A   1      39.890  35.146  36.666  1.00  0.00     0.127 S 
ATOM     74  O   UNL A   1      41.341  34.959  36.691  1.00  0.00    -0.237 OA
ATOM     75  O   UNL A   1      39.392  35.897  35.514  1.00  0.00    -0.237 OA
ATOM     76  O   UNL A   1      39.286  35.514  37.940  1.00  0.00    -0.744 OA
ENDBRANCH  70  73
ENDBRANCH  52  66
BRANCH  53  77
ATOM     77  C   UNL A   1      43.060  26.228  27.390  1.00  0.00     0.023 A 
ATOM     78  C   UNL A   1      43.993  26.859  26.543  1.00  0.00     0.012 A 
ATOM     79  C   UNL A   1      42.687  24.896  27.126  1.00  0.00     0.148 A 
ATOM     80  C   UNL A   1      44.516  26.192  25.435  1.00  0.00     0.002 A 
ATOM     81  C   UNL A   1      43.254  24.218  26.052  1.00  0.00     0.091 A 
ATOM     82  F   UNL A   1      41.782  24.319  27.928  1.00  0.00    -0.205 F 
ATOM     83  C   UNL A   1      44.154  24.870  25.195  1.00  0.00     0.022 A 
BRANCH  81  84
ATOM     84  S   UNL A   1      42.936  22.480  25.728  1.00  0.00     0.127 S 
ATOM     85  O   UNL A   1      43.590  22.291  24.437  1.00  0.00    -0.237 OA
ATOM     86  O   UNL A   1      43.607  21.839  26.859  1.00  0.00    -0.237 OA
ATOM     87  O   UNL A   1      41.486  22.337  25.728  1.00  0.00    -0.744 OA
ENDBRANCH  81  84
ENDBRANCH  53  77
BRANCH  65  88
ATOM     88  C   UNL A   1      45.008  27.006  34.051  1.00  0.00     0.023 A 
ATOM     89  C   UNL A   1      46.264  27.644  34.038  1.00  0.00     0.012 A 
ATOM     90  C   UNL A   1      44.816  25.882  34.881  1.00  0.00     0.148 A 
ATOM     91  C   UNL A   1      47.320  27.149  34.804  1.00  0.00     0.002 A 
ATOM     92  C   UNL A   1      45.857  25.427  35.683  1.00  0.00     0.091 A 
ATOM     93  F   UNL A   1      43.620  25.277  34.871  1.00  0.00    -0.205 F 
ATOM     94  C   UNL A   1      47.114  26.049  35.634  1.00  0.00     0.022 A 
BRANCH  92  95
ATOM     95  S   UNL A   1      45.650  24.082  36.856  1.00  0.00     0.127 S 
ATOM     96  O   UNL A   1      45.375  22.953  35.970  1.00  0.00    -0.237 OA
ATOM     97  O   UNL A   1      46.957  24.038  37.512  1.00  0.00    -0.237 OA
ATOM     98  O   UNL A   1      44.551  24.476  37.728  1.00  0.00    -0.744 OA
ENDBRANCH  92  95
ENDBRANCH  65  88
ENDBRANCH  39  40
ENDBRANCH  32  34
ENDBRANCH  31  32
ENDBRANCH  30  31
ENDBRANCH  29  30
ENDBRANCH  28  29
ENDBRANCH  27  28
ENDBRANCH   1  27
TORSDOF 24
ENDMDL
MODEL 2
REMARK VINA RESULT:     -10.6      5.100      8.492
REMARK SMILES Cc1ccc(/C=C/C(=O)NC[C@H]2CC[C@@H](C(=O)OCCOCCOCCOC(=O)c3ccc(-c4c5nc(c(-c6cccc(S(=O)(=O)[O-])c6F)c6ccc([nH]6)c(-c6cccc(S(=O)(=O)[O-])c6F)c6nc(c(-c7cccc(S(=O)(=O)[O-])c7F)c7ccc4[nH]7)C=C6)C=C5)cc3)CC2)s1
REMARK SMILES IDX 22 1 21 2 20 3 19 4 18 5 16 6 17 7 15 8 12 9 13 10 94 11
REMARK SMILES IDX 14 12 93 13 11 14 10 15 8 16 9 17 7 19 6 20 5 21 1 22 2 23
REMARK SMILES IDX 3 24 95 25 4 26 23 27 24 28 25 29 26 30 27 31 28 32 29 33
REMARK SMILES IDX 30 34 31 35 92 36 32 37 91 38 33 39 34 40 35 41 85 42 36 43
REMARK SMILES IDX 90 44 84 45 86 46 37 47 89 48 83 49 82 50 38 52 70 53 50 54
REMARK SMILES IDX 69 55 51 56 54 57 68 58 87 59 52 60 53 61 67 63 88 64 55 65
REMARK SMILES IDX 39 66 40 67 48 68 41 69 43 70 49 71 42 72 44 73 45 74 46 75
REMARK SMILES IDX 47 76 71 77 72 78 80 79 73 80 75 81 81 82 74 83 76 84 77 85
REMARK SMILES IDX 78 86 79 87 56 88 57 89 65 90 58 91 60 92 66 93 59 94 61 95
REMARK SMILES IDX 62 96 63 97 64 98
REMARK H PARENT 10 18 86 51 54 62
REMARK Flexibility Score: inf
ROOT
ATOM      1  C   UNL A   1      36.072  22.683  23.672  1.00  0.00     0.188 C 
ENDROOT
BRANCH   1   2
ATOM      2  O   UNL A   1      35.343  23.734  24.283  1.00  0.00    -0.376 OA
BRANCH   2   3
ATOM      3  C   UNL A   1      35.710  24.064  25.618  1.00  0.00     0.202 C 
BRANCH   3   4
ATOM      4  C   UNL A   1      34.937  23.368  26.747  1.00  0.00     0.261 C 
BRANCH   4   5
ATOM      5  O   UNL A   1      33.523  23.133  26.521  1.00  0.00    -0.463 OA
BRANCH   5   6
ATOM      6  C   UNL A   1      33.152  21.824  26.489  1.00  0.00     0.309 C 
ATOM      7  O   UNL A   1      33.837  20.911  26.942  1.00  0.00    -0.252 OA
BRANCH   6   8
ATOM      8  C   UNL A   1      31.828  21.522  25.785  1.00  0.00     0.099 C 
ATOM      9  C   UNL A   1      31.476  23.308  23.402  1.00  0.00     0.008 C 
ATOM     10  C   UNL A   1      32.538  22.195  23.457  1.00  0.00     0.006 C 
ATOM     11  C   UNL A   1      31.028  23.748  24.809  1.00  0.00     0.006 C 
ATOM     12  C   UNL A   1      32.140  21.036  24.368  1.00  0.00     0.015 C 
ATOM     13  C   UNL A   1      30.714  22.564  25.715  1.00  0.00     0.015 C 
BRANCH   9  14
ATOM     14  C   UNL A   1      31.984  24.463  22.510  1.00  0.00     0.119 C 
BRANCH  14  15
ATOM     15  N   UNL A   1      33.018  25.267  23.131  1.00  0.00    -0.352 N 
ATOM     16  C   UNL A   1      33.019  26.524  23.644  1.00  0.00     0.244 C 
ATOM     17  O   UNL A   1      34.037  26.924  24.209  1.00  0.00    -0.270 OA
ATOM     18  H   UNL A   1      33.890  24.813  23.193  1.00  0.00     0.163 HD
BRANCH  16  19
ATOM     19  C   UNL A   1      31.832  27.418  23.628  1.00  0.00     0.072 C 
ATOM     20  C   UNL A   1      30.952  27.576  22.631  1.00  0.00     0.024 C 
BRANCH  20  21
ATOM     21  C   UNL A   1      29.853  28.484  22.669  1.00  0.00     0.027 A 
ATOM     22  C   UNL A   1      27.597  31.591  21.799  1.00  0.00     0.056 C 
ATOM     23  C   UNL A   1      28.238  30.326  22.256  1.00  0.00     0.002 A 
ATOM     24  C   UNL A   1      27.649  29.255  22.889  1.00  0.00     0.016 A 
ATOM     25  S   UNL A   1      29.908  30.067  22.002  1.00  0.00    -0.141 S 
ATOM     26  C   UNL A   1      28.580  28.212  23.147  1.00  0.00     0.020 A 
ENDBRANCH  20  21
ENDBRANCH  16  19
ENDBRANCH  14  15
ENDBRANCH   9  14
ENDBRANCH   6   8
ENDBRANCH   5   6
ENDBRANCH   4   5
ENDBRANCH   3   4
ENDBRANCH   2   3
ENDBRANCH   1   2
BRANCH   1  27
ATOM     27  C   UNL A   1      37.181  22.038  24.508  1.00  0.00     0.188 C 
BRANCH  27  28
ATOM     28  O   UNL A   1      36.871  20.820  25.160  1.00  0.00    -0.376 OA
BRANCH  28  29
ATOM     29  C   UNL A   1      37.615  19.679  24.725  1.00  0.00     0.202 C 
BRANCH  29  30
ATOM     30  C   UNL A   1      38.833  19.311  25.608  1.00  0.00     0.261 C 
BRANCH  30  31
ATOM     31  O   UNL A   1      39.895  20.291  25.683  1.00  0.00    -0.460 OA
BRANCH  31  32
ATOM     32  C   UNL A   1      40.686  20.266  26.785  1.00  0.00     0.338 C 
ATOM     33  O   UNL A   1      41.283  19.291  27.215  1.00  0.00    -0.246 OA
BRANCH  32  34
ATOM     34  C   UNL A   1      40.969  21.670  27.215  1.00  0.00     0.060 A 
ATOM     35  C   UNL A   1      40.469  22.713  26.416  1.00  0.00     0.016 A 
ATOM     36  C   UNL A   1      41.630  21.973  28.408  1.00  0.00     0.016 A 
ATOM     37  C   UNL A   1      40.704  24.049  26.760  1.00  0.00     0.010 A 
ATOM     38  C   UNL A   1      41.877  23.313  28.746  1.00  0.00     0.010 A 
ATOM     39  C   UNL A   1      41.465  24.358  27.895  1.00  0.00    -0.014 A 
BRANCH  39  40
ATOM     40  C   UNL A   1      42.056  25.719  28.033  1.00  0.00     0.031 A 
ATOM     41  C   UNL A   1      41.217  26.781  28.703  1.00  0.00     0.074 A 
ATOM     42  C   UNL A   1      43.297  26.026  27.612  1.00  0.00     0.049 A 
ATOM     43  N   UNL A   1      41.497  28.034  28.950  1.00  0.00    -0.248 NA
ATOM     44  C   UNL A   1      39.877  26.368  29.154  1.00  0.00     0.031 C 
ATOM     45  C   UNL A   1      44.228  25.107  26.961  1.00  0.00     0.029 A 
ATOM     46  N   UNL A   1      43.982  27.219  27.658  1.00  0.00    -0.354 N 
ATOM     47  C   UNL A   1      40.359  28.566  29.548  1.00  0.00     0.074 A 
ATOM     48  C   UNL A   1      39.381  27.504  29.615  1.00  0.00     0.031 C 
ATOM     49  C   UNL A   1      45.354  25.775  26.649  1.00  0.00     0.029 A 
ATOM     50  C   UNL A   1      45.220  27.173  27.059  1.00  0.00     0.049 A 
ATOM     51  H   UNL A   1      43.619  28.031  28.081  1.00  0.00     0.167 HD
ATOM     52  C   UNL A   1      40.145  29.818  30.014  1.00  0.00     0.034 A 
ATOM     53  C   UNL A   1      46.131  28.149  26.855  1.00  0.00     0.034 A 
ATOM     54  C   UNL A   1      41.115  30.876  29.973  1.00  0.00     0.049 A 
ATOM     55  C   UNL A   1      45.858  29.546  27.362  1.00  0.00     0.074 A 
ATOM     56  C   UNL A   1      41.006  32.162  30.470  1.00  0.00     0.029 A 
ATOM     57  N   UNL A   1      42.366  30.779  29.385  1.00  0.00    -0.354 N 
ATOM     58  N   UNL A   1      44.828  29.998  28.035  1.00  0.00    -0.248 NA
ATOM     59  C   UNL A   1      46.895  30.560  27.110  1.00  0.00     0.031 C 
ATOM     60  C   UNL A   1      42.177  32.856  30.149  1.00  0.00     0.029 A 
ATOM     61  C   UNL A   1      43.033  31.987  29.493  1.00  0.00     0.049 A 
ATOM     62  H   UNL A   1      42.727  29.971  28.954  1.00  0.00     0.167 HD
ATOM     63  C   UNL A   1      45.114  31.330  28.327  1.00  0.00     0.074 A 
ATOM     64  C   UNL A   1      46.420  31.608  27.772  1.00  0.00     0.031 C 
ATOM     65  C   UNL A   1      44.358  32.242  28.990  1.00  0.00     0.034 A 
BRANCH  52  66
ATOM     66  C   UNL A   1      38.797  30.112  30.621  1.00  0.00     0.023 A 
ATOM     67  C   UNL A   1      38.514  29.704  31.941  1.00  0.00     0.012 A 
ATOM     68  C   UNL A   1      37.827  30.831  29.896  1.00  0.00     0.148 A 
ATOM     69  C   UNL A   1      37.273  29.973  32.515  1.00  0.00     0.002 A 
ATOM     70  C   UNL A   1      36.611  31.139  30.493  1.00  0.00     0.091 A 
ATOM     71  F   UNL A   1      38.106  31.188  28.634  1.00  0.00    -0.205 F 
ATOM     72  C   UNL A   1      36.327  30.700  31.796  1.00  0.00     0.022 A 
BRANCH  70  73
ATOM     73  S   UNL A   1      35.363  32.142  29.681  1.00  0.00     0.127 S 
ATOM     74  O   UNL A   1      36.168  33.240  29.147  1.00  0.00    -0.237 OA
ATOM     75  O   UNL A   1      34.840  31.222  28.670  1.00  0.00    -0.237 OA
ATOM     76  O   UNL A   1      34.409  32.513  30.717  1.00  0.00    -0.744 OA
ENDBRANCH  70  73
ENDBRANCH  52  66
BRANCH  53  77
ATOM     77  C   UNL A   1      47.420  27.845  26.164  1.00  0.00     0.023 A 
ATOM     78  C   UNL A   1      48.565  27.542  26.929  1.00  0.00     0.012 A 
ATOM     79  C   UNL A   1      47.523  27.874  24.760  1.00  0.00     0.148 A 
ATOM     80  C   UNL A   1      49.795  27.310  26.313  1.00  0.00     0.002 A 
ATOM     81  C   UNL A   1      48.740  27.587  24.149  1.00  0.00     0.091 A 
ATOM     82  F   UNL A   1      46.431  28.185  24.049  1.00  0.00    -0.205 F 
ATOM     83  C   UNL A   1      49.880  27.322  24.924  1.00  0.00     0.022 A 
BRANCH  81  84
ATOM     84  S   UNL A   1      48.922  27.468  22.366  1.00  0.00     0.127 S 
ATOM     85  O   UNL A   1      50.343  27.753  22.191  1.00  0.00    -0.237 OA
ATOM     86  O   UNL A   1      48.537  26.078  22.119  1.00  0.00    -0.237 OA
ATOM     87  O   UNL A   1      48.007  28.456  21.809  1.00  0.00    -0.744 OA
ENDBRANCH  81  84
ENDBRANCH  53  77
BRANCH  65  88
ATOM     88  C   UNL A   1      44.939  33.617  29.212  1.00  0.00     0.023 A 
ATOM     89  C   UNL A   1      45.579  33.930  30.427  1.00  0.00     0.012 A 
ATOM     90  C   UNL A   1      44.913  34.578  28.180  1.00  0.00     0.148 A 
ATOM     91  C   UNL A   1      46.144  35.190  30.628  1.00  0.00     0.002 A 
ATOM     92  C   UNL A   1      45.525  35.812  28.367  1.00  0.00     0.091 A 
ATOM     93  F   UNL A   1      44.288  34.270  27.034  1.00  0.00    -0.205 F 
ATOM     94  C   UNL A   1      46.127  36.126  29.596  1.00  0.00     0.022 A 
BRANCH  92  95
ATOM     95  S   UNL A   1      45.641  37.038  27.058  1.00  0.00     0.127 S 
ATOM     96  O   UNL A   1      44.255  37.488  26.948  1.00  0.00    -0.237 OA
ATOM     97  O   UNL A   1      46.558  38.021  27.633  1.00  0.00    -0.237 OA
ATOM     98  O   UNL A   1      46.164  36.333  25.895  1.00  0.00    -0.744 OA
ENDBRANCH  92  95
ENDBRANCH  65  88
ENDBRANCH  39  40
ENDBRANCH  32  34
ENDBRANCH  31  32
ENDBRANCH  30  31
ENDBRANCH  29  30
ENDBRANCH  28  29
ENDBRANCH  27  28
ENDBRANCH   1  27
TORSDOF 24
ENDMDL
MODEL 3
REMARK VINA RESULT:     -10.5      4.838     10.270
REMARK SMILES Cc1ccc(/C=C/C(=O)NC[C@H]2CC[C@@H](C(=O)OCCOCCOCCOC(=O)c3ccc(-c4c5nc(c(-c6cccc(S(=O)(=O)[O-])c6F)c6ccc([nH]6)c(-c6cccc(S(=O)(=O)[O-])c6F)c6nc(c(-c7cccc(S(=O)(=O)[O-])c7F)c7ccc4[nH]7)C=C6)C=C5)cc3)CC2)s1
REMARK SMILES IDX 22 1 21 2 20 3 19 4 18 5 16 6 17 7 15 8 12 9 13 10 94 11
REMARK SMILES IDX 14 12 93 13 11 14 10 15 8 16 9 17 7 19 6 20 5 21 1 22 2 23
REMARK SMILES IDX 3 24 95 25 4 26 23 27 24 28 25 29 26 30 27 31 28 32 29 33
REMARK SMILES IDX 30 34 31 35 92 36 32 37 91 38 33 39 34 40 35 41 85 42 36 43
REMARK SMILES IDX 90 44 84 45 86 46 37 47 89 48 83 49 82 50 38 52 70 53 50 54
REMARK SMILES IDX 69 55 51 56 54 57 68 58 87 59 52 60 53 61 67 63 88 64 55 65
REMARK SMILES IDX 39 66 40 67 48 68 41 69 43 70 49 71 42 72 44 73 45 74 46 75
REMARK SMILES IDX 47 76 71 77 72 78 80 79 73 80 75 81 81 82 74 83 76 84 77 85
REMARK SMILES IDX 78 86 79 87 56 88 57 89 65 90 58 91 60 92 66 93 59 94 61 95
REMARK SMILES IDX 62 96 63 97 64 98
REMARK H PARENT 10 18 86 51 54 62
REMARK Flexibility Score: inf
ROOT
ATOM      1  C   UNL A   1      36.570  22.555  23.509  1.00  0.00     0.188 C 
ENDROOT
BRANCH   1   2
ATOM      2  O   UNL A   1      35.825  23.693  23.912  1.00  0.00    -0.376 OA
BRANCH   2   3
ATOM      3  C   UNL A   1      36.047  24.153  25.240  1.00  0.00     0.202 C 
BRANCH   3   4
ATOM      4  C   UNL A   1      34.980  23.804  26.287  1.00  0.00     0.261 C 
BRANCH   4   5
ATOM      5  O   UNL A   1      33.720  23.286  25.788  1.00  0.00    -0.463 OA
BRANCH   5   6
ATOM      6  C   UNL A   1      33.487  21.973  26.058  1.00  0.00     0.309 C 
ATOM      7  O   UNL A   1      34.326  21.216  26.540  1.00  0.00    -0.252 OA
BRANCH   6   8
ATOM      8  C   UNL A   1      32.106  21.444  25.664  1.00  0.00     0.099 C 
ATOM      9  C   UNL A   1      30.805  23.286  23.686  1.00  0.00     0.008 C 
ATOM     10  C   UNL A   1      32.035  22.427  23.339  1.00  0.00     0.006 C 
ATOM     11  C   UNL A   1      30.670  23.512  25.203  1.00  0.00     0.006 C 
ATOM     12  C   UNL A   1      32.119  21.145  24.164  1.00  0.00     0.015 C 
ATOM     13  C   UNL A   1      30.837  22.224  26.000  1.00  0.00     0.015 C 
BRANCH   9  14
ATOM     14  C   UNL A   1      30.830  24.587  22.852  1.00  0.00     0.119 C 
BRANCH  14  15
ATOM     15  N   UNL A   1      32.108  24.846  22.218  1.00  0.00    -0.352 N 
ATOM     16  C   UNL A   1      33.032  25.828  22.386  1.00  0.00     0.244 C 
ATOM     17  O   UNL A   1      34.093  25.742  21.767  1.00  0.00    -0.270 OA
ATOM     18  H   UNL A   1      32.354  24.182  21.534  1.00  0.00     0.163 HD
BRANCH  16  19
ATOM     19  C   UNL A   1      32.864  26.960  23.333  1.00  0.00     0.072 C 
ATOM     20  C   UNL A   1      32.852  26.901  24.670  1.00  0.00     0.024 C 
BRANCH  20  21
ATOM     21  C   UNL A   1      32.646  28.027  25.520  1.00  0.00     0.027 A 
ATOM     22  C   UNL A   1      31.541  31.622  26.687  1.00  0.00     0.056 C 
ATOM     23  C   UNL A   1      31.990  30.213  26.503  1.00  0.00     0.002 A 
ATOM     24  C   UNL A   1      32.204  29.256  27.468  1.00  0.00     0.016 A 
ATOM     25  S   UNL A   1      32.294  29.605  24.934  1.00  0.00    -0.141 S 
ATOM     26  C   UNL A   1      32.604  28.013  26.906  1.00  0.00     0.020 A 
ENDBRANCH  20  21
ENDBRANCH  16  19
ENDBRANCH  14  15
ENDBRANCH   9  14
ENDBRANCH   6   8
ENDBRANCH   5   6
ENDBRANCH   4   5
ENDBRANCH   3   4
ENDBRANCH   2   3
ENDBRANCH   1   2
BRANCH   1  27
ATOM     27  C   UNL A   1      37.403  21.860  24.589  1.00  0.00     0.188 C 
BRANCH  27  28
ATOM     28  O   UNL A   1      36.974  20.577  25.009  1.00  0.00    -0.376 OA
BRANCH  28  29
ATOM     29  C   UNL A   1      37.855  19.496  24.692  1.00  0.00     0.202 C 
BRANCH  29  30
ATOM     30  C   UNL A   1      39.030  19.294  25.680  1.00  0.00     0.261 C 
BRANCH  30  31
ATOM     31  O   UNL A   1      40.072  20.298  25.657  1.00  0.00    -0.460 OA
BRANCH  31  32
ATOM     32  C   UNL A   1      40.940  20.316  26.700  1.00  0.00     0.338 C 
ATOM     33  O   UNL A   1      41.684  19.405  27.027  1.00  0.00    -0.246 OA
BRANCH  32  34
ATOM     34  C   UNL A   1      41.076  21.719  27.197  1.00  0.00     0.060 A 
ATOM     35  C   UNL A   1      40.357  22.725  26.527  1.00  0.00     0.016 A 
ATOM     36  C   UNL A   1      41.815  22.046  28.338  1.00  0.00     0.016 A 
ATOM     37  C   UNL A   1      40.447  24.059  26.939  1.00  0.00     0.010 A 
ATOM     38  C   UNL A   1      41.914  23.386  28.743  1.00  0.00     0.010 A 
ATOM     39  C   UNL A   1      41.277  24.408  28.012  1.00  0.00    -0.014 A 
BRANCH  39  40
ATOM     40  C   UNL A   1      41.691  25.829  28.187  1.00  0.00     0.031 A 
ATOM     41  C   UNL A   1      43.031  26.241  27.627  1.00  0.00     0.074 A 
ATOM     42  C   UNL A   1      40.918  26.749  28.794  1.00  0.00     0.049 A 
ATOM     43  N   UNL A   1      43.620  27.408  27.641  1.00  0.00    -0.248 NA
ATOM     44  C   UNL A   1      43.814  25.185  26.961  1.00  0.00     0.031 C 
ATOM     45  C   UNL A   1      39.598  26.506  29.371  1.00  0.00     0.029 A 
ATOM     46  N   UNL A   1      41.150  28.083  29.039  1.00  0.00    -0.354 N 
ATOM     47  C   UNL A   1      44.851  27.220  27.023  1.00  0.00     0.074 A 
ATOM     48  C   UNL A   1      44.932  25.823  26.657  1.00  0.00     0.031 C 
ATOM     49  C   UNL A   1      39.146  27.648  29.922  1.00  0.00     0.029 A 
ATOM     50  C   UNL A   1      40.150  28.699  29.756  1.00  0.00     0.049 A 
ATOM     51  H   UNL A   1      41.958  28.554  28.730  1.00  0.00     0.167 HD
ATOM     52  C   UNL A   1      45.826  28.123  26.766  1.00  0.00     0.034 A 
ATOM     53  C   UNL A   1      40.063  29.960  30.233  1.00  0.00     0.034 A 
ATOM     54  C   UNL A   1      45.750  29.516  27.105  1.00  0.00     0.049 A 
ATOM     55  C   UNL A   1      41.177  30.944  29.956  1.00  0.00     0.074 A 
ATOM     56  C   UNL A   1      46.666  30.517  26.836  1.00  0.00     0.029 A 
ATOM     57  N   UNL A   1      44.708  30.105  27.803  1.00  0.00    -0.354 N 
ATOM     58  N   UNL A   1      42.276  30.778  29.262  1.00  0.00    -0.248 NA
ATOM     59  C   UNL A   1      41.015  32.302  30.500  1.00  0.00     0.031 C 
ATOM     60  C   UNL A   1      46.196  31.705  27.406  1.00  0.00     0.029 A 
ATOM     61  C   UNL A   1      44.965  31.452  27.989  1.00  0.00     0.049 A 
ATOM     62  H   UNL A   1      43.904  29.634  28.121  1.00  0.00     0.167 HD
ATOM     63  C   UNL A   1      42.911  32.018  29.246  1.00  0.00     0.074 A 
ATOM     64  C   UNL A   1      42.066  32.929  29.987  1.00  0.00     0.031 C 
ATOM     65  C   UNL A   1      44.092  32.368  28.676  1.00  0.00     0.034 A 
BRANCH  52  66
ATOM     66  C   UNL A   1      47.069  27.626  26.074  1.00  0.00     0.023 A 
ATOM     67  C   UNL A   1      48.036  26.899  26.798  1.00  0.00     0.012 A 
ATOM     68  C   UNL A   1      47.255  27.842  24.695  1.00  0.00     0.148 A 
ATOM     69  C   UNL A   1      49.189  26.430  26.169  1.00  0.00     0.002 A 
ATOM     70  C   UNL A   1      48.381  27.328  24.064  1.00  0.00     0.091 A 
ATOM     71  F   UNL A   1      46.337  28.556  24.029  1.00  0.00    -0.205 F 
ATOM     72  C   UNL A   1      49.355  26.634  24.802  1.00  0.00     0.022 A 
BRANCH  70  73
ATOM     73  S   UNL A   1      48.644  27.465  22.294  1.00  0.00     0.127 S 
ATOM     74  O   UNL A   1      49.917  28.184  22.239  1.00  0.00    -0.237 OA
ATOM     75  O   UNL A   1      48.719  26.062  21.885  1.00  0.00    -0.237 OA
ATOM     76  O   UNL A   1      47.495  28.190  21.771  1.00  0.00    -0.744 OA
ENDBRANCH  70  73
ENDBRANCH  52  66
BRANCH  53  77
ATOM     77  C   UNL A   1      38.857  30.395  30.999  1.00  0.00     0.023 A 
ATOM     78  C   UNL A   1      38.778  30.128  32.381  1.00  0.00     0.012 A 
ATOM     79  C   UNL A   1      37.783  31.049  30.366  1.00  0.00     0.148 A 
ATOM     80  C   UNL A   1      37.639  30.472  33.110  1.00  0.00     0.002 A 
ATOM     81  C   UNL A   1      36.675  31.440  31.109  1.00  0.00     0.091 A 
ATOM     82  F   UNL A   1      37.866  31.275  29.047  1.00  0.00    -0.205 F 
ATOM     83  C   UNL A   1      36.593  31.136  32.477  1.00  0.00     0.022 A 
BRANCH  81  84
ATOM     84  S   UNL A   1      35.327  32.398  30.406  1.00  0.00     0.127 S 
ATOM     85  O   UNL A   1      36.012  33.622  29.999  1.00  0.00    -0.237 OA
ATOM     86  O   UNL A   1      34.894  31.539  29.304  1.00  0.00    -0.237 OA
ATOM     87  O   UNL A   1      34.349  32.547  31.475  1.00  0.00    -0.744 OA
ENDBRANCH  81  84
ENDBRANCH  53  77
BRANCH  65  88
ATOM     88  C   UNL A   1      44.525  33.810  28.770  1.00  0.00     0.023 A 
ATOM     89  C   UNL A   1      44.077  34.750  27.821  1.00  0.00     0.012 A 
ATOM     90  C   UNL A   1      45.322  34.248  29.848  1.00  0.00     0.148 A 
ATOM     91  C   UNL A   1      44.450  36.091  27.918  1.00  0.00     0.002 A 
ATOM     92  C   UNL A   1      45.645  35.594  29.970  1.00  0.00     0.091 A 
ATOM     93  F   UNL A   1      45.751  33.339  30.736  1.00  0.00    -0.205 F 
ATOM     94  C   UNL A   1      45.223  36.515  28.997  1.00  0.00     0.022 A 
BRANCH  92  95
ATOM     95  S   UNL A   1      46.549  36.245  31.380  1.00  0.00     0.127 S 
ATOM     96  O   UNL A   1      46.338  37.683  31.232  1.00  0.00    -0.237 OA
ATOM     97  O   UNL A   1      45.844  35.638  32.509  1.00  0.00    -0.237 OA
ATOM     98  O   UNL A   1      47.925  35.794  31.216  1.00  0.00    -0.744 OA
ENDBRANCH  92  95
ENDBRANCH  65  88
ENDBRANCH  39  40
ENDBRANCH  32  34
ENDBRANCH  31  32
ENDBRANCH  30  31
ENDBRANCH  29  30
ENDBRANCH  28  29
ENDBRANCH  27  28
ENDBRANCH   1  27
TORSDOF 24
ENDMDL
