MODEL 1
REMARK VINA RESULT:      -8.8      0.000      0.000
REMARK SMILES CCC[NH+]1CCC([NH2+]CC(C)(C)C(=O)OCCOCCOCCOC(=O)c2ccc(-c3c4nc(c(-c5cccc(S(=O)(=O)[O-])c5F)c5ccc([nH]5)c(-c5cccc(S(=O)(=O)[O-])c5F)c5nc(c(-c6cccc(S(=O)(=O)[O-])c6F)c6ccc3[nH]6)C=C5)C=C4)cc2)CC1
REMARK SMILES IDX 19 1 18 2 17 3 16 4 15 5 13 6 14 7 10 8 11 9 12 10 9 11 8 12
REMARK SMILES IDX 7 15 4 16 5 17 91 18 6 20 90 21 3 22 2 23 1 24 20 25 21 26
REMARK SMILES IDX 22 27 23 28 24 29 25 30 26 31 27 32 28 33 89 34 29 35 88 36
REMARK SMILES IDX 30 37 31 38 32 39 82 40 33 41 87 42 81 43 83 44 34 45 86 46
REMARK SMILES IDX 80 47 79 48 35 50 67 51 47 52 66 53 48 54 51 55 65 56 84 57
REMARK SMILES IDX 49 58 50 59 64 61 85 62 52 63 36 64 37 65 45 66 38 67 40 68
REMARK SMILES IDX 46 69 39 70 41 71 42 72 43 73 44 74 68 75 69 76 77 77 70 78
REMARK SMILES IDX 72 79 78 80 71 81 73 82 74 83 75 84 76 85 53 86 54 87 62 88
REMARK SMILES IDX 55 89 57 90 63 91 56 92 58 93 59 94 60 95 61 96
REMARK H PARENT 8 13 8 14 4 19 83 49 51 60
REMARK Flexibility Score: inf
ROOT
ATOM      1  C   UNL A   1      34.681  31.821  28.429  1.00  0.00     0.188 C 
ENDROOT
BRANCH   1   2
ATOM      2  O   UNL A   1      35.384  30.790  27.748  1.00  0.00    -0.376 OA
BRANCH   2   3
ATOM      3  C   UNL A   1      34.667  29.598  27.486  1.00  0.00     0.202 C 
BRANCH   3   4
ATOM      4  C   UNL A   1      33.429  29.695  26.566  1.00  0.00     0.261 C 
BRANCH   4   5
ATOM      5  O   UNL A   1      33.227  28.908  25.346  1.00  0.00    -0.463 OA
BRANCH   5   6
ATOM      6  C   UNL A   1      32.475  27.789  25.297  1.00  0.00     0.317 C 
ATOM      7  O   UNL A   1      32.623  26.867  26.078  1.00  0.00    -0.251 OA
BRANCH   6   8
ATOM      8  C   UNL A   1      31.374  27.766  24.232  1.00  0.00     0.111 C 
ATOM      9  C   UNL A   1      30.704  29.126  23.995  1.00  0.00     0.029 C 
ATOM     10  C   UNL A   1      30.289  26.812  24.792  1.00  0.00     0.029 C 
BRANCH   8  11
ATOM     11  C   UNL A   1      31.950  27.153  22.884  1.00  0.00     0.279 C 
BRANCH  11  12
ATOM     12  N   UNL A   1      31.720  25.742  22.439  1.00  0.00    -0.343 N 
ATOM     13  H   UNL A   1      30.724  25.541  22.515  1.00  0.00     0.346 HD
ATOM     14  H   UNL A   1      32.067  25.679  21.481  1.00  0.00     0.346 HD
BRANCH  12  15
ATOM     15  C   UNL A   1      32.456  24.730  23.219  1.00  0.00     0.193 C 
ATOM     16  N   UNL A   1      34.768  22.975  23.882  1.00  0.00    -0.335 N 
ATOM     17  C   UNL A   1      33.406  22.375  23.714  1.00  0.00     0.268 C 
ATOM     18  C   UNL A   1      34.563  24.332  24.339  1.00  0.00     0.268 C 
ATOM     19  H   UNL A   1      35.257  22.918  22.988  1.00  0.00     0.348 HD
ATOM     20  C   UNL A   1      32.443  23.235  22.799  1.00  0.00     0.126 C 
ATOM     21  C   UNL A   1      33.931  25.097  23.215  1.00  0.00     0.126 C 
BRANCH  16  22
ATOM     22  C   UNL A   1      35.619  22.266  24.853  1.00  0.00     0.261 C 
BRANCH  22  23
ATOM     23  C   UNL A   1      36.990  21.819  24.271  1.00  0.00     0.058 C 
ATOM     24  C   UNL A   1      37.711  20.636  24.922  1.00  0.00     0.010 C 
ENDBRANCH  22  23
ENDBRANCH  16  22
ENDBRANCH  12  15
ENDBRANCH  11  12
ENDBRANCH   8  11
ENDBRANCH   6   8
ENDBRANCH   5   6
ENDBRANCH   4   5
ENDBRANCH   3   4
ENDBRANCH   2   3
ENDBRANCH   1   2
BRANCH   1  25
ATOM     25  C   UNL A   1      35.630  32.905  28.966  1.00  0.00     0.188 C 
BRANCH  25  26
ATOM     26  O   UNL A   1      35.330  34.269  28.693  1.00  0.00    -0.376 OA
BRANCH  26  27
ATOM     27  C   UNL A   1      34.022  34.553  28.236  1.00  0.00     0.202 C 
BRANCH  27  28
ATOM     28  C   UNL A   1      33.149  35.488  29.092  1.00  0.00     0.261 C 
BRANCH  28  29
ATOM     29  O   UNL A   1      32.675  34.964  30.352  1.00  0.00    -0.460 OA
BRANCH  29  30
ATOM     30  C   UNL A   1      32.971  35.683  31.464  1.00  0.00     0.338 C 
ATOM     31  O   UNL A   1      32.362  36.664  31.874  1.00  0.00    -0.246 OA
BRANCH  30  32
ATOM     32  C   UNL A   1      34.028  35.000  32.263  1.00  0.00     0.060 A 
ATOM     33  C   UNL A   1      35.349  35.485  32.207  1.00  0.00     0.016 A 
ATOM     34  C   UNL A   1      33.748  33.858  33.011  1.00  0.00     0.016 A 
ATOM     35  C   UNL A   1      36.388  34.823  32.866  1.00  0.00     0.010 A 
ATOM     36  C   UNL A   1      34.799  33.170  33.637  1.00  0.00     0.010 A 
ATOM     37  C   UNL A   1      36.130  33.625  33.540  1.00  0.00    -0.014 A 
BRANCH  37  38
ATOM     38  C   UNL A   1      37.247  32.726  33.941  1.00  0.00     0.031 A 
ATOM     39  C   UNL A   1      37.996  33.050  35.208  1.00  0.00     0.074 A 
ATOM     40  C   UNL A   1      37.627  31.671  33.197  1.00  0.00     0.049 A 
ATOM     41  N   UNL A   1      39.098  32.531  35.683  1.00  0.00    -0.248 NA
ATOM     42  C   UNL A   1      37.423  34.115  36.050  1.00  0.00     0.031 C 
ATOM     43  C   UNL A   1      36.970  31.209  31.978  1.00  0.00     0.029 A 
ATOM     44  N   UNL A   1      38.700  30.821  33.346  1.00  0.00    -0.354 N 
ATOM     45  C   UNL A   1      39.380  33.239  36.844  1.00  0.00     0.074 A 
ATOM     46  C   UNL A   1      38.331  34.221  37.008  1.00  0.00     0.031 C 
ATOM     47  C   UNL A   1      37.683  30.194  31.458  1.00  0.00     0.029 A 
ATOM     48  C   UNL A   1      38.867  29.959  32.286  1.00  0.00     0.049 A 
ATOM     49  H   UNL A   1      39.290  30.828  34.134  1.00  0.00     0.167 HD
ATOM     50  C   UNL A   1      40.418  33.088  37.702  1.00  0.00     0.034 A 
ATOM     51  C   UNL A   1      39.878  29.114  31.994  1.00  0.00     0.034 A 
ATOM     52  C   UNL A   1      41.452  32.101  37.555  1.00  0.00     0.049 A 
ATOM     53  C   UNL A   1      41.050  28.995  32.939  1.00  0.00     0.074 A 
ATOM     54  C   UNL A   1      42.518  31.841  38.400  1.00  0.00     0.029 A 
ATOM     55  N   UNL A   1      41.560  31.220  36.491  1.00  0.00    -0.354 N 
ATOM     56  N   UNL A   1      41.261  29.608  34.079  1.00  0.00    -0.248 NA
ATOM     57  C   UNL A   1      42.113  28.045  32.569  1.00  0.00     0.031 C 
ATOM     58  C   UNL A   1      43.296  30.833  37.824  1.00  0.00     0.029 A 
ATOM     59  C   UNL A   1      42.687  30.429  36.647  1.00  0.00     0.049 A 
ATOM     60  H   UNL A   1      40.931  31.164  35.737  1.00  0.00     0.167 HD
ATOM     61  C   UNL A   1      42.453  29.089  34.580  1.00  0.00     0.074 A 
ATOM     62  C   UNL A   1      42.913  28.102  33.626  1.00  0.00     0.031 C 
ATOM     63  C   UNL A   1      43.109  29.408  35.723  1.00  0.00     0.034 A 
BRANCH  50  64
ATOM     64  C   UNL A   1      40.491  34.020  38.884  1.00  0.00     0.023 A 
ATOM     65  C   UNL A   1      41.324  35.157  38.837  1.00  0.00     0.012 A 
ATOM     66  C   UNL A   1      39.688  33.799  40.021  1.00  0.00     0.148 A 
ATOM     67  C   UNL A   1      41.384  36.037  39.916  1.00  0.00     0.002 A 
ATOM     68  C   UNL A   1      39.716  34.707  41.072  1.00  0.00     0.091 A 
ATOM     69  F   UNL A   1      38.917  32.703  40.055  1.00  0.00    -0.205 F 
ATOM     70  C   UNL A   1      40.572  35.820  41.026  1.00  0.00     0.022 A 
BRANCH  68  71
ATOM     71  S   UNL A   1      38.649  34.561  42.508  1.00  0.00     0.127 S 
ATOM     72  O   UNL A   1      37.372  34.204  41.892  1.00  0.00    -0.237 OA
ATOM     73  O   UNL A   1      39.290  33.479  43.256  1.00  0.00    -0.237 OA
ATOM     74  O   UNL A   1      38.680  35.858  43.169  1.00  0.00    -0.744 OA
ENDBRANCH  68  71
ENDBRANCH  50  64
BRANCH  51  75
ATOM     75  C   UNL A   1      39.836  28.302  30.743  1.00  0.00     0.023 A 
ATOM     76  C   UNL A   1      39.079  27.114  30.708  1.00  0.00     0.012 A 
ATOM     77  C   UNL A   1      40.546  28.694  29.592  1.00  0.00     0.148 A 
ATOM     78  C   UNL A   1      39.056  26.317  29.563  1.00  0.00     0.002 A 
ATOM     79  C   UNL A   1      40.473  27.927  28.435  1.00  0.00     0.091 A 
ATOM     80  F   UNL A   1      41.279  29.816  29.650  1.00  0.00    -0.205 F 
ATOM     81  C   UNL A   1      39.744  26.727  28.424  1.00  0.00     0.022 A 
BRANCH  79  82
ATOM     82  S   UNL A   1      41.224  28.437  26.885  1.00  0.00     0.127 S 
ATOM     83  O   UNL A   1      40.128  29.161  26.245  1.00  0.00    -0.237 OA
ATOM     84  O   UNL A   1      42.329  29.274  27.350  1.00  0.00    -0.237 OA
ATOM     85  O   UNL A   1      41.636  27.206  26.222  1.00  0.00    -0.744 OA
ENDBRANCH  79  82
ENDBRANCH  51  75
BRANCH  63  86
ATOM     86  C   UNL A   1      44.370  28.650  36.058  1.00  0.00     0.023 A 
ATOM     87  C   UNL A   1      45.623  29.131  35.632  1.00  0.00     0.012 A 
ATOM     88  C   UNL A   1      44.315  27.505  36.880  1.00  0.00     0.148 A 
ATOM     89  C   UNL A   1      46.798  28.471  35.994  1.00  0.00     0.002 A 
ATOM     90  C   UNL A   1      45.492  26.883  37.280  1.00  0.00     0.091 A 
ATOM     91  F   UNL A   1      43.113  27.053  37.266  1.00  0.00    -0.205 F 
ATOM     92  C   UNL A   1      46.733  27.357  36.827  1.00  0.00     0.022 A 
BRANCH  90  93
ATOM     93  S   UNL A   1      45.515  25.503  38.432  1.00  0.00     0.127 S 
ATOM     94  O   UNL A   1      45.170  24.381  37.560  1.00  0.00    -0.237 OA
ATOM     95  O   UNL A   1      46.902  25.511  38.895  1.00  0.00    -0.237 OA
ATOM     96  O   UNL A   1      44.530  25.817  39.458  1.00  0.00    -0.744 OA
ENDBRANCH  90  93
ENDBRANCH  63  86
ENDBRANCH  37  38
ENDBRANCH  30  32
ENDBRANCH  29  30
ENDBRANCH  28  29
ENDBRANCH  27  28
ENDBRANCH  26  27
ENDBRANCH  25  26
ENDBRANCH   1  25
TORSDOF 25
ENDMDL
MODEL 2
REMARK VINA RESULT:      -8.3      6.086     11.239
REMARK SMILES CCC[NH+]1CCC([NH2+]CC(C)(C)C(=O)OCCOCCOCCOC(=O)c2ccc(-c3c4nc(c(-c5cccc(S(=O)(=O)[O-])c5F)c5ccc([nH]5)c(-c5cccc(S(=O)(=O)[O-])c5F)c5nc(c(-c6cccc(S(=O)(=O)[O-])c6F)c6ccc3[nH]6)C=C5)C=C4)cc2)CC1
REMARK SMILES IDX 19 1 18 2 17 3 16 4 15 5 13 6 14 7 10 8 11 9 12 10 9 11 8 12
REMARK SMILES IDX 7 15 4 16 5 17 91 18 6 20 90 21 3 22 2 23 1 24 20 25 21 26
REMARK SMILES IDX 22 27 23 28 24 29 25 30 26 31 27 32 28 33 89 34 29 35 88 36
REMARK SMILES IDX 30 37 31 38 32 39 82 40 33 41 87 42 81 43 83 44 34 45 86 46
REMARK SMILES IDX 80 47 79 48 35 50 67 51 47 52 66 53 48 54 51 55 65 56 84 57
REMARK SMILES IDX 49 58 50 59 64 61 85 62 52 63 36 64 37 65 45 66 38 67 40 68
REMARK SMILES IDX 46 69 39 70 41 71 42 72 43 73 44 74 68 75 69 76 77 77 70 78
REMARK SMILES IDX 72 79 78 80 71 81 73 82 74 83 75 84 76 85 53 86 54 87 62 88
REMARK SMILES IDX 55 89 57 90 63 91 56 92 58 93 59 94 60 95 61 96
REMARK H PARENT 8 13 8 14 4 19 83 49 51 60
REMARK Flexibility Score: inf
ROOT
ATOM      1  C   UNL A   1      38.044  23.050  25.813  1.00  0.00     0.188 C 
ENDROOT
BRANCH   1   2
ATOM      2  O   UNL A   1      37.134  23.653  24.903  1.00  0.00    -0.376 OA
BRANCH   2   3
ATOM      3  C   UNL A   1      36.032  22.864  24.491  1.00  0.00     0.202 C 
BRANCH   3   4
ATOM      4  C   UNL A   1      34.706  23.026  25.268  1.00  0.00     0.261 C 
BRANCH   4   5
ATOM      5  O   UNL A   1      33.500  23.672  24.743  1.00  0.00    -0.463 OA
BRANCH   5   6
ATOM      6  C   UNL A   1      33.507  24.534  23.704  1.00  0.00     0.317 C 
ATOM      7  O   UNL A   1      34.321  25.434  23.607  1.00  0.00    -0.251 OA
BRANCH   6   8
ATOM      8  C   UNL A   1      32.463  24.279  22.612  1.00  0.00     0.111 C 
ATOM      9  C   UNL A   1      31.016  24.253  23.124  1.00  0.00     0.029 C 
ATOM     10  C   UNL A   1      32.783  22.864  22.069  1.00  0.00     0.029 C 
BRANCH   8  11
ATOM     11  C   UNL A   1      32.652  25.334  21.440  1.00  0.00     0.279 C 
BRANCH  11  12
ATOM     12  N   UNL A   1      31.981  26.672  21.400  1.00  0.00    -0.343 N 
ATOM     13  H   UNL A   1      32.403  27.219  20.650  1.00  0.00     0.346 HD
ATOM     14  H   UNL A   1      30.987  26.495  21.252  1.00  0.00     0.346 HD
BRANCH  12  15
ATOM     15  C   UNL A   1      32.088  27.445  22.651  1.00  0.00     0.193 C 
ATOM     16  N   UNL A   1      31.690  29.807  24.419  1.00  0.00    -0.335 N 
ATOM     17  C   UNL A   1      33.068  29.251  24.224  1.00  0.00     0.268 C 
ATOM     18  C   UNL A   1      30.775  28.701  24.247  1.00  0.00     0.268 C 
ATOM     19  H   UNL A   1      31.549  30.559  23.744  1.00  0.00     0.348 HD
ATOM     20  C   UNL A   1      33.245  28.459  22.865  1.00  0.00     0.126 C 
ATOM     21  C   UNL A   1      30.832  28.285  22.808  1.00  0.00     0.126 C 
BRANCH  16  22
ATOM     22  C   UNL A   1      31.470  30.410  25.745  1.00  0.00     0.261 C 
BRANCH  22  23
ATOM     23  C   UNL A   1      32.268  29.716  26.885  1.00  0.00     0.058 C 
ATOM     24  C   UNL A   1      31.613  28.553  27.633  1.00  0.00     0.010 C 
ENDBRANCH  22  23
ENDBRANCH  16  22
ENDBRANCH  12  15
ENDBRANCH  11  12
ENDBRANCH   8  11
ENDBRANCH   6   8
ENDBRANCH   5   6
ENDBRANCH   4   5
ENDBRANCH   3   4
ENDBRANCH   2   3
ENDBRANCH   1   2
BRANCH   1  25
ATOM     25  C   UNL A   1      37.997  21.515  25.739  1.00  0.00     0.188 C 
BRANCH  25  26
ATOM     26  O   UNL A   1      39.188  20.813  25.402  1.00  0.00    -0.376 OA
BRANCH  26  27
ATOM     27  C   UNL A   1      40.093  20.553  26.458  1.00  0.00     0.202 C 
BRANCH  27  28
ATOM     28  C   UNL A   1      41.265  19.593  26.181  1.00  0.00     0.261 C 
BRANCH  28  29
ATOM     29  O   UNL A   1      42.565  19.995  26.663  1.00  0.00    -0.460 OA
BRANCH  29  30
ATOM     30  C   UNL A   1      43.239  20.908  25.918  1.00  0.00     0.338 C 
ATOM     31  O   UNL A   1      43.850  20.683  24.879  1.00  0.00    -0.246 OA
BRANCH  30  32
ATOM     32  C   UNL A   1      42.973  22.288  26.412  1.00  0.00     0.060 A 
ATOM     33  C   UNL A   1      42.746  23.317  25.478  1.00  0.00     0.016 A 
ATOM     34  C   UNL A   1      43.007  22.591  27.772  1.00  0.00     0.016 A 
ATOM     35  C   UNL A   1      42.583  24.643  25.892  1.00  0.00     0.010 A 
ATOM     36  C   UNL A   1      42.885  23.927  28.183  1.00  0.00     0.010 A 
ATOM     37  C   UNL A   1      42.709  24.966  27.246  1.00  0.00    -0.014 A 
BRANCH  37  38
ATOM     38  C   UNL A   1      42.892  26.381  27.672  1.00  0.00     0.031 A 
ATOM     39  C   UNL A   1      44.291  26.943  27.678  1.00  0.00     0.074 A 
ATOM     40  C   UNL A   1      41.867  27.150  28.083  1.00  0.00     0.049 A 
ATOM     41  N   UNL A   1      44.734  28.076  28.157  1.00  0.00    -0.248 NA
ATOM     42  C   UNL A   1      45.334  26.102  27.063  1.00  0.00     0.031 C 
ATOM     43  C   UNL A   1      40.461  26.759  28.087  1.00  0.00     0.029 A 
ATOM     44  N   UNL A   1      41.869  28.416  28.623  1.00  0.00    -0.354 N 
ATOM     45  C   UNL A   1      46.108  28.061  27.954  1.00  0.00     0.074 A 
ATOM     46  C   UNL A   1      46.427  26.811  27.301  1.00  0.00     0.031 C 
ATOM     47  C   UNL A   1      39.738  27.743  28.654  1.00  0.00     0.029 A 
ATOM     48  C   UNL A   1      40.636  28.815  29.087  1.00  0.00     0.049 A 
ATOM     49  H   UNL A   1      42.673  28.982  28.671  1.00  0.00     0.167 HD
ATOM     50  C   UNL A   1      47.026  29.003  28.279  1.00  0.00     0.034 A 
ATOM     51  C   UNL A   1      40.280  29.894  29.816  1.00  0.00     0.034 A 
ATOM     52  C   UNL A   1      46.712  30.257  28.907  1.00  0.00     0.049 A 
ATOM     53  C   UNL A   1      41.327  30.909  30.209  1.00  0.00     0.074 A 
ATOM     54  C   UNL A   1      47.570  31.294  29.231  1.00  0.00     0.029 A 
ATOM     55  N   UNL A   1      45.447  30.639  29.322  1.00  0.00    -0.354 N 
ATOM     56  N   UNL A   1      42.609  30.926  29.934  1.00  0.00    -0.248 NA
ATOM     57  C   UNL A   1      40.872  32.070  30.993  1.00  0.00     0.031 C 
ATOM     58  C   UNL A   1      46.830  32.286  29.882  1.00  0.00     0.029 A 
ATOM     59  C   UNL A   1      45.504  31.888  29.917  1.00  0.00     0.049 A 
ATOM     60  H   UNL A   1      44.629  30.103  29.211  1.00  0.00     0.167 HD
ATOM     61  C   UNL A   1      43.102  32.114  30.471  1.00  0.00     0.074 A 
ATOM     62  C   UNL A   1      41.979  32.796  31.077  1.00  0.00     0.031 C 
ATOM     63  C   UNL A   1      44.372  32.590  30.468  1.00  0.00     0.034 A 
BRANCH  50  64
ATOM     64  C   UNL A   1      48.471  28.713  27.959  1.00  0.00     0.023 A 
ATOM     65  C   UNL A   1      49.030  29.164  26.746  1.00  0.00     0.012 A 
ATOM     66  C   UNL A   1      49.288  28.042  28.890  1.00  0.00     0.148 A 
ATOM     67  C   UNL A   1      50.370  28.919  26.449  1.00  0.00     0.002 A 
ATOM     68  C   UNL A   1      50.635  27.846  28.609  1.00  0.00     0.091 A 
ATOM     69  F   UNL A   1      48.734  27.605  30.030  1.00  0.00    -0.205 F 
ATOM     70  C   UNL A   1      51.174  28.272  27.384  1.00  0.00     0.022 A 
BRANCH  68  71
ATOM     71  S   UNL A   1      51.771  27.098  29.781  1.00  0.00     0.127 S 
ATOM     72  O   UNL A   1      51.795  28.098  30.847  1.00  0.00    -0.237 OA
ATOM     73  O   UNL A   1      51.081  25.855  30.125  1.00  0.00    -0.237 OA
ATOM     74  O   UNL A   1      53.028  26.919  29.067  1.00  0.00    -0.744 OA
ENDBRANCH  68  71
ENDBRANCH  50  64
BRANCH  51  75
ATOM     75  C   UNL A   1      38.859  30.082  30.231  1.00  0.00     0.023 A 
ATOM     76  C   UNL A   1      38.361  29.383  31.348  1.00  0.00     0.012 A 
ATOM     77  C   UNL A   1      37.998  30.942  29.522  1.00  0.00     0.148 A 
ATOM     78  C   UNL A   1      37.026  29.511  31.731  1.00  0.00     0.002 A 
ATOM     79  C   UNL A   1      36.685  31.111  29.943  1.00  0.00     0.091 A 
ATOM     80  F   UNL A   1      38.483  31.582  28.449  1.00  0.00    -0.205 F 
ATOM     81  C   UNL A   1      36.190  30.381  31.036  1.00  0.00     0.022 A 
BRANCH  79  82
ATOM     82  S   UNL A   1      35.570  32.300  29.187  1.00  0.00     0.127 S 
ATOM     83  O   UNL A   1      34.471  32.334  30.149  1.00  0.00    -0.237 OA
ATOM     84  O   UNL A   1      36.398  33.505  29.153  1.00  0.00    -0.237 OA
ATOM     85  O   UNL A   1      35.242  31.756  27.876  1.00  0.00    -0.744 OA
ENDBRANCH  79  82
ENDBRANCH  51  75
BRANCH  63  86
ATOM     86  C   UNL A   1      44.628  33.943  31.083  1.00  0.00     0.023 A 
ATOM     87  C   UNL A   1      45.083  34.045  32.412  1.00  0.00     0.012 A 
ATOM     88  C   UNL A   1      44.507  35.113  30.304  1.00  0.00     0.148 A 
ATOM     89  C   UNL A   1      45.385  35.290  32.966  1.00  0.00     0.002 A 
ATOM     90  C   UNL A   1      44.860  36.345  30.846  1.00  0.00     0.091 A 
ATOM     91  F   UNL A   1      44.061  34.999  29.046  1.00  0.00    -0.205 F 
ATOM     92  C   UNL A   1      45.286  36.436  32.180  1.00  0.00     0.022 A 
BRANCH  90  93
ATOM     93  S   UNL A   1      44.861  37.861  29.881  1.00  0.00     0.127 S 
ATOM     94  O   UNL A   1      45.310  38.842  30.869  1.00  0.00    -0.237 OA
ATOM     95  O   UNL A   1      45.838  37.560  28.834  1.00  0.00    -0.237 OA
ATOM     96  O   UNL A   1      43.497  38.039  29.405  1.00  0.00    -0.744 OA
ENDBRANCH  90  93
ENDBRANCH  63  86
ENDBRANCH  37  38
ENDBRANCH  30  32
ENDBRANCH  29  30
ENDBRANCH  28  29
ENDBRANCH  27  28
ENDBRANCH  26  27
ENDBRANCH  25  26
ENDBRANCH   1  25
TORSDOF 25
ENDMDL
MODEL 3
REMARK VINA RESULT:      -8.3      1.807      3.516
REMARK SMILES CCC[NH+]1CCC([NH2+]CC(C)(C)C(=O)OCCOCCOCCOC(=O)c2ccc(-c3c4nc(c(-c5cccc(S(=O)(=O)[O-])c5F)c5ccc([nH]5)c(-c5cccc(S(=O)(=O)[O-])c5F)c5nc(c(-c6cccc(S(=O)(=O)[O-])c6F)c6ccc3[nH]6)C=C5)C=C4)cc2)CC1
REMARK SMILES IDX 19 1 18 2 17 3 16 4 15 5 13 6 14 7 10 8 11 9 12 10 9 11 8 12
REMARK SMILES IDX 7 15 4 16 5 17 91 18 6 20 90 21 3 22 2 23 1 24 20 25 21 26
REMARK SMILES IDX 22 27 23 28 24 29 25 30 26 31 27 32 28 33 89 34 29 35 88 36
REMARK SMILES IDX 30 37 31 38 32 39 82 40 33 41 87 42 81 43 83 44 34 45 86 46
REMARK SMILES IDX 80 47 79 48 35 50 67 51 47 52 66 53 48 54 51 55 65 56 84 57
REMARK SMILES IDX 49 58 50 59 64 61 85 62 52 63 36 64 37 65 45 66 38 67 40 68
REMARK SMILES IDX 46 69 39 70 41 71 42 72 43 73 44 74 68 75 69 76 77 77 70 78
REMARK SMILES IDX 72 79 78 80 71 81 73 82 74 83 75 84 76 85 53 86 54 87 62 88
REMARK SMILES IDX 55 89 57 90 63 91 56 92 58 93 59 94 60 95 61 96
REMARK H PARENT 8 13 8 14 4 19 83 49 51 60
REMARK Flexibility Score: inf
ROOT
ATOM      1  C   UNL A   1      34.386  31.347  27.629  1.00  0.00     0.188 C 
ENDROOT
BRANCH   1   2
ATOM      2  O   UNL A   1      35.084  30.165  27.258  1.00  0.00    -0.376 OA
BRANCH   2   3
ATOM      3  C   UNL A   1      34.439  28.935  27.531  1.00  0.00     0.202 C 
BRANCH   3   4
ATOM      4  C   UNL A   1      33.497  28.364  26.447  1.00  0.00     0.261 C 
BRANCH   4   5
ATOM      5  O   UNL A   1      33.879  27.367  25.444  1.00  0.00    -0.463 OA
BRANCH   5   6
ATOM      6  C   UNL A   1      33.788  26.036  25.643  1.00  0.00     0.317 C 
ATOM      7  O   UNL A   1      34.755  25.347  25.915  1.00  0.00    -0.251 OA
BRANCH   6   8
ATOM      8  C   UNL A   1      32.379  25.440  25.570  1.00  0.00     0.111 C 
ATOM      9  C   UNL A   1      31.368  26.106  26.514  1.00  0.00     0.029 C 
ATOM     10  C   UNL A   1      32.535  23.970  26.028  1.00  0.00     0.029 C 
BRANCH   8  11
ATOM     11  C   UNL A   1      31.872  25.458  24.064  1.00  0.00     0.279 C 
BRANCH  11  12
ATOM     12  N   UNL A   1      31.955  26.652  23.165  1.00  0.00    -0.343 N 
ATOM     13  H   UNL A   1      32.903  27.023  23.214  1.00  0.00     0.346 HD
ATOM     14  H   UNL A   1      31.701  26.331  22.230  1.00  0.00     0.346 HD
BRANCH  12  15
ATOM     15  C   UNL A   1      31.017  27.737  23.505  1.00  0.00     0.193 C 
ATOM     16  N   UNL A   1      29.229  30.050  22.940  1.00  0.00    -0.335 N 
ATOM     17  C   UNL A   1      30.318  30.187  23.960  1.00  0.00     0.268 C 
ATOM     18  C   UNL A   1      28.854  28.653  22.929  1.00  0.00     0.268 C 
ATOM     19  H   UNL A   1      29.584  30.382  22.043  1.00  0.00     0.348 HD
ATOM     20  C   UNL A   1      31.524  29.187  23.737  1.00  0.00     0.126 C 
ATOM     21  C   UNL A   1      30.011  27.879  22.375  1.00  0.00     0.126 C 
BRANCH  16  22
ATOM     22  C   UNL A   1      28.035  30.864  23.227  1.00  0.00     0.261 C 
BRANCH  22  23
ATOM     23  C   UNL A   1      28.040  32.249  22.518  1.00  0.00     0.058 C 
ATOM     24  C   UNL A   1      28.875  33.379  23.125  1.00  0.00     0.010 C 
ENDBRANCH  22  23
ENDBRANCH  16  22
ENDBRANCH  12  15
ENDBRANCH  11  12
ENDBRANCH   8  11
ENDBRANCH   6   8
ENDBRANCH   5   6
ENDBRANCH   4   5
ENDBRANCH   3   4
ENDBRANCH   2   3
ENDBRANCH   1   2
BRANCH   1  25
ATOM     25  C   UNL A   1      35.199  32.210  28.609  1.00  0.00     0.188 C 
BRANCH  25  26
ATOM     26  O   UNL A   1      35.174  33.623  28.454  1.00  0.00    -0.376 OA
BRANCH  26  27
ATOM     27  C   UNL A   1      33.924  34.207  28.141  1.00  0.00     0.202 C 
BRANCH  27  28
ATOM     28  C   UNL A   1      33.388  35.304  29.080  1.00  0.00     0.261 C 
BRANCH  28  29
ATOM     29  O   UNL A   1      32.710  34.862  30.276  1.00  0.00    -0.460 OA
BRANCH  29  30
ATOM     30  C   UNL A   1      32.953  35.564  31.412  1.00  0.00     0.338 C 
ATOM     31  O   UNL A   1      32.300  36.516  31.827  1.00  0.00    -0.246 OA
BRANCH  30  32
ATOM     32  C   UNL A   1      34.009  34.897  32.224  1.00  0.00     0.060 A 
ATOM     33  C   UNL A   1      35.328  35.389  32.166  1.00  0.00     0.016 A 
ATOM     34  C   UNL A   1      33.733  33.764  32.986  1.00  0.00     0.016 A 
ATOM     35  C   UNL A   1      36.369  34.741  32.839  1.00  0.00     0.010 A 
ATOM     36  C   UNL A   1      34.785  33.090  33.626  1.00  0.00     0.010 A 
ATOM     37  C   UNL A   1      36.114  33.551  33.527  1.00  0.00    -0.014 A 
BRANCH  37  38
ATOM     38  C   UNL A   1      37.234  32.664  33.944  1.00  0.00     0.031 A 
ATOM     39  C   UNL A   1      37.977  33.008  35.210  1.00  0.00     0.074 A 
ATOM     40  C   UNL A   1      37.623  31.601  33.216  1.00  0.00     0.049 A 
ATOM     41  N   UNL A   1      39.079  32.501  35.696  1.00  0.00    -0.248 NA
ATOM     42  C   UNL A   1      37.394  34.081  36.036  1.00  0.00     0.031 C 
ATOM     43  C   UNL A   1      36.974  31.120  32.001  1.00  0.00     0.029 A 
ATOM     44  N   UNL A   1      38.700  30.759  33.381  1.00  0.00    -0.354 N 
ATOM     45  C   UNL A   1      39.353  33.227  36.849  1.00  0.00     0.074 A 
ATOM     46  C   UNL A   1      38.298  34.204  36.996  1.00  0.00     0.031 C 
ATOM     47  C   UNL A   1      37.694  30.101  31.497  1.00  0.00     0.029 A 
ATOM     48  C   UNL A   1      38.875  29.884  32.333  1.00  0.00     0.049 A 
ATOM     49  H   UNL A   1      39.286  30.780  34.171  1.00  0.00     0.167 HD
ATOM     50  C   UNL A   1      40.388  33.092  37.713  1.00  0.00     0.034 A 
ATOM     51  C   UNL A   1      39.893  29.040  32.056  1.00  0.00     0.034 A 
ATOM     52  C   UNL A   1      41.428  32.108  37.584  1.00  0.00     0.049 A 
ATOM     53  C   UNL A   1      41.061  28.940  33.007  1.00  0.00     0.074 A 
ATOM     54  C   UNL A   1      42.491  31.866  38.436  1.00  0.00     0.029 A 
ATOM     55  N   UNL A   1      41.545  31.214  36.532  1.00  0.00    -0.354 N 
ATOM     56  N   UNL A   1      41.264  29.569  34.140  1.00  0.00    -0.248 NA
ATOM     57  C   UNL A   1      42.131  27.991  32.654  1.00  0.00     0.031 C 
ATOM     58  C   UNL A   1      43.277  30.854  37.876  1.00  0.00     0.029 A 
ATOM     59  C   UNL A   1      42.675  30.432  36.702  1.00  0.00     0.049 A 
ATOM     60  H   UNL A   1      40.919  31.146  35.776  1.00  0.00     0.167 HD
ATOM     61  C   UNL A   1      42.457  29.063  34.653  1.00  0.00     0.074 A 
ATOM     62  C   UNL A   1      42.926  28.067  33.713  1.00  0.00     0.031 C 
ATOM     63  C   UNL A   1      43.106  29.401  35.794  1.00  0.00     0.034 A 
BRANCH  50  64
ATOM     64  C   UNL A   1      40.452  34.040  38.883  1.00  0.00     0.023 A 
ATOM     65  C   UNL A   1      39.684  33.788  40.038  1.00  0.00     0.012 A 
ATOM     66  C   UNL A   1      41.317  35.152  38.857  1.00  0.00     0.148 A 
ATOM     67  C   UNL A   1      39.750  34.647  41.135  1.00  0.00     0.002 A 
ATOM     68  C   UNL A   1      41.415  35.975  39.973  1.00  0.00     0.091 A 
ATOM     69  F   UNL A   1      42.025  35.386  37.743  1.00  0.00    -0.205 F 
ATOM     70  C   UNL A   1      40.624  35.731  41.107  1.00  0.00     0.022 A 
BRANCH  68  71
ATOM     71  S   UNL A   1      42.570  37.347  40.066  1.00  0.00     0.127 S 
ATOM     72  O   UNL A   1      42.184  37.971  41.331  1.00  0.00    -0.237 OA
ATOM     73  O   UNL A   1      43.861  36.660  40.094  1.00  0.00    -0.237 OA
ATOM     74  O   UNL A   1      42.335  38.154  38.877  1.00  0.00    -0.744 OA
ENDBRANCH  68  71
ENDBRANCH  50  64
BRANCH  51  75
ATOM     75  C   UNL A   1      39.860  28.211  30.816  1.00  0.00     0.023 A 
ATOM     76  C   UNL A   1      38.913  27.176  30.695  1.00  0.00     0.012 A 
ATOM     77  C   UNL A   1      40.764  28.439  29.760  1.00  0.00     0.148 A 
ATOM     78  C   UNL A   1      38.888  26.361  29.562  1.00  0.00     0.002 A 
ATOM     79  C   UNL A   1      40.697  27.663  28.609  1.00  0.00     0.091 A 
ATOM     80  F   UNL A   1      41.673  29.415  29.902  1.00  0.00    -0.205 F 
ATOM     81  C   UNL A   1      39.773  26.610  28.516  1.00  0.00     0.022 A 
BRANCH  79  82
ATOM     82  S   UNL A   1      41.712  27.986  27.162  1.00  0.00     0.127 S 
ATOM     83  O   UNL A   1      40.793  27.663  26.074  1.00  0.00    -0.237 OA
ATOM     84  O   UNL A   1      42.009  29.409  27.318  1.00  0.00    -0.237 OA
ATOM     85  O   UNL A   1      42.870  27.110  27.288  1.00  0.00    -0.744 OA
ENDBRANCH  79  82
ENDBRANCH  51  75
BRANCH  63  86
ATOM     86  C   UNL A   1      44.370  28.654  36.143  1.00  0.00     0.023 A 
ATOM     87  C   UNL A   1      45.625  29.152  35.740  1.00  0.00     0.012 A 
ATOM     88  C   UNL A   1      44.315  27.503  36.957  1.00  0.00     0.148 A 
ATOM     89  C   UNL A   1      46.800  28.502  36.116  1.00  0.00     0.002 A 
ATOM     90  C   UNL A   1      45.492  26.891  37.372  1.00  0.00     0.091 A 
ATOM     91  F   UNL A   1      43.112  27.036  37.321  1.00  0.00    -0.205 F 
ATOM     92  C   UNL A   1      46.735  27.381  36.942  1.00  0.00     0.022 A 
BRANCH  90  93
ATOM     93  S   UNL A   1      45.512  25.504  38.515  1.00  0.00     0.127 S 
ATOM     94  O   UNL A   1      46.946  25.303  38.715  1.00  0.00    -0.237 OA
ATOM     95  O   UNL A   1      44.805  26.050  39.674  1.00  0.00    -0.237 OA
ATOM     96  O   UNL A   1      44.820  24.414  37.840  1.00  0.00    -0.744 OA
ENDBRANCH  90  93
ENDBRANCH  63  86
ENDBRANCH  37  38
ENDBRANCH  30  32
ENDBRANCH  29  30
ENDBRANCH  28  29
ENDBRANCH  27  28
ENDBRANCH  26  27
ENDBRANCH  25  26
ENDBRANCH   1  25
TORSDOF 25
ENDMDL
