MODEL 1
REMARK VINA RESULT:     -10.9      0.000      0.000
REMARK SMILES Cc1ccccc1C(=O)Nc1ccc(N2CCC(n3c(C)nc4cccnc43)CC2)c(C(=O)OCCOCCOCCOC(=O)c2ccc(-c3c4nc(c(-c5cccc(S(=O)(=O)[O-])c5F)c5ccc([nH]5)c(-c5cccc(S(=O)(=O)[O-])c5F)c5nc(c(-c6cccc(S(=O)(=O)[O-])c6F)c6ccc3[nH]6)C=C5)C=C4)cc2)c1
REMARK SMILES IDX 39 1 38 2 37 3 36 4 35 5 34 6 32 7 33 8 31 9 11 10 12 11
REMARK SMILES IDX 109 12 13 13 14 14 10 15 8 16 9 17 7 19 1 20 2 21 3 22 4 23
REMARK SMILES IDX 6 24 5 25 15 26 16 27 30 28 17 29 29 30 18 31 19 32 20 33
REMARK SMILES IDX 28 34 21 35 22 36 23 37 27 38 24 39 26 40 25 41 40 42 41 43
REMARK SMILES IDX 42 44 43 45 44 46 45 47 46 48 47 49 108 50 48 51 107 52
REMARK SMILES IDX 49 53 50 54 51 55 101 56 52 57 106 58 100 59 102 60 53 61
REMARK SMILES IDX 105 62 99 63 98 64 54 66 86 67 66 68 85 69 67 70 70 71 84 72
REMARK SMILES IDX 103 73 68 74 69 75 83 77 104 78 71 79 55 80 56 81 64 82
REMARK SMILES IDX 57 83 59 84 65 85 58 86 60 87 61 88 62 89 63 90 87 91 88 92
REMARK SMILES IDX 96 93 89 94 91 95 97 96 90 97 92 98 93 99 94 100 95 101
REMARK SMILES IDX 72 102 73 103 81 104 74 105 76 106 82 107 75 108 77 109
REMARK SMILES IDX 78 110 79 111 80 112
REMARK H PARENT 10 18 102 65 70 76
REMARK Flexibility Score: inf
ROOT
ATOM      1  C   UNL A   1      37.504  32.081  30.106  1.00  0.00     0.188 C 
ENDROOT
BRANCH   1   2
ATOM      2  C   UNL A   1      37.470  30.559  29.975  1.00  0.00     0.188 C 
BRANCH   2   3
ATOM      3  O   UNL A   1      38.154  30.068  28.838  1.00  0.00    -0.376 OA
BRANCH   3   4
ATOM      4  C   UNL A   1      39.198  29.193  29.261  1.00  0.00     0.202 C 
BRANCH   4   5
ATOM      5  C   UNL A   1      38.727  27.814  29.788  1.00  0.00     0.261 C 
BRANCH   5   6
ATOM      6  O   UNL A   1      39.239  26.280  29.234  1.00  0.00    -0.460 OA
BRANCH   6   7
ATOM      7  C   UNL A   1      39.433  25.570  27.858  1.00  0.00     0.340 C 
ATOM      8  O   UNL A   1      39.493  26.393  26.936  1.00  0.00    -0.246 OA
BRANCH   7   9
ATOM      9  C   UNL A   1      39.744  23.918  27.299  1.00  0.00     0.085 A 
ATOM     10  C   UNL A   1      41.573  22.419  28.136  1.00  0.00     0.042 A 
ATOM     11  C   UNL A   1      41.009  21.328  27.515  1.00  0.00     0.028 A 
ATOM     12  C   UNL A   1      40.931  23.645  28.050  1.00  0.00     0.044 A 
ATOM     13  C   UNL A   1      39.849  21.492  26.725  1.00  0.00     0.029 A 
ATOM     14  C   UNL A   1      39.125  22.724  26.517  1.00  0.00     0.051 A 
BRANCH  10  15
ATOM     15  N   UNL A   1      42.784  22.427  28.839  1.00  0.00    -0.322 N 
ATOM     16  C   UNL A   1      43.948  23.137  28.659  1.00  0.00     0.255 C 
ATOM     17  O   UNL A   1      44.919  22.852  29.367  1.00  0.00    -0.269 OA
ATOM     18  H   UNL A   1      42.805  21.808  29.605  1.00  0.00     0.170 HD
BRANCH  16  19
ATOM     19  C   UNL A   1      44.115  24.261  27.680  1.00  0.00     0.043 A 
ATOM     20  C   UNL A   1      44.010  26.270  29.289  1.00  0.00     0.045 C 
ATOM     21  C   UNL A   1      44.030  25.641  27.930  1.00  0.00    -0.038 A 
ATOM     22  C   UNL A   1      44.052  26.543  26.848  1.00  0.00     0.004 A 
ATOM     23  C   UNL A   1      44.386  26.117  25.569  1.00  0.00     0.000 A 
ATOM     24  C   UNL A   1      44.527  23.861  26.392  1.00  0.00     0.014 A 
ATOM     25  C   UNL A   1      44.693  24.781  25.356  1.00  0.00     0.001 A 
ENDBRANCH  16  19
ENDBRANCH  10  15
BRANCH  14  26
ATOM     26  N   UNL A   1      37.999  22.503  25.616  1.00  0.00    -0.371 N 
ATOM     27  C   UNL A   1      37.195  23.678  25.132  1.00  0.00     0.118 C 
ATOM     28  C   UNL A   1      37.404  21.385  24.808  1.00  0.00     0.118 C 
ATOM     29  C   UNL A   1      35.652  23.426  25.263  1.00  0.00     0.047 C 
ATOM     30  C   UNL A   1      36.038  20.965  25.244  1.00  0.00     0.047 C 
ATOM     31  C   UNL A   1      35.133  22.053  24.763  1.00  0.00     0.094 C 
BRANCH  31  32
ATOM     32  N   UNL A   1      33.729  21.795  25.011  1.00  0.00    -0.310 N 
ATOM     33  C   UNL A   1      32.963  20.660  24.812  1.00  0.00     0.108 A 
ATOM     34  C   UNL A   1      32.887  22.768  25.501  1.00  0.00     0.160 A 
ATOM     35  C   UNL A   1      33.277  19.495  23.939  1.00  0.00     0.088 C 
ATOM     36  N   UNL A   1      31.819  20.772  25.469  1.00  0.00    -0.232 NA
ATOM     37  C   UNL A   1      31.696  22.103  25.740  1.00  0.00     0.108 A 
ATOM     38  N   UNL A   1      33.160  24.077  25.709  1.00  0.00    -0.237 NA
ATOM     39  C   UNL A   1      30.611  22.846  26.207  1.00  0.00     0.034 A 
ATOM     40  C   UNL A   1      32.060  24.761  26.111  1.00  0.00     0.113 A 
ATOM     41  C   UNL A   1      30.806  24.218  26.375  1.00  0.00     0.022 A 
ENDBRANCH  31  32
ENDBRANCH  14  26
ENDBRANCH   7   9
ENDBRANCH   6   7
ENDBRANCH   5   6
ENDBRANCH   4   5
ENDBRANCH   3   4
ENDBRANCH   2   3
ENDBRANCH   1   2
BRANCH   1  42
ATOM     42  O   UNL A   1      38.720  32.631  30.555  1.00  0.00    -0.376 OA
BRANCH  42  43
ATOM     43  C   UNL A   1      38.755  33.887  31.207  1.00  0.00     0.202 C 
BRANCH  43  44
ATOM     44  C   UNL A   1      37.494  33.944  32.052  1.00  0.00     0.261 C 
BRANCH  44  45
ATOM     45  O   UNL A   1      37.858  33.863  33.453  1.00  0.00    -0.460 OA
BRANCH  45  46
ATOM     46  C   UNL A   1      37.446  32.707  34.053  1.00  0.00     0.338 C 
ATOM     47  O   UNL A   1      36.378  32.570  34.599  1.00  0.00    -0.246 OA
BRANCH  46  48
ATOM     48  C   UNL A   1      38.616  31.755  34.150  1.00  0.00     0.060 A 
ATOM     49  C   UNL A   1      39.704  32.299  34.742  1.00  0.00     0.016 A 
ATOM     50  C   UNL A   1      38.820  30.595  33.365  1.00  0.00     0.016 A 
ATOM     51  C   UNL A   1      40.949  31.798  34.338  1.00  0.00     0.010 A 
ATOM     52  C   UNL A   1      40.136  30.089  32.979  1.00  0.00     0.010 A 
ATOM     53  C   UNL A   1      41.351  30.666  33.414  1.00  0.00    -0.014 A 
BRANCH  53  54
ATOM     54  C   UNL A   1      42.961  30.172  32.651  1.00  0.00     0.031 A 
ATOM     55  C   UNL A   1      43.329  30.233  31.123  1.00  0.00     0.074 A 
ATOM     56  C   UNL A   1      44.171  29.730  33.234  1.00  0.00     0.049 A 
ATOM     57  N   UNL A   1      44.083  31.188  30.644  1.00  0.00    -0.248 NA
ATOM     58  C   UNL A   1      42.817  29.354  30.042  1.00  0.00     0.031 C 
ATOM     59  C   UNL A   1      45.519  30.234  32.952  1.00  0.00     0.029 A 
ATOM     60  N   UNL A   1      44.474  28.957  34.375  1.00  0.00    -0.354 N 
ATOM     61  C   UNL A   1      44.153  31.061  29.263  1.00  0.00     0.074 A 
ATOM     62  C   UNL A   1      43.325  29.912  28.934  1.00  0.00     0.031 C 
ATOM     63  C   UNL A   1      46.428  29.657  33.770  1.00  0.00     0.029 A 
ATOM     64  C   UNL A   1      45.780  28.614  34.549  1.00  0.00     0.049 A 
ATOM     65  H   UNL A   1      43.777  28.680  35.014  1.00  0.00     0.167 HD
ATOM     66  C   UNL A   1      45.315  31.270  28.601  1.00  0.00     0.034 A 
ATOM     67  C   UNL A   1      46.133  27.325  34.839  1.00  0.00     0.034 A 
ATOM     68  C   UNL A   1      46.445  30.729  29.324  1.00  0.00     0.049 A 
ATOM     69  C   UNL A   1      46.859  26.825  33.623  1.00  0.00     0.074 A 
ATOM     70  C   UNL A   1      47.369  31.235  30.214  1.00  0.00     0.029 A 
ATOM     71  N   UNL A   1      46.614  29.359  29.302  1.00  0.00    -0.354 N 
ATOM     72  N   UNL A   1      46.954  27.558  32.548  1.00  0.00    -0.248 NA
ATOM     73  C   UNL A   1      47.576  25.568  33.481  1.00  0.00     0.031 C 
ATOM     74  C   UNL A   1      48.031  30.119  30.812  1.00  0.00     0.029 A 
ATOM     75  C   UNL A   1      47.536  28.950  30.247  1.00  0.00     0.049 A 
ATOM     76  H   UNL A   1      46.138  28.751  28.691  1.00  0.00     0.167 HD
ATOM     77  C   UNL A   1      47.689  26.946  31.600  1.00  0.00     0.074 A 
ATOM     78  C   UNL A   1      48.074  25.695  32.233  1.00  0.00     0.031 C 
ATOM     79  C   UNL A   1      47.849  27.523  30.377  1.00  0.00     0.034 A 
BRANCH  66  80
ATOM     80  C   UNL A   1      45.400  32.346  27.537  1.00  0.00     0.023 A 
ATOM     81  C   UNL A   1      44.292  32.456  26.677  1.00  0.00     0.012 A 
ATOM     82  C   UNL A   1      46.492  33.217  27.273  1.00  0.00     0.148 A 
ATOM     83  C   UNL A   1      44.288  33.308  25.569  1.00  0.00     0.002 A 
ATOM     84  C   UNL A   1      46.452  34.127  26.199  1.00  0.00     0.091 A 
ATOM     85  F   UNL A   1      47.599  33.136  28.020  1.00  0.00    -0.205 F 
ATOM     86  C   UNL A   1      45.365  34.144  25.327  1.00  0.00     0.022 A 
BRANCH  84  87
ATOM     87  S   UNL A   1      47.751  35.355  25.941  1.00  0.00     0.127 S 
ATOM     88  O   UNL A   1      47.006  36.590  25.715  1.00  0.00    -0.237 OA
ATOM     89  O   UNL A   1      48.502  35.344  27.199  1.00  0.00    -0.237 OA
ATOM     90  O   UNL A   1      48.491  34.799  24.817  1.00  0.00    -0.744 OA
ENDBRANCH  84  87
ENDBRANCH  66  80
BRANCH  67  91
ATOM     91  C   UNL A   1      45.253  26.563  35.830  1.00  0.00     0.023 A 
ATOM     92  C   UNL A   1      45.454  26.880  37.201  1.00  0.00     0.012 A 
ATOM     93  C   UNL A   1      44.065  25.858  35.515  1.00  0.00     0.148 A 
ATOM     94  C   UNL A   1      44.483  26.624  38.184  1.00  0.00     0.002 A 
ATOM     95  C   UNL A   1      43.034  25.745  36.474  1.00  0.00     0.091 A 
ATOM     96  F   UNL A   1      43.909  25.389  34.270  1.00  0.00    -0.205 F 
ATOM     97  C   UNL A   1      43.243  26.131  37.806  1.00  0.00     0.022 A 
BRANCH  95  98
ATOM     98  S   UNL A   1      41.315  25.320  36.074  1.00  0.00     0.127 S 
ATOM     99  O   UNL A   1      40.991  26.293  35.029  1.00  0.00    -0.237 OA
ATOM    100  O   UNL A   1      41.433  23.946  35.587  1.00  0.00    -0.237 OA
ATOM    101  O   UNL A   1      40.552  25.481  37.305  1.00  0.00    -0.744 OA
ENDBRANCH  95  98
ENDBRANCH  67  91
BRANCH  79 102
ATOM    102  C   UNL A   1      48.227  26.732  29.158  1.00  0.00     0.023 A 
ATOM    103  C   UNL A   1      47.499  25.591  28.773  1.00  0.00     0.012 A 
ATOM    104  C   UNL A   1      49.149  27.256  28.228  1.00  0.00     0.148 A 
ATOM    105  C   UNL A   1      47.712  24.966  27.546  1.00  0.00     0.002 A 
ATOM    106  C   UNL A   1      49.229  26.732  26.948  1.00  0.00     0.091 A 
ATOM    107  F   UNL A   1      49.933  28.293  28.564  1.00  0.00    -0.205 F 
ATOM    108  C   UNL A   1      48.552  25.558  26.615  1.00  0.00     0.022 A 
BRANCH 106 109
ATOM    109  S   UNL A   1      49.969  27.715  25.639  1.00  0.00     0.127 S 
ATOM    110  O   UNL A   1      49.621  26.949  24.447  1.00  0.00    -0.237 OA
ATOM    111  O   UNL A   1      49.271  28.995  25.775  1.00  0.00    -0.237 OA
ATOM    112  O   UNL A   1      51.382  27.769  25.996  1.00  0.00    -0.744 OA
ENDBRANCH 106 109
ENDBRANCH  79 102
ENDBRANCH  53  54
ENDBRANCH  46  48
ENDBRANCH  45  46
ENDBRANCH  44  45
ENDBRANCH  43  44
ENDBRANCH  42  43
ENDBRANCH   1  42
TORSDOF 24
ENDMDL
MODEL 2
REMARK VINA RESULT:     -10.1      6.942     14.520
REMARK SMILES Cc1ccccc1C(=O)Nc1ccc(N2CCC(n3c(C)nc4cccnc43)CC2)c(C(=O)OCCOCCOCCOC(=O)c2ccc(-c3c4nc(c(-c5cccc(S(=O)(=O)[O-])c5F)c5ccc([nH]5)c(-c5cccc(S(=O)(=O)[O-])c5F)c5nc(c(-c6cccc(S(=O)(=O)[O-])c6F)c6ccc3[nH]6)C=C5)C=C4)cc2)c1
REMARK SMILES IDX 39 1 38 2 37 3 36 4 35 5 34 6 32 7 33 8 31 9 11 10 12 11
REMARK SMILES IDX 109 12 13 13 14 14 10 15 8 16 9 17 7 19 1 20 2 21 3 22 4 23
REMARK SMILES IDX 6 24 5 25 15 26 16 27 30 28 17 29 29 30 18 31 19 32 20 33
REMARK SMILES IDX 28 34 21 35 22 36 23 37 27 38 24 39 26 40 25 41 40 42 41 43
REMARK SMILES IDX 42 44 43 45 44 46 45 47 46 48 47 49 108 50 48 51 107 52
REMARK SMILES IDX 49 53 50 54 51 55 101 56 52 57 106 58 100 59 102 60 53 61
REMARK SMILES IDX 105 62 99 63 98 64 54 66 86 67 66 68 85 69 67 70 70 71 84 72
REMARK SMILES IDX 103 73 68 74 69 75 83 77 104 78 71 79 55 80 56 81 64 82
REMARK SMILES IDX 57 83 59 84 65 85 58 86 60 87 61 88 62 89 63 90 87 91 88 92
REMARK SMILES IDX 96 93 89 94 91 95 97 96 90 97 92 98 93 99 94 100 95 101
REMARK SMILES IDX 72 102 73 103 81 104 74 105 76 106 82 107 75 108 77 109
REMARK SMILES IDX 78 110 79 111 80 112
REMARK H PARENT 10 18 102 65 70 76
REMARK Flexibility Score: inf
ROOT
ATOM      1  C   UNL A   1      47.006  37.319  25.714  1.00  0.00     0.188 C 
ENDROOT
BRANCH   1   2
ATOM      2  C   UNL A   1      48.177  36.471  26.208  1.00  0.00     0.188 C 
BRANCH   2   3
ATOM      3  O   UNL A   1      48.956  37.099  27.208  1.00  0.00    -0.376 OA
BRANCH   3   4
ATOM      4  C   UNL A   1      48.491  36.688  28.492  1.00  0.00     0.202 C 
BRANCH   4   5
ATOM      5  C   UNL A   1      47.731  37.773  29.295  1.00  0.00     0.261 C 
BRANCH   5   6
ATOM      6  O   UNL A   1      48.298  39.338  29.686  1.00  0.00    -0.460 OA
BRANCH   6   7
ATOM      7  C   UNL A   1      48.042  40.798  29.202  1.00  0.00     0.340 C 
ATOM      8  O   UNL A   1      49.069  41.296  28.723  1.00  0.00    -0.246 OA
BRANCH   7   9
ATOM      9  C   UNL A   1      46.637  41.862  29.016  1.00  0.00     0.085 A 
ATOM     10  C   UNL A   1      44.782  42.126  30.683  1.00  0.00     0.042 A 
ATOM     11  C   UNL A   1      44.306  43.238  30.028  1.00  0.00     0.028 A 
ATOM     12  C   UNL A   1      45.923  41.502  30.202  1.00  0.00     0.044 A 
ATOM     13  C   UNL A   1      44.922  43.664  28.830  1.00  0.00     0.029 A 
ATOM     14  C   UNL A   1      46.078  43.066  28.205  1.00  0.00     0.051 A 
BRANCH  10  15
ATOM     15  N   UNL A   1      44.196  41.520  31.801  1.00  0.00    -0.322 N 
ATOM     16  C   UNL A   1      44.236  41.827  33.141  1.00  0.00     0.255 C 
ATOM     17  O   UNL A   1      43.715  41.036  33.936  1.00  0.00    -0.269 OA
ATOM     18  H   UNL A   1      43.654  40.725  31.587  1.00  0.00     0.170 HD
BRANCH  16  19
ATOM     19  C   UNL A   1      44.843  43.075  33.710  1.00  0.00     0.043 A 
ATOM     20  C   UNL A   1      42.930  44.741  33.261  1.00  0.00     0.045 C 
ATOM     21  C   UNL A   1      44.326  44.381  33.665  1.00  0.00    -0.038 A 
ATOM     22  C   UNL A   1      45.121  45.455  34.111  1.00  0.00     0.004 A 
ATOM     23  C   UNL A   1      46.305  45.230  34.801  1.00  0.00     0.000 A 
ATOM     24  C   UNL A   1      46.005  42.865  34.479  1.00  0.00     0.014 A 
ATOM     25  C   UNL A   1      46.711  43.927  35.047  1.00  0.00     0.001 A 
ENDBRANCH  16  19
ENDBRANCH  10  15
BRANCH  14  26
ATOM     26  N   UNL A   1      46.402  43.765  26.966  1.00  0.00    -0.371 N 
ATOM     27  C   UNL A   1      45.729  45.074  26.656  1.00  0.00     0.118 C 
ATOM     28  C   UNL A   1      47.399  43.673  25.847  1.00  0.00     0.118 C 
ATOM     29  C   UNL A   1      45.182  45.118  25.186  1.00  0.00     0.047 C 
ATOM     30  C   UNL A   1      46.806  43.352  24.513  1.00  0.00     0.047 C 
ATOM     31  C   UNL A   1      46.144  44.620  24.077  1.00  0.00     0.094 C 
BRANCH  31  32
ATOM     32  N   UNL A   1      45.572  44.550  22.747  1.00  0.00    -0.310 N 
ATOM     33  C   UNL A   1      46.020  45.048  21.536  1.00  0.00     0.108 A 
ATOM     34  C   UNL A   1      44.362  43.938  22.509  1.00  0.00     0.160 A 
ATOM     35  C   UNL A   1      47.031  46.118  21.313  1.00  0.00     0.088 C 
ATOM     36  N   UNL A   1      45.351  44.479  20.545  1.00  0.00    -0.232 NA
ATOM     37  C   UNL A   1      44.240  43.944  21.129  1.00  0.00     0.108 A 
ATOM     38  N   UNL A   1      43.490  43.436  23.414  1.00  0.00    -0.237 NA
ATOM     39  C   UNL A   1      43.072  43.424  20.570  1.00  0.00     0.034 A 
ATOM     40  C   UNL A   1      42.354  42.993  22.823  1.00  0.00     0.113 A 
ATOM     41  C   UNL A   1      42.100  42.955  21.455  1.00  0.00     0.022 A 
ENDBRANCH  31  32
ENDBRANCH  14  26
ENDBRANCH   7   9
ENDBRANCH   6   7
ENDBRANCH   5   6
ENDBRANCH   4   5
ENDBRANCH   3   4
ENDBRANCH   2   3
ENDBRANCH   1   2
BRANCH   1  42
ATOM     42  O   UNL A   1      47.351  38.522  25.067  1.00  0.00    -0.376 OA
BRANCH  42  43
ATOM     43  C   UNL A   1      47.212  39.768  25.724  1.00  0.00     0.202 C 
BRANCH  43  44
ATOM     44  C   UNL A   1      45.724  40.074  25.709  1.00  0.00     0.261 C 
BRANCH  44  45
ATOM     45  O   UNL A   1      45.199  39.935  27.053  1.00  0.00    -0.460 OA
BRANCH  45  46
ATOM     46  C   UNL A   1      43.851  40.144  27.132  1.00  0.00     0.338 C 
ATOM     47  O   UNL A   1      43.312  41.195  26.878  1.00  0.00    -0.246 OA
BRANCH  46  48
ATOM     48  C   UNL A   1      43.206  38.966  27.824  1.00  0.00     0.060 A 
ATOM     49  C   UNL A   1      43.922  38.501  28.874  1.00  0.00     0.016 A 
ATOM     50  C   UNL A   1      42.234  38.099  27.270  1.00  0.00     0.016 A 
ATOM     51  C   UNL A   1      43.790  37.136  29.161  1.00  0.00     0.010 A 
ATOM     52  C   UNL A   1      42.112  36.683  27.610  1.00  0.00     0.010 A 
ATOM     53  C   UNL A   1      42.909  36.044  28.588  1.00  0.00    -0.014 A 
BRANCH  53  54
ATOM     54  C   UNL A   1      42.915  34.203  28.751  1.00  0.00     0.031 A 
ATOM     55  C   UNL A   1      43.868  33.201  28.000  1.00  0.00     0.074 A 
ATOM     56  C   UNL A   1      42.170  33.340  29.586  1.00  0.00     0.049 A 
ATOM     57  N   UNL A   1      44.892  32.657  28.603  1.00  0.00    -0.248 NA
ATOM     58  C   UNL A   1      43.831  32.838  26.561  1.00  0.00     0.031 C 
ATOM     59  C   UNL A   1      42.696  32.255  30.423  1.00  0.00     0.029 A 
ATOM     60  N   UNL A   1      40.857  33.381  30.103  1.00  0.00    -0.354 N 
ATOM     61  C   UNL A   1      45.617  31.911  27.683  1.00  0.00     0.074 A 
ATOM     62  C   UNL A   1      44.923  32.075  26.415  1.00  0.00     0.031 C 
ATOM     63  C   UNL A   1      41.712  31.708  31.172  1.00  0.00     0.029 A 
ATOM     64  C   UNL A   1      40.433  32.277  30.778  1.00  0.00     0.049 A 
ATOM     65  H   UNL A   1      40.278  34.168  29.981  1.00  0.00     0.167 HD
ATOM     66  C   UNL A   1      46.140  30.708  28.017  1.00  0.00     0.034 A 
ATOM     67  C   UNL A   1      39.216  31.715  30.507  1.00  0.00     0.034 A 
ATOM     68  C   UNL A   1      45.234  29.945  28.848  1.00  0.00     0.049 A 
ATOM     69  C   UNL A   1      39.521  30.388  29.874  1.00  0.00     0.074 A 
ATOM     70  C   UNL A   1      45.073  29.761  30.205  1.00  0.00     0.029 A 
ATOM     71  N   UNL A   1      44.146  29.362  28.229  1.00  0.00    -0.354 N 
ATOM     72  N   UNL A   1      40.748  30.036  29.605  1.00  0.00    -0.248 NA
ATOM     73  C   UNL A   1      38.576  29.332  29.546  1.00  0.00     0.031 C 
ATOM     74  C   UNL A   1      43.800  29.144  30.397  1.00  0.00     0.029 A 
ATOM     75  C   UNL A   1      43.221  28.916  29.154  1.00  0.00     0.049 A 
ATOM     76  H   UNL A   1      44.043  29.275  27.254  1.00  0.00     0.167 HD
ATOM     77  C   UNL A   1      40.802  28.792  29.094  1.00  0.00     0.074 A 
ATOM     78  C   UNL A   1      39.409  28.376  29.083  1.00  0.00     0.031 C 
ATOM     79  C   UNL A   1      41.991  28.268  28.687  1.00  0.00     0.034 A 
BRANCH  66  80
ATOM     80  C   UNL A   1      47.635  30.479  27.926  1.00  0.00     0.023 A 
ATOM     81  C   UNL A   1      48.451  31.521  28.403  1.00  0.00     0.012 A 
ATOM     82  C   UNL A   1      48.307  29.360  27.363  1.00  0.00     0.148 A 
ATOM     83  C   UNL A   1      49.841  31.507  28.258  1.00  0.00     0.002 A 
ATOM     84  C   UNL A   1      49.712  29.317  27.288  1.00  0.00     0.091 A 
ATOM     85  F   UNL A   1      47.595  28.351  26.846  1.00  0.00    -0.205 F 
ATOM     86  C   UNL A   1      50.475  30.409  27.701  1.00  0.00     0.022 A 
BRANCH  84  87
ATOM     87  S   UNL A   1      50.594  27.844  26.731  1.00  0.00     0.127 S 
ATOM     88  O   UNL A   1      50.106  26.801  27.628  1.00  0.00    -0.237 OA
ATOM     89  O   UNL A   1      50.157  27.675  25.341  1.00  0.00    -0.237 OA
ATOM     90  O   UNL A   1      51.989  28.244  26.857  1.00  0.00    -0.744 OA
ENDBRANCH  84  87
ENDBRANCH  66  80
BRANCH  67  91
ATOM     91  C   UNL A   1      38.044  32.665  30.263  1.00  0.00     0.023 A 
ATOM     92  C   UNL A   1      37.486  32.631  28.957  1.00  0.00     0.012 A 
ATOM     93  C   UNL A   1      37.266  33.298  31.264  1.00  0.00     0.148 A 
ATOM     94  C   UNL A   1      36.184  33.084  28.681  1.00  0.00     0.002 A 
ATOM     95  C   UNL A   1      35.910  33.607  31.015  1.00  0.00     0.091 A 
ATOM     96  F   UNL A   1      37.815  33.507  32.468  1.00  0.00    -0.205 F 
ATOM     97  C   UNL A   1      35.371  33.497  29.725  1.00  0.00     0.022 A 
BRANCH  95  98
ATOM     98  S   UNL A   1      34.690  33.951  32.314  1.00  0.00     0.127 S 
ATOM     99  O   UNL A   1      33.958  35.090  31.758  1.00  0.00    -0.237 OA
ATOM    100  O   UNL A   1      33.912  32.711  32.355  1.00  0.00    -0.237 OA
ATOM    101  O   UNL A   1      35.445  34.252  33.522  1.00  0.00    -0.744 OA
ENDBRANCH  95  98
ENDBRANCH  67  91
BRANCH  79 102
ATOM    102  C   UNL A   1      42.076  27.135  27.706  1.00  0.00     0.023 A 
ATOM    103  C   UNL A   1      41.866  27.341  26.331  1.00  0.00     0.012 A 
ATOM    104  C   UNL A   1      42.623  25.895  28.099  1.00  0.00     0.148 A 
ATOM    105  C   UNL A   1      42.133  26.347  25.391  1.00  0.00     0.002 A 
ATOM    106  C   UNL A   1      43.046  24.981  27.146  1.00  0.00     0.091 A 
ATOM    107  F   UNL A   1      42.773  25.604  29.401  1.00  0.00    -0.205 F 
ATOM    108  C   UNL A   1      42.760  25.177  25.795  1.00  0.00     0.022 A 
BRANCH 106 109
ATOM    109  S   UNL A   1      44.209  23.695  27.616  1.00  0.00     0.127 S 
ATOM    110  O   UNL A   1      44.622  23.168  26.319  1.00  0.00    -0.237 OA
ATOM    111  O   UNL A   1      45.240  24.450  28.332  1.00  0.00    -0.237 OA
ATOM    112  O   UNL A   1      43.426  22.806  28.467  1.00  0.00    -0.744 OA
ENDBRANCH 106 109
ENDBRANCH  79 102
ENDBRANCH  53  54
ENDBRANCH  46  48
ENDBRANCH  45  46
ENDBRANCH  44  45
ENDBRANCH  43  44
ENDBRANCH  42  43
ENDBRANCH   1  42
TORSDOF 24
ENDMDL
MODEL 3
REMARK VINA RESULT:      -9.9      5.758     10.399
REMARK SMILES Cc1ccccc1C(=O)Nc1ccc(N2CCC(n3c(C)nc4cccnc43)CC2)c(C(=O)OCCOCCOCCOC(=O)c2ccc(-c3c4nc(c(-c5cccc(S(=O)(=O)[O-])c5F)c5ccc([nH]5)c(-c5cccc(S(=O)(=O)[O-])c5F)c5nc(c(-c6cccc(S(=O)(=O)[O-])c6F)c6ccc3[nH]6)C=C5)C=C4)cc2)c1
REMARK SMILES IDX 39 1 38 2 37 3 36 4 35 5 34 6 32 7 33 8 31 9 11 10 12 11
REMARK SMILES IDX 109 12 13 13 14 14 10 15 8 16 9 17 7 19 1 20 2 21 3 22 4 23
REMARK SMILES IDX 6 24 5 25 15 26 16 27 30 28 17 29 29 30 18 31 19 32 20 33
REMARK SMILES IDX 28 34 21 35 22 36 23 37 27 38 24 39 26 40 25 41 40 42 41 43
REMARK SMILES IDX 42 44 43 45 44 46 45 47 46 48 47 49 108 50 48 51 107 52
REMARK SMILES IDX 49 53 50 54 51 55 101 56 52 57 106 58 100 59 102 60 53 61
REMARK SMILES IDX 105 62 99 63 98 64 54 66 86 67 66 68 85 69 67 70 70 71 84 72
REMARK SMILES IDX 103 73 68 74 69 75 83 77 104 78 71 79 55 80 56 81 64 82
REMARK SMILES IDX 57 83 59 84 65 85 58 86 60 87 61 88 62 89 63 90 87 91 88 92
REMARK SMILES IDX 96 93 89 94 91 95 97 96 90 97 92 98 93 99 94 100 95 101
REMARK SMILES IDX 72 102 73 103 81 104 74 105 76 106 82 107 75 108 77 109
REMARK SMILES IDX 78 110 79 111 80 112
REMARK H PARENT 10 18 102 65 70 76
REMARK Flexibility Score: inf
ROOT
ATOM      1  C   UNL A   1      43.197  27.181  29.570  1.00  0.00     0.188 C 
ENDROOT
BRANCH   1   2
ATOM      2  C   UNL A   1      42.156  27.850  28.675  1.00  0.00     0.188 C 
BRANCH   2   3
ATOM      3  O   UNL A   1      41.875  27.130  27.489  1.00  0.00    -0.376 OA
BRANCH   3   4
ATOM      4  C   UNL A   1      40.502  27.307  27.148  1.00  0.00     0.202 C 
BRANCH   4   5
ATOM      5  C   UNL A   1      39.671  28.125  28.169  1.00  0.00     0.261 C 
BRANCH   5   6
ATOM      6  O   UNL A   1      38.319  29.114  27.826  1.00  0.00    -0.460 OA
BRANCH   6   7
ATOM      7  C   UNL A   1      37.047  29.610  28.580  1.00  0.00     0.340 C 
ATOM      8  O   UNL A   1      36.907  29.015  29.657  1.00  0.00    -0.246 OA
BRANCH   7   9
ATOM      9  C   UNL A   1      35.852  30.901  28.372  1.00  0.00     0.085 A 
ATOM     10  C   UNL A   1      36.299  33.354  28.646  1.00  0.00     0.042 A 
ATOM     11  C   UNL A   1      35.093  33.672  28.066  1.00  0.00     0.028 A 
ATOM     12  C   UNL A   1      36.660  32.020  28.751  1.00  0.00     0.044 A 
ATOM     13  C   UNL A   1      34.206  32.643  27.679  1.00  0.00     0.029 A 
ATOM     14  C   UNL A   1      34.447  31.223  27.787  1.00  0.00     0.051 A 
BRANCH  10  15
ATOM     15  N   UNL A   1      37.213  34.264  29.190  1.00  0.00    -0.322 N 
ATOM     16  C   UNL A   1      38.168  34.135  30.171  1.00  0.00     0.255 C 
ATOM     17  O   UNL A   1      38.763  35.152  30.543  1.00  0.00    -0.269 OA
ATOM     18  H   UNL A   1      37.161  35.166  28.797  1.00  0.00     0.170 HD
BRANCH  16  19
ATOM     19  C   UNL A   1      38.566  32.835  30.804  1.00  0.00     0.043 A 
ATOM     20  C   UNL A   1      36.562  32.481  32.383  1.00  0.00     0.045 C 
ATOM     21  C   UNL A   1      37.926  32.158  31.857  1.00  0.00    -0.038 A 
ATOM     22  C   UNL A   1      38.543  31.028  32.429  1.00  0.00     0.004 A 
ATOM     23  C   UNL A   1      39.647  30.437  31.830  1.00  0.00     0.000 A 
ATOM     24  C   UNL A   1      39.638  32.175  30.168  1.00  0.00     0.014 A 
ATOM     25  C   UNL A   1      40.152  30.973  30.655  1.00  0.00     0.001 A 
ENDBRANCH  16  19
ENDBRANCH  10  15
BRANCH  14  26
ATOM     26  N   UNL A   1      33.287  30.476  27.314  1.00  0.00    -0.371 N 
ATOM     27  C   UNL A   1      33.262  28.979  27.457  1.00  0.00     0.118 C 
ATOM     28  C   UNL A   1      31.899  30.749  26.811  1.00  0.00     0.118 C 
ATOM     29  C   UNL A   1      32.816  28.271  26.129  1.00  0.00     0.047 C 
ATOM     30  C   UNL A   1      31.667  30.354  25.388  1.00  0.00     0.047 C 
ATOM     31  C   UNL A   1      31.571  28.862  25.418  1.00  0.00     0.094 C 
BRANCH  31  32
ATOM     32  N   UNL A   1      31.257  28.274  24.131  1.00  0.00    -0.310 N 
ATOM     33  C   UNL A   1      30.279  28.584  23.203  1.00  0.00     0.108 A 
ATOM     34  C   UNL A   1      31.952  27.192  23.638  1.00  0.00     0.160 A 
ATOM     35  C   UNL A   1      29.035  29.372  23.424  1.00  0.00     0.088 C 
ATOM     36  N   UNL A   1      30.561  28.003  22.047  1.00  0.00    -0.232 NA
ATOM     37  C   UNL A   1      31.466  27.030  22.351  1.00  0.00     0.108 A 
ATOM     38  N   UNL A   1      32.900  26.456  24.264  1.00  0.00    -0.237 NA
ATOM     39  C   UNL A   1      31.953  25.962  21.595  1.00  0.00     0.034 A 
ATOM     40  C   UNL A   1      33.299  25.405  23.506  1.00  0.00     0.113 A 
ATOM     41  C   UNL A   1      32.882  25.122  22.209  1.00  0.00     0.022 A 
ENDBRANCH  31  32
ENDBRANCH  14  26
ENDBRANCH   7   9
ENDBRANCH   6   7
ENDBRANCH   5   6
ENDBRANCH   4   5
ENDBRANCH   3   4
ENDBRANCH   2   3
ENDBRANCH   1   2
BRANCH   1  42
ATOM     42  O   UNL A   1      44.512  27.675  29.455  1.00  0.00    -0.376 OA
BRANCH  42  43
ATOM     43  C   UNL A   1      45.178  27.689  28.207  1.00  0.00     0.202 C 
BRANCH  43  44
ATOM     44  C   UNL A   1      46.655  27.539  28.530  1.00  0.00     0.261 C 
BRANCH  44  45
ATOM     45  O   UNL A   1      47.337  28.779  28.216  1.00  0.00    -0.460 OA
BRANCH  45  46
ATOM     46  C   UNL A   1      47.403  29.035  26.875  1.00  0.00     0.338 C 
ATOM     47  O   UNL A   1      47.778  28.236  26.051  1.00  0.00    -0.246 OA
BRANCH  46  48
ATOM     48  C   UNL A   1      47.198  30.514  26.642  1.00  0.00     0.060 A 
ATOM     49  C   UNL A   1      48.124  31.288  27.253  1.00  0.00     0.016 A 
ATOM     50  C   UNL A   1      45.992  31.140  26.248  1.00  0.00     0.016 A 
ATOM     51  C   UNL A   1      47.709  32.570  27.636  1.00  0.00     0.010 A 
ATOM     52  C   UNL A   1      45.600  32.489  26.650  1.00  0.00     0.010 A 
ATOM     53  C   UNL A   1      46.424  33.344  27.418  1.00  0.00    -0.014 A 
BRANCH  53  54
ATOM     54  C   UNL A   1      45.753  34.906  28.145  1.00  0.00     0.031 A 
ATOM     55  C   UNL A   1      46.267  36.366  27.858  1.00  0.00     0.074 A 
ATOM     56  C   UNL A   1      44.654  35.137  29.003  1.00  0.00     0.049 A 
ATOM     57  N   UNL A   1      45.618  37.168  27.056  1.00  0.00    -0.248 NA
ATOM     58  C   UNL A   1      47.539  36.975  28.321  1.00  0.00     0.031 C 
ATOM     59  C   UNL A   1      43.591  36.133  28.823  1.00  0.00     0.029 A 
ATOM     60  N   UNL A   1      44.069  34.398  30.053  1.00  0.00    -0.354 N 
ATOM     61  C   UNL A   1      46.347  38.340  26.900  1.00  0.00     0.074 A 
ATOM     62  C   UNL A   1      47.551  38.159  27.694  1.00  0.00     0.031 C 
ATOM     63  C   UNL A   1      42.645  36.001  29.779  1.00  0.00     0.029 A 
ATOM     64  C   UNL A   1      43.080  35.016  30.756  1.00  0.00     0.049 A 
ATOM     65  H   UNL A   1      44.360  33.481  30.265  1.00  0.00     0.167 HD
ATOM     66  C   UNL A   1      45.731  39.545  26.869  1.00  0.00     0.034 A 
ATOM     67  C   UNL A   1      43.087  35.013  32.124  1.00  0.00     0.034 A 
ATOM     68  C   UNL A   1      44.652  39.618  27.828  1.00  0.00     0.049 A 
ATOM     69  C   UNL A   1      43.345  36.437  32.526  1.00  0.00     0.074 A 
ATOM     70  C   UNL A   1      43.289  39.411  27.785  1.00  0.00     0.029 A 
ATOM     71  N   UNL A   1      44.995  39.766  29.158  1.00  0.00    -0.354 N 
ATOM     72  N   UNL A   1      43.601  37.352  31.633  1.00  0.00    -0.248 NA
ATOM     73  C   UNL A   1      43.290  36.996  33.867  1.00  0.00     0.031 C 
ATOM     74  C   UNL A   1      42.833  39.330  29.136  1.00  0.00     0.029 A 
ATOM     75  C   UNL A   1      43.913  39.535  29.986  1.00  0.00     0.049 A 
ATOM     76  H   UNL A   1      45.897  40.005  29.475  1.00  0.00     0.167 HD
ATOM     77  C   UNL A   1      43.746  38.565  32.200  1.00  0.00     0.074 A 
ATOM     78  C   UNL A   1      43.531  38.299  33.613  1.00  0.00     0.031 C 
ATOM     79  C   UNL A   1      44.083  39.643  31.439  1.00  0.00     0.034 A 
BRANCH  66  80
ATOM     80  C   UNL A   1      45.872  40.438  25.652  1.00  0.00     0.023 A 
ATOM     81  C   UNL A   1      46.749  39.984  24.649  1.00  0.00     0.012 A 
ATOM     82  C   UNL A   1      45.266  41.704  25.432  1.00  0.00     0.148 A 
ATOM     83  C   UNL A   1      47.081  40.765  23.538  1.00  0.00     0.002 A 
ATOM     84  C   UNL A   1      45.545  42.454  24.274  1.00  0.00     0.091 A 
ATOM     85  F   UNL A   1      44.456  42.221  26.365  1.00  0.00    -0.205 F 
ATOM     86  C   UNL A   1      46.482  41.999  23.347  1.00  0.00     0.022 A 
BRANCH  84  87
ATOM     87  S   UNL A   1      44.667  43.985  23.892  1.00  0.00     0.127 S 
ATOM     88  O   UNL A   1      45.228  44.940  24.843  1.00  0.00    -0.237 OA
ATOM     89  O   UNL A   1      45.030  44.261  22.499  1.00  0.00    -0.237 OA
ATOM     90  O   UNL A   1      43.273  43.600  24.065  1.00  0.00    -0.744 OA
ENDBRANCH  84  87
ENDBRANCH  66  80
BRANCH  67  91
ATOM     91  C   UNL A   1      43.494  33.715  32.819  1.00  0.00     0.023 A 
ATOM     92  C   UNL A   1      42.434  32.972  33.406  1.00  0.00     0.012 A 
ATOM     93  C   UNL A   1      44.722  33.028  32.646  1.00  0.00     0.148 A 
ATOM     94  C   UNL A   1      42.542  31.600  33.691  1.00  0.00     0.002 A 
ATOM     95  C   UNL A   1      44.773  31.624  32.788  1.00  0.00     0.091 A 
ATOM     96  F   UNL A   1      45.797  33.726  32.256  1.00  0.00    -0.205 F 
ATOM     97  C   UNL A   1      43.682  30.912  33.308  1.00  0.00     0.022 A 
BRANCH  95  98
ATOM     98  S   UNL A   1      46.109  30.583  32.134  1.00  0.00     0.127 S 
ATOM     99  O   UNL A   1      46.160  30.992  30.729  1.00  0.00    -0.237 OA
ATOM    100  O   UNL A   1      47.264  31.019  32.919  1.00  0.00    -0.237 OA
ATOM    101  O   UNL A   1      45.698  29.202  32.345  1.00  0.00    -0.744 OA
ENDBRANCH  95  98
ENDBRANCH  67  91
BRANCH  79 102
ATOM    102  C   UNL A   1      44.711  40.875  32.023  1.00  0.00     0.023 A 
ATOM    103  C   UNL A   1      46.030  41.245  31.704  1.00  0.00     0.012 A 
ATOM    104  C   UNL A   1      43.915  41.828  32.694  1.00  0.00     0.148 A 
ATOM    105  C   UNL A   1      46.556  42.480  32.079  1.00  0.00     0.002 A 
ATOM    106  C   UNL A   1      44.390  43.112  32.909  1.00  0.00     0.091 A 
ATOM    107  F   UNL A   1      42.676  41.509  33.100  1.00  0.00    -0.205 F 
ATOM    108  C   UNL A   1      45.723  43.431  32.649  1.00  0.00     0.022 A 
BRANCH 106 109
ATOM    109  S   UNL A   1      43.224  44.436  33.245  1.00  0.00     0.127 S 
ATOM    110  O   UNL A   1      42.340  44.368  32.086  1.00  0.00    -0.237 OA
ATOM    111  O   UNL A   1      42.618  44.009  34.508  1.00  0.00    -0.237 OA
ATOM    112  O   UNL A   1      44.064  45.623  33.362  1.00  0.00    -0.744 OA
ENDBRANCH 106 109
ENDBRANCH  79 102
ENDBRANCH  53  54
ENDBRANCH  46  48
ENDBRANCH  45  46
ENDBRANCH  44  45
ENDBRANCH  43  44
ENDBRANCH  42  43
ENDBRANCH   1  42
TORSDOF 24
ENDMDL
