MODEL 1
REMARK VINA RESULT:      -8.1      0.000      0.000
REMARK SMILES O=C(C[C@H](c1ccsc1)n1cccc1)OCCOCCOCCOC(=O)c1ccc(-c2c3nc(c(-c4cccc(S(=O)(=O)[O-])c4F)c4ccc([nH]4)c(-c4cccc(S(=O)(=O)[O-])c4F)c4nc(c(-c5cccc(S(=O)(=O)[O-])c5F)c5ccc2[nH]5)C=C4)C=C3)cc1
REMARK SMILES IDX 20 1 19 2 18 3 17 4 16 5 15 6 2 7 1 8 3 9 4 10 10 11 11 12
REMARK SMILES IDX 14 13 12 14 13 15 5 16 6 17 9 18 7 19 8 20 21 21 22 22 23 23
REMARK SMILES IDX 24 24 25 25 26 26 27 27 28 28 89 29 29 30 88 31 30 32 31 33
REMARK SMILES IDX 32 34 82 35 33 36 87 37 81 38 83 39 34 40 86 41 80 42 79 43
REMARK SMILES IDX 35 45 67 46 47 47 66 48 48 49 51 50 65 51 84 52 49 53 50 54
REMARK SMILES IDX 64 56 85 57 52 58 36 59 37 60 45 61 38 62 40 63 46 64 39 65
REMARK SMILES IDX 41 66 42 67 43 68 44 69 68 70 69 71 77 72 70 73 72 74 78 75
REMARK SMILES IDX 71 76 73 77 74 78 75 79 76 80 53 81 54 82 62 83 55 84 57 85
REMARK SMILES IDX 63 86 56 87 58 88 59 89 60 90 61 91
REMARK H PARENT 83 44 51 55
REMARK Flexibility Score: inf
ROOT
ATOM      1  C   UNL A   1      38.193  32.928  32.292  1.00  0.00     0.188 C 
ENDROOT
BRANCH   1   2
ATOM      2  C   UNL A   1      39.499  32.206  32.670  1.00  0.00     0.188 C 
BRANCH   2   3
ATOM      3  O   UNL A   1      39.628  31.482  33.882  1.00  0.00    -0.376 OA
BRANCH   3   4
ATOM      4  C   UNL A   1      40.835  31.478  34.621  1.00  0.00     0.202 C 
BRANCH   4   5
ATOM      5  C   UNL A   1      41.571  30.163  34.899  1.00  0.00     0.261 C 
BRANCH   5   6
ATOM      6  O   UNL A   1      41.196  28.991  34.154  1.00  0.00    -0.463 OA
BRANCH   6   7
ATOM      7  C   UNL A   1      41.675  27.740  34.288  1.00  0.00     0.308 C 
ATOM      8  O   UNL A   1      40.888  26.795  34.309  1.00  0.00    -0.252 OA
BRANCH   7   9
ATOM      9  C   UNL A   1      43.150  27.529  34.449  1.00  0.00     0.153 C 
BRANCH   9  10
ATOM     10  C   UNL A   1      43.486  26.544  35.571  1.00  0.00     0.128 C 
BRANCH  10  11
ATOM     11  N   UNL A   1      43.695  25.167  35.087  1.00  0.00    -0.346 N 
ATOM     12  C   UNL A   1      43.287  24.051  35.792  1.00  0.00     0.086 A 
ATOM     13  C   UNL A   1      44.326  24.741  33.945  1.00  0.00     0.086 A 
ATOM     14  C   UNL A   1      43.537  22.936  35.027  1.00  0.00     0.019 A 
ATOM     15  C   UNL A   1      44.193  23.373  33.858  1.00  0.00     0.019 A 
ENDBRANCH  10  11
BRANCH  10  16
ATOM     16  C   UNL A   1      44.568  27.095  36.494  1.00  0.00    -0.014 A 
ATOM     17  C   UNL A   1      45.619  28.017  36.133  1.00  0.00     0.017 A 
ATOM     18  C   UNL A   1      44.591  26.868  37.862  1.00  0.00     0.070 A 
ATOM     19  C   UNL A   1      46.373  28.424  37.211  1.00  0.00     0.065 A 
ATOM     20  S   UNL A   1      45.844  27.710  38.667  1.00  0.00    -0.152 S 
ENDBRANCH  10  16
ENDBRANCH   9  10
ENDBRANCH   7   9
ENDBRANCH   6   7
ENDBRANCH   5   6
ENDBRANCH   4   5
ENDBRANCH   3   4
ENDBRANCH   2   3
ENDBRANCH   1   2
BRANCH   1  21
ATOM     21  O   UNL A   1      38.335  33.998  31.368  1.00  0.00    -0.376 OA
BRANCH  21  22
ATOM     22  C   UNL A   1      37.851  33.771  30.052  1.00  0.00     0.202 C 
BRANCH  22  23
ATOM     23  C   UNL A   1      37.211  32.399  29.835  1.00  0.00     0.261 C 
BRANCH  23  24
ATOM     24  O   UNL A   1      37.337  31.878  28.518  1.00  0.00    -0.460 OA
BRANCH  24  25
ATOM     25  C   UNL A   1      36.629  30.763  28.288  1.00  0.00     0.338 C 
ATOM     26  O   UNL A   1      35.407  30.655  28.185  1.00  0.00    -0.246 OA
BRANCH  25  27
ATOM     27  C   UNL A   1      37.516  29.617  28.305  1.00  0.00     0.060 A 
ATOM     28  C   UNL A   1      37.570  28.813  29.449  1.00  0.00     0.016 A 
ATOM     29  C   UNL A   1      38.502  29.598  27.318  1.00  0.00     0.016 A 
ATOM     30  C   UNL A   1      38.708  28.060  29.667  1.00  0.00     0.010 A 
ATOM     31  C   UNL A   1      39.658  28.909  27.578  1.00  0.00     0.010 A 
ATOM     32  C   UNL A   1      39.772  28.177  28.766  1.00  0.00    -0.014 A 
BRANCH  32  33
ATOM     33  C   UNL A   1      41.062  27.539  29.064  1.00  0.00     0.031 A 
ATOM     34  C   UNL A   1      41.105  26.084  28.610  1.00  0.00     0.074 A 
ATOM     35  C   UNL A   1      41.984  28.353  29.662  1.00  0.00     0.049 A 
ATOM     36  N   UNL A   1      41.840  25.109  29.047  1.00  0.00    -0.248 NA
ATOM     37  C   UNL A   1      40.116  25.603  27.604  1.00  0.00     0.031 C 
ATOM     38  C   UNL A   1      41.742  29.771  30.021  1.00  0.00     0.029 A 
ATOM     39  N   UNL A   1      43.290  28.189  30.080  1.00  0.00    -0.354 N 
ATOM     40  C   UNL A   1      41.576  24.000  28.217  1.00  0.00     0.074 A 
ATOM     41  C   UNL A   1      40.406  24.310  27.461  1.00  0.00     0.031 C 
ATOM     42  C   UNL A   1      42.809  30.300  30.653  1.00  0.00     0.029 A 
ATOM     43  C   UNL A   1      43.869  29.313  30.721  1.00  0.00     0.049 A 
ATOM     44  H   UNL A   1      43.785  27.349  29.943  1.00  0.00     0.167 HD
ATOM     45  C   UNL A   1      42.435  22.953  28.083  1.00  0.00     0.034 A 
ATOM     46  C   UNL A   1      45.108  29.447  31.288  1.00  0.00     0.034 A 
ATOM     47  C   UNL A   1      43.599  23.181  28.874  1.00  0.00     0.049 A 
ATOM     48  C   UNL A   1      45.850  28.227  30.942  1.00  0.00     0.074 A 
ATOM     49  C   UNL A   1      43.852  23.089  30.215  1.00  0.00     0.029 A 
ATOM     50  N   UNL A   1      44.598  23.900  28.261  1.00  0.00    -0.354 N 
ATOM     51  N   UNL A   1      46.319  27.962  29.757  1.00  0.00    -0.248 NA
ATOM     52  C   UNL A   1      45.997  27.171  31.950  1.00  0.00     0.031 C 
ATOM     53  C   UNL A   1      44.845  24.062  30.445  1.00  0.00     0.029 A 
ATOM     54  C   UNL A   1      45.242  24.631  29.228  1.00  0.00     0.049 A 
ATOM     55  H   UNL A   1      44.813  23.892  27.301  1.00  0.00     0.167 HD
ATOM     56  C   UNL A   1      46.466  26.597  29.806  1.00  0.00     0.074 A 
ATOM     57  C   UNL A   1      46.595  26.249  31.202  1.00  0.00     0.031 C 
ATOM     58  C   UNL A   1      45.931  25.833  28.818  1.00  0.00     0.034 A 
BRANCH  45  59
ATOM     59  C   UNL A   1      42.483  21.791  27.131  1.00  0.00     0.023 A 
ATOM     60  C   UNL A   1      41.559  20.745  27.404  1.00  0.00     0.012 A 
ATOM     61  C   UNL A   1      43.509  21.526  26.207  1.00  0.00     0.148 A 
ATOM     62  C   UNL A   1      41.703  19.466  26.874  1.00  0.00     0.002 A 
ATOM     63  C   UNL A   1      43.617  20.254  25.636  1.00  0.00     0.091 A 
ATOM     64  F   UNL A   1      44.430  22.460  25.954  1.00  0.00    -0.205 F 
ATOM     65  C   UNL A   1      42.741  19.219  25.994  1.00  0.00     0.022 A 
BRANCH  63  66
ATOM     66  S   UNL A   1      44.871  19.857  24.413  1.00  0.00     0.127 S 
ATOM     67  O   UNL A   1      44.588  18.453  24.127  1.00  0.00    -0.237 OA
ATOM     68  O   UNL A   1      44.539  20.775  23.320  1.00  0.00    -0.237 OA
ATOM     69  O   UNL A   1      46.143  20.151  25.059  1.00  0.00    -0.744 OA
ENDBRANCH  63  66
ENDBRANCH  45  59
BRANCH  46  70
ATOM     70  C   UNL A   1      45.794  30.451  32.189  1.00  0.00     0.023 A 
ATOM     71  C   UNL A   1      45.693  30.456  33.587  1.00  0.00     0.012 A 
ATOM     72  C   UNL A   1      46.671  31.430  31.631  1.00  0.00     0.148 A 
ATOM     73  C   UNL A   1      46.495  31.301  34.381  1.00  0.00     0.002 A 
ATOM     74  C   UNL A   1      47.542  32.182  32.412  1.00  0.00     0.091 A 
ATOM     75  F   UNL A   1      46.645  31.677  30.319  1.00  0.00    -0.205 F 
ATOM     76  C   UNL A   1      47.452  32.129  33.798  1.00  0.00     0.022 A 
BRANCH  74  77
ATOM     77  S   UNL A   1      48.898  33.120  31.681  1.00  0.00     0.127 S 
ATOM     78  O   UNL A   1      49.570  33.665  32.859  1.00  0.00    -0.237 OA
ATOM     79  O   UNL A   1      49.638  32.069  30.983  1.00  0.00    -0.237 OA
ATOM     80  O   UNL A   1      48.287  34.110  30.802  1.00  0.00    -0.744 OA
ENDBRANCH  74  77
ENDBRANCH  46  70
BRANCH  58  81
ATOM     81  C   UNL A   1      45.837  26.535  27.469  1.00  0.00     0.023 A 
ATOM     82  C   UNL A   1      44.567  27.022  27.092  1.00  0.00     0.012 A 
ATOM     83  C   UNL A   1      46.878  26.632  26.517  1.00  0.00     0.148 A 
ATOM     84  C   UNL A   1      44.333  27.563  25.825  1.00  0.00     0.002 A 
ATOM     85  C   UNL A   1      46.643  27.171  25.246  1.00  0.00     0.091 A 
ATOM     86  F   UNL A   1      48.087  26.175  26.845  1.00  0.00    -0.205 F 
ATOM     87  C   UNL A   1      45.369  27.637  24.902  1.00  0.00     0.022 A 
BRANCH  85  88
ATOM     88  S   UNL A   1      47.899  27.295  23.958  1.00  0.00     0.127 S 
ATOM     89  O   UNL A   1      48.145  25.893  23.618  1.00  0.00    -0.237 OA
ATOM     90  O   UNL A   1      47.204  28.049  22.916  1.00  0.00    -0.237 OA
ATOM     91  O   UNL A   1      49.034  27.983  24.558  1.00  0.00    -0.744 OA
ENDBRANCH  85  88
ENDBRANCH  58  81
ENDBRANCH  32  33
ENDBRANCH  25  27
ENDBRANCH  24  25
ENDBRANCH  23  24
ENDBRANCH  22  23
ENDBRANCH  21  22
ENDBRANCH   1  21
TORSDOF 23
ENDMDL
MODEL 2
REMARK VINA RESULT:      -7.8      5.725     12.217
REMARK SMILES O=C(C[C@H](c1ccsc1)n1cccc1)OCCOCCOCCOC(=O)c1ccc(-c2c3nc(c(-c4cccc(S(=O)(=O)[O-])c4F)c4ccc([nH]4)c(-c4cccc(S(=O)(=O)[O-])c4F)c4nc(c(-c5cccc(S(=O)(=O)[O-])c5F)c5ccc2[nH]5)C=C4)C=C3)cc1
REMARK SMILES IDX 20 1 19 2 18 3 17 4 16 5 15 6 2 7 1 8 3 9 4 10 10 11 11 12
REMARK SMILES IDX 14 13 12 14 13 15 5 16 6 17 9 18 7 19 8 20 21 21 22 22 23 23
REMARK SMILES IDX 24 24 25 25 26 26 27 27 28 28 89 29 29 30 88 31 30 32 31 33
REMARK SMILES IDX 32 34 82 35 33 36 87 37 81 38 83 39 34 40 86 41 80 42 79 43
REMARK SMILES IDX 35 45 67 46 47 47 66 48 48 49 51 50 65 51 84 52 49 53 50 54
REMARK SMILES IDX 64 56 85 57 52 58 36 59 37 60 45 61 38 62 40 63 46 64 39 65
REMARK SMILES IDX 41 66 42 67 43 68 44 69 68 70 69 71 77 72 70 73 72 74 78 75
REMARK SMILES IDX 71 76 73 77 74 78 75 79 76 80 53 81 54 82 62 83 55 84 57 85
REMARK SMILES IDX 63 86 56 87 58 88 59 89 60 90 61 91
REMARK H PARENT 83 44 51 55
REMARK Flexibility Score: inf
ROOT
ATOM      1  C   UNL A   1      36.279  22.116  24.705  1.00  0.00     0.188 C 
ENDROOT
BRANCH   1   2
ATOM      2  C   UNL A   1      35.791  23.119  23.644  1.00  0.00     0.188 C 
BRANCH   2   3
ATOM      3  O   UNL A   1      34.631  23.911  23.844  1.00  0.00    -0.376 OA
BRANCH   3   4
ATOM      4  C   UNL A   1      33.509  23.420  24.552  1.00  0.00     0.202 C 
BRANCH   4   5
ATOM      5  C   UNL A   1      32.668  24.359  25.422  1.00  0.00     0.261 C 
BRANCH   5   6
ATOM      6  O   UNL A   1      31.242  24.382  25.234  1.00  0.00    -0.463 OA
BRANCH   6   7
ATOM      7  C   UNL A   1      30.556  24.845  24.172  1.00  0.00     0.308 C 
ATOM      8  O   UNL A   1      30.557  24.197  23.127  1.00  0.00    -0.252 OA
BRANCH   7   9
ATOM      9  C   UNL A   1      29.842  26.160  24.272  1.00  0.00     0.153 C 
BRANCH   9  10
ATOM     10  C   UNL A   1      30.704  27.336  23.806  1.00  0.00     0.128 C 
BRANCH  10  11
ATOM     11  N   UNL A   1      29.926  28.389  23.128  1.00  0.00    -0.346 N 
ATOM     12  C   UNL A   1      30.512  29.399  22.389  1.00  0.00     0.086 A 
ATOM     13  C   UNL A   1      28.570  28.591  23.125  1.00  0.00     0.086 A 
ATOM     14  C   UNL A   1      29.515  30.149  21.810  1.00  0.00     0.019 A 
ATOM     15  C   UNL A   1      28.287  29.637  22.274  1.00  0.00     0.019 A 
ENDBRANCH  10  11
BRANCH  10  16
ATOM     16  C   UNL A   1      31.645  27.810  24.909  1.00  0.00    -0.014 A 
ATOM     17  C   UNL A   1      31.324  27.963  26.308  1.00  0.00     0.017 A 
ATOM     18  C   UNL A   1      32.999  28.035  24.711  1.00  0.00     0.070 A 
ATOM     19  C   UNL A   1      32.414  28.297  27.080  1.00  0.00     0.065 A 
ATOM     20  S   UNL A   1      33.836  28.438  26.147  1.00  0.00    -0.152 S 
ENDBRANCH  10  16
ENDBRANCH   9  10
ENDBRANCH   7   9
ENDBRANCH   6   7
ENDBRANCH   5   6
ENDBRANCH   4   5
ENDBRANCH   3   4
ENDBRANCH   2   3
ENDBRANCH   1   2
BRANCH   1  21
ATOM     21  O   UNL A   1      37.682  21.889  24.727  1.00  0.00    -0.376 OA
BRANCH  21  22
ATOM     22  C   UNL A   1      38.366  22.249  25.918  1.00  0.00     0.202 C 
BRANCH  22  23
ATOM     23  C   UNL A   1      38.496  23.755  26.149  1.00  0.00     0.261 C 
BRANCH  23  24
ATOM     24  O   UNL A   1      39.407  24.130  27.174  1.00  0.00    -0.460 OA
BRANCH  24  25
ATOM     25  C   UNL A   1      40.156  25.204  26.891  1.00  0.00     0.338 C 
ATOM     26  O   UNL A   1      41.177  25.251  26.204  1.00  0.00    -0.246 OA
BRANCH  25  27
ATOM     27  C   UNL A   1      39.665  26.346  27.637  1.00  0.00     0.060 A 
ATOM     28  C   UNL A   1      40.175  27.617  27.353  1.00  0.00     0.016 A 
ATOM     29  C   UNL A   1      38.978  26.050  28.815  1.00  0.00     0.016 A 
ATOM     30  C   UNL A   1      40.101  28.587  28.335  1.00  0.00     0.010 A 
ATOM     31  C   UNL A   1      38.976  26.992  29.811  1.00  0.00     0.010 A 
ATOM     32  C   UNL A   1      39.570  28.239  29.582  1.00  0.00    -0.014 A 
BRANCH  32  33
ATOM     33  C   UNL A   1      39.647  29.185  30.703  1.00  0.00     0.031 A 
ATOM     34  C   UNL A   1      40.827  28.895  31.624  1.00  0.00     0.074 A 
ATOM     35  C   UNL A   1      38.680  30.153  30.709  1.00  0.00     0.049 A 
ATOM     36  N   UNL A   1      40.984  29.195  32.877  1.00  0.00    -0.248 NA
ATOM     37  C   UNL A   1      41.951  28.051  31.128  1.00  0.00     0.031 C 
ATOM     38  C   UNL A   1      37.604  30.269  29.696  1.00  0.00     0.029 A 
ATOM     39  N   UNL A   1      38.395  31.228  31.528  1.00  0.00    -0.354 N 
ATOM     40  C   UNL A   1      42.293  28.802  33.224  1.00  0.00     0.074 A 
ATOM     41  C   UNL A   1      42.777  27.971  32.170  1.00  0.00     0.031 C 
ATOM     42  C   UNL A   1      36.763  31.280  29.995  1.00  0.00     0.029 A 
ATOM     43  C   UNL A   1      37.229  31.959  31.188  1.00  0.00     0.049 A 
ATOM     44  H   UNL A   1      38.962  31.470  32.296  1.00  0.00     0.167 HD
ATOM     45  C   UNL A   1      42.965  29.322  34.288  1.00  0.00     0.034 A 
ATOM     46  C   UNL A   1      36.656  33.027  31.825  1.00  0.00     0.034 A 
ATOM     47  C   UNL A   1      42.156  30.298  34.938  1.00  0.00     0.049 A 
ATOM     48  C   UNL A   1      37.603  33.432  32.874  1.00  0.00     0.074 A 
ATOM     49  C   UNL A   1      41.083  30.214  35.782  1.00  0.00     0.029 A 
ATOM     50  N   UNL A   1      42.250  31.574  34.433  1.00  0.00    -0.354 N 
ATOM     51  N   UNL A   1      38.728  34.049  32.653  1.00  0.00    -0.248 NA
ATOM     52  C   UNL A   1      37.342  33.037  34.263  1.00  0.00     0.031 C 
ATOM     53  C   UNL A   1      40.334  31.376  35.504  1.00  0.00     0.029 A 
ATOM     54  C   UNL A   1      41.027  32.178  34.588  1.00  0.00     0.049 A 
ATOM     55  H   UNL A   1      43.051  31.981  34.031  1.00  0.00     0.167 HD
ATOM     56  C   UNL A   1      39.437  33.771  33.796  1.00  0.00     0.074 A 
ATOM     57  C   UNL A   1      38.461  33.484  34.822  1.00  0.00     0.031 C 
ATOM     58  C   UNL A   1      40.693  33.264  33.695  1.00  0.00     0.034 A 
BRANCH  45  59
ATOM     59  C   UNL A   1      44.399  29.230  34.730  1.00  0.00     0.023 A 
ATOM     60  C   UNL A   1      45.097  30.467  34.782  1.00  0.00     0.012 A 
ATOM     61  C   UNL A   1      45.159  28.051  34.815  1.00  0.00     0.148 A 
ATOM     62  C   UNL A   1      46.488  30.538  34.810  1.00  0.00     0.002 A 
ATOM     63  C   UNL A   1      46.553  28.129  34.896  1.00  0.00     0.091 A 
ATOM     64  F   UNL A   1      44.554  26.863  34.721  1.00  0.00    -0.205 F 
ATOM     65  C   UNL A   1      47.217  29.363  34.857  1.00  0.00     0.022 A 
BRANCH  63  66
ATOM     66  S   UNL A   1      47.586  26.667  35.056  1.00  0.00     0.127 S 
ATOM     67  O   UNL A   1      48.921  27.247  35.182  1.00  0.00    -0.237 OA
ATOM     68  O   UNL A   1      47.073  26.059  36.287  1.00  0.00    -0.237 OA
ATOM     69  O   UNL A   1      47.323  25.879  33.860  1.00  0.00    -0.744 OA
ENDBRANCH  63  66
ENDBRANCH  45  59
BRANCH  46  70
ATOM     70  C   UNL A   1      35.338  33.765  31.750  1.00  0.00     0.023 A 
ATOM     71  C   UNL A   1      34.700  34.357  32.850  1.00  0.00     0.012 A 
ATOM     72  C   UNL A   1      34.700  33.964  30.488  1.00  0.00     0.148 A 
ATOM     73  C   UNL A   1      33.569  35.182  32.689  1.00  0.00     0.002 A 
ATOM     74  C   UNL A   1      33.657  34.865  30.314  1.00  0.00     0.091 A 
ATOM     75  F   UNL A   1      35.078  33.241  29.430  1.00  0.00    -0.205 F 
ATOM     76  C   UNL A   1      33.075  35.475  31.420  1.00  0.00     0.022 A 
BRANCH  74  77
ATOM     77  S   UNL A   1      33.123  35.390  28.673  1.00  0.00     0.127 S 
ATOM     78  O   UNL A   1      32.169  36.453  28.981  1.00  0.00    -0.237 OA
ATOM     79  O   UNL A   1      34.384  35.847  28.088  1.00  0.00    -0.237 OA
ATOM     80  O   UNL A   1      32.554  34.213  28.028  1.00  0.00    -0.744 OA
ENDBRANCH  74  77
ENDBRANCH  46  70
BRANCH  58  81
ATOM     81  C   UNL A   1      41.432  33.678  32.429  1.00  0.00     0.023 A 
ATOM     82  C   UNL A   1      41.241  32.871  31.287  1.00  0.00     0.012 A 
ATOM     83  C   UNL A   1      42.382  34.722  32.335  1.00  0.00     0.148 A 
ATOM     84  C   UNL A   1      41.969  33.075  30.112  1.00  0.00     0.002 A 
ATOM     85  C   UNL A   1      43.113  34.924  31.158  1.00  0.00     0.091 A 
ATOM     86  F   UNL A   1      42.587  35.496  33.401  1.00  0.00    -0.205 F 
ATOM     87  C   UNL A   1      42.904  34.100  30.046  1.00  0.00     0.022 A 
BRANCH  85  88
ATOM     88  S   UNL A   1      44.371  36.202  30.963  1.00  0.00     0.127 S 
ATOM     89  O   UNL A   1      43.655  37.416  31.360  1.00  0.00    -0.237 OA
ATOM     90  O   UNL A   1      45.398  35.778  31.912  1.00  0.00    -0.237 OA
ATOM     91  O   UNL A   1      44.776  36.167  29.565  1.00  0.00    -0.744 OA
ENDBRANCH  85  88
ENDBRANCH  58  81
ENDBRANCH  32  33
ENDBRANCH  25  27
ENDBRANCH  24  25
ENDBRANCH  23  24
ENDBRANCH  22  23
ENDBRANCH  21  22
ENDBRANCH   1  21
TORSDOF 23
ENDMDL
MODEL 3
REMARK VINA RESULT:      -7.6      5.480     12.149
REMARK SMILES O=C(C[C@H](c1ccsc1)n1cccc1)OCCOCCOCCOC(=O)c1ccc(-c2c3nc(c(-c4cccc(S(=O)(=O)[O-])c4F)c4ccc([nH]4)c(-c4cccc(S(=O)(=O)[O-])c4F)c4nc(c(-c5cccc(S(=O)(=O)[O-])c5F)c5ccc2[nH]5)C=C4)C=C3)cc1
REMARK SMILES IDX 20 1 19 2 18 3 17 4 16 5 15 6 2 7 1 8 3 9 4 10 10 11 11 12
REMARK SMILES IDX 14 13 12 14 13 15 5 16 6 17 9 18 7 19 8 20 21 21 22 22 23 23
REMARK SMILES IDX 24 24 25 25 26 26 27 27 28 28 89 29 29 30 88 31 30 32 31 33
REMARK SMILES IDX 32 34 82 35 33 36 87 37 81 38 83 39 34 40 86 41 80 42 79 43
REMARK SMILES IDX 35 45 67 46 47 47 66 48 48 49 51 50 65 51 84 52 49 53 50 54
REMARK SMILES IDX 64 56 85 57 52 58 36 59 37 60 45 61 38 62 40 63 46 64 39 65
REMARK SMILES IDX 41 66 42 67 43 68 44 69 68 70 69 71 77 72 70 73 72 74 78 75
REMARK SMILES IDX 71 76 73 77 74 78 75 79 76 80 53 81 54 82 62 83 55 84 57 85
REMARK SMILES IDX 63 86 56 87 58 88 59 89 60 90 61 91
REMARK H PARENT 83 44 51 55
REMARK Flexibility Score: inf
ROOT
ATOM      1  C   UNL A   1      36.614  22.298  24.309  1.00  0.00     0.188 C 
ENDROOT
BRANCH   1   2
ATOM      2  C   UNL A   1      35.118  22.100  24.614  1.00  0.00     0.188 C 
BRANCH   2   3
ATOM      3  O   UNL A   1      34.109  22.570  23.735  1.00  0.00    -0.376 OA
BRANCH   3   4
ATOM      4  C   UNL A   1      33.281  23.667  24.073  1.00  0.00     0.202 C 
BRANCH   4   5
ATOM      5  C   UNL A   1      33.812  25.100  23.974  1.00  0.00     0.261 C 
BRANCH   5   6
ATOM      6  O   UNL A   1      33.606  25.830  22.752  1.00  0.00    -0.463 OA
BRANCH   6   7
ATOM      7  C   UNL A   1      33.023  27.034  22.598  1.00  0.00     0.308 C 
ATOM      8  O   UNL A   1      33.690  27.975  22.171  1.00  0.00    -0.252 OA
BRANCH   7   9
ATOM      9  C   UNL A   1      31.587  27.212  22.989  1.00  0.00     0.153 C 
BRANCH   9  10
ATOM     10  C   UNL A   1      31.299  28.602  23.564  1.00  0.00     0.128 C 
BRANCH  10  11
ATOM     11  N   UNL A   1      29.911  29.044  23.338  1.00  0.00    -0.346 N 
ATOM     12  C   UNL A   1      28.897  28.181  22.972  1.00  0.00     0.086 A 
ATOM     13  C   UNL A   1      29.390  30.311  23.399  1.00  0.00     0.086 A 
ATOM     14  C   UNL A   1      27.715  28.884  22.942  1.00  0.00     0.019 A 
ATOM     15  C   UNL A   1      28.027  30.232  23.214  1.00  0.00     0.019 A 
ENDBRANCH  10  11
BRANCH  10  16
ATOM     16  C   UNL A   1      31.815  28.733  24.993  1.00  0.00    -0.014 A 
ATOM     17  C   UNL A   1      31.786  27.714  26.015  1.00  0.00     0.017 A 
ATOM     18  C   UNL A   1      32.510  29.841  25.454  1.00  0.00     0.070 A 
ATOM     19  C   UNL A   1      32.433  28.090  27.171  1.00  0.00     0.065 A 
ATOM     20  S   UNL A   1      33.078  29.665  27.058  1.00  0.00    -0.152 S 
ENDBRANCH  10  16
ENDBRANCH   9  10
ENDBRANCH   7   9
ENDBRANCH   6   7
ENDBRANCH   5   6
ENDBRANCH   4   5
ENDBRANCH   3   4
ENDBRANCH   2   3
ENDBRANCH   1   2
BRANCH   1  21
ATOM     21  O   UNL A   1      37.476  21.285  24.811  1.00  0.00    -0.376 OA
BRANCH  21  22
ATOM     22  C   UNL A   1      38.516  21.707  25.680  1.00  0.00     0.202 C 
BRANCH  22  23
ATOM     23  C   UNL A   1      38.418  23.165  26.131  1.00  0.00     0.261 C 
BRANCH  23  24
ATOM     24  O   UNL A   1      39.044  23.454  27.374  1.00  0.00    -0.460 OA
BRANCH  24  25
ATOM     25  C   UNL A   1      40.170  24.175  27.279  1.00  0.00     0.338 C 
ATOM     26  O   UNL A   1      41.316  23.762  27.099  1.00  0.00    -0.246 OA
BRANCH  25  27
ATOM     27  C   UNL A   1      39.877  25.566  27.559  1.00  0.00     0.060 A 
ATOM     28  C   UNL A   1      40.144  26.530  26.580  1.00  0.00     0.016 A 
ATOM     29  C   UNL A   1      39.677  25.886  28.902  1.00  0.00     0.016 A 
ATOM     30  C   UNL A   1      40.337  27.837  26.983  1.00  0.00     0.010 A 
ATOM     31  C   UNL A   1      39.945  27.169  29.305  1.00  0.00     0.010 A 
ATOM     32  C   UNL A   1      40.311  28.128  28.352  1.00  0.00    -0.014 A 
BRANCH  32  33
ATOM     33  C   UNL A   1      40.695  29.463  28.827  1.00  0.00     0.031 A 
ATOM     34  C   UNL A   1      39.491  30.288  29.267  1.00  0.00     0.074 A 
ATOM     35  C   UNL A   1      42.040  29.716  28.814  1.00  0.00     0.049 A 
ATOM     36  N   UNL A   1      39.358  31.577  29.330  1.00  0.00    -0.248 NA
ATOM     37  C   UNL A   1      38.206  29.599  29.576  1.00  0.00     0.031 C 
ATOM     38  C   UNL A   1      43.068  28.757  28.346  1.00  0.00     0.029 A 
ATOM     39  N   UNL A   1      42.824  30.790  29.187  1.00  0.00    -0.354 N 
ATOM     40  C   UNL A   1      38.094  31.824  29.906  1.00  0.00     0.074 A 
ATOM     41  C   UNL A   1      37.375  30.592  29.887  1.00  0.00     0.031 C 
ATOM     42  C   UNL A   1      44.299  29.305  28.391  1.00  0.00     0.029 A 
ATOM     43  C   UNL A   1      44.212  30.643  28.942  1.00  0.00     0.049 A 
ATOM     44  H   UNL A   1      42.445  31.602  29.594  1.00  0.00     0.167 HD
ATOM     45  C   UNL A   1      37.775  32.998  30.517  1.00  0.00     0.034 A 
ATOM     46  C   UNL A   1      45.230  31.537  29.145  1.00  0.00     0.034 A 
ATOM     47  C   UNL A   1      38.897  33.876  30.490  1.00  0.00     0.049 A 
ATOM     48  C   UNL A   1      44.640  32.669  29.873  1.00  0.00     0.074 A 
ATOM     49  C   UNL A   1      39.457  34.651  29.511  1.00  0.00     0.029 A 
ATOM     50  N   UNL A   1      39.783  33.734  31.532  1.00  0.00    -0.354 N 
ATOM     51  N   UNL A   1      44.292  32.638  31.127  1.00  0.00    -0.248 NA
ATOM     52  C   UNL A   1      44.311  33.896  29.139  1.00  0.00     0.031 C 
ATOM     53  C   UNL A   1      40.827  34.686  29.841  1.00  0.00     0.029 A 
ATOM     54  C   UNL A   1      41.037  34.030  31.060  1.00  0.00     0.049 A 
ATOM     55  H   UNL A   1      39.557  33.469  32.453  1.00  0.00     0.167 HD
ATOM     56  C   UNL A   1      43.393  33.674  31.201  1.00  0.00     0.074 A 
ATOM     57  C   UNL A   1      43.713  34.570  30.115  1.00  0.00     0.031 C 
ATOM     58  C   UNL A   1      42.171  33.458  31.752  1.00  0.00     0.034 A 
BRANCH  45  59
ATOM     59  C   UNL A   1      36.609  33.419  31.367  1.00  0.00     0.023 A 
ATOM     60  C   UNL A   1      36.444  32.688  32.575  1.00  0.00     0.012 A 
ATOM     61  C   UNL A   1      35.546  34.242  30.956  1.00  0.00     0.148 A 
ATOM     62  C   UNL A   1      35.247  32.684  33.287  1.00  0.00     0.002 A 
ATOM     63  C   UNL A   1      34.365  34.276  31.705  1.00  0.00     0.091 A 
ATOM     64  F   UNL A   1      35.634  34.912  29.803  1.00  0.00    -0.205 F 
ATOM     65  C   UNL A   1      34.202  33.475  32.843  1.00  0.00     0.022 A 
BRANCH  63  66
ATOM     66  S   UNL A   1      32.985  35.340  31.267  1.00  0.00     0.127 S 
ATOM     67  O   UNL A   1      33.603  36.663  31.272  1.00  0.00    -0.237 OA
ATOM     68  O   UNL A   1      32.624  34.846  29.936  1.00  0.00    -0.237 OA
ATOM     69  O   UNL A   1      31.970  35.086  32.281  1.00  0.00    -0.744 OA
ENDBRANCH  63  66
ENDBRANCH  45  59
BRANCH  46  70
ATOM     70  C   UNL A   1      46.685  31.645  28.745  1.00  0.00     0.023 A 
ATOM     71  C   UNL A   1      47.143  31.623  27.420  1.00  0.00     0.012 A 
ATOM     72  C   UNL A   1      47.687  31.860  29.740  1.00  0.00     0.148 A 
ATOM     73  C   UNL A   1      48.486  31.906  27.100  1.00  0.00     0.002 A 
ATOM     74  C   UNL A   1      48.982  32.250  29.421  1.00  0.00     0.091 A 
ATOM     75  F   UNL A   1      47.402  31.647  31.027  1.00  0.00    -0.205 F 
ATOM     76  C   UNL A   1      49.395  32.266  28.094  1.00  0.00     0.022 A 
BRANCH  74  77
ATOM     77  S   UNL A   1      50.113  32.887  30.673  1.00  0.00     0.127 S 
ATOM     78  O   UNL A   1      50.566  31.665  31.334  1.00  0.00    -0.237 OA
ATOM     79  O   UNL A   1      51.123  33.548  29.846  1.00  0.00    -0.237 OA
ATOM     80  O   UNL A   1      49.335  33.793  31.509  1.00  0.00    -0.744 OA
ENDBRANCH  74  77
ENDBRANCH  46  70
BRANCH  58  81
ATOM     81  C   UNL A   1      42.148  32.360  32.809  1.00  0.00     0.023 A 
ATOM     82  C   UNL A   1      41.566  31.130  32.437  1.00  0.00     0.012 A 
ATOM     83  C   UNL A   1      42.547  32.508  34.158  1.00  0.00     0.148 A 
ATOM     84  C   UNL A   1      41.369  30.100  33.361  1.00  0.00     0.002 A 
ATOM     85  C   UNL A   1      42.348  31.477  35.083  1.00  0.00     0.091 A 
ATOM     86  F   UNL A   1      43.095  33.663  34.537  1.00  0.00    -0.205 F 
ATOM     87  C   UNL A   1      41.759  30.272  34.683  1.00  0.00     0.022 A 
BRANCH  85  88
ATOM     88  S   UNL A   1      42.787  31.594  36.829  1.00  0.00     0.127 S 
ATOM     89  O   UNL A   1      43.903  30.653  36.939  1.00  0.00    -0.237 OA
ATOM     90  O   UNL A   1      43.175  32.997  36.961  1.00  0.00    -0.237 OA
ATOM     91  O   UNL A   1      41.597  31.214  37.577  1.00  0.00    -0.744 OA
ENDBRANCH  85  88
ENDBRANCH  58  81
ENDBRANCH  32  33
ENDBRANCH  25  27
ENDBRANCH  24  25
ENDBRANCH  23  24
ENDBRANCH  22  23
ENDBRANCH  21  22
ENDBRANCH   1  21
TORSDOF 23
ENDMDL
