MODEL 1
REMARK VINA RESULT:     -10.4      0.000      0.000
REMARK SMILES Cc1cccc(-c2cc(C(=O)OCCOCCOCCOC(=O)c3ccc(-c4c5nc(c(-c6cccc(S(=O)(=O)[O-])c6F)c6ccc([nH]6)c(-c6cccc(S(=O)(=O)[O-])c6F)c6nc(c(-c7cccc(S(=O)(=O)[O-])c7F)c7ccc4[nH]7)C=C6)C=C5)cc3)ccn2)c1
REMARK SMILES IDX 17 1 16 2 15 3 14 4 13 5 12 6 10 7 11 8 9 9 7 10 8 11 89 12
REMARK SMILES IDX 88 13 87 14 6 15 1 16 2 17 3 18 90 19 4 20 5 21 18 22 19 23
REMARK SMILES IDX 20 24 21 25 22 26 23 27 24 28 25 29 86 30 26 31 85 32 27 33
REMARK SMILES IDX 28 34 29 35 79 36 30 37 84 38 78 39 80 40 31 41 83 42 77 43
REMARK SMILES IDX 76 44 32 46 64 47 44 48 63 49 45 50 48 51 62 52 81 53 46 54
REMARK SMILES IDX 47 55 61 57 82 58 49 59 33 60 34 61 42 62 35 63 37 64 43 65
REMARK SMILES IDX 36 66 38 67 39 68 40 69 41 70 65 71 66 72 74 73 67 74 69 75
REMARK SMILES IDX 75 76 68 77 70 78 71 79 72 80 73 81 50 82 51 83 59 84 52 85
REMARK SMILES IDX 54 86 60 87 53 88 55 89 56 90 57 91 58 92
REMARK H PARENT 80 45 48 56
REMARK Flexibility Score: inf
ROOT
ATOM      1  C   UNL A   1      37.872  22.162  25.743  1.00  0.00     0.188 C 
ENDROOT
BRANCH   1   2
ATOM      2  C   UNL A   1      37.220  21.426  24.578  1.00  0.00     0.188 C 
BRANCH   2   3
ATOM      3  O   UNL A   1      36.084  20.727  25.042  1.00  0.00    -0.376 OA
BRANCH   3   4
ATOM      4  C   UNL A   1      34.982  21.607  25.264  1.00  0.00     0.202 C 
BRANCH   4   5
ATOM      5  C   UNL A   1      34.554  22.548  24.030  1.00  0.00     0.261 C 
BRANCH   5   6
ATOM      6  O   UNL A   1      35.000  23.993  23.718  1.00  0.00    -0.460 OA
BRANCH   6   7
ATOM      7  C   UNL A   1      34.010  24.868  23.406  1.00  0.00     0.338 C 
ATOM      8  O   UNL A   1      33.792  24.835  22.210  1.00  0.00    -0.246 OA
BRANCH   7   9
ATOM      9  C   UNL A   1      33.051  25.805  24.318  1.00  0.00     0.063 A 
ATOM     10  C   UNL A   1      32.629  27.080  26.253  1.00  0.00     0.071 A 
ATOM     11  C   UNL A   1      33.560  26.475  25.373  1.00  0.00     0.044 A 
ATOM     12  N   UNL A   1      31.287  26.924  26.338  1.00  0.00    -0.256 NA
ATOM     13  C   UNL A   1      30.762  26.314  25.309  1.00  0.00     0.112 A 
ATOM     14  C   UNL A   1      31.594  25.828  24.312  1.00  0.00     0.036 A 
BRANCH  10  15
ATOM     15  C   UNL A   1      33.013  28.346  26.777  1.00  0.00     0.000 A 
ATOM     16  C   UNL A   1      31.403  31.716  26.505  1.00  0.00     0.044 C 
ATOM     17  C   UNL A   1      32.404  30.661  26.860  1.00  0.00    -0.050 A 
ATOM     18  C   UNL A   1      33.721  30.926  27.251  1.00  0.00     0.003 A 
ATOM     19  C   UNL A   1      32.040  29.349  26.688  1.00  0.00     0.013 A 
ATOM     20  C   UNL A   1      34.642  29.889  27.492  1.00  0.00     0.001 A 
ATOM     21  C   UNL A   1      34.285  28.578  27.257  1.00  0.00     0.010 A 
ENDBRANCH  10  15
ENDBRANCH   7   9
ENDBRANCH   6   7
ENDBRANCH   5   6
ENDBRANCH   4   5
ENDBRANCH   3   4
ENDBRANCH   2   3
ENDBRANCH   1   2
BRANCH   1  22
ATOM     22  O   UNL A   1      39.218  21.771  25.994  1.00  0.00    -0.376 OA
BRANCH  22  23
ATOM     23  C   UNL A   1      40.012  22.771  26.631  1.00  0.00     0.202 C 
BRANCH  23  24
ATOM     24  C   UNL A   1      40.993  22.331  27.790  1.00  0.00     0.261 C 
BRANCH  24  25
ATOM     25  O   UNL A   1      41.545  23.449  28.571  1.00  0.00    -0.460 OA
BRANCH  25  26
ATOM     26  C   UNL A   1      42.602  24.234  28.161  1.00  0.00     0.338 C 
ATOM     27  O   UNL A   1      43.675  23.778  27.770  1.00  0.00    -0.246 OA
BRANCH  26  28
ATOM     28  C   UNL A   1      42.244  25.700  28.152  1.00  0.00     0.060 A 
ATOM     29  C   UNL A   1      42.987  26.789  28.582  1.00  0.00     0.016 A 
ATOM     30  C   UNL A   1      41.086  26.102  27.592  1.00  0.00     0.016 A 
ATOM     31  C   UNL A   1      42.368  28.039  29.009  1.00  0.00     0.010 A 
ATOM     32  C   UNL A   1      40.501  27.301  28.056  1.00  0.00     0.010 A 
ATOM     33  C   UNL A   1      40.996  28.227  29.031  1.00  0.00    -0.014 A 
BRANCH  33  34
ATOM     34  C   UNL A   1      40.195  29.244  30.211  1.00  0.00     0.031 A 
ATOM     35  C   UNL A   1      39.161  30.661  30.136  1.00  0.00     0.074 A 
ATOM     36  C   UNL A   1      40.060  28.628  31.393  1.00  0.00     0.049 A 
ATOM     37  N   UNL A   1      39.462  31.957  30.122  1.00  0.00    -0.248 NA
ATOM     38  C   UNL A   1      37.680  30.570  29.890  1.00  0.00     0.031 C 
ATOM     39  C   UNL A   1      39.202  28.979  32.507  1.00  0.00     0.029 A 
ATOM     40  N   UNL A   1      40.899  27.654  31.895  1.00  0.00    -0.354 N 
ATOM     41  C   UNL A   1      38.243  32.655  29.764  1.00  0.00     0.074 A 
ATOM     42  C   UNL A   1      37.463  31.643  29.122  1.00  0.00     0.031 C 
ATOM     43  C   UNL A   1      39.749  28.472  33.625  1.00  0.00     0.029 A 
ATOM     44  C   UNL A   1      41.037  27.900  33.262  1.00  0.00     0.049 A 
ATOM     45  H   UNL A   1      41.319  26.924  31.386  1.00  0.00     0.167 HD
ATOM     46  C   UNL A   1      37.425  33.426  30.587  1.00  0.00     0.034 A 
ATOM     47  C   UNL A   1      42.263  28.355  33.672  1.00  0.00     0.034 A 
ATOM     48  C   UNL A   1      37.750  33.102  31.964  1.00  0.00     0.049 A 
ATOM     49  C   UNL A   1      42.233  29.841  34.036  1.00  0.00     0.074 A 
ATOM     50  C   UNL A   1      37.222  32.218  32.892  1.00  0.00     0.029 A 
ATOM     51  N   UNL A   1      38.989  33.459  32.409  1.00  0.00    -0.354 N 
ATOM     52  N   UNL A   1      41.191  30.624  33.888  1.00  0.00    -0.248 NA
ATOM     53  C   UNL A   1      43.352  30.557  34.644  1.00  0.00     0.031 C 
ATOM     54  C   UNL A   1      38.241  31.963  33.857  1.00  0.00     0.029 A 
ATOM     55  C   UNL A   1      39.347  32.723  33.520  1.00  0.00     0.049 A 
ATOM     56  H   UNL A   1      39.553  34.149  31.993  1.00  0.00     0.167 HD
ATOM     57  C   UNL A   1      41.499  31.909  34.261  1.00  0.00     0.074 A 
ATOM     58  C   UNL A   1      42.842  31.793  34.796  1.00  0.00     0.031 C 
ATOM     59  C   UNL A   1      40.670  32.980  34.059  1.00  0.00     0.034 A 
BRANCH  46  60
ATOM     60  C   UNL A   1      35.977  33.923  30.188  1.00  0.00     0.023 A 
ATOM     61  C   UNL A   1      35.587  33.809  28.831  1.00  0.00     0.012 A 
ATOM     62  C   UNL A   1      34.994  34.504  31.049  1.00  0.00     0.148 A 
ATOM     63  C   UNL A   1      34.368  34.308  28.335  1.00  0.00     0.002 A 
ATOM     64  C   UNL A   1      33.792  35.050  30.542  1.00  0.00     0.091 A 
ATOM     65  F   UNL A   1      35.219  34.526  32.372  1.00  0.00    -0.205 F 
ATOM     66  C   UNL A   1      33.483  34.953  29.182  1.00  0.00     0.022 A 
BRANCH  64  67
ATOM     67  S   UNL A   1      32.608  35.990  31.544  1.00  0.00     0.127 S 
ATOM     68  O   UNL A   1      32.131  34.986  32.499  1.00  0.00    -0.237 OA
ATOM     69  O   UNL A   1      33.445  37.032  32.135  1.00  0.00    -0.237 OA
ATOM     70  O   UNL A   1      31.586  36.452  30.613  1.00  0.00    -0.744 OA
ENDBRANCH  64  67
ENDBRANCH  46  60
BRANCH  47  71
ATOM     71  C   UNL A   1      43.371  27.518  33.058  1.00  0.00     0.023 A 
ATOM     72  C   UNL A   1      44.212  28.235  32.154  1.00  0.00     0.012 A 
ATOM     73  C   UNL A   1      43.861  26.300  33.564  1.00  0.00     0.148 A 
ATOM     74  C   UNL A   1      45.554  27.902  31.969  1.00  0.00     0.002 A 
ATOM     75  C   UNL A   1      45.190  25.913  33.289  1.00  0.00     0.091 A 
ATOM     76  F   UNL A   1      43.086  25.577  34.383  1.00  0.00    -0.205 F 
ATOM     77  C   UNL A   1      46.048  26.747  32.550  1.00  0.00     0.022 A 
BRANCH  75  78
ATOM     78  S   UNL A   1      45.912  24.428  34.036  1.00  0.00     0.127 S 
ATOM     79  O   UNL A   1      45.655  24.663  35.453  1.00  0.00    -0.237 OA
ATOM     80  O   UNL A   1      45.129  23.338  33.452  1.00  0.00    -0.237 OA
ATOM     81  O   UNL A   1      47.306  24.451  33.612  1.00  0.00    -0.744 OA
ENDBRANCH  75  78
ENDBRANCH  47  71
BRANCH  59  82
ATOM     82  C   UNL A   1      41.060  34.449  34.198  1.00  0.00     0.023 A 
ATOM     83  C   UNL A   1      40.724  35.189  35.342  1.00  0.00     0.012 A 
ATOM     84  C   UNL A   1      42.024  35.026  33.318  1.00  0.00     0.148 A 
ATOM     85  C   UNL A   1      41.270  36.455  35.579  1.00  0.00     0.002 A 
ATOM     86  C   UNL A   1      42.683  36.206  33.649  1.00  0.00     0.091 A 
ATOM     87  F   UNL A   1      42.341  34.403  32.171  1.00  0.00    -0.205 F 
ATOM     88  C   UNL A   1      42.274  36.948  34.754  1.00  0.00     0.022 A 
BRANCH  86  89
ATOM     89  S   UNL A   1      44.222  36.659  32.825  1.00  0.00     0.127 S 
ATOM     90  O   UNL A   1      43.779  36.905  31.456  1.00  0.00    -0.237 OA
ATOM     91  O   UNL A   1      44.636  37.857  33.558  1.00  0.00    -0.237 OA
ATOM     92  O   UNL A   1      45.096  35.510  33.027  1.00  0.00    -0.744 OA
ENDBRANCH  86  89
ENDBRANCH  59  82
ENDBRANCH  33  34
ENDBRANCH  26  28
ENDBRANCH  25  26
ENDBRANCH  24  25
ENDBRANCH  23  24
ENDBRANCH  22  23
ENDBRANCH   1  22
TORSDOF 21
ENDMDL
MODEL 2
REMARK VINA RESULT:      -9.8      8.988     15.489
REMARK SMILES Cc1cccc(-c2cc(C(=O)OCCOCCOCCOC(=O)c3ccc(-c4c5nc(c(-c6cccc(S(=O)(=O)[O-])c6F)c6ccc([nH]6)c(-c6cccc(S(=O)(=O)[O-])c6F)c6nc(c(-c7cccc(S(=O)(=O)[O-])c7F)c7ccc4[nH]7)C=C6)C=C5)cc3)ccn2)c1
REMARK SMILES IDX 17 1 16 2 15 3 14 4 13 5 12 6 10 7 11 8 9 9 7 10 8 11 89 12
REMARK SMILES IDX 88 13 87 14 6 15 1 16 2 17 3 18 90 19 4 20 5 21 18 22 19 23
REMARK SMILES IDX 20 24 21 25 22 26 23 27 24 28 25 29 86 30 26 31 85 32 27 33
REMARK SMILES IDX 28 34 29 35 79 36 30 37 84 38 78 39 80 40 31 41 83 42 77 43
REMARK SMILES IDX 76 44 32 46 64 47 44 48 63 49 45 50 48 51 62 52 81 53 46 54
REMARK SMILES IDX 47 55 61 57 82 58 49 59 33 60 34 61 42 62 35 63 37 64 43 65
REMARK SMILES IDX 36 66 38 67 39 68 40 69 41 70 65 71 66 72 74 73 67 74 69 75
REMARK SMILES IDX 75 76 68 77 70 78 71 79 72 80 73 81 50 82 51 83 59 84 52 85
REMARK SMILES IDX 54 86 60 87 53 88 55 89 56 90 57 91 58 92
REMARK H PARENT 80 45 48 56
REMARK Flexibility Score: inf
ROOT
ATOM      1  C   UNL A   1      42.846  41.653  25.423  1.00  0.00     0.188 C 
ENDROOT
BRANCH   1   2
ATOM      2  C   UNL A   1      44.044  42.175  24.638  1.00  0.00     0.188 C 
BRANCH   2   3
ATOM      3  O   UNL A   1      43.725  42.207  23.263  1.00  0.00    -0.376 OA
BRANCH   3   4
ATOM      4  C   UNL A   1      42.494  42.888  23.025  1.00  0.00     0.202 C 
BRANCH   4   5
ATOM      5  C   UNL A   1      41.843  42.706  21.564  1.00  0.00     0.261 C 
BRANCH   5   6
ATOM      6  O   UNL A   1      41.450  43.792  20.540  1.00  0.00    -0.460 OA
BRANCH   6   7
ATOM      7  C   UNL A   1      42.161  43.807  19.383  1.00  0.00     0.338 C 
ATOM      8  O   UNL A   1      42.768  42.761  19.259  1.00  0.00    -0.246 OA
BRANCH   7   9
ATOM      9  C   UNL A   1      42.238  44.869  18.161  1.00  0.00     0.063 A 
ATOM     10  C   UNL A   1      42.621  47.035  17.314  1.00  0.00     0.071 A 
ATOM     11  C   UNL A   1      42.797  46.083  18.350  1.00  0.00     0.044 A 
ATOM     12  N   UNL A   1      41.798  47.005  16.240  1.00  0.00    -0.256 NA
ATOM     13  C   UNL A   1      41.276  45.830  16.009  1.00  0.00     0.112 A 
ATOM     14  C   UNL A   1      41.529  44.790  16.890  1.00  0.00     0.036 A 
BRANCH  10  15
ATOM     15  C   UNL A   1      43.740  47.875  17.057  1.00  0.00     0.000 A 
ATOM     16  C   UNL A   1      47.402  47.114  16.871  1.00  0.00     0.044 C 
ATOM     17  C   UNL A   1      46.128  47.901  16.876  1.00  0.00    -0.050 A 
ATOM     18  C   UNL A   1      46.060  49.288  17.048  1.00  0.00     0.003 A 
ATOM     19  C   UNL A   1      44.946  47.206  16.816  1.00  0.00     0.013 A 
ATOM     20  C   UNL A   1      44.828  49.962  17.126  1.00  0.00     0.001 A 
ATOM     21  C   UNL A   1      43.647  49.249  17.127  1.00  0.00     0.010 A 
ENDBRANCH  10  15
ENDBRANCH   7   9
ENDBRANCH   6   7
ENDBRANCH   5   6
ENDBRANCH   4   5
ENDBRANCH   3   4
ENDBRANCH   2   3
ENDBRANCH   1   2
BRANCH   1  22
ATOM     22  O   UNL A   1      43.084  40.416  26.088  1.00  0.00    -0.376 OA
BRANCH  22  23
ATOM     23  C   UNL A   1      44.451  40.185  26.428  1.00  0.00     0.202 C 
BRANCH  23  24
ATOM     24  C   UNL A   1      44.775  39.205  27.625  1.00  0.00     0.261 C 
BRANCH  24  25
ATOM     25  O   UNL A   1      43.599  38.509  28.171  1.00  0.00    -0.460 OA
BRANCH  25  26
ATOM     26  C   UNL A   1      43.138  37.292  27.716  1.00  0.00     0.338 C 
ATOM     27  O   UNL A   1      43.072  36.993  26.525  1.00  0.00    -0.246 OA
BRANCH  26  28
ATOM     28  C   UNL A   1      42.831  36.346  28.851  1.00  0.00     0.060 A 
ATOM     29  C   UNL A   1      43.619  35.987  29.933  1.00  0.00     0.016 A 
ATOM     30  C   UNL A   1      41.607  35.788  28.943  1.00  0.00     0.016 A 
ATOM     31  C   UNL A   1      43.449  34.721  30.639  1.00  0.00     0.010 A 
ATOM     32  C   UNL A   1      41.489  34.547  29.607  1.00  0.00     0.010 A 
ATOM     33  C   UNL A   1      42.500  33.782  30.274  1.00  0.00    -0.014 A 
BRANCH  33  34
ATOM     34  C   UNL A   1      42.747  32.058  30.463  1.00  0.00     0.031 A 
ATOM     35  C   UNL A   1      44.032  30.932  30.059  1.00  0.00     0.074 A 
ATOM     36  C   UNL A   1      41.948  31.539  31.406  1.00  0.00     0.049 A 
ATOM     37  N   UNL A   1      44.255  30.228  28.953  1.00  0.00    -0.248 NA
ATOM     38  C   UNL A   1      45.239  30.735  30.935  1.00  0.00     0.031 C 
ATOM     39  C   UNL A   1      42.051  30.259  32.078  1.00  0.00     0.029 A 
ATOM     40  N   UNL A   1      40.708  32.022  31.768  1.00  0.00    -0.354 N 
ATOM     41  C   UNL A   1      45.599  29.699  29.069  1.00  0.00     0.074 A 
ATOM     42  C   UNL A   1      46.209  30.566  30.030  1.00  0.00     0.031 C 
ATOM     43  C   UNL A   1      40.824  29.918  32.507  1.00  0.00     0.029 A 
ATOM     44  C   UNL A   1      39.891  30.914  31.999  1.00  0.00     0.049 A 
ATOM     45  H   UNL A   1      40.448  32.968  31.847  1.00  0.00     0.167 HD
ATOM     46  C   UNL A   1      45.984  28.383  29.315  1.00  0.00     0.034 A 
ATOM     47  C   UNL A   1      38.900  30.692  31.080  1.00  0.00     0.034 A 
ATOM     48  C   UNL A   1      44.831  27.676  29.842  1.00  0.00     0.049 A 
ATOM     49  C   UNL A   1      39.211  29.498  30.175  1.00  0.00     0.074 A 
ATOM     50  C   UNL A   1      44.382  27.393  31.122  1.00  0.00     0.029 A 
ATOM     51  N   UNL A   1      43.776  27.493  28.996  1.00  0.00    -0.354 N 
ATOM     52  N   UNL A   1      40.331  28.816  30.199  1.00  0.00    -0.248 NA
ATOM     53  C   UNL A   1      38.270  28.939  29.207  1.00  0.00     0.031 C 
ATOM     54  C   UNL A   1      42.980  27.146  31.030  1.00  0.00     0.029 A 
ATOM     55  C   UNL A   1      42.615  27.245  29.699  1.00  0.00     0.049 A 
ATOM     56  H   UNL A   1      43.835  27.533  28.015  1.00  0.00     0.167 HD
ATOM     57  C   UNL A   1      40.319  27.839  29.236  1.00  0.00     0.074 A 
ATOM     58  C   UNL A   1      38.975  27.913  28.694  1.00  0.00     0.031 C 
ATOM     59  C   UNL A   1      41.410  27.079  28.907  1.00  0.00     0.034 A 
BRANCH  46  60
ATOM     60  C   UNL A   1      47.454  27.942  29.699  1.00  0.00     0.023 A 
ATOM     61  C   UNL A   1      47.965  28.358  30.953  1.00  0.00     0.012 A 
ATOM     62  C   UNL A   1      48.360  27.170  28.907  1.00  0.00     0.148 A 
ATOM     63  C   UNL A   1      49.290  28.117  31.363  1.00  0.00     0.002 A 
ATOM     64  C   UNL A   1      49.705  26.971  29.298  1.00  0.00     0.091 A 
ATOM     65  F   UNL A   1      47.919  26.615  27.767  1.00  0.00    -0.205 F 
ATOM     66  C   UNL A   1      50.168  27.450  30.527  1.00  0.00     0.022 A 
BRANCH  64  67
ATOM     67  S   UNL A   1      50.958  26.191  28.244  1.00  0.00     0.127 S 
ATOM     68  O   UNL A   1      52.177  26.325  29.046  1.00  0.00    -0.237 OA
ATOM     69  O   UNL A   1      50.466  24.821  28.122  1.00  0.00    -0.237 OA
ATOM     70  O   UNL A   1      50.974  26.970  27.012  1.00  0.00    -0.744 OA
ENDBRANCH  64  67
ENDBRANCH  46  60
BRANCH  47  71
ATOM     71  C   UNL A   1      38.156  31.982  30.781  1.00  0.00     0.023 A 
ATOM     72  C   UNL A   1      38.344  32.469  29.451  1.00  0.00     0.012 A 
ATOM     73  C   UNL A   1      37.061  32.490  31.503  1.00  0.00     0.148 A 
ATOM     74  C   UNL A   1      37.363  33.207  28.788  1.00  0.00     0.002 A 
ATOM     75  C   UNL A   1      36.124  33.323  30.858  1.00  0.00     0.091 A 
ATOM     76  F   UNL A   1      36.875  32.090  32.768  1.00  0.00    -0.205 F 
ATOM     77  C   UNL A   1      36.244  33.622  29.488  1.00  0.00     0.022 A 
BRANCH  75  78
ATOM     78  S   UNL A   1      34.622  33.883  31.703  1.00  0.00     0.127 S 
ATOM     79  O   UNL A   1      33.849  34.424  30.591  1.00  0.00    -0.237 OA
ATOM     80  O   UNL A   1      34.076  32.653  32.278  1.00  0.00    -0.237 OA
ATOM     81  O   UNL A   1      35.099  34.840  32.693  1.00  0.00    -0.744 OA
ENDBRANCH  75  78
ENDBRANCH  47  71
BRANCH  59  82
ATOM     82  C   UNL A   1      41.536  26.182  27.678  1.00  0.00     0.023 A 
ATOM     83  C   UNL A   1      41.526  26.716  26.381  1.00  0.00     0.012 A 
ATOM     84  C   UNL A   1      41.965  24.829  27.815  1.00  0.00     0.148 A 
ATOM     85  C   UNL A   1      41.870  25.939  25.269  1.00  0.00     0.002 A 
ATOM     86  C   UNL A   1      42.462  24.119  26.726  1.00  0.00     0.091 A 
ATOM     87  F   UNL A   1      41.933  24.234  29.019  1.00  0.00    -0.205 F 
ATOM     88  C   UNL A   1      42.372  24.655  25.444  1.00  0.00     0.022 A 
BRANCH  86  89
ATOM     89  S   UNL A   1      43.456  22.635  26.975  1.00  0.00     0.127 S 
ATOM     90  O   UNL A   1      42.533  21.762  27.696  1.00  0.00    -0.237 OA
ATOM     91  O   UNL A   1      43.750  22.214  25.604  1.00  0.00    -0.237 OA
ATOM     92  O   UNL A   1      44.623  23.097  27.716  1.00  0.00    -0.744 OA
ENDBRANCH  86  89
ENDBRANCH  59  82
ENDBRANCH  33  34
ENDBRANCH  26  28
ENDBRANCH  25  26
ENDBRANCH  24  25
ENDBRANCH  23  24
ENDBRANCH  22  23
ENDBRANCH   1  22
TORSDOF 21
ENDMDL
MODEL 3
REMARK VINA RESULT:      -9.7      3.419      4.737
REMARK SMILES Cc1cccc(-c2cc(C(=O)OCCOCCOCCOC(=O)c3ccc(-c4c5nc(c(-c6cccc(S(=O)(=O)[O-])c6F)c6ccc([nH]6)c(-c6cccc(S(=O)(=O)[O-])c6F)c6nc(c(-c7cccc(S(=O)(=O)[O-])c7F)c7ccc4[nH]7)C=C6)C=C5)cc3)ccn2)c1
REMARK SMILES IDX 17 1 16 2 15 3 14 4 13 5 12 6 10 7 11 8 9 9 7 10 8 11 89 12
REMARK SMILES IDX 88 13 87 14 6 15 1 16 2 17 3 18 90 19 4 20 5 21 18 22 19 23
REMARK SMILES IDX 20 24 21 25 22 26 23 27 24 28 25 29 86 30 26 31 85 32 27 33
REMARK SMILES IDX 28 34 29 35 79 36 30 37 84 38 78 39 80 40 31 41 83 42 77 43
REMARK SMILES IDX 76 44 32 46 64 47 44 48 63 49 45 50 48 51 62 52 81 53 46 54
REMARK SMILES IDX 47 55 61 57 82 58 49 59 33 60 34 61 42 62 35 63 37 64 43 65
REMARK SMILES IDX 36 66 38 67 39 68 40 69 41 70 65 71 66 72 74 73 67 74 69 75
REMARK SMILES IDX 75 76 68 77 70 78 71 79 72 80 73 81 50 82 51 83 59 84 52 85
REMARK SMILES IDX 54 86 60 87 53 88 55 89 56 90 57 91 58 92
REMARK H PARENT 80 45 48 56
REMARK Flexibility Score: inf
ROOT
ATOM      1  C   UNL A   1      36.775  22.684  24.487  1.00  0.00     0.188 C 
ENDROOT
BRANCH   1   2
ATOM      2  C   UNL A   1      35.327  23.151  24.579  1.00  0.00     0.188 C 
BRANCH   2   3
ATOM      3  O   UNL A   1      34.492  22.225  23.916  1.00  0.00    -0.376 OA
BRANCH   3   4
ATOM      4  C   UNL A   1      33.629  21.548  24.831  1.00  0.00     0.202 C 
BRANCH   4   5
ATOM      5  C   UNL A   1      32.125  22.108  24.946  1.00  0.00     0.261 C 
BRANCH   5   6
ATOM      6  O   UNL A   1      31.338  22.507  26.213  1.00  0.00    -0.460 OA
BRANCH   6   7
ATOM      7  C   UNL A   1      30.968  23.811  26.299  1.00  0.00     0.338 C 
ATOM      8  O   UNL A   1      30.099  23.938  27.140  1.00  0.00    -0.246 OA
BRANCH   7   9
ATOM      9  C   UNL A   1      31.536  25.158  25.598  1.00  0.00     0.063 A 
ATOM     10  C   UNL A   1      31.551  26.741  23.852  1.00  0.00     0.071 A 
ATOM     11  C   UNL A   1      30.878  25.711  24.557  1.00  0.00     0.044 A 
ATOM     12  N   UNL A   1      32.846  27.129  23.912  1.00  0.00    -0.256 NA
ATOM     13  C   UNL A   1      33.496  26.641  24.934  1.00  0.00     0.112 A 
ATOM     14  C   UNL A   1      32.859  25.743  25.777  1.00  0.00     0.036 A 
BRANCH  10  15
ATOM     15  C   UNL A   1      30.731  27.816  23.408  1.00  0.00     0.000 A 
ATOM     16  C   UNL A   1      27.011  28.241  23.406  1.00  0.00     0.044 C 
ATOM     17  C   UNL A   1      28.459  28.531  23.160  1.00  0.00    -0.050 A 
ATOM     18  C   UNL A   1      28.927  29.483  22.248  1.00  0.00     0.003 A 
ATOM     19  C   UNL A   1      29.386  27.739  23.790  1.00  0.00     0.013 A 
ATOM     20  C   UNL A   1      30.302  29.653  22.000  1.00  0.00     0.001 A 
ATOM     21  C   UNL A   1      31.221  28.811  22.590  1.00  0.00     0.010 A 
ENDBRANCH  10  15
ENDBRANCH   7   9
ENDBRANCH   6   7
ENDBRANCH   5   6
ENDBRANCH   4   5
ENDBRANCH   3   4
ENDBRANCH   2   3
ENDBRANCH   1   2
BRANCH   1  22
ATOM     22  O   UNL A   1      37.310  22.213  25.720  1.00  0.00    -0.376 OA
BRANCH  22  23
ATOM     23  C   UNL A   1      38.585  21.583  25.605  1.00  0.00     0.202 C 
BRANCH  23  24
ATOM     24  C   UNL A   1      39.809  22.208  26.385  1.00  0.00     0.261 C 
BRANCH  24  25
ATOM     25  O   UNL A   1      40.970  21.311  26.506  1.00  0.00    -0.460 OA
BRANCH  25  26
ATOM     26  C   UNL A   1      42.258  21.658  26.155  1.00  0.00     0.338 C 
ATOM     27  O   UNL A   1      42.785  21.327  25.094  1.00  0.00    -0.246 OA
BRANCH  26  28
ATOM     28  C   UNL A   1      42.892  22.570  27.175  1.00  0.00     0.060 A 
ATOM     29  C   UNL A   1      42.772  22.563  28.556  1.00  0.00     0.016 A 
ATOM     30  C   UNL A   1      43.778  23.506  26.777  1.00  0.00     0.016 A 
ATOM     31  C   UNL A   1      42.981  23.759  29.367  1.00  0.00     0.010 A 
ATOM     32  C   UNL A   1      43.927  24.664  27.572  1.00  0.00     0.010 A 
ATOM     33  C   UNL A   1      43.300  24.989  28.818  1.00  0.00    -0.014 A 
BRANCH  33  34
ATOM     34  C   UNL A   1      42.777  26.507  29.519  1.00  0.00     0.031 A 
ATOM     35  C   UNL A   1      41.494  27.656  29.184  1.00  0.00     0.074 A 
ATOM     36  C   UNL A   1      43.230  26.662  30.770  1.00  0.00     0.049 A 
ATOM     37  N   UNL A   1      41.463  28.715  28.379  1.00  0.00    -0.248 NA
ATOM     38  C   UNL A   1      40.088  27.469  29.687  1.00  0.00     0.031 C 
ATOM     39  C   UNL A   1      42.784  27.592  31.788  1.00  0.00     0.029 A 
ATOM     40  N   UNL A   1      44.392  26.122  31.280  1.00  0.00    -0.354 N 
ATOM     41  C   UNL A   1      40.073  29.115  28.282  1.00  0.00     0.074 A 
ATOM     42  C   UNL A   1      39.365  27.931  28.660  1.00  0.00     0.031 C 
ATOM     43  C   UNL A   1      43.802  27.789  32.642  1.00  0.00     0.029 A 
ATOM     44  C   UNL A   1      44.962  27.090  32.109  1.00  0.00     0.049 A 
ATOM     45  H   UNL A   1      44.752  25.225  31.095  1.00  0.00     0.167 HD
ATOM     46  C   UNL A   1      39.460  30.229  28.851  1.00  0.00     0.034 A 
ATOM     47  C   UNL A   1      46.113  27.674  31.652  1.00  0.00     0.034 A 
ATOM     48  C   UNL A   1      40.332  30.727  29.900  1.00  0.00     0.049 A 
ATOM     49  C   UNL A   1      45.880  29.109  31.174  1.00  0.00     0.074 A 
ATOM     50  C   UNL A   1      40.398  30.525  31.269  1.00  0.00     0.029 A 
ATOM     51  N   UNL A   1      41.531  31.250  29.512  1.00  0.00    -0.354 N 
ATOM     52  N   UNL A   1      44.707  29.693  31.112  1.00  0.00    -0.248 NA
ATOM     53  C   UNL A   1      46.949  30.023  30.776  1.00  0.00     0.031 C 
ATOM     54  C   UNL A   1      41.729  30.837  31.677  1.00  0.00     0.029 A 
ATOM     55  C   UNL A   1      42.429  31.257  30.560  1.00  0.00     0.049 A 
ATOM     56  H   UNL A   1      41.729  31.578  28.607  1.00  0.00     0.167 HD
ATOM     57  C   UNL A   1      44.827  30.960  30.598  1.00  0.00     0.074 A 
ATOM     58  C   UNL A   1      46.262  31.140  30.475  1.00  0.00     0.031 C 
ATOM     59  C   UNL A   1      43.761  31.749  30.258  1.00  0.00     0.034 A 
BRANCH  46  60
ATOM     60  C   UNL A   1      37.895  30.443  28.926  1.00  0.00     0.023 A 
ATOM     61  C   UNL A   1      37.067  29.537  28.217  1.00  0.00     0.012 A 
ATOM     62  C   UNL A   1      37.194  31.475  29.625  1.00  0.00     0.148 A 
ATOM     63  C   UNL A   1      35.670  29.682  28.121  1.00  0.00     0.002 A 
ATOM     64  C   UNL A   1      35.797  31.649  29.488  1.00  0.00     0.091 A 
ATOM     65  F   UNL A   1      37.882  32.294  30.435  1.00  0.00    -0.205 F 
ATOM     66  C   UNL A   1      35.037  30.752  28.732  1.00  0.00     0.022 A 
BRANCH  64  67
ATOM     67  S   UNL A   1      34.884  33.060  30.170  1.00  0.00     0.127 S 
ATOM     68  O   UNL A   1      33.884  33.324  29.132  1.00  0.00    -0.237 OA
ATOM     69  O   UNL A   1      34.334  32.517  31.410  1.00  0.00    -0.237 OA
ATOM     70  O   UNL A   1      35.868  34.125  30.326  1.00  0.00    -0.744 OA
ENDBRANCH  64  67
ENDBRANCH  46  60
BRANCH  47  71
ATOM     71  C   UNL A   1      47.080  26.617  31.147  1.00  0.00     0.023 A 
ATOM     72  C   UNL A   1      47.166  26.538  29.723  1.00  0.00     0.012 A 
ATOM     73  C   UNL A   1      48.121  26.030  31.888  1.00  0.00     0.148 A 
ATOM     74  C   UNL A   1      48.335  26.138  29.074  1.00  0.00     0.002 A 
ATOM     75  C   UNL A   1      49.259  25.530  31.221  1.00  0.00     0.091 A 
ATOM     76  F   UNL A   1      48.057  26.047  33.226  1.00  0.00    -0.205 F 
ATOM     77  C   UNL A   1      49.389  25.647  29.825  1.00  0.00     0.022 A 
BRANCH  75  78
ATOM     78  S   UNL A   1      50.688  24.897  32.139  1.00  0.00     0.127 S 
ATOM     79  O   UNL A   1      51.781  25.216  31.228  1.00  0.00    -0.237 OA
ATOM     80  O   UNL A   1      50.677  25.687  33.371  1.00  0.00    -0.237 OA
ATOM     81  O   UNL A   1      50.393  23.484  32.338  1.00  0.00    -0.744 OA
ENDBRANCH  75  78
ENDBRANCH  47  71
BRANCH  59  82
ATOM     82  C   UNL A   1      43.828  33.036  29.440  1.00  0.00     0.023 A 
ATOM     83  C   UNL A   1      43.930  34.290  30.060  1.00  0.00     0.012 A 
ATOM     84  C   UNL A   1      44.089  32.987  28.038  1.00  0.00     0.148 A 
ATOM     85  C   UNL A   1      44.222  35.445  29.327  1.00  0.00     0.002 A 
ATOM     86  C   UNL A   1      44.540  34.110  27.352  1.00  0.00     0.091 A 
ATOM     87  F   UNL A   1      43.942  31.832  27.369  1.00  0.00    -0.205 F 
ATOM     88  C   UNL A   1      44.562  35.352  27.983  1.00  0.00     0.022 A 
BRANCH  86  89
ATOM     89  S   UNL A   1      45.342  33.943  25.746  1.00  0.00     0.127 S 
ATOM     90  O   UNL A   1      46.215  32.791  25.954  1.00  0.00    -0.237 OA
ATOM     91  O   UNL A   1      44.212  33.698  24.848  1.00  0.00    -0.237 OA
ATOM     92  O   UNL A   1      46.002  35.225  25.532  1.00  0.00    -0.744 OA
ENDBRANCH  86  89
ENDBRANCH  59  82
ENDBRANCH  33  34
ENDBRANCH  26  28
ENDBRANCH  25  26
ENDBRANCH  24  25
ENDBRANCH  23  24
ENDBRANCH  22  23
ENDBRANCH   1  22
TORSDOF 21
ENDMDL
