MODEL 1
REMARK VINA RESULT:     -11.4      0.000      0.000
REMARK SMILES COc1ccc(-c2[nH]nc3nc(-c4ccc(C(F)(F)F)cc4)cc(C(=O)OCCOCCOCCOC(=O)c4ccc(-c5c6nc(c(-c7cccc(S(=O)(=O)[O-])c7F)c7ccc([nH]7)c(-c7cccc(S(=O)(=O)[O-])c7F)c7nc(c(-c8cccc(S(=O)(=O)[O-])c8F)c8ccc5[nH]8)C=C7)C=C6)cc4)c23)cc1
REMARK SMILES IDX 32 1 31 2 30 3 29 4 28 5 27 6 25 7 26 8 24 9 7 10 8 11
REMARK SMILES IDX 102 12 9 13 10 15 11 16 23 17 12 18 6 19 3 20 4 21 104 22
REMARK SMILES IDX 5 23 103 24 2 25 1 26 13 27 14 28 22 29 15 30 21 31 16 32
REMARK SMILES IDX 17 33 18 34 19 35 20 36 33 37 34 38 35 39 36 40 37 41 38 42
REMARK SMILES IDX 39 43 40 44 101 45 41 46 100 47 42 48 43 49 44 50 94 51
REMARK SMILES IDX 45 52 99 53 93 54 95 55 46 56 98 57 92 58 91 59 47 61 79 62
REMARK SMILES IDX 59 63 78 64 60 65 63 66 77 67 96 68 61 69 62 70 76 72 97 73
REMARK SMILES IDX 64 74 48 75 49 76 57 77 50 78 52 79 58 80 51 81 53 82 54 83
REMARK SMILES IDX 55 84 56 85 80 86 81 87 89 88 82 89 84 90 90 91 83 92 85 93
REMARK SMILES IDX 86 94 87 95 88 96 65 97 66 98 74 99 67 100 69 101 75 102
REMARK SMILES IDX 68 103 70 104 71 105 72 106 73 107
REMARK H PARENT 8 14 95 60 63 71
REMARK Flexibility Score: inf
ROOT
ATOM      1  C   UNL A   1      33.773  31.845  28.188  1.00  0.00     0.188 C 
ENDROOT
BRANCH   1   2
ATOM      2  C   UNL A   1      32.840  31.291  27.138  1.00  0.00     0.188 C 
BRANCH   2   3
ATOM      3  O   UNL A   1      33.016  29.950  26.715  1.00  0.00    -0.376 OA
BRANCH   3   4
ATOM      4  C   UNL A   1      32.068  29.030  27.278  1.00  0.00     0.202 C 
BRANCH   4   5
ATOM      5  C   UNL A   1      31.659  27.780  26.450  1.00  0.00     0.261 C 
BRANCH   5   6
ATOM      6  O   UNL A   1      32.700  26.811  26.166  1.00  0.00    -0.460 OA
BRANCH   6   7
ATOM      7  C   UNL A   1      32.394  25.486  26.179  1.00  0.00     0.339 C 
ATOM      8  O   UNL A   1      31.474  24.996  26.784  1.00  0.00    -0.246 OA
BRANCH   7   9
ATOM      9  C   UNL A   1      33.326  24.778  25.246  1.00  0.00     0.075 A 
ATOM     10  C   UNL A   1      32.178  25.038  22.995  1.00  0.00     0.075 A 
ATOM     11  N   UNL A   1      32.438  24.402  21.801  1.00  0.00    -0.275 N 
ATOM     12  C   UNL A   1      33.112  24.519  23.881  1.00  0.00     0.061 A 
ATOM     13  N   UNL A   1      33.545  23.648  21.798  1.00  0.00    -0.154 NA
ATOM     14  H   UNL A   1      31.856  24.495  21.012  1.00  0.00     0.190 HD
ATOM     15  C   UNL A   1      34.010  23.775  23.039  1.00  0.00     0.182 A 
ATOM     16  N   UNL A   1      35.198  23.295  23.472  1.00  0.00    -0.226 NA
ATOM     17  C   UNL A   1      34.603  24.309  25.641  1.00  0.00     0.045 A 
ATOM     18  C   UNL A   1      35.481  23.606  24.765  1.00  0.00     0.074 A 
BRANCH  10  19
ATOM     19  C   UNL A   1      31.236  26.149  23.017  1.00  0.00     0.001 A 
ATOM     20  C   UNL A   1      29.489  28.356  23.055  1.00  0.00     0.118 A 
ATOM     21  C   UNL A   1      29.088  27.115  23.560  1.00  0.00     0.047 A 
ATOM     22  C   UNL A   1      30.751  28.480  22.481  1.00  0.00     0.047 A 
ATOM     23  C   UNL A   1      29.951  26.013  23.533  1.00  0.00     0.014 A 
ATOM     24  C   UNL A   1      31.616  27.380  22.457  1.00  0.00     0.014 A 
BRANCH  20  25
ATOM     25  O   UNL A   1      28.566  29.355  23.192  1.00  0.00    -0.497 OA
ATOM     26  C   UNL A   1      29.058  30.657  23.498  1.00  0.00     0.278 C 
ENDBRANCH  20  25
ENDBRANCH  10  19
BRANCH  18  27
ATOM     27  C   UNL A   1      36.794  23.088  25.229  1.00  0.00     0.000 A 
ATOM     28  C   UNL A   1      37.216  21.773  24.945  1.00  0.00     0.011 A 
ATOM     29  C   UNL A   1      37.641  23.872  26.028  1.00  0.00     0.011 A 
ATOM     30  C   UNL A   1      38.423  21.263  25.450  1.00  0.00     0.014 A 
ATOM     31  C   UNL A   1      38.844  23.367  26.538  1.00  0.00     0.014 A 
ATOM     32  C   UNL A   1      39.246  22.055  26.261  1.00  0.00     0.056 A 
BRANCH  32  33
ATOM     33  C   UNL A   1      40.524  21.499  26.841  1.00  0.00     0.416 C 
ATOM     34  F   UNL A   1      40.560  20.137  26.829  1.00  0.00    -0.166 F 
ATOM     35  F   UNL A   1      41.635  21.909  26.170  1.00  0.00    -0.166 F 
ATOM     36  F   UNL A   1      40.728  21.857  28.144  1.00  0.00    -0.166 F 
ENDBRANCH  32  33
ENDBRANCH  18  27
ENDBRANCH   7   9
ENDBRANCH   6   7
ENDBRANCH   5   6
ENDBRANCH   4   5
ENDBRANCH   3   4
ENDBRANCH   2   3
ENDBRANCH   1   2
BRANCH   1  37
ATOM     37  O   UNL A   1      34.825  32.664  27.676  1.00  0.00    -0.376 OA
BRANCH  37  38
ATOM     38  C   UNL A   1      36.166  32.295  28.001  1.00  0.00     0.202 C 
BRANCH  38  39
ATOM     39  C   UNL A   1      36.530  32.220  29.480  1.00  0.00     0.261 C 
BRANCH  39  40
ATOM     40  O   UNL A   1      37.476  31.210  29.780  1.00  0.00    -0.460 OA
BRANCH  40  41
ATOM     41  C   UNL A   1      36.922  29.979  29.864  1.00  0.00     0.338 C 
ATOM     42  O   UNL A   1      35.903  29.657  30.452  1.00  0.00    -0.246 OA
BRANCH  41  43
ATOM     43  C   UNL A   1      37.791  29.023  29.176  1.00  0.00     0.060 A 
ATOM     44  C   UNL A   1      38.161  27.911  29.934  1.00  0.00     0.016 A 
ATOM     45  C   UNL A   1      38.550  29.504  28.101  1.00  0.00     0.016 A 
ATOM     46  C   UNL A   1      39.465  27.507  29.850  1.00  0.00     0.010 A 
ATOM     47  C   UNL A   1      39.860  29.117  28.037  1.00  0.00     0.010 A 
ATOM     48  C   UNL A   1      40.315  28.216  28.995  1.00  0.00    -0.014 A 
BRANCH  48  49
ATOM     49  C   UNL A   1      41.725  27.948  29.091  1.00  0.00     0.031 A 
ATOM     50  C   UNL A   1      42.124  26.855  28.192  1.00  0.00     0.074 A 
ATOM     51  C   UNL A   1      42.538  28.680  29.873  1.00  0.00     0.049 A 
ATOM     52  N   UNL A   1      42.434  25.648  28.525  1.00  0.00    -0.248 NA
ATOM     53  C   UNL A   1      41.908  27.049  26.749  1.00  0.00     0.031 C 
ATOM     54  C   UNL A   1      42.242  29.935  30.571  1.00  0.00     0.029 A 
ATOM     55  N   UNL A   1      43.868  28.518  30.087  1.00  0.00    -0.354 N 
ATOM     56  C   UNL A   1      42.725  25.018  27.324  1.00  0.00     0.074 A 
ATOM     57  C   UNL A   1      42.128  25.818  26.290  1.00  0.00     0.031 C 
ATOM     58  C   UNL A   1      43.407  30.544  30.891  1.00  0.00     0.029 A 
ATOM     59  C   UNL A   1      44.510  29.669  30.530  1.00  0.00     0.049 A 
ATOM     60  H   UNL A   1      44.336  27.664  29.943  1.00  0.00     0.167 HD
ATOM     61  C   UNL A   1      43.718  24.091  27.258  1.00  0.00     0.034 A 
ATOM     62  C   UNL A   1      45.847  29.900  30.481  1.00  0.00     0.034 A 
ATOM     63  C   UNL A   1      44.055  23.593  28.570  1.00  0.00     0.049 A 
ATOM     64  C   UNL A   1      46.515  28.581  30.342  1.00  0.00     0.074 A 
ATOM     65  C   UNL A   1      43.348  22.987  29.590  1.00  0.00     0.029 A 
ATOM     66  N   UNL A   1      45.209  24.075  29.140  1.00  0.00    -0.354 N 
ATOM     67  N   UNL A   1      46.505  27.671  31.277  1.00  0.00    -0.248 NA
ATOM     68  C   UNL A   1      46.788  28.093  28.998  1.00  0.00     0.031 C 
ATOM     69  C   UNL A   1      43.885  23.541  30.790  1.00  0.00     0.029 A 
ATOM     70  C   UNL A   1      44.934  24.394  30.443  1.00  0.00     0.049 A 
ATOM     71  H   UNL A   1      46.080  24.174  28.692  1.00  0.00     0.167 HD
ATOM     72  C   UNL A   1      46.291  26.480  30.593  1.00  0.00     0.074 A 
ATOM     73  C   UNL A   1      46.584  26.786  29.193  1.00  0.00     0.031 C 
ATOM     74  C   UNL A   1      45.604  25.450  31.171  1.00  0.00     0.034 A 
BRANCH  61  75
ATOM     75  C   UNL A   1      44.663  23.955  26.087  1.00  0.00     0.023 A 
ATOM     76  C   UNL A   1      44.794  22.668  25.524  1.00  0.00     0.012 A 
ATOM     77  C   UNL A   1      45.621  24.923  25.698  1.00  0.00     0.148 A 
ATOM     78  C   UNL A   1      45.857  22.344  24.677  1.00  0.00     0.002 A 
ATOM     79  C   UNL A   1      46.626  24.620  24.791  1.00  0.00     0.091 A 
ATOM     80  F   UNL A   1      45.668  26.113  26.297  1.00  0.00    -0.205 F 
ATOM     81  C   UNL A   1      46.772  23.322  24.304  1.00  0.00     0.022 A 
BRANCH  79  82
ATOM     82  S   UNL A   1      47.804  25.867  24.248  1.00  0.00     0.127 S 
ATOM     83  O   UNL A   1      48.272  25.296  22.989  1.00  0.00    -0.237 OA
ATOM     84  O   UNL A   1      46.947  27.046  24.117  1.00  0.00    -0.237 OA
ATOM     85  O   UNL A   1      48.794  25.966  25.313  1.00  0.00    -0.744 OA
ENDBRANCH  79  82
ENDBRANCH  61  75
BRANCH  62  86
ATOM     86  C   UNL A   1      46.569  31.169  30.214  1.00  0.00     0.023 A 
ATOM     87  C   UNL A   1      47.572  31.601  31.107  1.00  0.00     0.012 A 
ATOM     88  C   UNL A   1      46.487  31.805  28.955  1.00  0.00     0.148 A 
ATOM     89  C   UNL A   1      48.481  32.604  30.745  1.00  0.00     0.002 A 
ATOM     90  C   UNL A   1      47.386  32.808  28.603  1.00  0.00     0.091 A 
ATOM     91  F   UNL A   1      45.594  31.364  28.062  1.00  0.00    -0.205 F 
ATOM     92  C   UNL A   1      48.394  33.202  29.492  1.00  0.00     0.022 A 
BRANCH  90  93
ATOM     93  S   UNL A   1      47.345  33.600  26.989  1.00  0.00     0.127 S 
ATOM     94  O   UNL A   1      48.273  34.717  27.174  1.00  0.00    -0.237 OA
ATOM     95  O   UNL A   1      47.834  32.535  26.118  1.00  0.00    -0.237 OA
ATOM     96  O   UNL A   1      45.961  34.004  26.778  1.00  0.00    -0.744 OA
ENDBRANCH  90  93
ENDBRANCH  62  86
BRANCH  74  97
ATOM     97  C   UNL A   1      45.302  25.536  32.647  1.00  0.00     0.023 A 
ATOM     98  C   UNL A   1      46.222  25.130  33.637  1.00  0.00     0.012 A 
ATOM     99  C   UNL A   1      44.137  26.212  33.041  1.00  0.00     0.148 A 
ATOM    100  C   UNL A   1      45.971  25.373  34.991  1.00  0.00     0.002 A 
ATOM    101  C   UNL A   1      43.914  26.495  34.383  1.00  0.00     0.091 A 
ATOM    102  F   UNL A   1      43.275  26.596  32.087  1.00  0.00    -0.205 F 
ATOM    103  C   UNL A   1      44.823  26.069  35.362  1.00  0.00     0.022 A 
BRANCH 101 104
ATOM    104  S   UNL A   1      42.522  27.499  34.905  1.00  0.00     0.127 S 
ATOM    105  O   UNL A   1      41.411  26.555  34.805  1.00  0.00    -0.237 OA
ATOM    106  O   UNL A   1      42.894  27.864  36.274  1.00  0.00    -0.237 OA
ATOM    107  O   UNL A   1      42.473  28.627  33.983  1.00  0.00    -0.744 OA
ENDBRANCH 101 104
ENDBRANCH  74  97
ENDBRANCH  48  49
ENDBRANCH  41  43
ENDBRANCH  40  41
ENDBRANCH  39  40
ENDBRANCH  38  39
ENDBRANCH  37  38
ENDBRANCH   1  37
TORSDOF 24
ENDMDL
MODEL 2
REMARK VINA RESULT:     -10.7      3.822      7.360
REMARK SMILES COc1ccc(-c2[nH]nc3nc(-c4ccc(C(F)(F)F)cc4)cc(C(=O)OCCOCCOCCOC(=O)c4ccc(-c5c6nc(c(-c7cccc(S(=O)(=O)[O-])c7F)c7ccc([nH]7)c(-c7cccc(S(=O)(=O)[O-])c7F)c7nc(c(-c8cccc(S(=O)(=O)[O-])c8F)c8ccc5[nH]8)C=C7)C=C6)cc4)c23)cc1
REMARK SMILES IDX 32 1 31 2 30 3 29 4 28 5 27 6 25 7 26 8 24 9 7 10 8 11
REMARK SMILES IDX 102 12 9 13 10 15 11 16 23 17 12 18 6 19 3 20 4 21 104 22
REMARK SMILES IDX 5 23 103 24 2 25 1 26 13 27 14 28 22 29 15 30 21 31 16 32
REMARK SMILES IDX 17 33 18 34 19 35 20 36 33 37 34 38 35 39 36 40 37 41 38 42
REMARK SMILES IDX 39 43 40 44 101 45 41 46 100 47 42 48 43 49 44 50 94 51
REMARK SMILES IDX 45 52 99 53 93 54 95 55 46 56 98 57 92 58 91 59 47 61 79 62
REMARK SMILES IDX 59 63 78 64 60 65 63 66 77 67 96 68 61 69 62 70 76 72 97 73
REMARK SMILES IDX 64 74 48 75 49 76 57 77 50 78 52 79 58 80 51 81 53 82 54 83
REMARK SMILES IDX 55 84 56 85 80 86 81 87 89 88 82 89 84 90 90 91 83 92 85 93
REMARK SMILES IDX 86 94 87 95 88 96 65 97 66 98 74 99 67 100 69 101 75 102
REMARK SMILES IDX 68 103 70 104 71 105 72 106 73 107
REMARK H PARENT 8 14 95 60 63 71
REMARK Flexibility Score: inf
ROOT
ATOM      1  C   UNL A   1      35.387  24.148  24.772  1.00  0.00     0.188 C 
ENDROOT
BRANCH   1   2
ATOM      2  C   UNL A   1      34.403  25.095  25.417  1.00  0.00     0.188 C 
BRANCH   2   3
ATOM      3  O   UNL A   1      33.410  24.560  26.276  1.00  0.00    -0.376 OA
BRANCH   3   4
ATOM      4  C   UNL A   1      32.375  25.492  26.625  1.00  0.00     0.202 C 
BRANCH   4   5
ATOM      5  C   UNL A   1      30.893  25.068  26.427  1.00  0.00     0.261 C 
BRANCH   5   6
ATOM      6  O   UNL A   1      30.070  25.928  25.598  1.00  0.00    -0.460 OA
BRANCH   6   7
ATOM      7  C   UNL A   1      29.641  25.473  24.390  1.00  0.00     0.339 C 
ATOM      8  O   UNL A   1      28.532  25.629  23.948  1.00  0.00    -0.246 OA
BRANCH   7   9
ATOM      9  C   UNL A   1      30.802  24.843  23.686  1.00  0.00     0.075 A 
ATOM     10  C   UNL A   1      31.921  26.824  22.558  1.00  0.00     0.075 A 
ATOM     11  N   UNL A   1      32.897  26.841  21.585  1.00  0.00    -0.275 N 
ATOM     12  C   UNL A   1      31.695  25.477  22.806  1.00  0.00     0.061 A 
ATOM     13  N   UNL A   1      33.428  25.644  21.303  1.00  0.00    -0.154 NA
ATOM     14  H   UNL A   1      33.182  27.669  21.134  1.00  0.00     0.190 HD
ATOM     15  C   UNL A   1      32.758  24.813  22.099  1.00  0.00     0.182 A 
ATOM     16  N   UNL A   1      33.045  23.502  22.264  1.00  0.00    -0.226 NA
ATOM     17  C   UNL A   1      31.174  23.488  23.872  1.00  0.00     0.045 A 
ATOM     18  C   UNL A   1      32.259  22.876  23.179  1.00  0.00     0.074 A 
BRANCH  10  19
ATOM     19  C   UNL A   1      31.538  28.074  23.201  1.00  0.00     0.001 A 
ATOM     20  C   UNL A   1      30.840  30.459  24.523  1.00  0.00     0.118 A 
ATOM     21  C   UNL A   1      30.120  30.020  23.408  1.00  0.00     0.047 A 
ATOM     22  C   UNL A   1      31.947  29.729  24.947  1.00  0.00     0.047 A 
ATOM     23  C   UNL A   1      30.470  28.840  22.742  1.00  0.00     0.014 A 
ATOM     24  C   UNL A   1      32.296  28.546  24.285  1.00  0.00     0.014 A 
BRANCH  20  25
ATOM     25  O   UNL A   1      30.356  31.597  25.105  1.00  0.00    -0.497 OA
ATOM     26  C   UNL A   1      30.996  32.039  26.300  1.00  0.00     0.278 C 
ENDBRANCH  20  25
ENDBRANCH  10  19
BRANCH  18  27
ATOM     27  C   UNL A   1      32.589  21.439  23.365  1.00  0.00     0.000 A 
ATOM     28  C   UNL A   1      32.080  20.443  22.508  1.00  0.00     0.011 A 
ATOM     29  C   UNL A   1      33.375  21.010  24.447  1.00  0.00     0.011 A 
ATOM     30  C   UNL A   1      32.332  19.079  22.732  1.00  0.00     0.014 A 
ATOM     31  C   UNL A   1      33.626  19.651  24.678  1.00  0.00     0.014 A 
ATOM     32  C   UNL A   1      33.103  18.670  23.828  1.00  0.00     0.056 A 
BRANCH  32  33
ATOM     33  C   UNL A   1      33.343  17.204  24.099  1.00  0.00     0.416 C 
ATOM     34  F   UNL A   1      33.550  16.485  22.960  1.00  0.00    -0.166 F 
ATOM     35  F   UNL A   1      34.431  16.980  24.886  1.00  0.00    -0.166 F 
ATOM     36  F   UNL A   1      32.299  16.592  24.732  1.00  0.00    -0.166 F 
ENDBRANCH  32  33
ENDBRANCH  18  27
ENDBRANCH   7   9
ENDBRANCH   6   7
ENDBRANCH   5   6
ENDBRANCH   4   5
ENDBRANCH   3   4
ENDBRANCH   2   3
ENDBRANCH   1   2
BRANCH   1  37
ATOM     37  O   UNL A   1      36.344  23.584  25.668  1.00  0.00    -0.376 OA
BRANCH  37  38
ATOM     38  C   UNL A   1      37.033  22.407  25.242  1.00  0.00     0.202 C 
BRANCH  38  39
ATOM     39  C   UNL A   1      38.408  22.145  25.849  1.00  0.00     0.261 C 
BRANCH  39  40
ATOM     40  O   UNL A   1      38.893  23.219  26.635  1.00  0.00    -0.460 OA
BRANCH  40  41
ATOM     41  C   UNL A   1      40.116  22.978  27.158  1.00  0.00     0.338 C 
ATOM     42  O   UNL A   1      40.508  21.959  27.701  1.00  0.00    -0.246 OA
BRANCH  41  43
ATOM     43  C   UNL A   1      40.927  24.191  27.038  1.00  0.00     0.060 A 
ATOM     44  C   UNL A   1      41.866  24.374  28.055  1.00  0.00     0.016 A 
ATOM     45  C   UNL A   1      40.396  25.247  26.287  1.00  0.00     0.016 A 
ATOM     46  C   UNL A   1      41.996  25.638  28.561  1.00  0.00     0.010 A 
ATOM     47  C   UNL A   1      40.506  26.505  26.811  1.00  0.00     0.010 A 
ATOM     48  C   UNL A   1      41.204  26.649  28.006  1.00  0.00    -0.014 A 
BRANCH  48  49
ATOM     49  C   UNL A   1      41.163  27.911  28.694  1.00  0.00     0.031 A 
ATOM     50  C   UNL A   1      42.202  28.825  28.197  1.00  0.00     0.074 A 
ATOM     51  C   UNL A   1      40.229  28.187  29.621  1.00  0.00     0.049 A 
ATOM     52  N   UNL A   1      43.294  29.161  28.797  1.00  0.00    -0.248 NA
ATOM     53  C   UNL A   1      42.149  29.206  26.776  1.00  0.00     0.031 C 
ATOM     54  C   UNL A   1      39.023  27.423  29.954  1.00  0.00     0.029 A 
ATOM     55  N   UNL A   1      40.093  29.312  30.369  1.00  0.00    -0.354 N 
ATOM     56  C   UNL A   1      43.923  30.030  27.916  1.00  0.00     0.074 A 
ATOM     57  C   UNL A   1      43.332  29.798  26.626  1.00  0.00     0.031 C 
ATOM     58  C   UNL A   1      38.164  28.228  30.621  1.00  0.00     0.029 A 
ATOM     59  C   UNL A   1      38.808  29.509  30.860  1.00  0.00     0.049 A 
ATOM     60  H   UNL A   1      40.838  29.931  30.548  1.00  0.00     0.167 HD
ATOM     61  C   UNL A   1      44.622  31.097  28.386  1.00  0.00     0.034 A 
ATOM     62  C   UNL A   1      38.305  30.684  31.316  1.00  0.00     0.034 A 
ATOM     63  C   UNL A   1      44.954  30.929  29.781  1.00  0.00     0.049 A 
ATOM     64  C   UNL A   1      39.460  31.557  31.648  1.00  0.00     0.074 A 
ATOM     65  C   UNL A   1      45.630  29.970  30.510  1.00  0.00     0.029 A 
ATOM     66  N   UNL A   1      44.206  31.640  30.688  1.00  0.00    -0.354 N 
ATOM     67  N   UNL A   1      40.291  31.306  32.620  1.00  0.00    -0.248 NA
ATOM     68  C   UNL A   1      39.963  32.445  30.610  1.00  0.00     0.031 C 
ATOM     69  C   UNL A   1      44.902  29.854  31.730  1.00  0.00     0.029 A 
ATOM     70  C   UNL A   1      43.871  30.795  31.712  1.00  0.00     0.049 A 
ATOM     71  H   UNL A   1      43.955  32.589  30.615  1.00  0.00     0.167 HD
ATOM     72  C   UNL A   1      41.541  31.599  32.088  1.00  0.00     0.074 A 
ATOM     73  C   UNL A   1      41.268  32.397  30.893  1.00  0.00     0.031 C 
ATOM     74  C   UNL A   1      42.654  30.913  32.486  1.00  0.00     0.034 A 
BRANCH  61  75
ATOM     75  C   UNL A   1      44.629  32.454  27.723  1.00  0.00     0.023 A 
ATOM     76  C   UNL A   1      45.771  32.781  26.961  1.00  0.00     0.012 A 
ATOM     77  C   UNL A   1      43.740  33.512  28.026  1.00  0.00     0.148 A 
ATOM     78  C   UNL A   1      46.046  34.097  26.581  1.00  0.00     0.002 A 
ATOM     79  C   UNL A   1      43.973  34.804  27.576  1.00  0.00     0.091 A 
ATOM     80  F   UNL A   1      42.724  33.327  28.870  1.00  0.00    -0.205 F 
ATOM     81  C   UNL A   1      45.144  35.111  26.883  1.00  0.00     0.022 A 
BRANCH  79  82
ATOM     82  S   UNL A   1      42.811  36.136  27.906  1.00  0.00     0.127 S 
ATOM     83  O   UNL A   1      42.667  36.732  26.582  1.00  0.00    -0.237 OA
ATOM     84  O   UNL A   1      41.643  35.396  28.387  1.00  0.00    -0.237 OA
ATOM     85  O   UNL A   1      43.444  36.971  28.919  1.00  0.00    -0.744 OA
ENDBRANCH  79  82
ENDBRANCH  61  75
BRANCH  62  86
ATOM     86  C   UNL A   1      36.931  31.231  31.179  1.00  0.00     0.023 A 
ATOM     87  C   UNL A   1      36.274  31.754  32.312  1.00  0.00     0.012 A 
ATOM     88  C   UNL A   1      36.378  31.506  29.909  1.00  0.00     0.148 A 
ATOM     89  C   UNL A   1      35.129  32.552  32.181  1.00  0.00     0.002 A 
ATOM     90  C   UNL A   1      35.234  32.290  29.783  1.00  0.00     0.091 A 
ATOM     91  F   UNL A   1      37.023  31.085  28.815  1.00  0.00    -0.205 F 
ATOM     92  C   UNL A   1      34.614  32.826  30.918  1.00  0.00     0.022 A 
BRANCH  90  93
ATOM     93  S   UNL A   1      34.536  32.706  28.179  1.00  0.00     0.127 S 
ATOM     94  O   UNL A   1      33.348  33.475  28.554  1.00  0.00    -0.237 OA
ATOM     95  O   UNL A   1      35.610  33.491  27.576  1.00  0.00    -0.237 OA
ATOM     96  O   UNL A   1      34.242  31.434  27.531  1.00  0.00    -0.744 OA
ENDBRANCH  90  93
ENDBRANCH  62  86
BRANCH  74  97
ATOM     97  C   UNL A   1      42.540  30.011  33.689  1.00  0.00     0.023 A 
ATOM     98  C   UNL A   1      42.015  28.703  33.614  1.00  0.00     0.012 A 
ATOM     99  C   UNL A   1      43.146  30.430  34.884  1.00  0.00     0.148 A 
ATOM    100  C   UNL A   1      42.075  27.842  34.715  1.00  0.00     0.002 A 
ATOM    101  C   UNL A   1      43.247  29.556  35.960  1.00  0.00     0.091 A 
ATOM    102  F   UNL A   1      43.645  31.674  34.938  1.00  0.00    -0.205 F 
ATOM    103  C   UNL A   1      42.704  28.264  35.883  1.00  0.00     0.022 A 
BRANCH 101 104
ATOM    104  S   UNL A   1      44.159  29.999  37.439  1.00  0.00     0.127 S 
ATOM    105  O   UNL A   1      44.327  28.704  38.094  1.00  0.00    -0.237 OA
ATOM    106  O   UNL A   1      45.390  30.573  36.890  1.00  0.00    -0.237 OA
ATOM    107  O   UNL A   1      43.325  30.960  38.152  1.00  0.00    -0.744 OA
ENDBRANCH 101 104
ENDBRANCH  74  97
ENDBRANCH  48  49
ENDBRANCH  41  43
ENDBRANCH  40  41
ENDBRANCH  39  40
ENDBRANCH  38  39
ENDBRANCH  37  38
ENDBRANCH   1  37
TORSDOF 24
ENDMDL
MODEL 3
REMARK VINA RESULT:     -10.2      3.278      4.589
REMARK SMILES COc1ccc(-c2[nH]nc3nc(-c4ccc(C(F)(F)F)cc4)cc(C(=O)OCCOCCOCCOC(=O)c4ccc(-c5c6nc(c(-c7cccc(S(=O)(=O)[O-])c7F)c7ccc([nH]7)c(-c7cccc(S(=O)(=O)[O-])c7F)c7nc(c(-c8cccc(S(=O)(=O)[O-])c8F)c8ccc5[nH]8)C=C7)C=C6)cc4)c23)cc1
REMARK SMILES IDX 32 1 31 2 30 3 29 4 28 5 27 6 25 7 26 8 24 9 7 10 8 11
REMARK SMILES IDX 102 12 9 13 10 15 11 16 23 17 12 18 6 19 3 20 4 21 104 22
REMARK SMILES IDX 5 23 103 24 2 25 1 26 13 27 14 28 22 29 15 30 21 31 16 32
REMARK SMILES IDX 17 33 18 34 19 35 20 36 33 37 34 38 35 39 36 40 37 41 38 42
REMARK SMILES IDX 39 43 40 44 101 45 41 46 100 47 42 48 43 49 44 50 94 51
REMARK SMILES IDX 45 52 99 53 93 54 95 55 46 56 98 57 92 58 91 59 47 61 79 62
REMARK SMILES IDX 59 63 78 64 60 65 63 66 77 67 96 68 61 69 62 70 76 72 97 73
REMARK SMILES IDX 64 74 48 75 49 76 57 77 50 78 52 79 58 80 51 81 53 82 54 83
REMARK SMILES IDX 55 84 56 85 80 86 81 87 89 88 82 89 84 90 90 91 83 92 85 93
REMARK SMILES IDX 86 94 87 95 88 96 65 97 66 98 74 99 67 100 69 101 75 102
REMARK SMILES IDX 68 103 70 104 71 105 72 106 73 107
REMARK H PARENT 8 14 95 60 63 71
REMARK Flexibility Score: inf
ROOT
ATOM      1  C   UNL A   1      33.334  31.732  27.258  1.00  0.00     0.188 C 
ENDROOT
BRANCH   1   2
ATOM      2  C   UNL A   1      31.883  31.821  26.847  1.00  0.00     0.188 C 
BRANCH   2   3
ATOM      3  O   UNL A   1      31.231  30.645  26.398  1.00  0.00    -0.376 OA
BRANCH   3   4
ATOM      4  C   UNL A   1      32.127  29.585  26.030  1.00  0.00     0.202 C 
BRANCH   4   5
ATOM      5  C   UNL A   1      32.111  28.273  26.862  1.00  0.00     0.261 C 
BRANCH   5   6
ATOM      6  O   UNL A   1      32.927  27.177  26.374  1.00  0.00    -0.460 OA
BRANCH   6   7
ATOM      7  C   UNL A   1      32.353  25.959  26.181  1.00  0.00     0.339 C 
ATOM      8  O   UNL A   1      31.293  25.615  26.640  1.00  0.00    -0.246 OA
BRANCH   7   9
ATOM      9  C   UNL A   1      33.211  25.178  25.236  1.00  0.00     0.075 A 
ATOM     10  C   UNL A   1      32.136  25.641  22.982  1.00  0.00     0.075 A 
ATOM     11  N   UNL A   1      32.340  25.017  21.770  1.00  0.00    -0.275 N 
ATOM     12  C   UNL A   1      32.991  24.989  23.862  1.00  0.00     0.061 A 
ATOM     13  N   UNL A   1      33.353  24.140  21.755  1.00  0.00    -0.154 NA
ATOM     14  H   UNL A   1      31.785  25.203  20.978  1.00  0.00     0.190 HD
ATOM     15  C   UNL A   1      33.809  24.173  23.005  1.00  0.00     0.182 A 
ATOM     16  N   UNL A   1      34.926  23.545  23.436  1.00  0.00    -0.226 NA
ATOM     17  C   UNL A   1      34.419  24.552  25.631  1.00  0.00     0.045 A 
ATOM     18  C   UNL A   1      35.224  23.780  24.742  1.00  0.00     0.074 A 
BRANCH  10  19
ATOM     19  C   UNL A   1      31.329  26.853  23.030  1.00  0.00     0.001 A 
ATOM     20  C   UNL A   1      29.848  29.245  23.128  1.00  0.00     0.118 A 
ATOM     21  C   UNL A   1      29.271  28.028  23.505  1.00  0.00     0.047 A 
ATOM     22  C   UNL A   1      31.156  29.257  22.651  1.00  0.00     0.047 A 
ATOM     23  C   UNL A   1      30.001  26.835  23.447  1.00  0.00     0.014 A 
ATOM     24  C   UNL A   1      31.889  28.066  22.597  1.00  0.00     0.014 A 
BRANCH  20  25
ATOM     25  O   UNL A   1      29.038  30.335  23.283  1.00  0.00    -0.497 OA
ATOM     26  C   UNL A   1      27.646  30.151  23.036  1.00  0.00     0.278 C 
ENDBRANCH  20  25
ENDBRANCH  10  19
BRANCH  18  27
ATOM     27  C   UNL A   1      36.460  23.098  25.204  1.00  0.00     0.000 A 
ATOM     28  C   UNL A   1      37.439  23.770  25.964  1.00  0.00     0.011 A 
ATOM     29  C   UNL A   1      36.733  21.768  24.845  1.00  0.00     0.011 A 
ATOM     30  C   UNL A   1      38.641  23.144  26.334  1.00  0.00     0.014 A 
ATOM     31  C   UNL A   1      37.931  21.141  25.207  1.00  0.00     0.014 A 
ATOM     32  C   UNL A   1      38.903  21.823  25.950  1.00  0.00     0.056 A 
BRANCH  32  33
ATOM     33  C   UNL A   1      40.210  21.159  26.308  1.00  0.00     0.416 C 
ATOM     34  F   UNL A   1      41.284  21.762  25.728  1.00  0.00    -0.166 F 
ATOM     35  F   UNL A   1      40.458  21.160  27.647  1.00  0.00    -0.166 F 
ATOM     36  F   UNL A   1      40.275  19.850  25.923  1.00  0.00    -0.166 F 
ENDBRANCH  32  33
ENDBRANCH  18  27
ENDBRANCH   7   9
ENDBRANCH   6   7
ENDBRANCH   5   6
ENDBRANCH   4   5
ENDBRANCH   3   4
ENDBRANCH   2   3
ENDBRANCH   1   2
BRANCH   1  37
ATOM     37  O   UNL A   1      33.696  32.577  28.349  1.00  0.00    -0.376 OA
BRANCH  37  38
ATOM     38  C   UNL A   1      34.830  32.197  29.131  1.00  0.00     0.202 C 
BRANCH  38  39
ATOM     39  C   UNL A   1      34.736  32.400  30.640  1.00  0.00     0.261 C 
BRANCH  39  40
ATOM     40  O   UNL A   1      34.195  33.655  31.010  1.00  0.00    -0.460 OA
BRANCH  40  41
ATOM     41  C   UNL A   1      34.143  33.832  32.349  1.00  0.00     0.338 C 
ATOM     42  O   UNL A   1      33.151  33.884  33.057  1.00  0.00    -0.246 OA
BRANCH  41  43
ATOM     43  C   UNL A   1      35.503  34.031  32.852  1.00  0.00     0.060 A 
ATOM     44  C   UNL A   1      36.319  34.824  32.044  1.00  0.00     0.016 A 
ATOM     45  C   UNL A   1      36.005  33.072  33.742  1.00  0.00     0.016 A 
ATOM     46  C   UNL A   1      37.609  34.404  31.861  1.00  0.00     0.010 A 
ATOM     47  C   UNL A   1      37.285  32.638  33.538  1.00  0.00     0.010 A 
ATOM     48  C   UNL A   1      38.015  33.237  32.515  1.00  0.00    -0.014 A 
BRANCH  48  49
ATOM     49  C   UNL A   1      39.280  32.669  32.132  1.00  0.00     0.031 A 
ATOM     50  C   UNL A   1      39.097  31.445  31.337  1.00  0.00     0.074 A 
ATOM     51  C   UNL A   1      40.448  33.261  32.435  1.00  0.00     0.049 A 
ATOM     52  N   UNL A   1      39.296  30.230  31.724  1.00  0.00    -0.248 NA
ATOM     53  C   UNL A   1      38.373  31.565  30.062  1.00  0.00     0.031 C 
ATOM     54  C   UNL A   1      40.674  34.603  32.982  1.00  0.00     0.029 A 
ATOM     55  N   UNL A   1      41.706  32.824  32.171  1.00  0.00    -0.354 N 
ATOM     56  C   UNL A   1      38.979  29.456  30.616  1.00  0.00     0.074 A 
ATOM     57  C   UNL A   1      38.177  30.283  29.758  1.00  0.00     0.031 C 
ATOM     58  C   UNL A   1      41.959  34.959  32.752  1.00  0.00     0.029 A 
ATOM     59  C   UNL A   1      42.661  33.833  32.159  1.00  0.00     0.049 A 
ATOM     60  H   UNL A   1      41.922  31.878  32.005  1.00  0.00     0.167 HD
ATOM     61  C   UNL A   1      39.688  28.329  30.343  1.00  0.00     0.034 A 
ATOM     62  C   UNL A   1      43.891  33.754  31.588  1.00  0.00     0.034 A 
ATOM     63  C   UNL A   1      40.417  27.876  31.502  1.00  0.00     0.049 A 
ATOM     64  C   UNL A   1      44.209  32.313  31.429  1.00  0.00     0.074 A 
ATOM     65  C   UNL A   1      40.070  27.528  32.794  1.00  0.00     0.029 A 
ATOM     66  N   UNL A   1      41.768  28.132  31.527  1.00  0.00    -0.354 N 
ATOM     67  N   UNL A   1      44.404  31.507  32.436  1.00  0.00    -0.248 NA
ATOM     68  C   UNL A   1      43.845  31.669  30.175  1.00  0.00     0.031 C 
ATOM     69  C   UNL A   1      41.121  28.043  33.609  1.00  0.00     0.029 A 
ATOM     70  C   UNL A   1      42.084  28.608  32.771  1.00  0.00     0.049 A 
ATOM     71  H   UNL A   1      42.396  27.996  30.782  1.00  0.00     0.167 HD
ATOM     72  C   UNL A   1      43.735  30.342  32.078  1.00  0.00     0.074 A 
ATOM     73  C   UNL A   1      43.507  30.461  30.639  1.00  0.00     0.031 C 
ATOM     74  C   UNL A   1      43.158  29.543  33.024  1.00  0.00     0.034 A 
BRANCH  61  75
ATOM     75  C   UNL A   1      40.061  27.890  28.946  1.00  0.00     0.023 A 
ATOM     76  C   UNL A   1      39.522  26.664  28.501  1.00  0.00     0.012 A 
ATOM     77  C   UNL A   1      41.106  28.447  28.171  1.00  0.00     0.148 A 
ATOM     78  C   UNL A   1      40.041  25.998  27.387  1.00  0.00     0.002 A 
ATOM     79  C   UNL A   1      41.562  27.823  27.018  1.00  0.00     0.091 A 
ATOM     80  F   UNL A   1      41.778  29.516  28.600  1.00  0.00    -0.205 F 
ATOM     81  C   UNL A   1      41.058  26.579  26.641  1.00  0.00     0.022 A 
BRANCH  79  82
ATOM     82  S   UNL A   1      42.846  28.563  25.998  1.00  0.00     0.127 S 
ATOM     83  O   UNL A   1      42.494  28.056  24.675  1.00  0.00    -0.237 OA
ATOM     84  O   UNL A   1      42.601  29.991  26.204  1.00  0.00    -0.237 OA
ATOM     85  O   UNL A   1      44.110  28.090  26.549  1.00  0.00    -0.744 OA
ENDBRANCH  79  82
ENDBRANCH  61  75
BRANCH  62  86
ATOM     86  C   UNL A   1      44.662  34.804  30.877  1.00  0.00     0.023 A 
ATOM     87  C   UNL A   1      46.016  35.019  31.209  1.00  0.00     0.012 A 
ATOM     88  C   UNL A   1      44.172  35.392  29.689  1.00  0.00     0.148 A 
ATOM     89  C   UNL A   1      46.858  35.762  30.370  1.00  0.00     0.002 A 
ATOM     90  C   UNL A   1      45.009  36.137  28.863  1.00  0.00     0.091 A 
ATOM     91  F   UNL A   1      42.912  35.141  29.313  1.00  0.00    -0.205 F 
ATOM     92  C   UNL A   1      46.358  36.315  29.195  1.00  0.00     0.022 A 
BRANCH  90  93
ATOM     93  S   UNL A   1      44.432  36.852  27.317  1.00  0.00     0.127 S 
ATOM     94  O   UNL A   1      45.577  37.671  26.915  1.00  0.00    -0.237 OA
ATOM     95  O   UNL A   1      44.211  35.663  26.499  1.00  0.00    -0.237 OA
ATOM     96  O   UNL A   1      43.239  37.619  27.654  1.00  0.00    -0.744 OA
ENDBRANCH  90  93
ENDBRANCH  62  86
BRANCH  74  97
ATOM     97  C   UNL A   1      43.477  29.814  34.474  1.00  0.00     0.023 A 
ATOM     98  C   UNL A   1      44.639  29.319  35.104  1.00  0.00     0.012 A 
ATOM     99  C   UNL A   1      42.676  30.738  35.162  1.00  0.00     0.148 A 
ATOM    100  C   UNL A   1      44.980  29.723  36.398  1.00  0.00     0.002 A 
ATOM    101  C   UNL A   1      43.043  31.174  36.429  1.00  0.00     0.091 A 
ATOM    102  F   UNL A   1      41.577  31.203  34.547  1.00  0.00    -0.205 F 
ATOM    103  C   UNL A   1      44.189  30.662  37.055  1.00  0.00     0.022 A 
BRANCH 101 104
ATOM    104  S   UNL A   1      42.136  32.475  37.266  1.00  0.00     0.127 S 
ATOM    105  O   UNL A   1      41.931  33.444  36.191  1.00  0.00    -0.237 OA
ATOM    106  O   UNL A   1      40.924  31.781  37.705  1.00  0.00    -0.237 OA
ATOM    107  O   UNL A   1      42.992  32.922  38.359  1.00  0.00    -0.744 OA
ENDBRANCH 101 104
ENDBRANCH  74  97
ENDBRANCH  48  49
ENDBRANCH  41  43
ENDBRANCH  40  41
ENDBRANCH  39  40
ENDBRANCH  38  39
ENDBRANCH  37  38
ENDBRANCH   1  37
TORSDOF 24
ENDMDL
