MODEL 1
REMARK VINA RESULT:     -10.2      0.000      0.000
REMARK SMILES O=C(OCCOCCOCCOC(=O)c1ccc(Cl)nc1NC[C@@H]1C[N@@H+]2CCC[C@@H]2CO1)c1ccc(-c2c3nc(c(-c4cccc(S(=O)(=O)[O-])c4F)c4ccc([nH]4)c(-c4cccc(S(=O)(=O)[O-])c4F)c4nc(c(-c5cccc(S(=O)(=O)[O-])c5F)c5ccc2[nH]5)C=C4)C=C3)cc1
REMARK SMILES IDX 7 1 6 2 5 3 4 4 3 5 2 6 1 7 33 8 34 9 95 10 35 11 94 12
REMARK SMILES IDX 36 13 37 14 38 15 88 16 39 17 93 18 87 19 89 20 40 21 92 22
REMARK SMILES IDX 86 23 85 24 41 26 73 27 53 28 72 29 54 30 57 31 71 32 90 33
REMARK SMILES IDX 55 34 56 35 70 37 91 38 58 39 42 40 43 41 51 42 44 43 46 44
REMARK SMILES IDX 52 45 45 46 47 47 48 48 49 49 50 50 74 51 75 52 83 53 76 54
REMARK SMILES IDX 78 55 84 56 77 57 79 58 80 59 81 60 82 61 59 62 60 63 68 64
REMARK SMILES IDX 61 65 63 66 69 67 62 68 64 69 65 70 66 71 67 72 8 73 9 74
REMARK SMILES IDX 10 75 11 76 12 77 13 78 14 79 15 80 16 81 21 82 17 83 20 84
REMARK SMILES IDX 18 85 19 86 22 87 23 89 24 90 25 91 32 92 26 93 31 94 27 95
REMARK SMILES IDX 30 96 28 98 29 99
REMARK H PARENT 89 25 57 36 22 88 26 97
REMARK Flexibility Score: inf
ROOT
ATOM      1  C   UNL A   1      37.814  22.385  25.529  1.00  0.00     0.188 C 
ENDROOT
BRANCH   1   2
ATOM      2  O   UNL A   1      37.488  21.432  24.526  1.00  0.00    -0.376 OA
BRANCH   2   3
ATOM      3  C   UNL A   1      38.088  20.148  24.699  1.00  0.00     0.202 C 
BRANCH   3   4
ATOM      4  C   UNL A   1      38.998  19.966  25.930  1.00  0.00     0.261 C 
BRANCH   4   5
ATOM      5  O   UNL A   1      40.162  19.151  25.708  1.00  0.00    -0.460 OA
BRANCH   5   6
ATOM      6  C   UNL A   1      41.456  19.449  25.988  1.00  0.00     0.338 C 
ATOM      7  O   UNL A   1      42.289  18.545  25.974  1.00  0.00    -0.246 OA
BRANCH   6   8
ATOM      8  C   UNL A   1      41.908  20.818  26.359  1.00  0.00     0.060 A 
ATOM      9  C   UNL A   1      41.995  21.870  25.451  1.00  0.00     0.016 A 
ATOM     10  C   UNL A   1      42.144  21.099  27.712  1.00  0.00     0.016 A 
ATOM     11  C   UNL A   1      42.409  23.135  25.830  1.00  0.00     0.010 A 
ATOM     12  C   UNL A   1      42.487  22.394  28.120  1.00  0.00     0.010 A 
ATOM     13  C   UNL A   1      42.644  23.412  27.169  1.00  0.00    -0.014 A 
BRANCH  13  14
ATOM     14  C   UNL A   1      43.119  24.760  27.527  1.00  0.00     0.031 A 
ATOM     15  C   UNL A   1      42.149  25.717  28.145  1.00  0.00     0.074 A 
ATOM     16  C   UNL A   1      44.422  25.075  27.400  1.00  0.00     0.049 A 
ATOM     17  N   UNL A   1      42.336  26.956  28.500  1.00  0.00    -0.248 NA
ATOM     18  C   UNL A   1      40.800  25.200  28.438  1.00  0.00     0.031 C 
ATOM     19  C   UNL A   1      45.473  24.152  26.963  1.00  0.00     0.029 A 
ATOM     20  N   UNL A   1      45.093  26.248  27.628  1.00  0.00    -0.354 N 
ATOM     21  C   UNL A   1      41.119  27.385  29.007  1.00  0.00     0.074 A 
ATOM     22  C   UNL A   1      40.204  26.268  28.944  1.00  0.00     0.031 C 
ATOM     23  C   UNL A   1      46.645  24.804  26.935  1.00  0.00     0.029 A 
ATOM     24  C   UNL A   1      46.413  26.201  27.246  1.00  0.00     0.049 A 
ATOM     25  H   UNL A   1      44.672  27.045  28.024  1.00  0.00     0.167 HD
ATOM     26  C   UNL A   1      40.803  28.613  29.469  1.00  0.00     0.034 A 
ATOM     27  C   UNL A   1      47.319  27.185  27.100  1.00  0.00     0.034 A 
ATOM     28  C   UNL A   1      41.739  29.699  29.522  1.00  0.00     0.049 A 
ATOM     29  C   UNL A   1      46.894  28.569  27.486  1.00  0.00     0.074 A 
ATOM     30  C   UNL A   1      41.539  30.985  29.985  1.00  0.00     0.029 A 
ATOM     31  N   UNL A   1      43.047  29.632  29.062  1.00  0.00    -0.354 N 
ATOM     32  N   UNL A   1      45.761  28.954  28.020  1.00  0.00    -0.248 NA
ATOM     33  C   UNL A   1      47.869  29.646  27.283  1.00  0.00     0.031 C 
ATOM     34  C   UNL A   1      42.711  31.711  29.751  1.00  0.00     0.029 A 
ATOM     35  C   UNL A   1      43.654  30.866  29.186  1.00  0.00     0.049 A 
ATOM     36  H   UNL A   1      43.478  28.823  28.701  1.00  0.00     0.167 HD
ATOM     37  C   UNL A   1      45.895  30.312  28.252  1.00  0.00     0.074 A 
ATOM     38  C   UNL A   1      47.229  30.679  27.815  1.00  0.00     0.031 C 
ATOM     39  C   UNL A   1      44.997  31.181  28.772  1.00  0.00     0.034 A 
BRANCH  26  40
ATOM     40  C   UNL A   1      39.382  28.856  29.887  1.00  0.00     0.023 A 
ATOM     41  C   UNL A   1      38.959  28.575  31.200  1.00  0.00     0.012 A 
ATOM     42  C   UNL A   1      38.471  29.399  28.961  1.00  0.00     0.148 A 
ATOM     43  C   UNL A   1      37.638  28.813  31.579  1.00  0.00     0.002 A 
ATOM     44  C   UNL A   1      37.169  29.672  29.358  1.00  0.00     0.091 A 
ATOM     45  F   UNL A   1      38.893  29.627  27.709  1.00  0.00    -0.205 F 
ATOM     46  C   UNL A   1      36.748  29.371  30.663  1.00  0.00     0.022 A 
BRANCH  44  47
ATOM     47  S   UNL A   1      35.969  30.445  28.270  1.00  0.00     0.127 S 
ATOM     48  O   UNL A   1      35.035  31.030  29.232  1.00  0.00    -0.237 OA
ATOM     49  O   UNL A   1      36.794  31.416  27.552  1.00  0.00    -0.237 OA
ATOM     50  O   UNL A   1      35.419  29.377  27.448  1.00  0.00    -0.744 OA
ENDBRANCH  44  47
ENDBRANCH  26  40
BRANCH  27  51
ATOM     51  C   UNL A   1      48.671  26.923  26.526  1.00  0.00     0.023 A 
ATOM     52  C   UNL A   1      49.673  26.340  27.323  1.00  0.00     0.012 A 
ATOM     53  C   UNL A   1      48.980  27.283  25.198  1.00  0.00     0.148 A 
ATOM     54  C   UNL A   1      50.965  26.158  26.823  1.00  0.00     0.002 A 
ATOM     55  C   UNL A   1      50.257  27.059  24.693  1.00  0.00     0.091 A 
ATOM     56  F   UNL A   1      48.010  27.818  24.446  1.00  0.00    -0.205 F 
ATOM     57  C   UNL A   1      51.256  26.516  25.510  1.00  0.00     0.022 A 
BRANCH  55  58
ATOM     58  S   UNL A   1      50.703  27.390  22.984  1.00  0.00     0.127 S 
ATOM     59  O   UNL A   1      52.033  26.790  22.890  1.00  0.00    -0.237 OA
ATOM     60  O   UNL A   1      49.646  26.672  22.277  1.00  0.00    -0.237 OA
ATOM     61  O   UNL A   1      50.676  28.838  22.844  1.00  0.00    -0.744 OA
ENDBRANCH  55  58
ENDBRANCH  27  51
BRANCH  39  62
ATOM     62  C   UNL A   1      45.442  32.605  28.927  1.00  0.00     0.023 A 
ATOM     63  C   UNL A   1      46.203  32.981  30.049  1.00  0.00     0.012 A 
ATOM     64  C   UNL A   1      45.176  33.540  27.910  1.00  0.00     0.148 A 
ATOM     65  C   UNL A   1      46.679  34.285  30.166  1.00  0.00     0.002 A 
ATOM     66  C   UNL A   1      45.703  34.818  28.006  1.00  0.00     0.091 A 
ATOM     67  F   UNL A   1      44.429  33.152  26.866  1.00  0.00    -0.205 F 
ATOM     68  C   UNL A   1      46.443  35.197  29.139  1.00  0.00     0.022 A 
BRANCH  66  69
ATOM     69  S   UNL A   1      45.545  36.020  26.684  1.00  0.00     0.127 S 
ATOM     70  O   UNL A   1      46.080  35.280  25.543  1.00  0.00    -0.237 OA
ATOM     71  O   UNL A   1      44.100  36.244  26.647  1.00  0.00    -0.237 OA
ATOM     72  O   UNL A   1      46.329  37.178  27.092  1.00  0.00    -0.744 OA
ENDBRANCH  66  69
ENDBRANCH  39  62
ENDBRANCH  13  14
ENDBRANCH   6   8
ENDBRANCH   5   6
ENDBRANCH   4   5
ENDBRANCH   3   4
ENDBRANCH   2   3
ENDBRANCH   1   2
BRANCH   1  73
ATOM     73  C   UNL A   1      36.917  23.625  25.495  1.00  0.00     0.188 C 
BRANCH  73  74
ATOM     74  O   UNL A   1      35.530  23.415  25.700  1.00  0.00    -0.376 OA
BRANCH  74  75
ATOM     75  C   UNL A   1      35.182  22.318  26.534  1.00  0.00     0.202 C 
BRANCH  75  76
ATOM     76  C   UNL A   1      34.389  21.148  25.919  1.00  0.00     0.261 C 
BRANCH  76  77
ATOM     77  O   UNL A   1      34.038  21.230  24.516  1.00  0.00    -0.460 OA
BRANCH  77  78
ATOM     78  C   UNL A   1      32.696  21.132  24.262  1.00  0.00     0.341 C 
ATOM     79  O   UNL A   1      32.164  20.254  23.602  1.00  0.00    -0.246 OA
BRANCH  78  80
ATOM     80  C   UNL A   1      31.966  22.346  24.673  1.00  0.00     0.102 A 
ATOM     81  C   UNL A   1      31.057  22.167  25.733  1.00  0.00     0.023 A 
ATOM     82  C   UNL A   1      32.243  23.650  24.245  1.00  0.00     0.142 A 
ATOM     83  C   UNL A   1      30.440  23.270  26.319  1.00  0.00     0.042 A 
ATOM     84  N   UNL A   1      31.541  24.691  24.743  1.00  0.00    -0.218 NA
ATOM     85  C   UNL A   1      30.693  24.501  25.766  1.00  0.00     0.131 A 
ATOM     86  Cl  UNL A   1      29.974  25.947  26.315  1.00  0.00    -0.062 Cl
BRANCH  82  87
ATOM     87  N   UNL A   1      33.284  24.004  23.390  1.00  0.00    -0.366 N 
ATOM     88  H   UNL A   1      34.219  24.049  23.696  1.00  0.00     0.162 HD
BRANCH  87  89
ATOM     89  C   UNL A   1      32.897  24.310  21.992  1.00  0.00     0.152 C 
BRANCH  89  90
ATOM     90  C   UNL A   1      32.962  25.808  21.569  1.00  0.00     0.192 C 
ATOM     91  C   UNL A   1      33.676  26.687  22.633  1.00  0.00     0.296 C 
ATOM     92  O   UNL A   1      31.707  26.327  21.103  1.00  0.00    -0.364 OA
ATOM     93  N   UNL A   1      33.107  28.013  22.917  1.00  0.00    -0.328 N 
ATOM     94  C   UNL A   1      30.952  26.859  22.179  1.00  0.00     0.225 C 
ATOM     95  C   UNL A   1      33.477  28.497  24.256  1.00  0.00     0.262 C 
ATOM     96  C   UNL A   1      31.642  28.086  22.776  1.00  0.00     0.210 C 
ATOM     97  H   UNL A   1      33.517  28.616  22.202  1.00  0.00     0.348 HD
ATOM     98  C   UNL A   1      32.248  29.224  24.774  1.00  0.00     0.068 C 
ATOM     99  C   UNL A   1      31.120  28.423  24.166  1.00  0.00     0.073 C 
ENDBRANCH  89  90
ENDBRANCH  87  89
ENDBRANCH  82  87
ENDBRANCH  78  80
ENDBRANCH  77  78
ENDBRANCH  76  77
ENDBRANCH  75  76
ENDBRANCH  74  75
ENDBRANCH  73  74
ENDBRANCH   1  73
TORSDOF 23
ENDMDL
MODEL 2
REMARK VINA RESULT:      -9.8      1.578      3.368
REMARK SMILES O=C(OCCOCCOCCOC(=O)c1ccc(Cl)nc1NC[C@@H]1C[N@@H+]2CCC[C@@H]2CO1)c1ccc(-c2c3nc(c(-c4cccc(S(=O)(=O)[O-])c4F)c4ccc([nH]4)c(-c4cccc(S(=O)(=O)[O-])c4F)c4nc(c(-c5cccc(S(=O)(=O)[O-])c5F)c5ccc2[nH]5)C=C4)C=C3)cc1
REMARK SMILES IDX 7 1 6 2 5 3 4 4 3 5 2 6 1 7 33 8 34 9 95 10 35 11 94 12
REMARK SMILES IDX 36 13 37 14 38 15 88 16 39 17 93 18 87 19 89 20 40 21 92 22
REMARK SMILES IDX 86 23 85 24 41 26 73 27 53 28 72 29 54 30 57 31 71 32 90 33
REMARK SMILES IDX 55 34 56 35 70 37 91 38 58 39 42 40 43 41 51 42 44 43 46 44
REMARK SMILES IDX 52 45 45 46 47 47 48 48 49 49 50 50 74 51 75 52 83 53 76 54
REMARK SMILES IDX 78 55 84 56 77 57 79 58 80 59 81 60 82 61 59 62 60 63 68 64
REMARK SMILES IDX 61 65 63 66 69 67 62 68 64 69 65 70 66 71 67 72 8 73 9 74
REMARK SMILES IDX 10 75 11 76 12 77 13 78 14 79 15 80 16 81 21 82 17 83 20 84
REMARK SMILES IDX 18 85 19 86 22 87 23 89 24 90 25 91 32 92 26 93 31 94 27 95
REMARK SMILES IDX 30 96 28 98 29 99
REMARK H PARENT 89 25 57 36 22 88 26 97
REMARK Flexibility Score: inf
ROOT
ATOM      1  C   UNL A   1      37.668  22.019  25.573  1.00  0.00     0.188 C 
ENDROOT
BRANCH   1   2
ATOM      2  O   UNL A   1      37.410  20.927  24.700  1.00  0.00    -0.376 OA
BRANCH   2   3
ATOM      3  C   UNL A   1      38.183  19.754  24.961  1.00  0.00     0.202 C 
BRANCH   3   4
ATOM      4  C   UNL A   1      39.327  19.890  25.984  1.00  0.00     0.261 C 
BRANCH   4   5
ATOM      5  O   UNL A   1      40.497  19.104  25.694  1.00  0.00    -0.460 OA
BRANCH   5   6
ATOM      6  C   UNL A   1      41.798  19.444  25.877  1.00  0.00     0.338 C 
ATOM      7  O   UNL A   1      42.660  18.575  25.758  1.00  0.00    -0.246 OA
BRANCH   6   8
ATOM      8  C   UNL A   1      42.228  20.817  26.260  1.00  0.00     0.060 A 
ATOM      9  C   UNL A   1      42.371  21.858  25.349  1.00  0.00     0.016 A 
ATOM     10  C   UNL A   1      42.381  21.111  27.623  1.00  0.00     0.016 A 
ATOM     11  C   UNL A   1      42.763  23.127  25.740  1.00  0.00     0.010 A 
ATOM     12  C   UNL A   1      42.700  22.410  28.038  1.00  0.00     0.010 A 
ATOM     13  C   UNL A   1      42.916  23.417  27.088  1.00  0.00    -0.014 A 
BRANCH  13  14
ATOM     14  C   UNL A   1      43.371  24.769  27.462  1.00  0.00     0.031 A 
ATOM     15  C   UNL A   1      42.382  25.709  28.074  1.00  0.00     0.074 A 
ATOM     16  C   UNL A   1      44.671  25.100  27.352  1.00  0.00     0.049 A 
ATOM     17  N   UNL A   1      42.549  26.948  28.439  1.00  0.00    -0.248 NA
ATOM     18  C   UNL A   1      41.035  25.174  28.347  1.00  0.00     0.031 C 
ATOM     19  C   UNL A   1      45.738  24.193  26.922  1.00  0.00     0.029 A 
ATOM     20  N   UNL A   1      45.325  26.280  27.596  1.00  0.00    -0.354 N 
ATOM     21  C   UNL A   1      41.321  27.359  28.934  1.00  0.00     0.074 A 
ATOM     22  C   UNL A   1      40.421  26.232  28.853  1.00  0.00     0.031 C 
ATOM     23  C   UNL A   1      46.903  24.860  26.913  1.00  0.00     0.029 A 
ATOM     24  C   UNL A   1      46.650  26.252  27.231  1.00  0.00     0.049 A 
ATOM     25  H   UNL A   1      44.889  27.069  27.993  1.00  0.00     0.167 HD
ATOM     26  C   UNL A   1      40.984  28.580  29.401  1.00  0.00     0.034 A 
ATOM     27  C   UNL A   1      47.545  27.247  27.102  1.00  0.00     0.034 A 
ATOM     28  C   UNL A   1      41.906  29.677  29.472  1.00  0.00     0.049 A 
ATOM     29  C   UNL A   1      47.099  28.624  27.492  1.00  0.00     0.074 A 
ATOM     30  C   UNL A   1      41.685  30.957  29.942  1.00  0.00     0.029 A 
ATOM     31  N   UNL A   1      43.220  29.628  29.028  1.00  0.00    -0.354 N 
ATOM     32  N   UNL A   1      45.954  28.991  28.015  1.00  0.00    -0.248 NA
ATOM     33  C   UNL A   1      48.063  29.714  27.308  1.00  0.00     0.031 C 
ATOM     34  C   UNL A   1      42.850  31.699  29.727  1.00  0.00     0.029 A 
ATOM     35  C   UNL A   1      43.811  30.869  29.168  1.00  0.00     0.049 A 
ATOM     36  H   UNL A   1      43.666  28.828  28.667  1.00  0.00     0.167 HD
ATOM     37  C   UNL A   1      46.070  30.349  28.257  1.00  0.00     0.074 A 
ATOM     38  C   UNL A   1      47.404  30.735  27.839  1.00  0.00     0.031 C 
ATOM     39  C   UNL A   1      45.155  31.204  28.772  1.00  0.00     0.034 A 
BRANCH  26  40
ATOM     40  C   UNL A   1      39.556  28.803  29.802  1.00  0.00     0.023 A 
ATOM     41  C   UNL A   1      39.131  28.554  31.122  1.00  0.00     0.012 A 
ATOM     42  C   UNL A   1      38.637  29.294  28.855  1.00  0.00     0.148 A 
ATOM     43  C   UNL A   1      37.802  28.772  31.486  1.00  0.00     0.002 A 
ATOM     44  C   UNL A   1      37.328  29.550  29.236  1.00  0.00     0.091 A 
ATOM     45  F   UNL A   1      39.062  29.493  27.599  1.00  0.00    -0.205 F 
ATOM     46  C   UNL A   1      36.905  29.280  30.548  1.00  0.00     0.022 A 
BRANCH  44  47
ATOM     47  S   UNL A   1      36.116  30.259  28.118  1.00  0.00     0.127 S 
ATOM     48  O   UNL A   1      36.718  29.976  26.815  1.00  0.00    -0.237 OA
ATOM     49  O   UNL A   1      34.924  29.469  28.425  1.00  0.00    -0.237 OA
ATOM     50  O   UNL A   1      36.024  31.671  28.460  1.00  0.00    -0.744 OA
ENDBRANCH  44  47
ENDBRANCH  26  40
BRANCH  27  51
ATOM     51  C   UNL A   1      48.908  27.006  26.543  1.00  0.00     0.023 A 
ATOM     52  C   UNL A   1      49.923  26.484  27.364  1.00  0.00     0.012 A 
ATOM     53  C   UNL A   1      49.212  27.326  25.203  1.00  0.00     0.148 A 
ATOM     54  C   UNL A   1      51.223  26.323  26.876  1.00  0.00     0.002 A 
ATOM     55  C   UNL A   1      50.497  27.122  24.711  1.00  0.00     0.091 A 
ATOM     56  F   UNL A   1      48.229  27.802  24.429  1.00  0.00    -0.205 F 
ATOM     57  C   UNL A   1      51.509  26.641  25.552  1.00  0.00     0.022 A 
BRANCH  55  58
ATOM     58  S   UNL A   1      50.941  27.402  22.993  1.00  0.00     0.127 S 
ATOM     59  O   UNL A   1      50.950  28.861  22.909  1.00  0.00    -0.237 OA
ATOM     60  O   UNL A   1      52.256  26.767  22.938  1.00  0.00    -0.237 OA
ATOM     61  O   UNL A   1      49.902  26.753  22.207  1.00  0.00    -0.744 OA
ENDBRANCH  55  58
ENDBRANCH  27  51
BRANCH  39  62
ATOM     62  C   UNL A   1      45.580  32.631  28.942  1.00  0.00     0.023 A 
ATOM     63  C   UNL A   1      46.337  33.006  30.068  1.00  0.00     0.012 A 
ATOM     64  C   UNL A   1      45.301  33.573  27.936  1.00  0.00     0.148 A 
ATOM     65  C   UNL A   1      46.795  34.315  30.199  1.00  0.00     0.002 A 
ATOM     66  C   UNL A   1      45.811  34.857  28.045  1.00  0.00     0.091 A 
ATOM     67  F   UNL A   1      44.559  33.187  26.888  1.00  0.00    -0.205 F 
ATOM     68  C   UNL A   1      46.546  35.234  29.181  1.00  0.00     0.022 A 
BRANCH  66  69
ATOM     69  S   UNL A   1      45.636  36.072  26.736  1.00  0.00     0.127 S 
ATOM     70  O   UNL A   1      46.247  35.378  25.603  1.00  0.00    -0.237 OA
ATOM     71  O   UNL A   1      44.183  36.221  26.651  1.00  0.00    -0.237 OA
ATOM     72  O   UNL A   1      46.344  37.262  27.188  1.00  0.00    -0.744 OA
ENDBRANCH  66  69
ENDBRANCH  39  62
ENDBRANCH  13  14
ENDBRANCH   6   8
ENDBRANCH   5   6
ENDBRANCH   4   5
ENDBRANCH   3   4
ENDBRANCH   2   3
ENDBRANCH   1   2
BRANCH   1  73
ATOM     73  C   UNL A   1      36.492  22.992  25.680  1.00  0.00     0.188 C 
BRANCH  73  74
ATOM     74  O   UNL A   1      35.214  22.427  25.920  1.00  0.00    -0.376 OA
BRANCH  74  75
ATOM     75  C   UNL A   1      34.811  22.352  27.281  1.00  0.00     0.202 C 
BRANCH  75  76
ATOM     76  C   UNL A   1      33.361  22.727  27.641  1.00  0.00     0.261 C 
BRANCH  76  77
ATOM     77  O   UNL A   1      32.302  22.246  26.777  1.00  0.00    -0.460 OA
BRANCH  77  78
ATOM     78  C   UNL A   1      31.261  23.120  26.615  1.00  0.00     0.341 C 
ATOM     79  O   UNL A   1      30.302  23.224  27.362  1.00  0.00    -0.246 OA
BRANCH  78  80
ATOM     80  C   UNL A   1      31.293  23.776  25.294  1.00  0.00     0.102 A 
ATOM     81  C   UNL A   1      30.609  25.004  25.220  1.00  0.00     0.023 A 
ATOM     82  C   UNL A   1      32.087  23.388  24.209  1.00  0.00     0.142 A 
ATOM     83  C   UNL A   1      30.713  25.796  24.078  1.00  0.00     0.042 A 
ATOM     84  N   UNL A   1      32.074  24.110  23.066  1.00  0.00    -0.218 NA
ATOM     85  C   UNL A   1      31.431  25.288  23.023  1.00  0.00     0.131 A 
ATOM     86  Cl  UNL A   1      31.607  26.092  21.529  1.00  0.00    -0.062 Cl
BRANCH  82  87
ATOM     87  N   UNL A   1      33.005  22.341  24.226  1.00  0.00    -0.366 N 
ATOM     88  H   UNL A   1      33.685  22.254  24.933  1.00  0.00     0.162 HD
BRANCH  87  89
ATOM     89  C   UNL A   1      32.894  21.366  23.115  1.00  0.00     0.152 C 
BRANCH  89  90
ATOM     90  C   UNL A   1      32.027  20.101  23.389  1.00  0.00     0.192 C 
ATOM     91  C   UNL A   1      32.480  19.345  24.669  1.00  0.00     0.296 C 
ATOM     92  O   UNL A   1      31.844  19.271  22.232  1.00  0.00    -0.364 OA
ATOM     93  N   UNL A   1      32.500  17.876  24.623  1.00  0.00    -0.328 N 
ATOM     94  C   UNL A   1      32.880  18.306  22.135  1.00  0.00     0.225 C 
ATOM     95  C   UNL A   1      33.431  17.305  25.608  1.00  0.00     0.262 C 
ATOM     96  C   UNL A   1      32.813  17.315  23.296  1.00  0.00     0.210 C 
ATOM     97  H   UNL A   1      31.542  17.608  24.853  1.00  0.00     0.348 HD
ATOM     98  C   UNL A   1      34.056  16.103  24.921  1.00  0.00     0.068 C 
ATOM     99  C   UNL A   1      34.118  16.552  23.479  1.00  0.00     0.073 C 
ENDBRANCH  89  90
ENDBRANCH  87  89
ENDBRANCH  82  87
ENDBRANCH  78  80
ENDBRANCH  77  78
ENDBRANCH  76  77
ENDBRANCH  75  76
ENDBRANCH  74  75
ENDBRANCH  73  74
ENDBRANCH   1  73
TORSDOF 23
ENDMDL
MODEL 3
REMARK VINA RESULT:      -9.7      2.017      8.062
REMARK SMILES O=C(OCCOCCOCCOC(=O)c1ccc(Cl)nc1NC[C@@H]1C[N@@H+]2CCC[C@@H]2CO1)c1ccc(-c2c3nc(c(-c4cccc(S(=O)(=O)[O-])c4F)c4ccc([nH]4)c(-c4cccc(S(=O)(=O)[O-])c4F)c4nc(c(-c5cccc(S(=O)(=O)[O-])c5F)c5ccc2[nH]5)C=C4)C=C3)cc1
REMARK SMILES IDX 7 1 6 2 5 3 4 4 3 5 2 6 1 7 33 8 34 9 95 10 35 11 94 12
REMARK SMILES IDX 36 13 37 14 38 15 88 16 39 17 93 18 87 19 89 20 40 21 92 22
REMARK SMILES IDX 86 23 85 24 41 26 73 27 53 28 72 29 54 30 57 31 71 32 90 33
REMARK SMILES IDX 55 34 56 35 70 37 91 38 58 39 42 40 43 41 51 42 44 43 46 44
REMARK SMILES IDX 52 45 45 46 47 47 48 48 49 49 50 50 74 51 75 52 83 53 76 54
REMARK SMILES IDX 78 55 84 56 77 57 79 58 80 59 81 60 82 61 59 62 60 63 68 64
REMARK SMILES IDX 61 65 63 66 69 67 62 68 64 69 65 70 66 71 67 72 8 73 9 74
REMARK SMILES IDX 10 75 11 76 12 77 13 78 14 79 15 80 16 81 21 82 17 83 20 84
REMARK SMILES IDX 18 85 19 86 22 87 23 89 24 90 25 91 32 92 26 93 31 94 27 95
REMARK SMILES IDX 30 96 28 98 29 99
REMARK H PARENT 89 25 57 36 22 88 26 97
REMARK Flexibility Score: inf
ROOT
ATOM      1  C   UNL A   1      38.357  21.792  25.458  1.00  0.00     0.188 C 
ENDROOT
BRANCH   1   2
ATOM      2  O   UNL A   1      37.854  20.596  24.876  1.00  0.00    -0.376 OA
BRANCH   2   3
ATOM      3  C   UNL A   1      38.653  19.435  25.105  1.00  0.00     0.202 C 
BRANCH   3   4
ATOM      4  C   UNL A   1      39.830  19.584  26.088  1.00  0.00     0.261 C 
BRANCH   4   5
ATOM      5  O   UNL A   1      41.019  18.859  25.726  1.00  0.00    -0.460 OA
BRANCH   5   6
ATOM      6  C   UNL A   1      42.311  19.246  25.874  1.00  0.00     0.338 C 
ATOM      7  O   UNL A   1      43.195  18.393  25.828  1.00  0.00    -0.246 OA
BRANCH   6   8
ATOM      8  C   UNL A   1      42.706  20.658  26.134  1.00  0.00     0.060 A 
ATOM      9  C   UNL A   1      42.764  21.217  27.407  1.00  0.00     0.016 A 
ATOM     10  C   UNL A   1      43.159  21.433  25.056  1.00  0.00     0.016 A 
ATOM     11  C   UNL A   1      43.146  22.531  27.615  1.00  0.00     0.010 A 
ATOM     12  C   UNL A   1      43.622  22.738  25.264  1.00  0.00     0.010 A 
ATOM     13  C   UNL A   1      43.592  23.298  26.548  1.00  0.00    -0.014 A 
BRANCH  13  14
ATOM     14  C   UNL A   1      43.954  24.704  26.805  1.00  0.00     0.031 A 
ATOM     15  C   UNL A   1      45.368  25.129  26.570  1.00  0.00     0.074 A 
ATOM     16  C   UNL A   1      43.003  25.598  27.135  1.00  0.00     0.049 A 
ATOM     17  N   UNL A   1      45.914  26.295  26.767  1.00  0.00    -0.248 NA
ATOM     18  C   UNL A   1      46.281  24.120  26.003  1.00  0.00     0.031 C 
ATOM     19  C   UNL A   1      41.569  25.309  27.225  1.00  0.00     0.029 A 
ATOM     20  N   UNL A   1      43.088  26.929  27.453  1.00  0.00    -0.354 N 
ATOM     21  C   UNL A   1      47.244  26.149  26.401  1.00  0.00     0.074 A 
ATOM     22  C   UNL A   1      47.421  24.791  25.941  1.00  0.00     0.031 C 
ATOM     23  C   UNL A   1      40.920  26.424  27.595  1.00  0.00     0.029 A 
ATOM     24  C   UNL A   1      41.891  27.465  27.867  1.00  0.00     0.049 A 
ATOM     25  H   UNL A   1      43.921  27.448  27.390  1.00  0.00     0.167 HD
ATOM     26  C   UNL A   1      48.224  27.075  26.461  1.00  0.00     0.034 A 
ATOM     27  C   UNL A   1      41.617  28.639  28.463  1.00  0.00     0.034 A 
ATOM     28  C   UNL A   1      48.011  28.418  26.919  1.00  0.00     0.049 A 
ATOM     29  C   UNL A   1      42.756  29.594  28.650  1.00  0.00     0.074 A 
ATOM     30  C   UNL A   1      48.924  29.451  27.011  1.00  0.00     0.029 A 
ATOM     31  N   UNL A   1      46.801  28.903  27.396  1.00  0.00    -0.354 N 
ATOM     32  N   UNL A   1      43.997  29.471  28.246  1.00  0.00    -0.248 NA
ATOM     33  C   UNL A   1      42.462  30.855  29.340  1.00  0.00     0.031 C 
ATOM     34  C   UNL A   1      48.279  30.543  27.598  1.00  0.00     0.029 A 
ATOM     35  C   UNL A   1      46.953  30.206  27.829  1.00  0.00     0.049 A 
ATOM     36  H   UNL A   1      45.959  28.393  27.423  1.00  0.00     0.167 HD
ATOM     37  C   UNL A   1      44.627  30.652  28.600  1.00  0.00     0.074 A 
ATOM     38  C   UNL A   1      43.624  31.485  29.236  1.00  0.00     0.031 C 
ATOM     39  C   UNL A   1      45.920  31.014  28.423  1.00  0.00     0.034 A 
BRANCH  26  40
ATOM     40  C   UNL A   1      49.612  26.646  26.087  1.00  0.00     0.023 A 
ATOM     41  C   UNL A   1      50.370  25.829  26.949  1.00  0.00     0.012 A 
ATOM     42  C   UNL A   1      50.151  27.041  24.848  1.00  0.00     0.148 A 
ATOM     43  C   UNL A   1      51.657  25.429  26.587  1.00  0.00     0.002 A 
ATOM     44  C   UNL A   1      51.415  26.604  24.477  1.00  0.00     0.091 A 
ATOM     45  F   UNL A   1      49.419  27.844  24.062  1.00  0.00    -0.205 F 
ATOM     46  C   UNL A   1      52.174  25.807  25.349  1.00  0.00     0.022 A 
BRANCH  44  47
ATOM     47  S   UNL A   1      52.140  26.987  22.881  1.00  0.00     0.127 S 
ATOM     48  O   UNL A   1      52.558  28.375  23.073  1.00  0.00    -0.237 OA
ATOM     49  O   UNL A   1      53.237  26.022  22.810  1.00  0.00    -0.237 OA
ATOM     50  O   UNL A   1      51.085  26.791  21.897  1.00  0.00    -0.744 OA
ENDBRANCH  44  47
ENDBRANCH  26  40
BRANCH  27  51
ATOM     51  C   UNL A   1      40.249  28.959  28.967  1.00  0.00     0.023 A 
ATOM     52  C   UNL A   1      39.282  29.488  28.093  1.00  0.00     0.012 A 
ATOM     53  C   UNL A   1      39.912  28.772  30.324  1.00  0.00     0.148 A 
ATOM     54  C   UNL A   1      38.022  29.862  28.567  1.00  0.00     0.002 A 
ATOM     55  C   UNL A   1      38.640  29.106  30.780  1.00  0.00     0.091 A 
ATOM     56  F   UNL A   1      40.836  28.249  31.139  1.00  0.00    -0.205 F 
ATOM     57  C   UNL A   1      37.701  29.671  29.907  1.00  0.00     0.022 A 
BRANCH  55  58
ATOM     58  S   UNL A   1      38.096  28.803  32.464  1.00  0.00     0.127 S 
ATOM     59  O   UNL A   1      39.033  29.610  33.243  1.00  0.00    -0.237 OA
ATOM     60  O   UNL A   1      36.728  29.315  32.411  1.00  0.00    -0.237 OA
ATOM     61  O   UNL A   1      38.216  27.367  32.664  1.00  0.00    -0.744 OA
ENDBRANCH  55  58
ENDBRANCH  27  51
BRANCH  39  62
ATOM     62  C   UNL A   1      46.311  32.383  28.894  1.00  0.00     0.023 A 
ATOM     63  C   UNL A   1      46.852  32.551  30.182  1.00  0.00     0.012 A 
ATOM     64  C   UNL A   1      46.222  33.480  28.018  1.00  0.00     0.148 A 
ATOM     65  C   UNL A   1      47.283  33.807  30.601  1.00  0.00     0.002 A 
ATOM     66  C   UNL A   1      46.707  34.714  28.422  1.00  0.00     0.091 A 
ATOM     67  F   UNL A   1      45.681  33.288  26.806  1.00  0.00    -0.205 F 
ATOM     68  C   UNL A   1      47.225  34.883  29.717  1.00  0.00     0.022 A 
BRANCH  66  69
ATOM     69  S   UNL A   1      46.776  36.124  27.315  1.00  0.00     0.127 S 
ATOM     70  O   UNL A   1      47.401  37.138  28.163  1.00  0.00    -0.237 OA
ATOM     71  O   UNL A   1      47.623  35.622  26.234  1.00  0.00    -0.237 OA
ATOM     72  O   UNL A   1      45.400  36.405  26.929  1.00  0.00    -0.744 OA
ENDBRANCH  66  69
ENDBRANCH  39  62
ENDBRANCH  13  14
ENDBRANCH   6   8
ENDBRANCH   5   6
ENDBRANCH   4   5
ENDBRANCH   3   4
ENDBRANCH   2   3
ENDBRANCH   1   2
BRANCH   1  73
ATOM     73  C   UNL A   1      37.262  22.815  25.769  1.00  0.00     0.188 C 
BRANCH  73  74
ATOM     74  O   UNL A   1      35.923  22.352  25.721  1.00  0.00    -0.376 OA
BRANCH  74  75
ATOM     75  C   UNL A   1      35.330  22.028  26.972  1.00  0.00     0.202 C 
BRANCH  75  76
ATOM     76  C   UNL A   1      34.087  22.819  27.423  1.00  0.00     0.261 C 
BRANCH  76  77
ATOM     77  O   UNL A   1      32.916  22.787  26.572  1.00  0.00    -0.460 OA
BRANCH  77  78
ATOM     78  C   UNL A   1      32.155  23.924  26.611  1.00  0.00     0.341 C 
ATOM     79  O   UNL A   1      31.143  24.075  27.275  1.00  0.00    -0.246 OA
BRANCH  78  80
ATOM     80  C   UNL A   1      32.553  24.890  25.569  1.00  0.00     0.102 A 
ATOM     81  C   UNL A   1      32.314  26.241  25.884  1.00  0.00     0.023 A 
ATOM     82  C   UNL A   1      33.304  24.594  24.426  1.00  0.00     0.142 A 
ATOM     83  C   UNL A   1      32.803  27.249  25.056  1.00  0.00     0.042 A 
ATOM     84  N   UNL A   1      33.660  25.581  23.573  1.00  0.00    -0.218 NA
ATOM     85  C   UNL A   1      33.440  26.864  23.902  1.00  0.00     0.131 A 
ATOM     86  Cl  UNL A   1      34.042  27.963  22.745  1.00  0.00    -0.062 Cl
BRANCH  82  87
ATOM     87  N   UNL A   1      33.827  23.341  24.118  1.00  0.00    -0.366 N 
ATOM     88  H   UNL A   1      34.585  22.955  24.613  1.00  0.00     0.162 HD
BRANCH  87  89
ATOM     89  C   UNL A   1      33.172  22.624  22.997  1.00  0.00     0.152 C 
BRANCH  89  90
ATOM     90  C   UNL A   1      32.114  21.548  23.388  1.00  0.00     0.192 C 
ATOM     91  C   UNL A   1      32.661  20.546  24.443  1.00  0.00     0.296 C 
ATOM     92  O   UNL A   1      31.470  20.942  22.258  1.00  0.00    -0.364 OA
ATOM     93  N   UNL A   1      32.314  19.127  24.280  1.00  0.00    -0.328 N 
ATOM     94  C   UNL A   1      32.190  19.801  21.819  1.00  0.00     0.225 C 
ATOM     95  C   UNL A   1      33.286  18.242  24.941  1.00  0.00     0.262 C 
ATOM     96  C   UNL A   1      32.161  18.698  22.878  1.00  0.00     0.210 C 
ATOM     97  H   UNL A   1      31.402  19.042  24.729  1.00  0.00     0.348 HD
ATOM     98  C   UNL A   1      33.422  17.039  24.023  1.00  0.00     0.068 C 
ATOM     99  C   UNL A   1      33.250  17.657  22.655  1.00  0.00     0.073 C 
ENDBRANCH  89  90
ENDBRANCH  87  89
ENDBRANCH  82  87
ENDBRANCH  78  80
ENDBRANCH  77  78
ENDBRANCH  76  77
ENDBRANCH  75  76
ENDBRANCH  74  75
ENDBRANCH  73  74
ENDBRANCH   1  73
TORSDOF 23
ENDMDL
