MODEL 1
REMARK VINA RESULT:      -9.5      0.000      0.000
REMARK SMILES O=C(OCCOCCOCCOC(=O)c1cccn1CC(=O)N1CCS(=O)CC1)c1ccc(-c2c3nc(c(-c4cccc(S(=O)(=O)[O-])c4F)c4ccc([nH]4)c(-c4cccc(S(=O)(=O)[O-])c4F)c4nc(c(-c5cccc(S(=O)(=O)[O-])c5F)c5ccc2[nH]5)C=C4)C=C3)cc1
REMARK SMILES IDX 7 1 6 2 5 3 4 4 3 5 2 6 1 7 30 8 31 9 92 10 32 11 91 12
REMARK SMILES IDX 33 13 34 14 35 15 85 16 36 17 90 18 84 19 86 20 37 21 89 22
REMARK SMILES IDX 83 23 82 24 38 26 70 27 50 28 69 29 51 30 54 31 68 32 87 33
REMARK SMILES IDX 52 34 53 35 67 37 88 38 55 39 39 40 40 41 48 42 41 43 43 44
REMARK SMILES IDX 49 45 42 46 44 47 45 48 46 49 47 50 71 51 72 52 80 53 73 54
REMARK SMILES IDX 75 55 81 56 74 57 76 58 77 59 78 60 79 61 56 62 57 63 65 64
REMARK SMILES IDX 58 65 60 66 66 67 59 68 61 69 62 70 63 71 64 72 8 73 9 74
REMARK SMILES IDX 10 75 11 76 12 77 13 78 14 79 15 80 16 81 19 82 17 83 18 84
REMARK SMILES IDX 20 85 21 86 22 87 23 88 24 89 29 90 25 91 28 92 26 93 27 94
REMARK H PARENT 86 25 54 36
REMARK Flexibility Score: inf
ROOT
ATOM      1  C   UNL A   1      37.055  33.598  32.070  1.00  0.00     0.188 C 
ENDROOT
BRANCH   1   2
ATOM      2  O   UNL A   1      36.105  32.580  31.735  1.00  0.00    -0.376 OA
BRANCH   2   3
ATOM      3  C   UNL A   1      35.305  32.899  30.603  1.00  0.00     0.202 C 
BRANCH   3   4
ATOM      4  C   UNL A   1      36.109  33.623  29.519  1.00  0.00     0.261 C 
BRANCH   4   5
ATOM      5  O   UNL A   1      36.160  32.896  28.272  1.00  0.00    -0.460 OA
BRANCH   5   6
ATOM      6  C   UNL A   1      35.937  31.581  28.094  1.00  0.00     0.338 C 
ATOM      7  O   UNL A   1      34.888  31.157  27.627  1.00  0.00    -0.246 OA
BRANCH   6   8
ATOM      8  C   UNL A   1      37.021  30.660  28.350  1.00  0.00     0.060 A 
ATOM      9  C   UNL A   1      37.365  29.569  28.945  1.00  0.00     0.016 A 
ATOM     10  C   UNL A   1      37.499  29.708  27.645  1.00  0.00     0.016 A 
ATOM     11  C   UNL A   1      38.951  28.432  28.937  1.00  0.00     0.010 A 
ATOM     12  C   UNL A   1      39.025  28.501  27.656  1.00  0.00     0.010 A 
ATOM     13  C   UNL A   1      40.100  28.353  28.341  1.00  0.00    -0.014 A 
BRANCH  13  14
ATOM     14  C   UNL A   1      41.309  27.559  28.530  1.00  0.00     0.031 A 
ATOM     15  C   UNL A   1      41.262  26.101  28.125  1.00  0.00     0.074 A 
ATOM     16  C   UNL A   1      42.335  28.196  29.200  1.00  0.00     0.049 A 
ATOM     17  N   UNL A   1      41.635  25.055  28.804  1.00  0.00    -0.248 NA
ATOM     18  C   UNL A   1      40.602  25.717  26.855  1.00  0.00     0.031 C 
ATOM     19  C   UNL A   1      42.402  29.653  29.366  1.00  0.00     0.029 A 
ATOM     20  N   UNL A   1      43.519  27.834  29.848  1.00  0.00    -0.354 N 
ATOM     21  C   UNL A   1      41.491  23.957  27.934  1.00  0.00     0.074 A 
ATOM     22  C   UNL A   1      40.623  24.383  26.880  1.00  0.00     0.031 C 
ATOM     23  C   UNL A   1      43.410  30.050  30.152  1.00  0.00     0.029 A 
ATOM     24  C   UNL A   1      44.186  28.899  30.530  1.00  0.00     0.049 A 
ATOM     25  H   UNL A   1      43.868  26.914  29.836  1.00  0.00     0.167 HD
ATOM     26  C   UNL A   1      42.308  22.865  27.969  1.00  0.00     0.034 A 
ATOM     27  C   UNL A   1      45.308  28.945  31.316  1.00  0.00     0.034 A 
ATOM     28  C   UNL A   1      43.352  23.081  28.919  1.00  0.00     0.049 A 
ATOM     29  C   UNL A   1      46.021  27.689  31.087  1.00  0.00     0.074 A 
ATOM     30  C   UNL A   1      43.424  23.087  30.284  1.00  0.00     0.029 A 
ATOM     31  N   UNL A   1      44.494  23.641  28.393  1.00  0.00    -0.354 N 
ATOM     32  N   UNL A   1      46.641  27.411  29.978  1.00  0.00    -0.248 NA
ATOM     33  C   UNL A   1      46.025  26.637  32.107  1.00  0.00     0.031 C 
ATOM     34  C   UNL A   1      44.512  23.933  30.574  1.00  0.00     0.029 A 
ATOM     35  C   UNL A   1      45.127  24.340  29.383  1.00  0.00     0.049 A 
ATOM     36  H   UNL A   1      44.803  23.555  27.463  1.00  0.00     0.167 HD
ATOM     37  C   UNL A   1      46.667  26.040  30.016  1.00  0.00     0.074 A 
ATOM     38  C   UNL A   1      46.644  25.681  31.416  1.00  0.00     0.031 C 
ATOM     39  C   UNL A   1      46.056  25.379  28.994  1.00  0.00     0.034 A 
BRANCH  26  40
ATOM     40  C   UNL A   1      42.511  21.702  27.029  1.00  0.00     0.023 A 
ATOM     41  C   UNL A   1      41.760  20.531  27.334  1.00  0.00     0.012 A 
ATOM     42  C   UNL A   1      43.519  21.576  26.060  1.00  0.00     0.148 A 
ATOM     43  C   UNL A   1      42.043  19.289  26.769  1.00  0.00     0.002 A 
ATOM     44  C   UNL A   1      43.748  20.344  25.441  1.00  0.00     0.091 A 
ATOM     45  F   UNL A   1      44.337  22.601  25.807  1.00  0.00    -0.205 F 
ATOM     46  C   UNL A   1      43.040  19.196  25.815  1.00  0.00     0.022 A 
BRANCH  44  47
ATOM     47  S   UNL A   1      44.939  20.177  24.105  1.00  0.00     0.127 S 
ATOM     48  O   UNL A   1      44.559  21.269  23.215  1.00  0.00    -0.237 OA
ATOM     49  O   UNL A   1      46.214  20.373  24.799  1.00  0.00    -0.237 OA
ATOM     50  O   UNL A   1      44.749  18.822  23.605  1.00  0.00    -0.744 OA
ENDBRANCH  44  47
ENDBRANCH  26  40
BRANCH  27  51
ATOM     51  C   UNL A   1      45.981  29.967  32.219  1.00  0.00     0.023 A 
ATOM     52  C   UNL A   1      46.777  31.029  31.758  1.00  0.00     0.012 A 
ATOM     53  C   UNL A   1      45.751  29.945  33.628  1.00  0.00     0.148 A 
ATOM     54  C   UNL A   1      47.283  32.018  32.626  1.00  0.00     0.002 A 
ATOM     55  C   UNL A   1      46.167  30.974  34.470  1.00  0.00     0.091 A 
ATOM     56  F   UNL A   1      45.114  28.910  34.181  1.00  0.00    -0.205 F 
ATOM     57  C   UNL A   1      46.954  32.008  33.976  1.00  0.00     0.022 A 
BRANCH  55  58
ATOM     58  S   UNL A   1      45.614  31.087  36.185  1.00  0.00     0.127 S 
ATOM     59  O   UNL A   1      44.229  30.626  36.097  1.00  0.00    -0.237 OA
ATOM     60  O   UNL A   1      46.529  30.157  36.847  1.00  0.00    -0.237 OA
ATOM     61  O   UNL A   1      45.771  32.481  36.580  1.00  0.00    -0.744 OA
ENDBRANCH  55  58
ENDBRANCH  27  51
BRANCH  39  62
ATOM     62  C   UNL A   1      46.103  26.130  27.655  1.00  0.00     0.023 A 
ATOM     63  C   UNL A   1      44.908  26.733  27.204  1.00  0.00     0.012 A 
ATOM     64  C   UNL A   1      47.202  26.136  26.760  1.00  0.00     0.148 A 
ATOM     65  C   UNL A   1      44.792  27.270  25.918  1.00  0.00     0.002 A 
ATOM     66  C   UNL A   1      47.081  26.652  25.464  1.00  0.00     0.091 A 
ATOM     67  F   UNL A   1      48.370  25.659  27.186  1.00  0.00    -0.205 F 
ATOM     68  C   UNL A   1      45.871  27.218  25.044  1.00  0.00     0.022 A 
BRANCH  66  69
ATOM     69  S   UNL A   1      48.393  26.574  24.221  1.00  0.00     0.127 S 
ATOM     70  O   UNL A   1      49.601  26.408  25.034  1.00  0.00    -0.237 OA
ATOM     71  O   UNL A   1      48.019  25.388  23.456  1.00  0.00    -0.237 OA
ATOM     72  O   UNL A   1      48.359  27.829  23.481  1.00  0.00    -0.744 OA
ENDBRANCH  66  69
ENDBRANCH  39  62
ENDBRANCH  13  14
ENDBRANCH   6   8
ENDBRANCH   5   6
ENDBRANCH   4   5
ENDBRANCH   3   4
ENDBRANCH   2   3
ENDBRANCH   1   2
BRANCH   1  73
ATOM     73  C   UNL A   1      38.283  32.986  32.750  1.00  0.00     0.188 C 
BRANCH  73  74
ATOM     74  O   UNL A   1      38.233  32.788  34.160  1.00  0.00    -0.376 OA
BRANCH  74  75
ATOM     75  C   UNL A   1      37.768  31.537  34.633  1.00  0.00     0.202 C 
BRANCH  75  76
ATOM     76  C   UNL A   1      38.200  31.211  36.068  1.00  0.00     0.261 C 
BRANCH  76  77
ATOM     77  O   UNL A   1      39.097  30.090  36.230  1.00  0.00    -0.459 OA
BRANCH  77  78
ATOM     78  C   UNL A   1      40.409  30.265  35.886  1.00  0.00     0.355 C 
ATOM     79  O   UNL A   1      41.146  31.123  36.342  1.00  0.00    -0.244 OA
BRANCH  78  80
ATOM     80  C   UNL A   1      40.785  29.306  34.864  1.00  0.00     0.128 A 
ATOM     81  C   UNL A   1      40.518  29.425  33.507  1.00  0.00     0.035 A 
ATOM     82  N   UNL A   1      41.577  28.164  35.013  1.00  0.00    -0.333 N 
ATOM     83  C   UNL A   1      41.292  28.463  32.824  1.00  0.00     0.020 A 
ATOM     84  C   UNL A   1      41.953  27.718  33.773  1.00  0.00     0.087 A 
BRANCH  82  85
ATOM     85  C   UNL A   1      41.969  27.572  36.295  1.00  0.00     0.222 C 
BRANCH  85  86
ATOM     86  C   UNL A   1      41.763  26.067  36.543  1.00  0.00     0.242 C 
ATOM     87  O   UNL A   1      40.626  25.594  36.558  1.00  0.00    -0.273 OA
ATOM     88  N   UNL A   1      42.905  25.235  36.387  1.00  0.00    -0.339 N 
ATOM     89  C   UNL A   1      42.642  23.836  34.947  1.00  0.00     0.133 C 
ATOM     90  C   UNL A   1      44.575  25.785  37.287  1.00  0.00     0.133 C 
ATOM     91  C   UNL A   1      44.432  23.070  34.151  1.00  0.00     0.126 C 
ATOM     92  C   UNL A   1      46.584  25.284  36.821  1.00  0.00     0.126 C 
ATOM     93  S   UNL A   1      46.716  23.712  34.870  1.00  0.00     0.025 S 
ATOM     94  O   UNL A   1      47.456  22.515  35.385  1.00  0.00    -0.259 OA
ENDBRANCH  85  86
ENDBRANCH  82  85
ENDBRANCH  78  80
ENDBRANCH  77  78
ENDBRANCH  76  77
ENDBRANCH  75  76
ENDBRANCH  74  75
ENDBRANCH  73  74
ENDBRANCH   1  73
TORSDOF 22
ENDMDL
MODEL 2
REMARK VINA RESULT:      -8.9      2.210      3.960
REMARK SMILES O=C(OCCOCCOCCOC(=O)c1cccn1CC(=O)N1CCS(=O)CC1)c1ccc(-c2c3nc(c(-c4cccc(S(=O)(=O)[O-])c4F)c4ccc([nH]4)c(-c4cccc(S(=O)(=O)[O-])c4F)c4nc(c(-c5cccc(S(=O)(=O)[O-])c5F)c5ccc2[nH]5)C=C4)C=C3)cc1
REMARK SMILES IDX 7 1 6 2 5 3 4 4 3 5 2 6 1 7 30 8 31 9 92 10 32 11 91 12
REMARK SMILES IDX 33 13 34 14 35 15 85 16 36 17 90 18 84 19 86 20 37 21 89 22
REMARK SMILES IDX 83 23 82 24 38 26 70 27 50 28 69 29 51 30 54 31 68 32 87 33
REMARK SMILES IDX 52 34 53 35 67 37 88 38 55 39 39 40 40 41 48 42 41 43 43 44
REMARK SMILES IDX 49 45 42 46 44 47 45 48 46 49 47 50 71 51 72 52 80 53 73 54
REMARK SMILES IDX 75 55 81 56 74 57 76 58 77 59 78 60 79 61 56 62 57 63 65 64
REMARK SMILES IDX 58 65 60 66 66 67 59 68 61 69 62 70 63 71 64 72 8 73 9 74
REMARK SMILES IDX 10 75 11 76 12 77 13 78 14 79 15 80 16 81 19 82 17 83 18 84
REMARK SMILES IDX 20 85 21 86 22 87 23 88 24 89 29 90 25 91 28 92 26 93 27 94
REMARK H PARENT 86 25 54 36
REMARK Flexibility Score: inf
ROOT
ATOM      1  C   UNL A   1      34.386  34.173  30.814  1.00  0.00     0.188 C 
ENDROOT
BRANCH   1   2
ATOM      2  O   UNL A   1      34.753  33.654  29.532  1.00  0.00    -0.376 OA
BRANCH   2   3
ATOM      3  C   UNL A   1      33.698  33.694  28.578  1.00  0.00     0.202 C 
BRANCH   3   4
ATOM      4  C   UNL A   1      33.594  32.390  27.782  1.00  0.00     0.261 C 
BRANCH   4   5
ATOM      5  O   UNL A   1      34.511  31.373  28.242  1.00  0.00    -0.460 OA
BRANCH   5   6
ATOM      6  C   UNL A   1      34.765  30.189  27.657  1.00  0.00     0.338 C 
ATOM      7  O   UNL A   1      33.922  29.597  26.995  1.00  0.00    -0.246 OA
BRANCH   6   8
ATOM      8  C   UNL A   1      36.112  29.670  27.713  1.00  0.00     0.060 A 
ATOM      9  C   UNL A   1      37.329  29.840  27.324  1.00  0.00     0.016 A 
ATOM     10  C   UNL A   1      37.023  29.790  28.601  1.00  0.00     0.016 A 
ATOM     11  C   UNL A   1      39.045  29.016  27.756  1.00  0.00     0.010 A 
ATOM     12  C   UNL A   1      38.775  29.051  29.012  1.00  0.00     0.010 A 
ATOM     13  C   UNL A   1      39.531  28.119  28.557  1.00  0.00    -0.014 A 
BRANCH  13  14
ATOM     14  C   UNL A   1      40.812  27.436  28.687  1.00  0.00     0.031 A 
ATOM     15  C   UNL A   1      40.880  25.984  28.263  1.00  0.00     0.074 A 
ATOM     16  C   UNL A   1      41.803  28.156  29.327  1.00  0.00     0.049 A 
ATOM     17  N   UNL A   1      41.373  24.968  28.912  1.00  0.00    -0.248 NA
ATOM     18  C   UNL A   1      40.208  25.556  27.014  1.00  0.00     0.031 C 
ATOM     19  C   UNL A   1      41.745  29.610  29.511  1.00  0.00     0.029 A 
ATOM     20  N   UNL A   1      43.040  27.895  29.923  1.00  0.00    -0.354 N 
ATOM     21  C   UNL A   1      41.294  23.871  28.032  1.00  0.00     0.074 A 
ATOM     22  C   UNL A   1      40.350  24.229  27.019  1.00  0.00     0.031 C 
ATOM     23  C   UNL A   1      42.744  30.088  30.264  1.00  0.00     0.029 A 
ATOM     24  C   UNL A   1      43.635  29.008  30.594  1.00  0.00     0.049 A 
ATOM     25  H   UNL A   1      43.470  27.010  29.884  1.00  0.00     0.167 HD
ATOM     26  C   UNL A   1      42.207  22.858  28.019  1.00  0.00     0.034 A 
ATOM     27  C   UNL A   1      44.779  29.147  31.336  1.00  0.00     0.034 A 
ATOM     28  C   UNL A   1      43.265  23.156  28.931  1.00  0.00     0.049 A 
ATOM     29  C   UNL A   1      45.593  27.963  31.061  1.00  0.00     0.074 A 
ATOM     30  C   UNL A   1      43.390  23.154  30.292  1.00  0.00     0.029 A 
ATOM     31  N   UNL A   1      44.330  23.824  28.369  1.00  0.00    -0.354 N 
ATOM     32  N   UNL A   1      46.190  27.755  29.925  1.00  0.00    -0.248 NA
ATOM     33  C   UNL A   1      45.732  26.904  32.065  1.00  0.00     0.031 C 
ATOM     34  C   UNL A   1      44.408  24.092  30.551  1.00  0.00     0.029 A 
ATOM     35  C   UNL A   1      44.936  24.566  29.344  1.00  0.00     0.049 A 
ATOM     36  H   UNL A   1      44.607  23.777  27.426  1.00  0.00     0.167 HD
ATOM     37  C   UNL A   1      46.341  26.392  29.941  1.00  0.00     0.074 A 
ATOM     38  C   UNL A   1      46.407  26.016  31.336  1.00  0.00     0.031 C 
ATOM     39  C   UNL A   1      45.751  25.689  28.934  1.00  0.00     0.034 A 
BRANCH  26  40
ATOM     40  C   UNL A   1      42.476  21.729  27.054  1.00  0.00     0.023 A 
ATOM     41  C   UNL A   1      41.739  20.533  27.292  1.00  0.00     0.012 A 
ATOM     42  C   UNL A   1      43.527  21.654  26.127  1.00  0.00     0.148 A 
ATOM     43  C   UNL A   1      42.074  19.315  26.704  1.00  0.00     0.002 A 
ATOM     44  C   UNL A   1      43.810  20.447  25.481  1.00  0.00     0.091 A 
ATOM     45  F   UNL A   1      44.331  22.703  25.939  1.00  0.00    -0.205 F 
ATOM     46  C   UNL A   1      43.113  19.272  25.791  1.00  0.00     0.022 A 
BRANCH  44  47
ATOM     47  S   UNL A   1      45.059  20.346  24.194  1.00  0.00     0.127 S 
ATOM     48  O   UNL A   1      44.929  18.965  23.744  1.00  0.00    -0.237 OA
ATOM     49  O   UNL A   1      44.594  21.347  23.231  1.00  0.00    -0.237 OA
ATOM     50  O   UNL A   1      46.306  20.710  24.856  1.00  0.00    -0.744 OA
ENDBRANCH  44  47
ENDBRANCH  26  40
BRANCH  27  51
ATOM     51  C   UNL A   1      45.393  30.216  32.227  1.00  0.00     0.023 A 
ATOM     52  C   UNL A   1      46.191  31.273  31.761  1.00  0.00     0.012 A 
ATOM     53  C   UNL A   1      45.099  30.244  33.624  1.00  0.00     0.148 A 
ATOM     54  C   UNL A   1      46.640  32.304  32.611  1.00  0.00     0.002 A 
ATOM     55  C   UNL A   1      45.458  31.313  34.443  1.00  0.00     0.091 A 
ATOM     56  F   UNL A   1      44.455  29.220  34.188  1.00  0.00    -0.205 F 
ATOM     57  C   UNL A   1      46.251  32.341  33.944  1.00  0.00     0.022 A 
BRANCH  55  58
ATOM     58  S   UNL A   1      44.826  31.482  36.124  1.00  0.00     0.127 S 
ATOM     59  O   UNL A   1      43.382  31.353  35.929  1.00  0.00    -0.237 OA
ATOM     60  O   UNL A   1      45.458  30.343  36.790  1.00  0.00    -0.237 OA
ATOM     61  O   UNL A   1      45.264  32.787  36.603  1.00  0.00    -0.744 OA
ENDBRANCH  55  58
ENDBRANCH  27  51
BRANCH  39  62
ATOM     62  C   UNL A   1      45.677  26.457  27.605  1.00  0.00     0.023 A 
ATOM     63  C   UNL A   1      44.408  26.917  27.190  1.00  0.00     0.012 A 
ATOM     64  C   UNL A   1      46.746  26.605  26.687  1.00  0.00     0.148 A 
ATOM     65  C   UNL A   1      44.199  27.452  25.915  1.00  0.00     0.002 A 
ATOM     66  C   UNL A   1      46.534  27.118  25.402  1.00  0.00     0.091 A 
ATOM     67  F   UNL A   1      47.972  26.267  27.080  1.00  0.00    -0.205 F 
ATOM     68  C   UNL A   1      45.255  27.540  25.017  1.00  0.00     0.022 A 
BRANCH  66  69
ATOM     69  S   UNL A   1      47.816  27.213  24.129  1.00  0.00     0.127 S 
ATOM     70  O   UNL A   1      47.155  27.962  23.057  1.00  0.00    -0.237 OA
ATOM     71  O   UNL A   1      48.872  27.954  24.814  1.00  0.00    -0.237 OA
ATOM     72  O   UNL A   1      48.156  25.845  23.758  1.00  0.00    -0.744 OA
ENDBRANCH  66  69
ENDBRANCH  39  62
ENDBRANCH  13  14
ENDBRANCH   6   8
ENDBRANCH   5   6
ENDBRANCH   4   5
ENDBRANCH   3   4
ENDBRANCH   2   3
ENDBRANCH   1   2
BRANCH   1  73
ATOM     73  C   UNL A   1      34.697  33.156  31.917  1.00  0.00     0.188 C 
BRANCH  73  74
ATOM     74  O   UNL A   1      35.160  31.868  31.522  1.00  0.00    -0.376 OA
BRANCH  74  75
ATOM     75  C   UNL A   1      36.399  31.426  32.045  1.00  0.00     0.202 C 
BRANCH  75  76
ATOM     76  C   UNL A   1      37.616  32.167  31.479  1.00  0.00     0.261 C 
BRANCH  76  77
ATOM     77  O   UNL A   1      38.117  33.273  32.264  1.00  0.00    -0.459 OA
BRANCH  77  78
ATOM     78  C   UNL A   1      39.406  33.206  32.715  1.00  0.00     0.355 C 
ATOM     79  O   UNL A   1      40.268  34.043  32.505  1.00  0.00    -0.244 OA
BRANCH  78  80
ATOM     80  C   UNL A   1      39.612  31.968  33.444  1.00  0.00     0.128 A 
ATOM     81  C   UNL A   1      40.534  30.982  33.119  1.00  0.00     0.035 A 
ATOM     82  N   UNL A   1      39.030  31.583  34.656  1.00  0.00    -0.333 N 
ATOM     83  C   UNL A   1      40.635  30.101  34.216  1.00  0.00     0.020 A 
ATOM     84  C   UNL A   1      39.718  30.508  35.157  1.00  0.00     0.087 A 
BRANCH  82  85
ATOM     85  C   UNL A   1      37.895  32.252  35.297  1.00  0.00     0.222 C 
BRANCH  85  86
ATOM     86  C   UNL A   1      37.998  32.709  36.763  1.00  0.00     0.242 C 
ATOM     87  O   UNL A   1      37.422  32.076  37.648  1.00  0.00    -0.273 OA
ATOM     88  N   UNL A   1      39.040  33.626  37.070  1.00  0.00    -0.339 N 
ATOM     89  C   UNL A   1      40.332  32.883  38.441  1.00  0.00     0.133 C 
ATOM     90  C   UNL A   1      39.242  35.214  35.913  1.00  0.00     0.133 C 
ATOM     91  C   UNL A   1      42.227  33.795  38.422  1.00  0.00     0.126 C 
ATOM     92  C   UNL A   1      40.952  36.422  35.569  1.00  0.00     0.126 C 
ATOM     93  S   UNL A   1      42.913  35.657  36.935  1.00  0.00     0.025 S 
ATOM     94  O   UNL A   1      43.312  36.853  37.746  1.00  0.00    -0.259 OA
ENDBRANCH  85  86
ENDBRANCH  82  85
ENDBRANCH  78  80
ENDBRANCH  77  78
ENDBRANCH  76  77
ENDBRANCH  75  76
ENDBRANCH  74  75
ENDBRANCH  73  74
ENDBRANCH   1  73
TORSDOF 22
ENDMDL
MODEL 3
REMARK VINA RESULT:      -8.6      2.863      4.796
REMARK SMILES O=C(OCCOCCOCCOC(=O)c1cccn1CC(=O)N1CCS(=O)CC1)c1ccc(-c2c3nc(c(-c4cccc(S(=O)(=O)[O-])c4F)c4ccc([nH]4)c(-c4cccc(S(=O)(=O)[O-])c4F)c4nc(c(-c5cccc(S(=O)(=O)[O-])c5F)c5ccc2[nH]5)C=C4)C=C3)cc1
REMARK SMILES IDX 7 1 6 2 5 3 4 4 3 5 2 6 1 7 30 8 31 9 92 10 32 11 91 12
REMARK SMILES IDX 33 13 34 14 35 15 85 16 36 17 90 18 84 19 86 20 37 21 89 22
REMARK SMILES IDX 83 23 82 24 38 26 70 27 50 28 69 29 51 30 54 31 68 32 87 33
REMARK SMILES IDX 52 34 53 35 67 37 88 38 55 39 39 40 40 41 48 42 41 43 43 44
REMARK SMILES IDX 49 45 42 46 44 47 45 48 46 49 47 50 71 51 72 52 80 53 73 54
REMARK SMILES IDX 75 55 81 56 74 57 76 58 77 59 78 60 79 61 56 62 57 63 65 64
REMARK SMILES IDX 58 65 60 66 66 67 59 68 61 69 62 70 63 71 64 72 8 73 9 74
REMARK SMILES IDX 10 75 11 76 12 77 13 78 14 79 15 80 16 81 19 82 17 83 18 84
REMARK SMILES IDX 20 85 21 86 22 87 23 88 24 89 29 90 25 91 28 92 26 93 27 94
REMARK H PARENT 86 25 54 36
REMARK Flexibility Score: inf
ROOT
ATOM      1  C   UNL A   1      34.607  33.984  31.442  1.00  0.00     0.188 C 
ENDROOT
BRANCH   1   2
ATOM      2  O   UNL A   1      35.105  33.642  30.144  1.00  0.00    -0.376 OA
BRANCH   2   3
ATOM      3  C   UNL A   1      34.195  33.936  29.091  1.00  0.00     0.202 C 
BRANCH   3   4
ATOM      4  C   UNL A   1      34.080  32.779  28.094  1.00  0.00     0.261 C 
BRANCH   4   5
ATOM      5  O   UNL A   1      34.837  31.615  28.490  1.00  0.00    -0.460 OA
BRANCH   5   6
ATOM      6  C   UNL A   1      35.051  30.504  27.762  1.00  0.00     0.338 C 
ATOM      7  O   UNL A   1      34.202  30.048  27.006  1.00  0.00    -0.246 OA
BRANCH   6   8
ATOM      8  C   UNL A   1      36.368  29.910  27.787  1.00  0.00     0.060 A 
ATOM      9  C   UNL A   1      37.534  29.897  27.237  1.00  0.00     0.016 A 
ATOM     10  C   UNL A   1      37.387  30.155  28.517  1.00  0.00     0.016 A 
ATOM     11  C   UNL A   1      39.248  29.062  27.653  1.00  0.00     0.010 A 
ATOM     12  C   UNL A   1      39.139  29.395  28.890  1.00  0.00     0.010 A 
ATOM     13  C   UNL A   1      39.786  28.330  28.579  1.00  0.00    -0.014 A 
BRANCH  13  14
ATOM     14  C   UNL A   1      41.039  27.598  28.720  1.00  0.00     0.031 A 
ATOM     15  C   UNL A   1      41.053  26.143  28.302  1.00  0.00     0.074 A 
ATOM     16  C   UNL A   1      42.054  28.282  29.362  1.00  0.00     0.049 A 
ATOM     17  N   UNL A   1      41.501  25.111  28.957  1.00  0.00    -0.248 NA
ATOM     18  C   UNL A   1      40.371  25.736  27.051  1.00  0.00     0.031 C 
ATOM     19  C   UNL A   1      42.052  29.738  29.539  1.00  0.00     0.029 A 
ATOM     20  N   UNL A   1      43.276  27.976  29.966  1.00  0.00    -0.354 N 
ATOM     21  C   UNL A   1      41.384  24.015  28.082  1.00  0.00     0.074 A 
ATOM     22  C   UNL A   1      40.460  24.405  27.062  1.00  0.00     0.031 C 
ATOM     23  C   UNL A   1      43.064  30.180  30.295  1.00  0.00     0.029 A 
ATOM     24  C   UNL A   1      43.911  29.067  30.635  1.00  0.00     0.049 A 
ATOM     25  H   UNL A   1      43.671  27.074  29.933  1.00  0.00     0.167 HD
ATOM     26  C   UNL A   1      42.257  22.966  28.079  1.00  0.00     0.034 A 
ATOM     27  C   UNL A   1      45.055  29.165  31.383  1.00  0.00     0.034 A 
ATOM     28  C   UNL A   1      43.321  23.227  28.995  1.00  0.00     0.049 A 
ATOM     29  C   UNL A   1      45.824  27.949  31.118  1.00  0.00     0.074 A 
ATOM     30  C   UNL A   1      43.438  23.227  30.357  1.00  0.00     0.029 A 
ATOM     31  N   UNL A   1      44.414  23.851  28.436  1.00  0.00    -0.354 N 
ATOM     32  N   UNL A   1      46.418  27.712  29.986  1.00  0.00    -0.248 NA
ATOM     33  C   UNL A   1      45.915  26.890  32.127  1.00  0.00     0.031 C 
ATOM     34  C   UNL A   1      44.491  24.125  30.618  1.00  0.00     0.029 A 
ATOM     35  C   UNL A   1      45.043  24.572  29.412  1.00  0.00     0.049 A 
ATOM     36  H   UNL A   1      44.695  23.788  27.495  1.00  0.00     0.167 HD
ATOM     37  C   UNL A   1      46.516  26.344  30.009  1.00  0.00     0.074 A 
ATOM     38  C   UNL A   1      46.559  25.972  31.406  1.00  0.00     0.031 C 
ATOM     39  C   UNL A   1      45.905  25.661  29.002  1.00  0.00     0.034 A 
BRANCH  26  40
ATOM     40  C   UNL A   1      42.487  21.823  27.120  1.00  0.00     0.023 A 
ATOM     41  C   UNL A   1      41.729  20.646  27.380  1.00  0.00     0.012 A 
ATOM     42  C   UNL A   1      43.521  21.718  26.177  1.00  0.00     0.148 A 
ATOM     43  C   UNL A   1      42.029  19.416  26.798  1.00  0.00     0.002 A 
ATOM     44  C   UNL A   1      43.769  20.499  25.538  1.00  0.00     0.091 A 
ATOM     45  F   UNL A   1      44.344  22.748  25.967  1.00  0.00    -0.205 F 
ATOM     46  C   UNL A   1      43.052  19.343  25.869  1.00  0.00     0.022 A 
BRANCH  44  47
ATOM     47  S   UNL A   1      44.995  20.361  24.233  1.00  0.00     0.127 S 
ATOM     48  O   UNL A   1      46.237  20.637  24.946  1.00  0.00    -0.237 OA
ATOM     49  O   UNL A   1      44.835  18.970  23.803  1.00  0.00    -0.237 OA
ATOM     50  O   UNL A   1      44.580  21.333  23.229  1.00  0.00    -0.744 OA
ENDBRANCH  44  47
ENDBRANCH  26  40
BRANCH  27  51
ATOM     51  C   UNL A   1      45.705  30.212  32.273  1.00  0.00     0.023 A 
ATOM     52  C   UNL A   1      45.240  30.565  33.551  1.00  0.00     0.012 A 
ATOM     53  C   UNL A   1      46.920  30.847  31.871  1.00  0.00     0.148 A 
ATOM     54  C   UNL A   1      45.943  31.457  34.385  1.00  0.00     0.002 A 
ATOM     55  C   UNL A   1      47.665  31.650  32.731  1.00  0.00     0.091 A 
ATOM     56  F   UNL A   1      47.378  30.677  30.629  1.00  0.00    -0.205 F 
ATOM     57  C   UNL A   1      47.169  31.977  33.989  1.00  0.00     0.022 A 
BRANCH  55  58
ATOM     58  S   UNL A   1      49.335  32.197  32.321  1.00  0.00     0.127 S 
ATOM     59  O   UNL A   1      49.094  33.144  31.233  1.00  0.00    -0.237 OA
ATOM     60  O   UNL A   1      49.760  32.807  33.581  1.00  0.00    -0.237 OA
ATOM     61  O   UNL A   1      50.080  31.004  31.939  1.00  0.00    -0.744 OA
ENDBRANCH  55  58
ENDBRANCH  27  51
BRANCH  39  62
ATOM     62  C   UNL A   1      45.868  26.425  27.669  1.00  0.00     0.023 A 
ATOM     63  C   UNL A   1      44.615  26.911  27.232  1.00  0.00     0.012 A 
ATOM     64  C   UNL A   1      46.954  26.547  26.768  1.00  0.00     0.148 A 
ATOM     65  C   UNL A   1      44.438  27.445  25.952  1.00  0.00     0.002 A 
ATOM     66  C   UNL A   1      46.773  27.059  25.477  1.00  0.00     0.091 A 
ATOM     67  F   UNL A   1      48.166  26.184  27.181  1.00  0.00    -0.205 F 
ATOM     68  C   UNL A   1      45.510  27.507  25.071  1.00  0.00     0.022 A 
BRANCH  66  69
ATOM     69  S   UNL A   1      48.077  27.122  24.225  1.00  0.00     0.127 S 
ATOM     70  O   UNL A   1      48.986  28.143  24.754  1.00  0.00    -0.237 OA
ATOM     71  O   UNL A   1      48.611  25.763  24.272  1.00  0.00    -0.237 OA
ATOM     72  O   UNL A   1      47.446  27.500  22.966  1.00  0.00    -0.744 OA
ENDBRANCH  66  69
ENDBRANCH  39  62
ENDBRANCH  13  14
ENDBRANCH   6   8
ENDBRANCH   5   6
ENDBRANCH   4   5
ENDBRANCH   3   4
ENDBRANCH   2   3
ENDBRANCH   1   2
BRANCH   1  73
ATOM     73  C   UNL A   1      34.713  32.787  32.392  1.00  0.00     0.188 C 
BRANCH  73  74
ATOM     74  O   UNL A   1      35.604  31.733  32.039  1.00  0.00    -0.376 OA
BRANCH  74  75
ATOM     75  C   UNL A   1      36.804  31.611  32.780  1.00  0.00     0.202 C 
BRANCH  75  76
ATOM     76  C   UNL A   1      37.766  30.546  32.241  1.00  0.00     0.261 C 
BRANCH  76  77
ATOM     77  O   UNL A   1      39.084  31.002  31.865  1.00  0.00    -0.459 OA
BRANCH  77  78
ATOM     78  C   UNL A   1      39.445  32.274  32.212  1.00  0.00     0.355 C 
ATOM     79  O   UNL A   1      39.681  32.652  33.348  1.00  0.00    -0.244 OA
BRANCH  78  80
ATOM     80  C   UNL A   1      39.462  33.123  31.036  1.00  0.00     0.128 A 
ATOM     81  C   UNL A   1      38.347  33.535  30.319  1.00  0.00     0.035 A 
ATOM     82  N   UNL A   1      40.560  33.782  30.473  1.00  0.00    -0.333 N 
ATOM     83  C   UNL A   1      38.746  34.570  29.448  1.00  0.00     0.020 A 
ATOM     84  C   UNL A   1      40.107  34.719  29.581  1.00  0.00     0.087 A 
BRANCH  82  85
ATOM     85  C   UNL A   1      41.962  33.530  30.819  1.00  0.00     0.222 C 
BRANCH  85  86
ATOM     86  C   UNL A   1      42.976  34.688  30.811  1.00  0.00     0.242 C 
ATOM     87  O   UNL A   1      43.213  35.307  31.848  1.00  0.00    -0.273 OA
ATOM     88  N   UNL A   1      43.854  34.756  29.695  1.00  0.00    -0.339 N 
ATOM     89  C   UNL A   1      45.798  34.614  30.241  1.00  0.00     0.133 C 
ATOM     90  C   UNL A   1      43.062  34.617  27.891  1.00  0.00     0.133 C 
ATOM     91  C   UNL A   1      47.083  33.984  28.699  1.00  0.00     0.126 C 
ATOM     92  C   UNL A   1      43.962  34.010  26.068  1.00  0.00     0.126 C 
ATOM     93  S   UNL A   1      46.397  33.483  26.370  1.00  0.00     0.025 S 
ATOM     94  O   UNL A   1      47.112  34.384  25.410  1.00  0.00    -0.259 OA
ENDBRANCH  85  86
ENDBRANCH  82  85
ENDBRANCH  78  80
ENDBRANCH  77  78
ENDBRANCH  76  77
ENDBRANCH  75  76
ENDBRANCH  74  75
ENDBRANCH  73  74
ENDBRANCH   1  73
TORSDOF 22
ENDMDL
