MODEL 1
REMARK VINA RESULT:      -9.9      0.000      0.000
REMARK SMILES O=C1NC(=O)/C(=C/c2ccc(OCc3cn(-c4ccc(C(=O)OCCOCCOCCOC(=O)c5ccc(-c6c7nc(c(-c8cccc(S(=O)(=O)[O-])c8F)c8ccc([nH]8)c(-c8cccc(S(=O)(=O)[O-])c8F)c8nc(c(-c9cccc(S(=O)(=O)[O-])c9F)c9ccc6[nH]9)C=C8)C=C7)cc5)cc4)nn3)cc2)S1
REMARK SMILES IDX 27 1 26 2 25 3 24 4 23 5 21 6 22 7 20 8 17 9 18 10 99 11
REMARK SMILES IDX 19 12 98 13 16 14 14 15 15 16 101 17 100 18 13 19 12 20
REMARK SMILES IDX 11 21 8 22 9 23 103 24 10 25 102 26 7 27 1 28 2 29 3 30
REMARK SMILES IDX 104 31 4 32 6 34 5 35 28 36 29 37 30 38 31 39 32 40 33 41
REMARK SMILES IDX 34 42 35 43 36 44 97 45 37 46 96 47 38 48 39 49 40 50 90 51
REMARK SMILES IDX 41 52 95 53 89 54 91 55 42 56 94 57 88 58 87 59 43 61 75 62
REMARK SMILES IDX 55 63 74 64 56 65 59 66 73 67 92 68 57 69 58 70 72 72 93 73
REMARK SMILES IDX 60 74 44 75 45 76 53 77 46 78 48 79 54 80 47 81 49 82 50 83
REMARK SMILES IDX 51 84 52 85 76 86 77 87 85 88 78 89 80 90 86 91 79 92 81 93
REMARK SMILES IDX 82 94 83 95 84 96 61 97 62 98 70 99 63 100 65 101 71 102
REMARK SMILES IDX 64 103 66 104 67 105 68 106 69 107
REMARK H PARENT 3 33 91 60 59 71
REMARK Flexibility Score: inf
ROOT
ATOM      1  C   UNL A   1      35.668  23.223  23.708  1.00  0.00     0.188 C 
ENDROOT
BRANCH   1   2
ATOM      2  O   UNL A   1      34.754  23.618  22.711  1.00  0.00    -0.376 OA
BRANCH   2   3
ATOM      3  C   UNL A   1      33.490  23.000  22.564  1.00  0.00     0.202 C 
BRANCH   3   4
ATOM      4  C   UNL A   1      32.117  23.692  22.684  1.00  0.00     0.261 C 
BRANCH   4   5
ATOM      5  O   UNL A   1      31.214  23.213  23.681  1.00  0.00    -0.460 OA
BRANCH   5   6
ATOM      6  C   UNL A   1      31.724  23.117  24.929  1.00  0.00     0.338 C 
ATOM      7  O   UNL A   1      32.120  22.111  25.491  1.00  0.00    -0.246 OA
BRANCH   6   8
ATOM      8  C   UNL A   1      31.899  24.469  25.495  1.00  0.00     0.060 A 
ATOM      9  C   UNL A   1      32.127  27.098  26.364  1.00  0.00     0.066 A 
ATOM     10  C   UNL A   1      30.856  26.525  26.218  1.00  0.00     0.029 A 
ATOM     11  C   UNL A   1      33.282  26.326  26.177  1.00  0.00     0.029 A 
ATOM     12  C   UNL A   1      30.745  25.223  25.741  1.00  0.00     0.018 A 
ATOM     13  C   UNL A   1      33.166  24.993  25.769  1.00  0.00     0.018 A 
BRANCH   9  14
ATOM     14  N   UNL A   1      32.214  28.490  26.586  1.00  0.00    -0.220 N 
ATOM     15  C   UNL A   1      32.973  30.485  27.046  1.00  0.00     0.120 A 
ATOM     16  C   UNL A   1      33.111  29.157  27.394  1.00  0.00     0.144 A 
ATOM     17  N   UNL A   1      31.985  30.587  26.104  1.00  0.00    -0.131 NA
ATOM     18  N   UNL A   1      31.541  29.375  25.824  1.00  0.00    -0.062 NA
BRANCH  15  19
ATOM     19  C   UNL A   1      33.785  31.679  27.424  1.00  0.00     0.289 C 
BRANCH  19  20
ATOM     20  O   UNL A   1      35.097  31.398  27.938  1.00  0.00    -0.487 OA
BRANCH  20  21
ATOM     21  C   UNL A   1      35.559  32.164  28.974  1.00  0.00     0.119 A 
ATOM     22  C   UNL A   1      36.820  33.484  31.110  1.00  0.00    -0.024 A 
ATOM     23  C   UNL A   1      37.531  33.200  29.942  1.00  0.00     0.012 A 
ATOM     24  C   UNL A   1      35.456  33.190  31.163  1.00  0.00     0.012 A 
ATOM     25  C   UNL A   1      36.901  32.537  28.882  1.00  0.00     0.047 A 
ATOM     26  C   UNL A   1      34.825  32.555  30.092  1.00  0.00     0.047 A 
BRANCH  22  27
ATOM     27  C   UNL A   1      37.485  34.092  32.266  1.00  0.00     0.029 C 
ATOM     28  O   UNL A   1      37.750  31.287  36.435  1.00  0.00    -0.261 OA
ATOM     29  C   UNL A   1      37.807  32.126  35.561  1.00  0.00     0.290 C 
ATOM     30  N   UNL A   1      38.293  33.390  35.698  1.00  0.00    -0.282 N 
ATOM     31  S   UNL A   1      37.259  31.884  33.915  1.00  0.00    -0.022 SA
ATOM     32  C   UNL A   1      38.269  34.209  34.610  1.00  0.00     0.265 C 
ATOM     33  H   UNL A   1      38.652  33.704  36.559  1.00  0.00     0.174 HD
ATOM     34  C   UNL A   1      37.667  33.495  33.452  1.00  0.00     0.083 C 
ATOM     35  O   UNL A   1      38.663  35.365  34.591  1.00  0.00    -0.268 OA
ENDBRANCH  22  27
ENDBRANCH  20  21
ENDBRANCH  19  20
ENDBRANCH  15  19
ENDBRANCH   9  14
ENDBRANCH   6   8
ENDBRANCH   5   6
ENDBRANCH   4   5
ENDBRANCH   3   4
ENDBRANCH   2   3
ENDBRANCH   1   2
BRANCH   1  36
ATOM     36  C   UNL A   1      35.448  21.889  24.446  1.00  0.00     0.188 C 
BRANCH  36  37
ATOM     37  O   UNL A   1      36.550  21.049  24.715  1.00  0.00    -0.376 OA
BRANCH  37  38
ATOM     38  C   UNL A   1      37.577  21.400  25.626  1.00  0.00     0.202 C 
BRANCH  38  39
ATOM     39  C   UNL A   1      38.504  22.610  25.526  1.00  0.00     0.261 C 
BRANCH  39  40
ATOM     40  O   UNL A   1      39.147  23.038  26.706  1.00  0.00    -0.460 OA
BRANCH  40  41
ATOM     41  C   UNL A   1      40.491  22.938  26.633  1.00  0.00     0.338 C 
ATOM     42  O   UNL A   1      41.142  21.939  26.378  1.00  0.00    -0.246 OA
BRANCH  41  43
ATOM     43  C   UNL A   1      41.079  24.208  27.042  1.00  0.00     0.060 A 
ATOM     44  C   UNL A   1      41.329  25.145  26.039  1.00  0.00     0.016 A 
ATOM     45  C   UNL A   1      41.652  24.293  28.318  1.00  0.00     0.016 A 
ATOM     46  C   UNL A   1      42.320  26.072  26.258  1.00  0.00     0.010 A 
ATOM     47  C   UNL A   1      42.657  25.203  28.524  1.00  0.00     0.010 A 
ATOM     48  C   UNL A   1      43.030  26.025  27.464  1.00  0.00    -0.014 A 
BRANCH  48  49
ATOM     49  C   UNL A   1      44.090  26.991  27.664  1.00  0.00     0.031 A 
ATOM     50  C   UNL A   1      45.403  26.407  27.323  1.00  0.00     0.074 A 
ATOM     51  C   UNL A   1      43.850  28.266  28.028  1.00  0.00     0.049 A 
ATOM     52  N   UNL A   1      46.338  26.066  28.146  1.00  0.00    -0.248 NA
ATOM     53  C   UNL A   1      45.607  25.914  25.948  1.00  0.00     0.031 C 
ATOM     54  C   UNL A   1      42.545  28.926  28.131  1.00  0.00     0.029 A 
ATOM     55  N   UNL A   1      44.725  29.288  28.248  1.00  0.00    -0.354 N 
ATOM     56  C   UNL A   1      47.370  25.614  27.332  1.00  0.00     0.074 A 
ATOM     57  C   UNL A   1      46.773  25.276  26.071  1.00  0.00     0.031 C 
ATOM     58  C   UNL A   1      42.724  30.268  28.131  1.00  0.00     0.029 A 
ATOM     59  C   UNL A   1      44.149  30.554  28.145  1.00  0.00     0.049 A 
ATOM     60  H   UNL A   1      45.676  29.146  28.460  1.00  0.00     0.167 HD
ATOM     61  C   UNL A   1      48.654  25.943  27.634  1.00  0.00     0.034 A 
ATOM     62  C   UNL A   1      44.801  31.737  27.987  1.00  0.00     0.034 A 
ATOM     63  C   UNL A   1      48.771  26.339  29.019  1.00  0.00     0.049 A 
ATOM     64  C   UNL A   1      46.199  31.527  28.418  1.00  0.00     0.074 A 
ATOM     65  C   UNL A   1      48.464  25.768  30.238  1.00  0.00     0.029 A 
ATOM     66  N   UNL A   1      48.897  27.687  29.243  1.00  0.00    -0.354 N 
ATOM     67  N   UNL A   1      46.546  31.310  29.653  1.00  0.00    -0.248 NA
ATOM     68  C   UNL A   1      47.174  31.138  27.412  1.00  0.00     0.031 C 
ATOM     69  C   UNL A   1      48.020  26.848  31.056  1.00  0.00     0.029 A 
ATOM     70  C   UNL A   1      48.152  28.034  30.332  1.00  0.00     0.049 A 
ATOM     71  H   UNL A   1      49.441  28.305  28.703  1.00  0.00     0.167 HD
ATOM     72  C   UNL A   1      47.508  30.315  29.556  1.00  0.00     0.074 A 
ATOM     73  C   UNL A   1      47.953  30.356  28.164  1.00  0.00     0.031 C 
ATOM     74  C   UNL A   1      47.612  29.361  30.527  1.00  0.00     0.034 A 
BRANCH  61  75
ATOM     75  C   UNL A   1      49.673  26.391  26.599  1.00  0.00     0.023 A 
ATOM     76  C   UNL A   1      49.214  27.278  25.602  1.00  0.00     0.012 A 
ATOM     77  C   UNL A   1      50.930  25.776  26.370  1.00  0.00     0.148 A 
ATOM     78  C   UNL A   1      49.928  27.485  24.416  1.00  0.00     0.002 A 
ATOM     79  C   UNL A   1      51.676  26.050  25.231  1.00  0.00     0.091 A 
ATOM     80  F   UNL A   1      51.373  24.812  27.176  1.00  0.00    -0.205 F 
ATOM     81  C   UNL A   1      51.162  26.876  24.232  1.00  0.00     0.022 A 
BRANCH  79  82
ATOM     82  S   UNL A   1      53.299  25.320  24.967  1.00  0.00     0.127 S 
ATOM     83  O   UNL A   1      53.561  25.688  23.578  1.00  0.00    -0.237 OA
ATOM     84  O   UNL A   1      54.104  26.029  25.962  1.00  0.00    -0.237 OA
ATOM     85  O   UNL A   1      53.143  23.895  25.231  1.00  0.00    -0.744 OA
ENDBRANCH  79  82
ENDBRANCH  61  75
BRANCH  62  86
ATOM     86  C   UNL A   1      44.416  32.963  27.240  1.00  0.00     0.023 A 
ATOM     87  C   UNL A   1      44.388  32.936  25.828  1.00  0.00     0.012 A 
ATOM     88  C   UNL A   1      43.783  34.043  27.892  1.00  0.00     0.148 A 
ATOM     89  C   UNL A   1      43.709  33.919  25.097  1.00  0.00     0.002 A 
ATOM     90  C   UNL A   1      43.114  35.021  27.161  1.00  0.00     0.091 A 
ATOM     91  F   UNL A   1      43.750  34.061  29.230  1.00  0.00    -0.205 F 
ATOM     92  C   UNL A   1      43.061  34.954  25.763  1.00  0.00     0.022 A 
BRANCH  90  93
ATOM     93  S   UNL A   1      42.224  36.365  27.958  1.00  0.00     0.127 S 
ATOM     94  O   UNL A   1      41.108  35.657  28.587  1.00  0.00    -0.237 OA
ATOM     95  O   UNL A   1      43.224  36.881  28.887  1.00  0.00    -0.237 OA
ATOM     96  O   UNL A   1      41.829  37.271  26.886  1.00  0.00    -0.744 OA
ENDBRANCH  90  93
ENDBRANCH  62  86
BRANCH  74  97
ATOM     97  C   UNL A   1      46.943  29.633  31.850  1.00  0.00     0.023 A 
ATOM     98  C   UNL A   1      47.536  30.386  32.885  1.00  0.00     0.012 A 
ATOM     99  C   UNL A   1      45.618  29.194  32.003  1.00  0.00     0.148 A 
ATOM    100  C   UNL A   1      46.830  30.663  34.060  1.00  0.00     0.002 A 
ATOM    101  C   UNL A   1      44.904  29.511  33.149  1.00  0.00     0.091 A 
ATOM    102  F   UNL A   1      45.072  28.474  31.012  1.00  0.00    -0.205 F 
ATOM    103  C   UNL A   1      45.508  30.235  34.187  1.00  0.00     0.022 A 
BRANCH 101 104
ATOM    104  S   UNL A   1      43.173  29.075  33.305  1.00  0.00     0.127 S 
ATOM    105  O   UNL A   1      42.793  29.768  34.533  1.00  0.00    -0.237 OA
ATOM    106  O   UNL A   1      42.593  29.632  32.082  1.00  0.00    -0.237 OA
ATOM    107  O   UNL A   1      43.135  27.618  33.365  1.00  0.00    -0.744 OA
ENDBRANCH 101 104
ENDBRANCH  74  97
ENDBRANCH  48  49
ENDBRANCH  41  43
ENDBRANCH  40  41
ENDBRANCH  39  40
ENDBRANCH  38  39
ENDBRANCH  37  38
ENDBRANCH  36  37
ENDBRANCH   1  36
TORSDOF 25
ENDMDL
MODEL 2
REMARK VINA RESULT:      -9.8      3.863     10.644
REMARK SMILES O=C1NC(=O)/C(=C/c2ccc(OCc3cn(-c4ccc(C(=O)OCCOCCOCCOC(=O)c5ccc(-c6c7nc(c(-c8cccc(S(=O)(=O)[O-])c8F)c8ccc([nH]8)c(-c8cccc(S(=O)(=O)[O-])c8F)c8nc(c(-c9cccc(S(=O)(=O)[O-])c9F)c9ccc6[nH]9)C=C8)C=C7)cc5)cc4)nn3)cc2)S1
REMARK SMILES IDX 27 1 26 2 25 3 24 4 23 5 21 6 22 7 20 8 17 9 18 10 99 11
REMARK SMILES IDX 19 12 98 13 16 14 14 15 15 16 101 17 100 18 13 19 12 20
REMARK SMILES IDX 11 21 8 22 9 23 103 24 10 25 102 26 7 27 1 28 2 29 3 30
REMARK SMILES IDX 104 31 4 32 6 34 5 35 28 36 29 37 30 38 31 39 32 40 33 41
REMARK SMILES IDX 34 42 35 43 36 44 97 45 37 46 96 47 38 48 39 49 40 50 90 51
REMARK SMILES IDX 41 52 95 53 89 54 91 55 42 56 94 57 88 58 87 59 43 61 75 62
REMARK SMILES IDX 55 63 74 64 56 65 59 66 73 67 92 68 57 69 58 70 72 72 93 73
REMARK SMILES IDX 60 74 44 75 45 76 53 77 46 78 48 79 54 80 47 81 49 82 50 83
REMARK SMILES IDX 51 84 52 85 76 86 77 87 85 88 78 89 80 90 86 91 79 92 81 93
REMARK SMILES IDX 82 94 83 95 84 96 61 97 62 98 70 99 63 100 65 101 71 102
REMARK SMILES IDX 64 103 66 104 67 105 68 106 69 107
REMARK H PARENT 3 33 91 60 59 71
REMARK Flexibility Score: inf
ROOT
ATOM      1  C   UNL A   1      31.567  27.739  24.701  1.00  0.00     0.188 C 
ENDROOT
BRANCH   1   2
ATOM      2  O   UNL A   1      32.446  26.719  25.115  1.00  0.00    -0.376 OA
BRANCH   2   3
ATOM      3  C   UNL A   1      32.084  25.770  26.100  1.00  0.00     0.202 C 
BRANCH   3   4
ATOM      4  C   UNL A   1      32.626  24.332  26.225  1.00  0.00     0.261 C 
BRANCH   4   5
ATOM      5  O   UNL A   1      32.134  23.352  25.311  1.00  0.00    -0.460 OA
BRANCH   5   6
ATOM      6  C   UNL A   1      32.706  23.361  24.086  1.00  0.00     0.338 C 
ATOM      7  O   UNL A   1      32.295  23.915  23.082  1.00  0.00    -0.246 OA
BRANCH   6   8
ATOM      8  C   UNL A   1      34.034  22.721  24.158  1.00  0.00     0.060 A 
ATOM      9  C   UNL A   1      36.521  21.538  24.529  1.00  0.00     0.066 A 
ATOM     10  C   UNL A   1      35.368  20.884  24.985  1.00  0.00     0.029 A 
ATOM     11  C   UNL A   1      36.421  22.730  23.797  1.00  0.00     0.029 A 
ATOM     12  C   UNL A   1      34.130  21.500  24.837  1.00  0.00     0.018 A 
ATOM     13  C   UNL A   1      35.165  23.309  23.584  1.00  0.00     0.018 A 
BRANCH   9  14
ATOM     14  N   UNL A   1      37.780  21.035  24.924  1.00  0.00    -0.220 N 
ATOM     15  C   UNL A   1      39.638  20.689  26.016  1.00  0.00     0.120 A 
ATOM     16  C   UNL A   1      38.750  21.683  25.657  1.00  0.00     0.144 A 
ATOM     17  N   UNL A   1      39.220  19.511  25.458  1.00  0.00    -0.131 NA
ATOM     18  N   UNL A   1      38.090  19.727  24.810  1.00  0.00    -0.062 NA
BRANCH  15  19
ATOM     19  C   UNL A   1      40.795  20.711  26.960  1.00  0.00     0.289 C 
BRANCH  19  20
ATOM     20  O   UNL A   1      42.039  20.232  26.426  1.00  0.00    -0.487 OA
BRANCH  20  21
ATOM     21  C   UNL A   1      42.880  21.140  25.843  1.00  0.00     0.119 A 
ATOM     22  C   UNL A   1      44.895  22.845  24.877  1.00  0.00    -0.024 A 
ATOM     23  C   UNL A   1      45.096  21.462  24.900  1.00  0.00     0.012 A 
ATOM     24  C   UNL A   1      43.650  23.356  25.250  1.00  0.00     0.012 A 
ATOM     25  C   UNL A   1      44.091  20.617  25.386  1.00  0.00     0.047 A 
ATOM     26  C   UNL A   1      42.642  22.505  25.707  1.00  0.00     0.047 A 
BRANCH  22  27
ATOM     27  C   UNL A   1      45.967  23.753  24.460  1.00  0.00     0.029 C 
ATOM     28  O   UNL A   1      48.640  25.909  28.138  1.00  0.00    -0.261 OA
ATOM     29  C   UNL A   1      48.144  25.512  27.104  1.00  0.00     0.290 C 
ATOM     30  N   UNL A   1      48.468  25.929  25.851  1.00  0.00    -0.282 N 
ATOM     31  S   UNL A   1      46.880  24.302  27.012  1.00  0.00    -0.022 SA
ATOM     32  C   UNL A   1      47.798  25.382  24.798  1.00  0.00     0.265 C 
ATOM     33  H   UNL A   1      49.167  26.607  25.708  1.00  0.00     0.174 HD
ATOM     34  C   UNL A   1      46.793  24.403  25.291  1.00  0.00     0.083 C 
ATOM     35  O   UNL A   1      47.979  25.668  23.624  1.00  0.00    -0.268 OA
ENDBRANCH  22  27
ENDBRANCH  20  21
ENDBRANCH  19  20
ENDBRANCH  15  19
ENDBRANCH   9  14
ENDBRANCH   6   8
ENDBRANCH   5   6
ENDBRANCH   4   5
ENDBRANCH   3   4
ENDBRANCH   2   3
ENDBRANCH   1   2
BRANCH   1  36
ATOM     36  C   UNL A   1      31.840  29.191  25.138  1.00  0.00     0.188 C 
BRANCH  36  37
ATOM     37  O   UNL A   1      32.012  29.489  26.507  1.00  0.00    -0.376 OA
BRANCH  37  38
ATOM     38  C   UNL A   1      33.274  29.807  27.069  1.00  0.00     0.202 C 
BRANCH  38  39
ATOM     39  C   UNL A   1      33.694  31.155  27.653  1.00  0.00     0.261 C 
BRANCH  39  40
ATOM     40  O   UNL A   1      34.885  31.196  28.407  1.00  0.00    -0.460 OA
BRANCH  40  41
ATOM     41  C   UNL A   1      34.868  32.155  29.356  1.00  0.00     0.338 C 
ATOM     42  O   UNL A   1      33.895  32.764  29.770  1.00  0.00    -0.246 OA
BRANCH  41  43
ATOM     43  C   UNL A   1      36.241  32.462  29.739  1.00  0.00     0.060 A 
ATOM     44  C   UNL A   1      37.174  32.588  28.709  1.00  0.00     0.016 A 
ATOM     45  C   UNL A   1      36.610  32.290  31.080  1.00  0.00     0.016 A 
ATOM     46  C   UNL A   1      38.494  32.342  29.005  1.00  0.00     0.010 A 
ATOM     47  C   UNL A   1      37.924  32.022  31.367  1.00  0.00     0.010 A 
ATOM     48  C   UNL A   1      38.833  31.973  30.313  1.00  0.00    -0.014 A 
BRANCH  48  49
ATOM     49  C   UNL A   1      40.223  31.690  30.598  1.00  0.00     0.031 A 
ATOM     50  C   UNL A   1      40.984  32.941  30.797  1.00  0.00     0.074 A 
ATOM     51  C   UNL A   1      40.693  30.435  30.743  1.00  0.00     0.049 A 
ATOM     52  N   UNL A   1      41.848  33.459  29.989  1.00  0.00    -0.248 NA
ATOM     53  C   UNL A   1      40.560  33.846  31.881  1.00  0.00     0.031 C 
ATOM     54  C   UNL A   1      39.909  29.197  30.794  1.00  0.00     0.029 A 
ATOM     55  N   UNL A   1      41.958  30.005  31.015  1.00  0.00    -0.354 N 
ATOM     56  C   UNL A   1      42.300  34.596  30.648  1.00  0.00     0.074 A 
ATOM     57  C   UNL A   1      41.297  34.927  31.620  1.00  0.00     0.031 C 
ATOM     58  C   UNL A   1      40.667  28.213  31.333  1.00  0.00     0.029 A 
ATOM     59  C   UNL A   1      42.011  28.719  31.555  1.00  0.00     0.049 A 
ATOM     60  H   UNL A   1      42.760  30.551  30.847  1.00  0.00     0.167 HD
ATOM     61  C   UNL A   1      43.622  34.911  30.610  1.00  0.00     0.034 A 
ATOM     62  C   UNL A   1      43.055  28.155  32.218  1.00  0.00     0.034 A 
ATOM     63  C   UNL A   1      44.277  34.248  29.506  1.00  0.00     0.049 A 
ATOM     64  C   UNL A   1      44.267  28.924  31.862  1.00  0.00     0.074 A 
ATOM     65  C   UNL A   1      44.091  34.189  28.139  1.00  0.00     0.029 A 
ATOM     66  N   UNL A   1      45.053  33.166  29.838  1.00  0.00    -0.354 N 
ATOM     67  N   UNL A   1      44.800  28.916  30.675  1.00  0.00    -0.248 NA
ATOM     68  C   UNL A   1      44.646  30.038  32.715  1.00  0.00     0.031 C 
ATOM     69  C   UNL A   1      44.423  32.852  27.773  1.00  0.00     0.029 A 
ATOM     70  C   UNL A   1      44.873  32.181  28.911  1.00  0.00     0.049 A 
ATOM     71  H   UNL A   1      45.647  33.111  30.621  1.00  0.00     0.167 HD
ATOM     72  C   UNL A   1      45.142  30.243  30.458  1.00  0.00     0.074 A 
ATOM     73  C   UNL A   1      45.161  30.850  31.789  1.00  0.00     0.031 C 
ATOM     74  C   UNL A   1      45.065  30.778  29.204  1.00  0.00     0.034 A 
BRANCH  61  75
ATOM     75  C   UNL A   1      44.409  35.385  31.821  1.00  0.00     0.023 A 
ATOM     76  C   UNL A   1      44.651  34.428  32.831  1.00  0.00     0.012 A 
ATOM     77  C   UNL A   1      44.650  36.740  32.161  1.00  0.00     0.148 A 
ATOM     78  C   UNL A   1      45.040  34.804  34.122  1.00  0.00     0.002 A 
ATOM     79  C   UNL A   1      45.118  37.101  33.418  1.00  0.00     0.091 A 
ATOM     80  F   UNL A   1      44.305  37.722  31.329  1.00  0.00    -0.205 F 
ATOM     81  C   UNL A   1      45.279  36.140  34.415  1.00  0.00     0.022 A 
BRANCH  79  82
ATOM     82  S   UNL A   1      45.485  38.814  33.832  1.00  0.00     0.127 S 
ATOM     83  O   UNL A   1      46.275  39.229  32.676  1.00  0.00    -0.237 OA
ATOM     84  O   UNL A   1      44.143  39.389  33.909  1.00  0.00    -0.237 OA
ATOM     85  O   UNL A   1      46.192  38.773  35.106  1.00  0.00    -0.744 OA
ENDBRANCH  79  82
ENDBRANCH  61  75
BRANCH  62  86
ATOM     86  C   UNL A   1      43.078  27.190  33.349  1.00  0.00     0.023 A 
ATOM     87  C   UNL A   1      42.055  27.236  34.321  1.00  0.00     0.012 A 
ATOM     88  C   UNL A   1      43.901  26.045  33.310  1.00  0.00     0.148 A 
ATOM     89  C   UNL A   1      41.827  26.158  35.186  1.00  0.00     0.002 A 
ATOM     90  C   UNL A   1      43.675  24.977  34.174  1.00  0.00     0.091 A 
ATOM     91  F   UNL A   1      44.841  25.956  32.362  1.00  0.00    -0.205 F 
ATOM     92  C   UNL A   1      42.628  25.023  35.105  1.00  0.00     0.022 A 
BRANCH  90  93
ATOM     93  S   UNL A   1      44.646  23.467  34.099  1.00  0.00     0.127 S 
ATOM     94  O   UNL A   1      44.110  22.707  35.230  1.00  0.00    -0.237 OA
ATOM     95  O   UNL A   1      44.291  22.942  32.785  1.00  0.00    -0.237 OA
ATOM     96  O   UNL A   1      46.036  23.878  34.261  1.00  0.00    -0.744 OA
ENDBRANCH  90  93
ENDBRANCH  62  86
BRANCH  74  97
ATOM     97  C   UNL A   1      44.980  29.824  28.040  1.00  0.00     0.023 A 
ATOM     98  C   UNL A   1      46.107  29.311  27.366  1.00  0.00     0.012 A 
ATOM     99  C   UNL A   1      43.705  29.351  27.690  1.00  0.00     0.148 A 
ATOM    100  C   UNL A   1      45.959  28.372  26.340  1.00  0.00     0.002 A 
ATOM    101  C   UNL A   1      43.564  28.384  26.706  1.00  0.00     0.091 A 
ATOM    102  F   UNL A   1      42.643  29.854  28.337  1.00  0.00    -0.205 F 
ATOM    103  C   UNL A   1      44.687  27.899  26.018  1.00  0.00     0.022 A 
BRANCH 101 104
ATOM    104  S   UNL A   1      41.961  27.671  26.337  1.00  0.00     0.127 S 
ATOM    105  O   UNL A   1      41.646  26.971  27.580  1.00  0.00    -0.237 OA
ATOM    106  O   UNL A   1      41.141  28.855  26.074  1.00  0.00    -0.237 OA
ATOM    107  O   UNL A   1      42.164  26.822  25.169  1.00  0.00    -0.744 OA
ENDBRANCH 101 104
ENDBRANCH  74  97
ENDBRANCH  48  49
ENDBRANCH  41  43
ENDBRANCH  40  41
ENDBRANCH  39  40
ENDBRANCH  38  39
ENDBRANCH  37  38
ENDBRANCH  36  37
ENDBRANCH   1  36
TORSDOF 25
ENDMDL
MODEL 3
REMARK VINA RESULT:      -9.4      4.012     11.780
REMARK SMILES O=C1NC(=O)/C(=C/c2ccc(OCc3cn(-c4ccc(C(=O)OCCOCCOCCOC(=O)c5ccc(-c6c7nc(c(-c8cccc(S(=O)(=O)[O-])c8F)c8ccc([nH]8)c(-c8cccc(S(=O)(=O)[O-])c8F)c8nc(c(-c9cccc(S(=O)(=O)[O-])c9F)c9ccc6[nH]9)C=C8)C=C7)cc5)cc4)nn3)cc2)S1
REMARK SMILES IDX 27 1 26 2 25 3 24 4 23 5 21 6 22 7 20 8 17 9 18 10 99 11
REMARK SMILES IDX 19 12 98 13 16 14 14 15 15 16 101 17 100 18 13 19 12 20
REMARK SMILES IDX 11 21 8 22 9 23 103 24 10 25 102 26 7 27 1 28 2 29 3 30
REMARK SMILES IDX 104 31 4 32 6 34 5 35 28 36 29 37 30 38 31 39 32 40 33 41
REMARK SMILES IDX 34 42 35 43 36 44 97 45 37 46 96 47 38 48 39 49 40 50 90 51
REMARK SMILES IDX 41 52 95 53 89 54 91 55 42 56 94 57 88 58 87 59 43 61 75 62
REMARK SMILES IDX 55 63 74 64 56 65 59 66 73 67 92 68 57 69 58 70 72 72 93 73
REMARK SMILES IDX 60 74 44 75 45 76 53 77 46 78 48 79 54 80 47 81 49 82 50 83
REMARK SMILES IDX 51 84 52 85 76 86 77 87 85 88 78 89 80 90 86 91 79 92 81 93
REMARK SMILES IDX 82 94 83 95 84 96 61 97 62 98 70 99 63 100 65 101 71 102
REMARK SMILES IDX 64 103 66 104 67 105 68 106 69 107
REMARK H PARENT 3 33 91 60 59 71
REMARK Flexibility Score: inf
ROOT
ATOM      1  C   UNL A   1      32.107  30.018  25.451  1.00  0.00     0.188 C 
ENDROOT
BRANCH   1   2
ATOM      2  O   UNL A   1      31.159  29.331  24.667  1.00  0.00    -0.376 OA
BRANCH   2   3
ATOM      3  C   UNL A   1      31.480  28.141  23.972  1.00  0.00     0.202 C 
BRANCH   3   4
ATOM      4  C   UNL A   1      32.774  27.317  24.124  1.00  0.00     0.261 C 
BRANCH   4   5
ATOM      5  O   UNL A   1      32.763  25.966  23.663  1.00  0.00    -0.460 OA
BRANCH   5   6
ATOM      6  C   UNL A   1      32.510  25.032  24.608  1.00  0.00     0.338 C 
ATOM      7  O   UNL A   1      31.463  24.847  25.203  1.00  0.00    -0.246 OA
BRANCH   6   8
ATOM      8  C   UNL A   1      33.664  24.119  24.719  1.00  0.00     0.060 A 
ATOM      9  C   UNL A   1      35.957  22.579  25.024  1.00  0.00     0.066 A 
ATOM     10  C   UNL A   1      35.277  23.041  26.159  1.00  0.00     0.029 A 
ATOM     11  C   UNL A   1      35.433  22.798  23.742  1.00  0.00     0.029 A 
ATOM     12  C   UNL A   1      34.156  23.848  26.002  1.00  0.00     0.018 A 
ATOM     13  C   UNL A   1      34.261  23.547  23.592  1.00  0.00     0.018 A 
BRANCH   9  14
ATOM     14  N   UNL A   1      37.232  21.996  25.195  1.00  0.00    -0.220 N 
ATOM     15  C   UNL A   1      39.211  21.500  25.973  1.00  0.00     0.120 A 
ATOM     16  C   UNL A   1      38.333  22.553  25.809  1.00  0.00     0.144 A 
ATOM     17  N   UNL A   1      38.652  20.380  25.418  1.00  0.00    -0.131 NA
ATOM     18  N   UNL A   1      37.452  20.686  24.961  1.00  0.00    -0.062 NA
BRANCH  15  19
ATOM     19  C   UNL A   1      40.494  21.411  26.731  1.00  0.00     0.289 C 
BRANCH  19  20
ATOM     20  O   UNL A   1      41.601  20.849  26.009  1.00  0.00    -0.487 OA
BRANCH  20  21
ATOM     21  C   UNL A   1      42.662  21.664  25.722  1.00  0.00     0.119 A 
ATOM     22  C   UNL A   1      45.043  23.122  25.403  1.00  0.00    -0.024 A 
ATOM     23  C   UNL A   1      45.058  21.727  25.326  1.00  0.00     0.012 A 
ATOM     24  C   UNL A   1      43.820  23.781  25.544  1.00  0.00     0.012 A 
ATOM     25  C   UNL A   1      43.870  21.004  25.491  1.00  0.00     0.047 A 
ATOM     26  C   UNL A   1      42.634  23.056  25.678  1.00  0.00     0.047 A 
BRANCH  22  27
ATOM     27  C   UNL A   1      46.287  23.893  25.327  1.00  0.00     0.029 C 
ATOM     28  O   UNL A   1      47.932  25.928  29.625  1.00  0.00    -0.261 OA
ATOM     29  C   UNL A   1      47.735  25.536  28.494  1.00  0.00     0.290 C 
ATOM     30  N   UNL A   1      48.473  25.857  27.397  1.00  0.00    -0.282 N 
ATOM     31  S   UNL A   1      46.431  24.463  28.029  1.00  0.00    -0.022 SA
ATOM     32  C   UNL A   1      48.100  25.335  26.196  1.00  0.00     0.265 C 
ATOM     33  H   UNL A   1      49.255  26.451  27.469  1.00  0.00     0.174 HD
ATOM     34  C   UNL A   1      46.887  24.491  26.365  1.00  0.00     0.083 C 
ATOM     35  O   UNL A   1      48.664  25.544  25.132  1.00  0.00    -0.268 OA
ENDBRANCH  22  27
ENDBRANCH  20  21
ENDBRANCH  19  20
ENDBRANCH  15  19
ENDBRANCH   9  14
ENDBRANCH   6   8
ENDBRANCH   5   6
ENDBRANCH   4   5
ENDBRANCH   3   4
ENDBRANCH   2   3
ENDBRANCH   1   2
BRANCH   1  36
ATOM     36  C   UNL A   1      32.183  29.732  26.963  1.00  0.00     0.188 C 
BRANCH  36  37
ATOM     37  O   UNL A   1      33.247  30.264  27.723  1.00  0.00    -0.376 OA
BRANCH  37  38
ATOM     38  C   UNL A   1      33.896  31.478  27.387  1.00  0.00     0.202 C 
BRANCH  38  39
ATOM     39  C   UNL A   1      34.952  32.203  28.220  1.00  0.00     0.261 C 
BRANCH  39  40
ATOM     40  O   UNL A   1      34.946  31.986  29.613  1.00  0.00    -0.460 OA
BRANCH  40  41
ATOM     41  C   UNL A   1      34.583  33.083  30.310  1.00  0.00     0.338 C 
ATOM     42  O   UNL A   1      33.666  33.847  30.057  1.00  0.00    -0.246 OA
BRANCH  41  43
ATOM     43  C   UNL A   1      35.554  33.307  31.375  1.00  0.00     0.060 A 
ATOM     44  C   UNL A   1      36.532  34.275  31.148  1.00  0.00     0.016 A 
ATOM     45  C   UNL A   1      35.658  32.347  32.390  1.00  0.00     0.016 A 
ATOM     46  C   UNL A   1      37.722  34.156  31.825  1.00  0.00     0.010 A 
ATOM     47  C   UNL A   1      36.856  32.216  33.046  1.00  0.00     0.010 A 
ATOM     48  C   UNL A   1      37.896  33.072  32.695  1.00  0.00    -0.014 A 
BRANCH  48  49
ATOM     49  C   UNL A   1      39.167  32.948  33.377  1.00  0.00     0.031 A 
ATOM     50  C   UNL A   1      39.220  33.836  34.556  1.00  0.00     0.074 A 
ATOM     51  C   UNL A   1      40.109  32.060  32.999  1.00  0.00     0.049 A 
ATOM     52  N   UNL A   1      39.909  34.920  34.680  1.00  0.00    -0.248 NA
ATOM     53  C   UNL A   1      38.212  33.644  35.615  1.00  0.00     0.031 C 
ATOM     54  C   UNL A   1      39.976  31.006  31.989  1.00  0.00     0.029 A 
ATOM     55  N   UNL A   1      41.340  31.817  33.533  1.00  0.00    -0.354 N 
ATOM     56  C   UNL A   1      39.647  35.353  35.975  1.00  0.00     0.074 A 
ATOM     57  C   UNL A   1      38.419  34.723  36.371  1.00  0.00     0.031 C 
ATOM     58  C   UNL A   1      40.960  30.093  32.168  1.00  0.00     0.029 A 
ATOM     59  C   UNL A   1      41.848  30.555  33.221  1.00  0.00     0.049 A 
ATOM     60  H   UNL A   1      41.824  32.470  34.087  1.00  0.00     0.167 HD
ATOM     61  C   UNL A   1      40.658  35.856  36.731  1.00  0.00     0.034 A 
ATOM     62  C   UNL A   1      42.864  29.908  33.850  1.00  0.00     0.034 A 
ATOM     63  C   UNL A   1      41.763  36.276  35.898  1.00  0.00     0.049 A 
ATOM     64  C   UNL A   1      43.644  30.926  34.586  1.00  0.00     0.074 A 
ATOM     65  C   UNL A   1      41.922  37.137  34.831  1.00  0.00     0.029 A 
ATOM     66  N   UNL A   1      42.851  35.440  35.888  1.00  0.00    -0.354 N 
ATOM     67  N   UNL A   1      44.366  31.838  34.002  1.00  0.00    -0.248 NA
ATOM     68  C   UNL A   1      43.288  31.194  35.969  1.00  0.00     0.031 C 
ATOM     69  C   UNL A   1      42.891  36.515  33.989  1.00  0.00     0.029 A 
ATOM     70  C   UNL A   1      43.338  35.351  34.616  1.00  0.00     0.049 A 
ATOM     71  H   UNL A   1      43.222  34.979  36.674  1.00  0.00     0.167 HD
ATOM     72  C   UNL A   1      44.111  32.983  34.743  1.00  0.00     0.074 A 
ATOM     73  C   UNL A   1      43.567  32.499  36.011  1.00  0.00     0.031 C 
ATOM     74  C   UNL A   1      44.073  34.203  34.132  1.00  0.00     0.034 A 
BRANCH  61  75
ATOM     75  C   UNL A   1      40.866  35.509  38.196  1.00  0.00     0.023 A 
ATOM     76  C   UNL A   1      41.130  36.586  39.070  1.00  0.00     0.012 A 
ATOM     77  C   UNL A   1      41.117  34.208  38.700  1.00  0.00     0.148 A 
ATOM     78  C   UNL A   1      41.677  36.384  40.341  1.00  0.00     0.002 A 
ATOM     79  C   UNL A   1      41.580  34.007  39.994  1.00  0.00     0.091 A 
ATOM     80  F   UNL A   1      41.046  33.143  37.903  1.00  0.00    -0.205 F 
ATOM     81  C   UNL A   1      41.898  35.095  40.807  1.00  0.00     0.022 A 
BRANCH  79  82
ATOM     82  S   UNL A   1      41.840  32.356  40.659  1.00  0.00     0.127 S 
ATOM     83  O   UNL A   1      40.472  31.947  40.964  1.00  0.00    -0.237 OA
ATOM     84  O   UNL A   1      42.454  31.675  39.519  1.00  0.00    -0.237 OA
ATOM     85  O   UNL A   1      42.727  32.521  41.804  1.00  0.00    -0.744 OA
ENDBRANCH  79  82
ENDBRANCH  61  75
BRANCH  62  86
ATOM     86  C   UNL A   1      43.075  28.460  34.112  1.00  0.00     0.023 A 
ATOM     87  C   UNL A   1      44.173  27.799  33.517  1.00  0.00     0.012 A 
ATOM     88  C   UNL A   1      42.409  27.808  35.171  1.00  0.00     0.148 A 
ATOM     89  C   UNL A   1      44.621  26.560  33.994  1.00  0.00     0.002 A 
ATOM     90  C   UNL A   1      42.854  26.575  35.640  1.00  0.00     0.091 A 
ATOM     91  F   UNL A   1      41.402  28.438  35.787  1.00  0.00    -0.205 F 
ATOM     92  C   UNL A   1      43.970  25.954  35.063  1.00  0.00     0.022 A 
BRANCH  90  93
ATOM     93  S   UNL A   1      42.085  25.753  37.041  1.00  0.00     0.127 S 
ATOM     94  O   UNL A   1      42.279  24.341  36.707  1.00  0.00    -0.237 OA
ATOM     95  O   UNL A   1      42.893  26.234  38.157  1.00  0.00    -0.237 OA
ATOM     96  O   UNL A   1      40.691  26.181  37.039  1.00  0.00    -0.744 OA
ENDBRANCH  90  93
ENDBRANCH  62  86
BRANCH  74  97
ATOM     97  C   UNL A   1      44.680  34.318  32.757  1.00  0.00     0.023 A 
ATOM     98  C   UNL A   1      46.054  34.532  32.524  1.00  0.00     0.012 A 
ATOM     99  C   UNL A   1      43.832  34.092  31.661  1.00  0.00     0.148 A 
ATOM    100  C   UNL A   1      46.562  34.554  31.221  1.00  0.00     0.002 A 
ATOM    101  C   UNL A   1      44.346  34.067  30.373  1.00  0.00     0.091 A 
ATOM    102  F   UNL A   1      42.526  33.897  31.899  1.00  0.00    -0.205 F 
ATOM    103  C   UNL A   1      45.709  34.309  30.145  1.00  0.00     0.022 A 
BRANCH 101 104
ATOM    104  S   UNL A   1      43.306  33.650  28.974  1.00  0.00     0.127 S 
ATOM    105  O   UNL A   1      42.586  32.479  29.468  1.00  0.00    -0.237 OA
ATOM    106  O   UNL A   1      42.486  34.853  28.818  1.00  0.00    -0.237 OA
ATOM    107  O   UNL A   1      44.216  33.407  27.861  1.00  0.00    -0.744 OA
ENDBRANCH 101 104
ENDBRANCH  74  97
ENDBRANCH  48  49
ENDBRANCH  41  43
ENDBRANCH  40  41
ENDBRANCH  39  40
ENDBRANCH  38  39
ENDBRANCH  37  38
ENDBRANCH  36  37
ENDBRANCH   1  36
TORSDOF 25
ENDMDL
