MODEL 1
REMARK VINA RESULT:     -10.9      0.000      0.000
REMARK SMILES C[C@H](NC(=O)N1CC[C@@H](C(=O)OCCOCCOCCOC(=O)c2ccc(-c3c4nc(c(-c5cccc(S(=O)(=O)[O-])c5F)c5ccc([nH]5)c(-c5cccc(S(=O)(=O)[O-])c5F)c5nc(c(-c6cccc(S(=O)(=O)[O-])c6F)c6ccc3[nH]6)C=C5)C=C4)cc2)[C@H]1C)c1ccc(Cl)cc1
REMARK SMILES IDX 16 1 15 2 14 3 13 4 12 5 10 6 11 7 9 8 6 9 7 10 87 11 8 12
REMARK SMILES IDX 88 13 4 14 3 15 5 17 2 18 1 19 89 20 90 21 95 22 91 23 94 24
REMARK SMILES IDX 92 25 93 26 17 27 18 28 19 29 20 30 21 31 22 32 23 33 24 34
REMARK SMILES IDX 25 35 86 36 26 37 85 38 27 39 28 40 29 41 79 42 30 43 84 44
REMARK SMILES IDX 78 45 80 46 31 47 83 48 77 49 76 50 32 52 64 53 44 54 63 55
REMARK SMILES IDX 45 56 48 57 62 58 81 59 46 60 47 61 61 63 82 64 49 65 33 66
REMARK SMILES IDX 34 67 42 68 35 69 37 70 43 71 36 72 38 73 39 74 40 75 41 76
REMARK SMILES IDX 65 77 66 78 74 79 67 80 69 81 75 82 68 83 70 84 71 85 72 86
REMARK SMILES IDX 73 87 50 88 51 89 59 90 52 91 54 92 60 93 53 94 55 95 56 96
REMARK SMILES IDX 57 97 58 98
REMARK H PARENT 3 16 80 51 48 62
REMARK Flexibility Score: inf
ROOT
ATOM      1  C   UNL A   1      31.482  29.030  23.085  1.00  0.00     0.188 C 
ENDROOT
BRANCH   1   2
ATOM      2  O   UNL A   1      30.672  27.984  22.574  1.00  0.00    -0.376 OA
BRANCH   2   3
ATOM      3  C   UNL A   1      29.362  27.825  23.115  1.00  0.00     0.202 C 
BRANCH   3   4
ATOM      4  C   UNL A   1      29.100  26.666  24.087  1.00  0.00     0.261 C 
BRANCH   4   5
ATOM      5  O   UNL A   1      30.175  25.709  24.070  1.00  0.00    -0.463 OA
BRANCH   5   6
ATOM      6  C   UNL A   1      31.070  25.766  25.085  1.00  0.00     0.311 C 
ATOM      7  O   UNL A   1      31.023  26.589  25.991  1.00  0.00    -0.252 OA
BRANCH   6   8
ATOM      8  C   UNL A   1      32.092  24.640  25.032  1.00  0.00     0.123 C 
ATOM      9  N   UNL A   1      34.220  23.726  24.469  1.00  0.00    -0.321 N 
ATOM     10  C   UNL A   1      34.085  23.703  25.922  1.00  0.00     0.122 C 
ATOM     11  C   UNL A   1      33.130  24.565  23.881  1.00  0.00     0.098 C 
ATOM     12  C   UNL A   1      33.004  24.709  26.255  1.00  0.00     0.039 C 
ATOM     13  C   UNL A   1      33.602  25.961  23.445  1.00  0.00     0.032 C 
BRANCH   9  14
ATOM     14  C   UNL A   1      35.030  22.753  23.925  1.00  0.00     0.318 C 
ATOM     15  N   UNL A   1      34.834  21.433  24.152  1.00  0.00    -0.331 N 
ATOM     16  H   UNL A   1      35.624  20.853  24.053  1.00  0.00     0.165 HD
ATOM     17  O   UNL A   1      35.962  23.040  23.167  1.00  0.00    -0.249 OA
BRANCH  15  18
ATOM     18  C   UNL A   1      33.608  20.776  24.518  1.00  0.00     0.111 C 
ATOM     19  C   UNL A   1      32.543  20.963  23.430  1.00  0.00     0.036 C 
BRANCH  18  20
ATOM     20  C   UNL A   1      33.712  19.308  24.888  1.00  0.00    -0.026 A 
ATOM     21  C   UNL A   1      34.767  18.489  24.466  1.00  0.00     0.007 A 
ATOM     22  C   UNL A   1      32.604  18.712  25.520  1.00  0.00     0.007 A 
ATOM     23  C   UNL A   1      34.673  17.098  24.603  1.00  0.00     0.021 A 
ATOM     24  C   UNL A   1      32.510  17.329  25.655  1.00  0.00     0.021 A 
ATOM     25  C   UNL A   1      33.537  16.525  25.176  1.00  0.00     0.041 A 
ATOM     26  Cl  UNL A   1      33.383  14.814  25.252  1.00  0.00    -0.084 Cl
ENDBRANCH  18  20
ENDBRANCH  15  18
ENDBRANCH   9  14
ENDBRANCH   6   8
ENDBRANCH   5   6
ENDBRANCH   4   5
ENDBRANCH   3   4
ENDBRANCH   2   3
ENDBRANCH   1   2
BRANCH   1  27
ATOM     27  C   UNL A   1      31.181  29.557  24.494  1.00  0.00     0.188 C 
BRANCH  27  28
ATOM     28  O   UNL A   1      30.602  30.833  24.626  1.00  0.00    -0.376 OA
BRANCH  28  29
ATOM     29  C   UNL A   1      30.525  31.480  25.890  1.00  0.00     0.202 C 
BRANCH  29  30
ATOM     30  C   UNL A   1      31.496  32.544  26.450  1.00  0.00     0.261 C 
BRANCH  30  31
ATOM     31  O   UNL A   1      32.620  32.110  27.213  1.00  0.00    -0.460 OA
BRANCH  31  32
ATOM     32  C   UNL A   1      33.415  33.085  27.717  1.00  0.00     0.338 C 
ATOM     33  O   UNL A   1      33.079  34.227  27.994  1.00  0.00    -0.246 OA
BRANCH  32  34
ATOM     34  C   UNL A   1      34.680  32.444  28.146  1.00  0.00     0.060 A 
ATOM     35  C   UNL A   1      34.682  31.057  28.355  1.00  0.00     0.016 A 
ATOM     36  C   UNL A   1      35.860  33.180  28.274  1.00  0.00     0.016 A 
ATOM     37  C   UNL A   1      35.856  30.406  28.730  1.00  0.00     0.010 A 
ATOM     38  C   UNL A   1      37.031  32.530  28.676  1.00  0.00     0.010 A 
ATOM     39  C   UNL A   1      37.025  31.148  28.941  1.00  0.00    -0.014 A 
BRANCH  39  40
ATOM     40  C   UNL A   1      38.161  30.522  29.660  1.00  0.00     0.031 A 
ATOM     41  C   UNL A   1      38.391  30.920  31.094  1.00  0.00     0.074 A 
ATOM     42  C   UNL A   1      38.962  29.613  29.076  1.00  0.00     0.049 A 
ATOM     43  N   UNL A   1      39.327  30.540  31.923  1.00  0.00    -0.248 NA
ATOM     44  C   UNL A   1      37.433  31.881  31.670  1.00  0.00     0.031 C 
ATOM     45  C   UNL A   1      38.836  29.126  27.704  1.00  0.00     0.029 A 
ATOM     46  N   UNL A   1      40.059  28.951  29.570  1.00  0.00    -0.354 N 
ATOM     47  C   UNL A   1      39.089  31.234  33.103  1.00  0.00     0.074 A 
ATOM     48  C   UNL A   1      37.933  32.072  32.879  1.00  0.00     0.031 C 
ATOM     49  C   UNL A   1      39.835  28.261  27.456  1.00  0.00     0.029 A 
ATOM     50  C   UNL A   1      40.686  28.153  28.641  1.00  0.00     0.049 A 
ATOM     51  H   UNL A   1      40.368  29.039  30.500  1.00  0.00     0.167 HD
ATOM     52  C   UNL A   1      39.762  31.170  34.275  1.00  0.00     0.034 A 
ATOM     53  C   UNL A   1      41.827  27.439  28.733  1.00  0.00     0.034 A 
ATOM     54  C   UNL A   1      40.904  30.328  34.505  1.00  0.00     0.049 A 
ATOM     55  C   UNL A   1      42.584  27.419  30.039  1.00  0.00     0.074 A 
ATOM     56  C   UNL A   1      41.630  30.167  35.670  1.00  0.00     0.029 A 
ATOM     57  N   UNL A   1      41.493  29.518  33.549  1.00  0.00    -0.354 N 
ATOM     58  N   UNL A   1      42.290  27.998  31.177  1.00  0.00    -0.248 NA
ATOM     59  C   UNL A   1      43.819  26.620  30.078  1.00  0.00     0.031 C 
ATOM     60  C   UNL A   1      42.685  29.287  35.409  1.00  0.00     0.029 A 
ATOM     61  C   UNL A   1      42.587  28.865  34.092  1.00  0.00     0.049 A 
ATOM     62  H   UNL A   1      41.182  29.420  32.620  1.00  0.00     0.167 HD
ATOM     63  C   UNL A   1      43.275  27.601  32.077  1.00  0.00     0.074 A 
ATOM     64  C   UNL A   1      44.166  26.717  31.355  1.00  0.00     0.031 C 
ATOM     65  C   UNL A   1      43.436  27.945  33.379  1.00  0.00     0.034 A 
BRANCH  52  66
ATOM     66  C   UNL A   1      39.270  32.031  35.408  1.00  0.00     0.023 A 
ATOM     67  C   UNL A   1      38.320  31.521  36.316  1.00  0.00     0.012 A 
ATOM     68  C   UNL A   1      39.782  33.330  35.599  1.00  0.00     0.148 A 
ATOM     69  C   UNL A   1      37.861  32.300  37.377  1.00  0.00     0.002 A 
ATOM     70  C   UNL A   1      39.357  34.082  36.686  1.00  0.00     0.091 A 
ATOM     71  F   UNL A   1      40.665  33.805  34.710  1.00  0.00    -0.205 F 
ATOM     72  C   UNL A   1      38.387  33.575  37.568  1.00  0.00     0.022 A 
BRANCH  70  73
ATOM     73  S   UNL A   1      40.031  35.702  37.066  1.00  0.00     0.127 S 
ATOM     74  O   UNL A   1      41.453  35.401  37.223  1.00  0.00    -0.237 OA
ATOM     75  O   UNL A   1      39.698  36.463  35.862  1.00  0.00    -0.237 OA
ATOM     76  O   UNL A   1      39.352  36.149  38.275  1.00  0.00    -0.744 OA
ENDBRANCH  70  73
ENDBRANCH  52  66
BRANCH  53  77
ATOM     77  C   UNL A   1      42.323  26.659  27.562  1.00  0.00     0.023 A 
ATOM     78  C   UNL A   1      43.044  27.313  26.544  1.00  0.00     0.012 A 
ATOM     79  C   UNL A   1      42.071  25.279  27.445  1.00  0.00     0.148 A 
ATOM     80  C   UNL A   1      43.470  26.615  25.412  1.00  0.00     0.002 A 
ATOM     81  C   UNL A   1      42.548  24.578  26.343  1.00  0.00     0.091 A 
ATOM     82  F   UNL A   1      41.369  24.677  28.415  1.00  0.00    -0.205 F 
ATOM     83  C   UNL A   1      43.230  25.247  25.317  1.00  0.00     0.022 A 
BRANCH  81  84
ATOM     84  S   UNL A   1      42.391  22.795  26.191  1.00  0.00     0.127 S 
ATOM     85  O   UNL A   1      43.125  22.330  27.365  1.00  0.00    -0.237 OA
ATOM     86  O   UNL A   1      40.941  22.615  26.258  1.00  0.00    -0.237 OA
ATOM     87  O   UNL A   1      42.981  22.455  24.903  1.00  0.00    -0.744 OA
ENDBRANCH  81  84
ENDBRANCH  53  77
BRANCH  65  88
ATOM     88  C   UNL A   1      44.588  27.331  34.135  1.00  0.00     0.023 A 
ATOM     89  C   UNL A   1      45.826  27.999  34.206  1.00  0.00     0.012 A 
ATOM     90  C   UNL A   1      44.415  26.122  34.842  1.00  0.00     0.148 A 
ATOM     91  C   UNL A   1      46.885  27.457  34.933  1.00  0.00     0.002 A 
ATOM     92  C   UNL A   1      45.458  25.616  35.608  1.00  0.00     0.091 A 
ATOM     93  F   UNL A   1      43.234  25.493  34.754  1.00  0.00    -0.205 F 
ATOM     94  C   UNL A   1      46.697  26.273  35.644  1.00  0.00     0.022 A 
BRANCH  92  95
ATOM     95  S   UNL A   1      45.279  24.153  36.636  1.00  0.00     0.127 S 
ATOM     96  O   UNL A   1      46.664  23.891  37.026  1.00  0.00    -0.237 OA
ATOM     97  O   UNL A   1      44.422  24.637  37.718  1.00  0.00    -0.237 OA
ATOM     98  O   UNL A   1      44.668  23.137  35.788  1.00  0.00    -0.744 OA
ENDBRANCH  92  95
ENDBRANCH  65  88
ENDBRANCH  39  40
ENDBRANCH  32  34
ENDBRANCH  31  32
ENDBRANCH  30  31
ENDBRANCH  29  30
ENDBRANCH  28  29
ENDBRANCH  27  28
ENDBRANCH   1  27
TORSDOF 23
ENDMDL
MODEL 2
REMARK VINA RESULT:     -10.1      4.768      7.173
REMARK SMILES C[C@H](NC(=O)N1CC[C@@H](C(=O)OCCOCCOCCOC(=O)c2ccc(-c3c4nc(c(-c5cccc(S(=O)(=O)[O-])c5F)c5ccc([nH]5)c(-c5cccc(S(=O)(=O)[O-])c5F)c5nc(c(-c6cccc(S(=O)(=O)[O-])c6F)c6ccc3[nH]6)C=C5)C=C4)cc2)[C@H]1C)c1ccc(Cl)cc1
REMARK SMILES IDX 16 1 15 2 14 3 13 4 12 5 10 6 11 7 9 8 6 9 7 10 87 11 8 12
REMARK SMILES IDX 88 13 4 14 3 15 5 17 2 18 1 19 89 20 90 21 95 22 91 23 94 24
REMARK SMILES IDX 92 25 93 26 17 27 18 28 19 29 20 30 21 31 22 32 23 33 24 34
REMARK SMILES IDX 25 35 86 36 26 37 85 38 27 39 28 40 29 41 79 42 30 43 84 44
REMARK SMILES IDX 78 45 80 46 31 47 83 48 77 49 76 50 32 52 64 53 44 54 63 55
REMARK SMILES IDX 45 56 48 57 62 58 81 59 46 60 47 61 61 63 82 64 49 65 33 66
REMARK SMILES IDX 34 67 42 68 35 69 37 70 43 71 36 72 38 73 39 74 40 75 41 76
REMARK SMILES IDX 65 77 66 78 74 79 67 80 69 81 75 82 68 83 70 84 71 85 72 86
REMARK SMILES IDX 73 87 50 88 51 89 59 90 52 91 54 92 60 93 53 94 55 95 56 96
REMARK SMILES IDX 57 97 58 98
REMARK H PARENT 3 16 80 51 48 62
REMARK Flexibility Score: inf
ROOT
ATOM      1  C   UNL A   1      33.595  35.065  29.679  1.00  0.00     0.188 C 
ENDROOT
BRANCH   1   2
ATOM      2  O   UNL A   1      33.862  33.689  29.458  1.00  0.00    -0.376 OA
BRANCH   2   3
ATOM      3  C   UNL A   1      33.819  33.205  28.118  1.00  0.00     0.202 C 
BRANCH   3   4
ATOM      4  C   UNL A   1      34.210  31.745  27.847  1.00  0.00     0.261 C 
BRANCH   4   5
ATOM      5  O   UNL A   1      33.134  31.017  27.226  1.00  0.00    -0.463 OA
BRANCH   5   6
ATOM      6  C   UNL A   1      33.305  29.684  27.062  1.00  0.00     0.311 C 
ATOM      7  O   UNL A   1      34.220  29.045  27.567  1.00  0.00    -0.252 OA
BRANCH   6   8
ATOM      8  C   UNL A   1      32.186  29.043  26.254  1.00  0.00     0.123 C 
ATOM      9  N   UNL A   1      31.350  27.746  24.437  1.00  0.00    -0.321 N 
ATOM     10  C   UNL A   1      31.017  27.056  25.679  1.00  0.00     0.122 C 
ATOM     11  C   UNL A   1      32.331  28.839  24.722  1.00  0.00     0.098 C 
ATOM     12  C   UNL A   1      31.960  27.609  26.727  1.00  0.00     0.039 C 
ATOM     13  C   UNL A   1      33.773  28.485  24.326  1.00  0.00     0.032 C 
BRANCH   9  14
ATOM     14  C   UNL A   1      30.495  27.527  23.380  1.00  0.00     0.318 C 
ATOM     15  N   UNL A   1      30.883  26.889  22.250  1.00  0.00    -0.331 N 
ATOM     16  H   UNL A   1      30.366  27.093  21.437  1.00  0.00     0.165 HD
ATOM     17  O   UNL A   1      29.311  27.874  23.427  1.00  0.00    -0.249 OA
BRANCH  15  18
ATOM     18  C   UNL A   1      31.959  25.948  22.097  1.00  0.00     0.111 C 
ATOM     19  C   UNL A   1      33.273  26.670  21.774  1.00  0.00     0.036 C 
BRANCH  18  20
ATOM     20  C   UNL A   1      32.176  24.977  23.243  1.00  0.00    -0.026 A 
ATOM     21  C   UNL A   1      33.400  24.851  23.913  1.00  0.00     0.007 A 
ATOM     22  C   UNL A   1      31.159  24.041  23.509  1.00  0.00     0.007 A 
ATOM     23  C   UNL A   1      33.622  23.763  24.767  1.00  0.00     0.021 A 
ATOM     24  C   UNL A   1      31.381  22.959  24.357  1.00  0.00     0.021 A 
ATOM     25  C   UNL A   1      32.621  22.812  24.967  1.00  0.00     0.041 A 
ATOM     26  Cl  UNL A   1      32.932  21.426  25.937  1.00  0.00    -0.084 Cl
ENDBRANCH  18  20
ENDBRANCH  15  18
ENDBRANCH   9  14
ENDBRANCH   6   8
ENDBRANCH   5   6
ENDBRANCH   4   5
ENDBRANCH   3   4
ENDBRANCH   2   3
ENDBRANCH   1   2
BRANCH   1  27
ATOM     27  C   UNL A   1      32.819  35.458  30.943  1.00  0.00     0.188 C 
BRANCH  27  28
ATOM     28  O   UNL A   1      33.540  35.701  32.127  1.00  0.00    -0.376 OA
BRANCH  28  29
ATOM     29  C   UNL A   1      33.808  34.657  33.055  1.00  0.00     0.202 C 
BRANCH  29  30
ATOM     30  C   UNL A   1      34.057  33.167  32.730  1.00  0.00     0.261 C 
BRANCH  30  31
ATOM     31  O   UNL A   1      35.354  32.622  32.964  1.00  0.00    -0.460 OA
BRANCH  31  32
ATOM     32  C   UNL A   1      36.404  33.403  32.614  1.00  0.00     0.338 C 
ATOM     33  O   UNL A   1      36.641  34.530  33.022  1.00  0.00    -0.246 OA
BRANCH  32  34
ATOM     34  C   UNL A   1      37.366  32.544  31.885  1.00  0.00     0.060 A 
ATOM     35  C   UNL A   1      38.209  31.708  32.633  1.00  0.00     0.016 A 
ATOM     36  C   UNL A   1      37.394  32.508  30.488  1.00  0.00     0.016 A 
ATOM     37  C   UNL A   1      39.109  30.861  31.988  1.00  0.00     0.010 A 
ATOM     38  C   UNL A   1      38.315  31.676  29.844  1.00  0.00     0.010 A 
ATOM     39  C   UNL A   1      39.201  30.879  30.591  1.00  0.00    -0.014 A 
BRANCH  39  40
ATOM     40  C   UNL A   1      40.371  30.248  29.934  1.00  0.00     0.031 A 
ATOM     41  C   UNL A   1      41.602  31.092  29.728  1.00  0.00     0.074 A 
ATOM     42  C   UNL A   1      40.363  28.962  29.542  1.00  0.00     0.049 A 
ATOM     43  N   UNL A   1      42.736  30.784  29.156  1.00  0.00    -0.248 NA
ATOM     44  C   UNL A   1      41.541  32.474  30.236  1.00  0.00     0.031 C 
ATOM     45  C   UNL A   1      39.247  28.032  29.701  1.00  0.00     0.029 A 
ATOM     46  N   UNL A   1      41.331  28.221  28.908  1.00  0.00    -0.354 N 
ATOM     47  C   UNL A   1      43.510  31.936  29.209  1.00  0.00     0.074 A 
ATOM     48  C   UNL A   1      42.712  32.956  29.852  1.00  0.00     0.031 C 
ATOM     49  C   UNL A   1      39.583  26.851  29.153  1.00  0.00     0.029 A 
ATOM     50  C   UNL A   1      40.926  26.948  28.582  1.00  0.00     0.049 A 
ATOM     51  H   UNL A   1      42.229  28.570  28.706  1.00  0.00     0.167 HD
ATOM     52  C   UNL A   1      44.777  32.128  28.777  1.00  0.00     0.034 A 
ATOM     53  C   UNL A   1      41.560  25.983  27.884  1.00  0.00     0.034 A 
ATOM     54  C   UNL A   1      45.578  31.113  28.149  1.00  0.00     0.049 A 
ATOM     55  C   UNL A   1      42.958  26.238  27.372  1.00  0.00     0.074 A 
ATOM     56  C   UNL A   1      46.886  31.201  27.710  1.00  0.00     0.029 A 
ATOM     57  N   UNL A   1      45.141  29.830  27.859  1.00  0.00    -0.354 N 
ATOM     58  N   UNL A   1      43.715  27.297  27.521  1.00  0.00    -0.248 NA
ATOM     59  C   UNL A   1      43.598  25.147  26.620  1.00  0.00     0.031 C 
ATOM     60  C   UNL A   1      47.230  29.982  27.118  1.00  0.00     0.029 A 
ATOM     61  C   UNL A   1      46.150  29.120  27.230  1.00  0.00     0.049 A 
ATOM     62  H   UNL A   1      44.247  29.476  28.068  1.00  0.00     0.167 HD
ATOM     63  C   UNL A   1      44.933  26.986  26.921  1.00  0.00     0.074 A 
ATOM     64  C   UNL A   1      44.817  25.632  26.422  1.00  0.00     0.031 C 
ATOM     65  C   UNL A   1      46.042  27.754  26.784  1.00  0.00     0.034 A 
BRANCH  52  66
ATOM     66  C   UNL A   1      45.383  33.491  28.979  1.00  0.00     0.023 A 
ATOM     67  C   UNL A   1      46.188  33.741  30.109  1.00  0.00     0.012 A 
ATOM     68  C   UNL A   1      45.192  34.512  28.027  1.00  0.00     0.148 A 
ATOM     69  C   UNL A   1      46.766  34.994  30.308  1.00  0.00     0.002 A 
ATOM     70  C   UNL A   1      45.810  35.743  28.206  1.00  0.00     0.091 A 
ATOM     71  F   UNL A   1      44.403  34.262  26.973  1.00  0.00    -0.205 F 
ATOM     72  C   UNL A   1      46.586  35.990  29.351  1.00  0.00     0.022 A 
BRANCH  70  73
ATOM     73  S   UNL A   1      45.708  37.063  26.994  1.00  0.00     0.127 S 
ATOM     74  O   UNL A   1      46.551  38.090  27.604  1.00  0.00    -0.237 OA
ATOM     75  O   UNL A   1      46.278  36.432  25.804  1.00  0.00    -0.237 OA
ATOM     76  O   UNL A   1      44.295  37.402  26.885  1.00  0.00    -0.744 OA
ENDBRANCH  70  73
ENDBRANCH  52  66
BRANCH  53  77
ATOM     77  C   UNL A   1      40.895  24.672  27.637  1.00  0.00     0.023 A 
ATOM     78  C   UNL A   1      41.427  23.501  28.212  1.00  0.00     0.012 A 
ATOM     79  C   UNL A   1      39.748  24.576  26.825  1.00  0.00     0.148 A 
ATOM     80  C   UNL A   1      40.853  22.255  27.950  1.00  0.00     0.002 A 
ATOM     81  C   UNL A   1      39.149  23.340  26.615  1.00  0.00     0.091 A 
ATOM     82  F   UNL A   1      39.267  25.698  26.272  1.00  0.00    -0.205 F 
ATOM     83  C   UNL A   1      39.710  22.176  27.160  1.00  0.00     0.022 A 
BRANCH  81  84
ATOM     84  S   UNL A   1      37.607  23.156  25.710  1.00  0.00     0.127 S 
ATOM     85  O   UNL A   1      37.420  21.708  25.730  1.00  0.00    -0.237 OA
ATOM     86  O   UNL A   1      36.676  23.911  26.549  1.00  0.00    -0.237 OA
ATOM     87  O   UNL A   1      37.847  23.743  24.398  1.00  0.00    -0.744 OA
ENDBRANCH  81  84
ENDBRANCH  53  77
BRANCH  65  88
ATOM     88  C   UNL A   1      47.247  27.143  26.113  1.00  0.00     0.023 A 
ATOM     89  C   UNL A   1      47.430  27.284  24.723  1.00  0.00     0.012 A 
ATOM     90  C   UNL A   1      48.239  26.493  26.877  1.00  0.00     0.148 A 
ATOM     91  C   UNL A   1      48.559  26.755  24.099  1.00  0.00     0.002 A 
ATOM     92  C   UNL A   1      49.386  26.016  26.256  1.00  0.00     0.091 A 
ATOM     93  F   UNL A   1      48.042  26.357  28.196  1.00  0.00    -0.205 F 
ATOM     94  C   UNL A   1      49.542  26.132  24.866  1.00  0.00     0.022 A 
BRANCH  92  95
ATOM     95  S   UNL A   1      50.750  25.290  27.173  1.00  0.00     0.127 S 
ATOM     96  O   UNL A   1      51.653  24.887  26.095  1.00  0.00    -0.237 OA
ATOM     97  O   UNL A   1      51.221  26.420  27.972  1.00  0.00    -0.237 OA
ATOM     98  O   UNL A   1      50.178  24.197  27.948  1.00  0.00    -0.744 OA
ENDBRANCH  92  95
ENDBRANCH  65  88
ENDBRANCH  39  40
ENDBRANCH  32  34
ENDBRANCH  31  32
ENDBRANCH  30  31
ENDBRANCH  29  30
ENDBRANCH  28  29
ENDBRANCH  27  28
ENDBRANCH   1  27
TORSDOF 23
ENDMDL
MODEL 3
REMARK VINA RESULT:     -10.0      1.650      2.088
REMARK SMILES C[C@H](NC(=O)N1CC[C@@H](C(=O)OCCOCCOCCOC(=O)c2ccc(-c3c4nc(c(-c5cccc(S(=O)(=O)[O-])c5F)c5ccc([nH]5)c(-c5cccc(S(=O)(=O)[O-])c5F)c5nc(c(-c6cccc(S(=O)(=O)[O-])c6F)c6ccc3[nH]6)C=C5)C=C4)cc2)[C@H]1C)c1ccc(Cl)cc1
REMARK SMILES IDX 16 1 15 2 14 3 13 4 12 5 10 6 11 7 9 8 6 9 7 10 87 11 8 12
REMARK SMILES IDX 88 13 4 14 3 15 5 17 2 18 1 19 89 20 90 21 95 22 91 23 94 24
REMARK SMILES IDX 92 25 93 26 17 27 18 28 19 29 20 30 21 31 22 32 23 33 24 34
REMARK SMILES IDX 25 35 86 36 26 37 85 38 27 39 28 40 29 41 79 42 30 43 84 44
REMARK SMILES IDX 78 45 80 46 31 47 83 48 77 49 76 50 32 52 64 53 44 54 63 55
REMARK SMILES IDX 45 56 48 57 62 58 81 59 46 60 47 61 61 63 82 64 49 65 33 66
REMARK SMILES IDX 34 67 42 68 35 69 37 70 43 71 36 72 38 73 39 74 40 75 41 76
REMARK SMILES IDX 65 77 66 78 74 79 67 80 69 81 75 82 68 83 70 84 71 85 72 86
REMARK SMILES IDX 73 87 50 88 51 89 59 90 52 91 54 92 60 93 53 94 55 95 56 96
REMARK SMILES IDX 57 97 58 98
REMARK H PARENT 3 16 80 51 48 62
REMARK Flexibility Score: inf
ROOT
ATOM      1  C   UNL A   1      32.252  28.438  22.958  1.00  0.00     0.188 C 
ENDROOT
BRANCH   1   2
ATOM      2  O   UNL A   1      31.401  27.394  22.512  1.00  0.00    -0.376 OA
BRANCH   2   3
ATOM      3  C   UNL A   1      30.002  27.519  22.759  1.00  0.00     0.202 C 
BRANCH   3   4
ATOM      4  C   UNL A   1      29.405  26.819  23.988  1.00  0.00     0.261 C 
BRANCH   4   5
ATOM      5  O   UNL A   1      30.185  25.673  24.375  1.00  0.00    -0.463 OA
BRANCH   5   6
ATOM      6  C   UNL A   1      30.249  25.387  25.697  1.00  0.00     0.311 C 
ATOM      7  O   UNL A   1      29.296  25.477  26.462  1.00  0.00    -0.252 OA
BRANCH   6   8
ATOM      8  C   UNL A   1      31.610  24.853  26.118  1.00  0.00     0.123 C 
ATOM      9  N   UNL A   1      33.262  23.143  26.293  1.00  0.00    -0.321 N 
ATOM     10  C   UNL A   1      33.801  24.213  25.458  1.00  0.00     0.122 C 
ATOM     11  C   UNL A   1      31.795  23.358  26.491  1.00  0.00     0.098 C 
ATOM     12  C   UNL A   1      32.604  24.999  24.968  1.00  0.00     0.039 C 
ATOM     13  C   UNL A   1      30.919  22.440  25.624  1.00  0.00     0.032 C 
BRANCH   9  14
ATOM     14  C   UNL A   1      34.188  22.403  26.993  1.00  0.00     0.318 C 
ATOM     15  N   UNL A   1      34.653  21.211  26.548  1.00  0.00    -0.331 N 
ATOM     16  H   UNL A   1      34.999  20.596  27.235  1.00  0.00     0.165 HD
ATOM     17  O   UNL A   1      34.672  22.811  28.053  1.00  0.00    -0.249 OA
BRANCH  15  18
ATOM     18  C   UNL A   1      34.702  20.737  25.191  1.00  0.00     0.111 C 
ATOM     19  C   UNL A   1      36.135  20.788  24.648  1.00  0.00     0.036 C 
BRANCH  18  20
ATOM     20  C   UNL A   1      34.103  19.368  24.931  1.00  0.00    -0.026 A 
ATOM     21  C   UNL A   1      32.760  19.062  25.190  1.00  0.00     0.007 A 
ATOM     22  C   UNL A   1      34.983  18.321  24.595  1.00  0.00     0.007 A 
ATOM     23  C   UNL A   1      32.333  17.728  25.191  1.00  0.00     0.021 A 
ATOM     24  C   UNL A   1      34.558  16.995  24.598  1.00  0.00     0.021 A 
ATOM     25  C   UNL A   1      33.238  16.701  24.918  1.00  0.00     0.041 A 
ATOM     26  Cl  UNL A   1      32.733  15.060  25.018  1.00  0.00    -0.084 Cl
ENDBRANCH  18  20
ENDBRANCH  15  18
ENDBRANCH   9  14
ENDBRANCH   6   8
ENDBRANCH   5   6
ENDBRANCH   4   5
ENDBRANCH   3   4
ENDBRANCH   2   3
ENDBRANCH   1   2
BRANCH   1  27
ATOM     27  C   UNL A   1      32.040  28.992  24.372  1.00  0.00     0.188 C 
BRANCH  27  28
ATOM     28  O   UNL A   1      31.231  30.133  24.533  1.00  0.00    -0.376 OA
BRANCH  28  29
ATOM     29  C   UNL A   1      30.935  30.652  25.823  1.00  0.00     0.202 C 
BRANCH  29  30
ATOM     30  C   UNL A   1      31.711  31.751  26.583  1.00  0.00     0.261 C 
BRANCH  30  31
ATOM     31  O   UNL A   1      33.108  31.574  26.806  1.00  0.00    -0.460 OA
BRANCH  31  32
ATOM     32  C   UNL A   1      33.727  32.539  27.529  1.00  0.00     0.338 C 
ATOM     33  O   UNL A   1      33.227  33.576  27.936  1.00  0.00    -0.246 OA
BRANCH  32  34
ATOM     34  C   UNL A   1      35.021  31.982  27.988  1.00  0.00     0.060 A 
ATOM     35  C   UNL A   1      35.146  30.588  28.085  1.00  0.00     0.016 A 
ATOM     36  C   UNL A   1      36.114  32.810  28.253  1.00  0.00     0.016 A 
ATOM     37  C   UNL A   1      36.354  30.019  28.483  1.00  0.00     0.010 A 
ATOM     38  C   UNL A   1      37.318  32.238  28.678  1.00  0.00     0.010 A 
ATOM     39  C   UNL A   1      37.431  30.844  28.830  1.00  0.00    -0.014 A 
BRANCH  39  40
ATOM     40  C   UNL A   1      38.579  30.266  29.570  1.00  0.00     0.031 A 
ATOM     41  C   UNL A   1      38.746  30.647  31.017  1.00  0.00     0.074 A 
ATOM     42  C   UNL A   1      39.443  29.413  28.993  1.00  0.00     0.049 A 
ATOM     43  N   UNL A   1      39.678  30.302  31.866  1.00  0.00    -0.248 NA
ATOM     44  C   UNL A   1      37.723  31.545  31.582  1.00  0.00     0.031 C 
ATOM     45  C   UNL A   1      39.382  28.946  27.610  1.00  0.00     0.029 A 
ATOM     46  N   UNL A   1      40.561  28.801  29.506  1.00  0.00    -0.354 N 
ATOM     47  C   UNL A   1      39.371  30.959  33.051  1.00  0.00     0.074 A 
ATOM     48  C   UNL A   1      38.178  31.738  32.809  1.00  0.00     0.031 C 
ATOM     49  C   UNL A   1      40.433  28.142  27.376  1.00  0.00     0.029 A 
ATOM     50  C   UNL A   1      41.255  28.056  28.582  1.00  0.00     0.049 A 
ATOM     51  H   UNL A   1      40.838  28.887  30.447  1.00  0.00     0.167 HD
ATOM     52  C   UNL A   1      40.013  30.909  34.241  1.00  0.00     0.034 A 
ATOM     53  C   UNL A   1      42.430  27.402  28.694  1.00  0.00     0.034 A 
ATOM     54  C   UNL A   1      41.192  30.125  34.488  1.00  0.00     0.049 A 
ATOM     55  C   UNL A   1      43.151  27.398  30.020  1.00  0.00     0.074 A 
ATOM     56  C   UNL A   1      41.893  29.980  35.671  1.00  0.00     0.029 A 
ATOM     57  N   UNL A   1      41.851  29.366  33.535  1.00  0.00    -0.354 N 
ATOM     58  N   UNL A   1      42.794  27.938  31.160  1.00  0.00    -0.248 NA
ATOM     59  C   UNL A   1      44.426  26.665  30.081  1.00  0.00     0.031 C 
ATOM     60  C   UNL A   1      43.001  29.163  35.424  1.00  0.00     0.029 A 
ATOM     61  C   UNL A   1      42.962  28.763  34.097  1.00  0.00     0.049 A 
ATOM     62  H   UNL A   1      41.571  29.270  32.596  1.00  0.00     0.167 HD
ATOM     63  C   UNL A   1      43.774  27.577  32.080  1.00  0.00     0.074 A 
ATOM     64  C   UNL A   1      44.731  26.756  31.369  1.00  0.00     0.031 C 
ATOM     65  C   UNL A   1      43.879  27.903  33.392  1.00  0.00     0.034 A 
BRANCH  52  66
ATOM     66  C   UNL A   1      39.444  31.720  35.374  1.00  0.00     0.023 A 
ATOM     67  C   UNL A   1      38.517  31.134  36.260  1.00  0.00     0.012 A 
ATOM     68  C   UNL A   1      39.861  33.049  35.588  1.00  0.00     0.148 A 
ATOM     69  C   UNL A   1      37.988  31.867  37.321  1.00  0.00     0.002 A 
ATOM     70  C   UNL A   1      39.367  33.757  36.675  1.00  0.00     0.091 A 
ATOM     71  F   UNL A   1      40.723  33.595  34.719  1.00  0.00    -0.205 F 
ATOM     72  C   UNL A   1      38.421  33.173  37.535  1.00  0.00     0.022 A 
BRANCH  70  73
ATOM     73  S   UNL A   1      39.921  35.415  37.084  1.00  0.00     0.127 S 
ATOM     74  O   UNL A   1      39.617  36.140  35.852  1.00  0.00    -0.237 OA
ATOM     75  O   UNL A   1      39.062  35.754  38.219  1.00  0.00    -0.237 OA
ATOM     76  O   UNL A   1      41.337  35.300  37.405  1.00  0.00    -0.744 OA
ENDBRANCH  70  73
ENDBRANCH  52  66
BRANCH  53  77
ATOM     77  C   UNL A   1      43.000  26.673  27.524  1.00  0.00     0.023 A 
ATOM     78  C   UNL A   1      43.717  27.384  26.541  1.00  0.00     0.012 A 
ATOM     79  C   UNL A   1      42.822  25.284  27.372  1.00  0.00     0.148 A 
ATOM     80  C   UNL A   1      44.211  26.732  25.410  1.00  0.00     0.002 A 
ATOM     81  C   UNL A   1      43.367  24.632  26.272  1.00  0.00     0.091 A 
ATOM     82  F   UNL A   1      42.122  24.628  28.308  1.00  0.00    -0.205 F 
ATOM     83  C   UNL A   1      44.045  25.356  25.281  1.00  0.00     0.022 A 
BRANCH  81  84
ATOM     84  S   UNL A   1      43.305  22.847  26.081  1.00  0.00     0.127 S 
ATOM     85  O   UNL A   1      43.080  22.708  24.645  1.00  0.00    -0.237 OA
ATOM     86  O   UNL A   1      44.637  22.451  26.539  1.00  0.00    -0.237 OA
ATOM     87  O   UNL A   1      42.216  22.395  26.937  1.00  0.00    -0.744 OA
ENDBRANCH  81  84
ENDBRANCH  53  77
BRANCH  65  88
ATOM     88  C   UNL A   1      45.041  27.337  34.171  1.00  0.00     0.023 A 
ATOM     89  C   UNL A   1      44.946  26.059  34.756  1.00  0.00     0.012 A 
ATOM     90  C   UNL A   1      46.259  28.045  34.255  1.00  0.00     0.148 A 
ATOM     91  C   UNL A   1      46.027  25.512  35.446  1.00  0.00     0.002 A 
ATOM     92  C   UNL A   1      47.348  27.470  34.897  1.00  0.00     0.091 A 
ATOM     93  F   UNL A   1      46.328  29.264  33.703  1.00  0.00    -0.205 F 
ATOM     94  C   UNL A   1      47.231  26.211  35.506  1.00  0.00     0.022 A 
BRANCH  92  95
ATOM     95  S   UNL A   1      48.966  28.250  34.940  1.00  0.00     0.127 S 
ATOM     96  O   UNL A   1      49.388  27.987  36.315  1.00  0.00    -0.237 OA
ATOM     97  O   UNL A   1      49.699  27.496  33.923  1.00  0.00    -0.237 OA
ATOM     98  O   UNL A   1      48.747  29.652  34.612  1.00  0.00    -0.744 OA
ENDBRANCH  92  95
ENDBRANCH  65  88
ENDBRANCH  39  40
ENDBRANCH  32  34
ENDBRANCH  31  32
ENDBRANCH  30  31
ENDBRANCH  29  30
ENDBRANCH  28  29
ENDBRANCH  27  28
ENDBRANCH   1  27
TORSDOF 23
ENDMDL
