MODEL 1
REMARK VINA RESULT:     -10.5      0.000      0.000
REMARK SMILES C[C@@H]1C[NH+](CC2(C(=O)OCCOCCOCCOC(=O)c3ccc(-c4c5nc(c(-c6cccc(S(=O)(=O)[O-])c6F)c6ccc([nH]6)c(-c6cccc(S(=O)(=O)[O-])c6F)c6nc(c(-c7cccc(S(=O)(=O)[O-])c7F)c7ccc4[nH]7)C=C6)C=C5)cc3)CCCC2)C[C@H]1C
REMARK SMILES IDX 14 1 13 2 12 3 11 4 10 5 9 6 7 7 8 8 6 9 84 10 87 11 85 12
REMARK SMILES IDX 86 13 5 14 4 15 1 16 2 17 3 18 89 19 88 20 90 21 15 23 16 24
REMARK SMILES IDX 17 25 18 26 19 27 20 28 21 29 22 30 83 31 23 32 82 33 24 34
REMARK SMILES IDX 25 35 26 36 76 37 27 38 81 39 75 40 77 41 28 42 80 43 74 44
REMARK SMILES IDX 73 45 29 47 61 48 41 49 60 50 42 51 45 52 59 53 78 54 43 55
REMARK SMILES IDX 44 56 58 58 79 59 46 60 30 61 31 62 39 63 32 64 34 65 40 66
REMARK SMILES IDX 33 67 35 68 36 69 37 70 38 71 62 72 63 73 71 74 64 75 66 76
REMARK SMILES IDX 72 77 65 78 67 79 68 80 69 81 70 82 47 83 48 84 56 85 49 86
REMARK SMILES IDX 51 87 57 88 50 89 52 90 53 91 54 92 55 93
REMARK H PARENT 4 22 77 46 45 57
REMARK Flexibility Score: inf
ROOT
ATOM      1  C   UNL A   1      32.533  29.935  25.676  1.00  0.00     0.188 C 
ENDROOT
BRANCH   1   2
ATOM      2  C   UNL A   1      31.452  29.031  25.066  1.00  0.00     0.188 C 
BRANCH   2   3
ATOM      3  O   UNL A   1      30.979  29.324  23.757  1.00  0.00    -0.376 OA
BRANCH   3   4
ATOM      4  C   UNL A   1      31.435  28.541  22.659  1.00  0.00     0.202 C 
BRANCH   4   5
ATOM      5  C   UNL A   1      30.802  27.168  22.381  1.00  0.00     0.261 C 
BRANCH   5   6
ATOM      6  O   UNL A   1      31.567  26.300  21.518  1.00  0.00    -0.463 OA
BRANCH   6   7
ATOM      7  C   UNL A   1      32.770  25.896  21.993  1.00  0.00     0.317 C 
ATOM      8  O   UNL A   1      33.839  26.305  21.544  1.00  0.00    -0.251 OA
BRANCH   7   9
ATOM      9  C   UNL A   1      32.709  24.838  23.124  1.00  0.00     0.117 C 
ATOM     10  C   UNL A   1      33.801  23.827  22.701  1.00  0.00     0.025 C 
ATOM     11  C   UNL A   1      31.415  23.977  23.187  1.00  0.00     0.025 C 
ATOM     12  C   UNL A   1      33.039  22.698  22.010  1.00  0.00     0.001 C 
ATOM     13  C   UNL A   1      31.805  22.542  22.868  1.00  0.00     0.001 C 
BRANCH   9  14
ATOM     14  C   UNL A   1      32.944  25.688  24.435  1.00  0.00     0.281 C 
BRANCH  14  15
ATOM     15  N   UNL A   1      32.767  25.223  25.805  1.00  0.00    -0.334 N 
ATOM     16  C   UNL A   1      33.375  21.869  27.223  1.00  0.00     0.014 C 
ATOM     17  C   UNL A   1      32.743  23.003  26.441  1.00  0.00     0.049 C 
ATOM     18  C   UNL A   1      33.667  24.202  26.301  1.00  0.00     0.265 C 
ATOM     19  C   UNL A   1      31.494  23.640  27.053  1.00  0.00     0.049 C 
ATOM     20  C   UNL A   1      31.441  25.021  26.373  1.00  0.00     0.265 C 
ATOM     21  C   UNL A   1      30.228  22.827  26.834  1.00  0.00     0.014 C 
ATOM     22  H   UNL A   1      33.056  26.132  26.167  1.00  0.00     0.348 HD
ENDBRANCH  14  15
ENDBRANCH   9  14
ENDBRANCH   7   9
ENDBRANCH   6   7
ENDBRANCH   5   6
ENDBRANCH   4   5
ENDBRANCH   3   4
ENDBRANCH   2   3
ENDBRANCH   1   2
BRANCH   1  23
ATOM     23  O   UNL A   1      32.139  30.623  26.843  1.00  0.00    -0.376 OA
BRANCH  23  24
ATOM     24  C   UNL A   1      31.360  31.799  26.690  1.00  0.00     0.202 C 
BRANCH  24  25
ATOM     25  C   UNL A   1      32.025  33.175  26.885  1.00  0.00     0.261 C 
BRANCH  25  26
ATOM     26  O   UNL A   1      32.342  33.559  28.233  1.00  0.00    -0.460 OA
BRANCH  26  27
ATOM     27  C   UNL A   1      33.399  34.392  28.405  1.00  0.00     0.338 C 
ATOM     28  O   UNL A   1      33.360  35.602  28.496  1.00  0.00    -0.246 OA
BRANCH  27  29
ATOM     29  C   UNL A   1      34.580  33.554  28.737  1.00  0.00     0.060 A 
ATOM     30  C   UNL A   1      34.379  32.355  29.439  1.00  0.00     0.016 A 
ATOM     31  C   UNL A   1      35.865  33.926  28.340  1.00  0.00     0.016 A 
ATOM     32  C   UNL A   1      35.468  31.551  29.784  1.00  0.00     0.010 A 
ATOM     33  C   UNL A   1      36.957  33.131  28.706  1.00  0.00     0.010 A 
ATOM     34  C   UNL A   1      36.768  31.962  29.466  1.00  0.00    -0.014 A 
BRANCH  34  35
ATOM     35  C   UNL A   1      37.925  31.282  30.103  1.00  0.00     0.031 A 
ATOM     36  C   UNL A   1      38.263  31.631  31.530  1.00  0.00     0.074 A 
ATOM     37  C   UNL A   1      38.651  30.358  29.450  1.00  0.00     0.049 A 
ATOM     38  N   UNL A   1      39.213  31.164  32.297  1.00  0.00    -0.248 NA
ATOM     39  C   UNL A   1      37.413  32.646  32.176  1.00  0.00     0.031 C 
ATOM     40  C   UNL A   1      38.430  29.924  28.072  1.00  0.00     0.029 A 
ATOM     41  N   UNL A   1      39.741  29.629  29.862  1.00  0.00    -0.354 N 
ATOM     42  C   UNL A   1      39.094  31.845  33.503  1.00  0.00     0.074 A 
ATOM     43  C   UNL A   1      37.992  32.770  33.361  1.00  0.00     0.031 C 
ATOM     44  C   UNL A   1      39.371  29.021  27.744  1.00  0.00     0.029 A 
ATOM     45  C   UNL A   1      40.271  28.827  28.880  1.00  0.00     0.049 A 
ATOM     46  H   UNL A   1      40.107  29.677  30.775  1.00  0.00     0.167 HD
ATOM     47  C   UNL A   1      39.824  31.705  34.636  1.00  0.00     0.034 A 
ATOM     48  C   UNL A   1      41.367  28.041  28.892  1.00  0.00     0.034 A 
ATOM     49  C   UNL A   1      40.914  30.780  34.785  1.00  0.00     0.049 A 
ATOM     50  C   UNL A   1      42.177  27.918  30.159  1.00  0.00     0.074 A 
ATOM     51  C   UNL A   1      41.686  30.535  35.907  1.00  0.00     0.029 A 
ATOM     52  N   UNL A   1      41.401  29.960  33.779  1.00  0.00    -0.354 N 
ATOM     53  N   UNL A   1      41.983  28.483  31.326  1.00  0.00    -0.248 NA
ATOM     54  C   UNL A   1      43.338  27.015  30.119  1.00  0.00     0.031 C 
ATOM     55  C   UNL A   1      42.666  29.596  35.567  1.00  0.00     0.029 A 
ATOM     56  C   UNL A   1      42.471  29.218  34.249  1.00  0.00     0.049 A 
ATOM     57  H   UNL A   1      41.040  29.913  32.865  1.00  0.00     0.167 HD
ATOM     58  C   UNL A   1      42.966  27.971  32.168  1.00  0.00     0.074 A 
ATOM     59  C   UNL A   1      43.741  27.035  31.382  1.00  0.00     0.031 C 
ATOM     60  C   UNL A   1      43.210  28.255  33.473  1.00  0.00     0.034 A 
BRANCH  47  61
ATOM     61  C   UNL A   1      39.457  32.571  35.813  1.00  0.00     0.023 A 
ATOM     62  C   UNL A   1      38.595  32.073  36.812  1.00  0.00     0.012 A 
ATOM     63  C   UNL A   1      40.003  33.862  35.955  1.00  0.00     0.148 A 
ATOM     64  C   UNL A   1      38.255  32.858  37.913  1.00  0.00     0.002 A 
ATOM     65  C   UNL A   1      39.701  34.618  37.080  1.00  0.00     0.091 A 
ATOM     66  F   UNL A   1      40.802  34.327  34.985  1.00  0.00    -0.205 F 
ATOM     67  C   UNL A   1      38.816  34.124  38.053  1.00  0.00     0.022 A 
BRANCH  65  68
ATOM     68  S   UNL A   1      40.436  36.226  37.393  1.00  0.00     0.127 S 
ATOM     69  O   UNL A   1      41.651  35.857  38.120  1.00  0.00    -0.237 OA
ATOM     70  O   UNL A   1      40.666  36.725  36.037  1.00  0.00    -0.237 OA
ATOM     71  O   UNL A   1      39.455  36.977  38.162  1.00  0.00    -0.744 OA
ENDBRANCH  65  68
ENDBRANCH  47  61
BRANCH  48  72
ATOM     72  C   UNL A   1      41.754  27.275  27.672  1.00  0.00     0.023 A 
ATOM     73  C   UNL A   1      42.280  27.956  26.556  1.00  0.00     0.012 A 
ATOM     74  C   UNL A   1      41.596  25.877  27.610  1.00  0.00     0.148 A 
ATOM     75  C   UNL A   1      42.604  27.265  25.388  1.00  0.00     0.002 A 
ATOM     76  C   UNL A   1      41.973  25.187  26.465  1.00  0.00     0.091 A 
ATOM     77  F   UNL A   1      41.077  25.251  28.676  1.00  0.00    -0.205 F 
ATOM     78  C   UNL A   1      42.460  25.880  25.346  1.00  0.00     0.022 A 
BRANCH  76  79
ATOM     79  S   UNL A   1      41.931  23.396  26.359  1.00  0.00     0.127 S 
ATOM     80  O   UNL A   1      42.705  23.008  27.535  1.00  0.00    -0.237 OA
ATOM     81  O   UNL A   1      40.496  23.124  26.449  1.00  0.00    -0.237 OA
ATOM     82  O   UNL A   1      42.529  23.060  25.074  1.00  0.00    -0.744 OA
ENDBRANCH  76  79
ENDBRANCH  48  72
BRANCH  60  83
ATOM     83  C   UNL A   1      44.327  27.505  34.156  1.00  0.00     0.023 A 
ATOM     84  C   UNL A   1      45.654  27.976  34.078  1.00  0.00     0.012 A 
ATOM     85  C   UNL A   1      44.052  26.351  34.920  1.00  0.00     0.148 A 
ATOM     86  C   UNL A   1      46.692  27.283  34.701  1.00  0.00     0.002 A 
ATOM     87  C   UNL A   1      45.084  25.698  35.584  1.00  0.00     0.091 A 
ATOM     88  F   UNL A   1      42.788  25.906  34.974  1.00  0.00    -0.205 F 
ATOM     89  C   UNL A   1      46.406  26.151  35.461  1.00  0.00     0.022 A 
BRANCH  87  90
ATOM     90  S   UNL A   1      44.793  24.294  36.667  1.00  0.00     0.127 S 
ATOM     91  O   UNL A   1      44.210  23.322  35.744  1.00  0.00    -0.237 OA
ATOM     92  O   UNL A   1      46.145  23.969  37.122  1.00  0.00    -0.237 OA
ATOM     93  O   UNL A   1      43.904  24.774  37.716  1.00  0.00    -0.744 OA
ENDBRANCH  87  90
ENDBRANCH  60  83
ENDBRANCH  34  35
ENDBRANCH  27  29
ENDBRANCH  26  27
ENDBRANCH  25  26
ENDBRANCH  24  25
ENDBRANCH  23  24
ENDBRANCH   1  23
TORSDOF 22
ENDMDL
MODEL 2
REMARK VINA RESULT:     -10.0      2.578      8.229
REMARK SMILES C[C@@H]1C[NH+](CC2(C(=O)OCCOCCOCCOC(=O)c3ccc(-c4c5nc(c(-c6cccc(S(=O)(=O)[O-])c6F)c6ccc([nH]6)c(-c6cccc(S(=O)(=O)[O-])c6F)c6nc(c(-c7cccc(S(=O)(=O)[O-])c7F)c7ccc4[nH]7)C=C6)C=C5)cc3)CCCC2)C[C@H]1C
REMARK SMILES IDX 14 1 13 2 12 3 11 4 10 5 9 6 7 7 8 8 6 9 84 10 87 11 85 12
REMARK SMILES IDX 86 13 5 14 4 15 1 16 2 17 3 18 89 19 88 20 90 21 15 23 16 24
REMARK SMILES IDX 17 25 18 26 19 27 20 28 21 29 22 30 83 31 23 32 82 33 24 34
REMARK SMILES IDX 25 35 26 36 76 37 27 38 81 39 75 40 77 41 28 42 80 43 74 44
REMARK SMILES IDX 73 45 29 47 61 48 41 49 60 50 42 51 45 52 59 53 78 54 43 55
REMARK SMILES IDX 44 56 58 58 79 59 46 60 30 61 31 62 39 63 32 64 34 65 40 66
REMARK SMILES IDX 33 67 35 68 36 69 37 70 38 71 62 72 63 73 71 74 64 75 66 76
REMARK SMILES IDX 72 77 65 78 67 79 68 80 69 81 70 82 47 83 48 84 56 85 49 86
REMARK SMILES IDX 51 87 57 88 50 89 52 90 53 91 54 92 55 93
REMARK H PARENT 4 22 77 46 45 57
REMARK Flexibility Score: inf
ROOT
ATOM      1  C   UNL A   1      34.943  30.749  27.879  1.00  0.00     0.188 C 
ENDROOT
BRANCH   1   2
ATOM      2  C   UNL A   1      34.858  29.370  27.210  1.00  0.00     0.188 C 
BRANCH   2   3
ATOM      3  O   UNL A   1      33.667  29.020  26.517  1.00  0.00    -0.376 OA
BRANCH   3   4
ATOM      4  C   UNL A   1      32.842  27.978  27.029  1.00  0.00     0.202 C 
BRANCH   4   5
ATOM      5  C   UNL A   1      31.439  27.753  26.441  1.00  0.00     0.261 C 
BRANCH   5   6
ATOM      6  O   UNL A   1      31.375  26.817  25.343  1.00  0.00    -0.463 OA
BRANCH   6   7
ATOM      7  C   UNL A   1      30.693  27.230  24.247  1.00  0.00     0.317 C 
ATOM      8  O   UNL A   1      29.470  27.152  24.152  1.00  0.00    -0.251 OA
BRANCH   7   9
ATOM      9  C   UNL A   1      31.571  27.773  23.091  1.00  0.00     0.117 C 
ATOM     10  C   UNL A   1      31.190  26.845  21.913  1.00  0.00     0.025 C 
ATOM     11  C   UNL A   1      33.105  27.566  23.241  1.00  0.00     0.025 C 
ATOM     12  C   UNL A   1      32.301  25.799  21.867  1.00  0.00     0.001 C 
ATOM     13  C   UNL A   1      33.546  26.608  22.146  1.00  0.00     0.001 C 
BRANCH   9  14
ATOM     14  C   UNL A   1      31.163  29.297  23.006  1.00  0.00     0.281 C 
BRANCH  14  15
ATOM     15  N   UNL A   1      29.809  29.831  23.090  1.00  0.00    -0.334 N 
ATOM     16  C   UNL A   1      27.859  31.650  20.537  1.00  0.00     0.014 C 
ATOM     17  C   UNL A   1      28.899  31.336  21.593  1.00  0.00     0.049 C 
ATOM     18  C   UNL A   1      29.005  29.848  21.885  1.00  0.00     0.265 C 
ATOM     19  C   UNL A   1      28.649  31.911  22.989  1.00  0.00     0.049 C 
ATOM     20  C   UNL A   1      29.504  31.006  23.895  1.00  0.00     0.265 C 
ATOM     21  C   UNL A   1      29.013  33.382  23.114  1.00  0.00     0.014 C 
ATOM     22  H   UNL A   1      29.521  29.047  23.677  1.00  0.00     0.348 HD
ENDBRANCH  14  15
ENDBRANCH   9  14
ENDBRANCH   7   9
ENDBRANCH   6   7
ENDBRANCH   5   6
ENDBRANCH   4   5
ENDBRANCH   3   4
ENDBRANCH   2   3
ENDBRANCH   1   2
BRANCH   1  23
ATOM     23  O   UNL A   1      34.293  31.787  27.179  1.00  0.00    -0.376 OA
BRANCH  23  24
ATOM     24  C   UNL A   1      32.945  32.074  27.517  1.00  0.00     0.202 C 
BRANCH  24  25
ATOM     25  C   UNL A   1      32.452  33.533  27.477  1.00  0.00     0.261 C 
BRANCH  25  26
ATOM     26  O   UNL A   1      33.350  34.537  27.978  1.00  0.00    -0.460 OA
BRANCH  26  27
ATOM     27  C   UNL A   1      33.415  34.691  29.325  1.00  0.00     0.338 C 
ATOM     28  O   UNL A   1      32.560  35.169  30.041  1.00  0.00    -0.246 OA
BRANCH  27  29
ATOM     29  C   UNL A   1      34.594  33.925  29.806  1.00  0.00     0.060 A 
ATOM     30  C   UNL A   1      34.399  32.919  30.766  1.00  0.00     0.016 A 
ATOM     31  C   UNL A   1      35.871  34.172  29.300  1.00  0.00     0.016 A 
ATOM     32  C   UNL A   1      35.486  32.192  31.254  1.00  0.00     0.010 A 
ATOM     33  C   UNL A   1      36.963  33.458  29.807  1.00  0.00     0.010 A 
ATOM     34  C   UNL A   1      36.782  32.494  30.817  1.00  0.00    -0.014 A 
BRANCH  34  35
ATOM     35  C   UNL A   1      37.948  31.953  31.559  1.00  0.00     0.031 A 
ATOM     36  C   UNL A   1      38.769  30.868  30.910  1.00  0.00     0.074 A 
ATOM     37  C   UNL A   1      38.296  32.421  32.771  1.00  0.00     0.049 A 
ATOM     38  N   UNL A   1      39.832  30.251  31.355  1.00  0.00    -0.248 NA
ATOM     39  C   UNL A   1      38.326  30.418  29.579  1.00  0.00     0.031 C 
ATOM     40  C   UNL A   1      37.594  33.469  33.509  1.00  0.00     0.029 A 
ATOM     41  N   UNL A   1      39.326  32.054  33.604  1.00  0.00    -0.354 N 
ATOM     42  C   UNL A   1      40.169  29.324  30.375  1.00  0.00     0.074 A 
ATOM     43  C   UNL A   1      39.188  29.446  29.321  1.00  0.00     0.031 C 
ATOM     44  C   UNL A   1      38.200  33.645  34.698  1.00  0.00     0.029 A 
ATOM     45  C   UNL A   1      39.319  32.710  34.811  1.00  0.00     0.049 A 
ATOM     46  H   UNL A   1      40.005  31.384  33.358  1.00  0.00     0.167 HD
ATOM     47  C   UNL A   1      41.211  28.459  30.344  1.00  0.00     0.034 A 
ATOM     48  C   UNL A   1      40.113  32.561  35.891  1.00  0.00     0.034 A 
ATOM     49  C   UNL A   1      42.195  28.342  31.386  1.00  0.00     0.049 A 
ATOM     50  C   UNL A   1      41.254  31.574  35.841  1.00  0.00     0.074 A 
ATOM     51  C   UNL A   1      43.311  27.525  31.426  1.00  0.00     0.029 A 
ATOM     52  N   UNL A   1      42.174  29.047  32.580  1.00  0.00    -0.354 N 
ATOM     53  N   UNL A   1      41.627  30.787  34.862  1.00  0.00    -0.248 NA
ATOM     54  C   UNL A   1      42.108  31.487  37.036  1.00  0.00     0.031 C 
ATOM     55  C   UNL A   1      43.942  27.706  32.661  1.00  0.00     0.029 A 
ATOM     56  C   UNL A   1      43.249  28.674  33.368  1.00  0.00     0.049 A 
ATOM     57  H   UNL A   1      41.495  29.713  32.829  1.00  0.00     0.167 HD
ATOM     58  C   UNL A   1      42.782  30.146  35.303  1.00  0.00     0.074 A 
ATOM     59  C   UNL A   1      43.056  30.653  36.631  1.00  0.00     0.031 C 
ATOM     60  C   UNL A   1      43.541  29.216  34.671  1.00  0.00     0.034 A 
BRANCH  47  61
ATOM     61  C   UNL A   1      41.345  27.573  29.132  1.00  0.00     0.023 A 
ATOM     62  C   UNL A   1      40.547  26.417  29.013  1.00  0.00     0.012 A 
ATOM     63  C   UNL A   1      42.228  27.913  28.088  1.00  0.00     0.148 A 
ATOM     64  C   UNL A   1      40.651  25.594  27.892  1.00  0.00     0.002 A 
ATOM     65  C   UNL A   1      42.290  27.116  26.952  1.00  0.00     0.091 A 
ATOM     66  F   UNL A   1      42.995  29.003  28.229  1.00  0.00    -0.205 F 
ATOM     67  C   UNL A   1      41.513  25.949  26.858  1.00  0.00     0.022 A 
BRANCH  65  68
ATOM     68  S   UNL A   1      43.306  27.532  25.531  1.00  0.00     0.127 S 
ATOM     69  O   UNL A   1      43.791  26.214  25.120  1.00  0.00    -0.237 OA
ATOM     70  O   UNL A   1      42.328  28.131  24.622  1.00  0.00    -0.237 OA
ATOM     71  O   UNL A   1      44.328  28.447  26.018  1.00  0.00    -0.744 OA
ENDBRANCH  65  68
ENDBRANCH  47  61
BRANCH  48  72
ATOM     72  C   UNL A   1      39.885  33.388  37.111  1.00  0.00     0.023 A 
ATOM     73  C   UNL A   1      40.522  34.638  37.238  1.00  0.00     0.012 A 
ATOM     74  C   UNL A   1      39.046  32.937  38.149  1.00  0.00     0.148 A 
ATOM     75  C   UNL A   1      40.359  35.406  38.392  1.00  0.00     0.002 A 
ATOM     76  C   UNL A   1      38.843  33.732  39.270  1.00  0.00     0.091 A 
ATOM     77  F   UNL A   1      38.464  31.737  38.016  1.00  0.00    -0.205 F 
ATOM     78  C   UNL A   1      39.513  34.958  39.403  1.00  0.00     0.022 A 
BRANCH  76  79
ATOM     79  S   UNL A   1      37.685  33.291  40.569  1.00  0.00     0.127 S 
ATOM     80  O   UNL A   1      37.684  34.498  41.391  1.00  0.00    -0.237 OA
ATOM     81  O   UNL A   1      36.456  33.062  39.809  1.00  0.00    -0.237 OA
ATOM     82  O   UNL A   1      38.234  32.099  41.202  1.00  0.00    -0.744 OA
ENDBRANCH  76  79
ENDBRANCH  48  72
BRANCH  60  83
ATOM     83  C   UNL A   1      44.779  28.723  35.379  1.00  0.00     0.023 A 
ATOM     84  C   UNL A   1      46.006  29.400  35.224  1.00  0.00     0.012 A 
ATOM     85  C   UNL A   1      44.715  27.606  36.239  1.00  0.00     0.148 A 
ATOM     86  C   UNL A   1      47.156  28.944  35.870  1.00  0.00     0.002 A 
ATOM     87  C   UNL A   1      45.852  27.193  36.923  1.00  0.00     0.091 A 
ATOM     88  F   UNL A   1      43.545  26.963  36.365  1.00  0.00    -0.205 F 
ATOM     89  C   UNL A   1      47.077  27.848  36.725  1.00  0.00     0.022 A 
BRANCH  87  90
ATOM     90  S   UNL A   1      45.819  25.855  38.121  1.00  0.00     0.127 S 
ATOM     91  O   UNL A   1      45.776  24.678  37.254  1.00  0.00    -0.237 OA
ATOM     92  O   UNL A   1      47.085  26.043  38.831  1.00  0.00    -0.237 OA
ATOM     93  O   UNL A   1      44.633  26.076  38.937  1.00  0.00    -0.744 OA
ENDBRANCH  87  90
ENDBRANCH  60  83
ENDBRANCH  34  35
ENDBRANCH  27  29
ENDBRANCH  26  27
ENDBRANCH  25  26
ENDBRANCH  24  25
ENDBRANCH  23  24
ENDBRANCH   1  23
TORSDOF 22
ENDMDL
MODEL 3
REMARK VINA RESULT:      -9.9      2.477      7.925
REMARK SMILES C[C@@H]1C[NH+](CC2(C(=O)OCCOCCOCCOC(=O)c3ccc(-c4c5nc(c(-c6cccc(S(=O)(=O)[O-])c6F)c6ccc([nH]6)c(-c6cccc(S(=O)(=O)[O-])c6F)c6nc(c(-c7cccc(S(=O)(=O)[O-])c7F)c7ccc4[nH]7)C=C6)C=C5)cc3)CCCC2)C[C@H]1C
REMARK SMILES IDX 14 1 13 2 12 3 11 4 10 5 9 6 7 7 8 8 6 9 84 10 87 11 85 12
REMARK SMILES IDX 86 13 5 14 4 15 1 16 2 17 3 18 89 19 88 20 90 21 15 23 16 24
REMARK SMILES IDX 17 25 18 26 19 27 20 28 21 29 22 30 83 31 23 32 82 33 24 34
REMARK SMILES IDX 25 35 26 36 76 37 27 38 81 39 75 40 77 41 28 42 80 43 74 44
REMARK SMILES IDX 73 45 29 47 61 48 41 49 60 50 42 51 45 52 59 53 78 54 43 55
REMARK SMILES IDX 44 56 58 58 79 59 46 60 30 61 31 62 39 63 32 64 34 65 40 66
REMARK SMILES IDX 33 67 35 68 36 69 37 70 38 71 62 72 63 73 71 74 64 75 66 76
REMARK SMILES IDX 72 77 65 78 67 79 68 80 69 81 70 82 47 83 48 84 56 85 49 86
REMARK SMILES IDX 51 87 57 88 50 89 52 90 53 91 54 92 55 93
REMARK H PARENT 4 22 77 46 45 57
REMARK Flexibility Score: inf
ROOT
ATOM      1  C   UNL A   1      31.793  29.179  26.416  1.00  0.00     0.188 C 
ENDROOT
BRANCH   1   2
ATOM      2  C   UNL A   1      31.474  29.152  24.915  1.00  0.00     0.188 C 
BRANCH   2   3
ATOM      3  O   UNL A   1      30.496  28.234  24.442  1.00  0.00    -0.376 OA
BRANCH   3   4
ATOM      4  C   UNL A   1      30.882  26.899  24.135  1.00  0.00     0.202 C 
BRANCH   4   5
ATOM      5  C   UNL A   1      30.431  25.743  25.044  1.00  0.00     0.261 C 
BRANCH   5   6
ATOM      6  O   UNL A   1      30.587  24.422  24.483  1.00  0.00    -0.463 OA
BRANCH   6   7
ATOM      7  C   UNL A   1      31.575  23.661  25.015  1.00  0.00     0.317 C 
ATOM      8  O   UNL A   1      31.534  23.216  26.159  1.00  0.00    -0.251 OA
BRANCH   7   9
ATOM      9  C   UNL A   1      32.794  23.422  24.086  1.00  0.00     0.117 C 
ATOM     10  C   UNL A   1      33.954  24.070  24.878  1.00  0.00     0.025 C 
ATOM     11  C   UNL A   1      32.790  24.197  22.738  1.00  0.00     0.025 C 
ATOM     12  C   UNL A   1      34.126  25.453  24.253  1.00  0.00     0.001 C 
ATOM     13  C   UNL A   1      33.943  25.187  22.777  1.00  0.00     0.001 C 
BRANCH   9  14
ATOM     14  C   UNL A   1      32.804  21.854  23.892  1.00  0.00     0.281 C 
BRANCH  14  15
ATOM     15  N   UNL A   1      33.173  20.865  24.899  1.00  0.00    -0.334 N 
ATOM     16  C   UNL A   1      35.496  18.010  24.617  1.00  0.00     0.014 C 
ATOM     17  C   UNL A   1      34.270  18.883  24.447  1.00  0.00     0.049 C 
ATOM     18  C   UNL A   1      34.516  20.324  24.865  1.00  0.00     0.265 C 
ATOM     19  C   UNL A   1      33.049  18.518  25.294  1.00  0.00     0.049 C 
ATOM     20  C   UNL A   1      32.241  19.828  25.323  1.00  0.00     0.265 C 
ATOM     21  C   UNL A   1      32.253  17.348  24.737  1.00  0.00     0.014 C 
ATOM     22  H   UNL A   1      33.111  21.570  25.634  1.00  0.00     0.348 HD
ENDBRANCH  14  15
ENDBRANCH   9  14
ENDBRANCH   7   9
ENDBRANCH   6   7
ENDBRANCH   5   6
ENDBRANCH   4   5
ENDBRANCH   3   4
ENDBRANCH   2   3
ENDBRANCH   1   2
BRANCH   1  23
ATOM     23  O   UNL A   1      32.199  30.436  26.912  1.00  0.00    -0.376 OA
BRANCH  23  24
ATOM     24  C   UNL A   1      31.529  31.589  26.429  1.00  0.00     0.202 C 
BRANCH  24  25
ATOM     25  C   UNL A   1      31.792  32.951  27.101  1.00  0.00     0.261 C 
BRANCH  25  26
ATOM     26  O   UNL A   1      33.142  33.220  27.519  1.00  0.00    -0.460 OA
BRANCH  26  27
ATOM     27  C   UNL A   1      33.333  34.280  28.343  1.00  0.00     0.338 C 
ATOM     28  O   UNL A   1      32.616  35.254  28.447  1.00  0.00    -0.246 OA
BRANCH  27  29
ATOM     29  C   UNL A   1      34.419  33.920  29.291  1.00  0.00     0.060 A 
ATOM     30  C   UNL A   1      35.739  34.270  28.968  1.00  0.00     0.016 A 
ATOM     31  C   UNL A   1      34.140  33.273  30.496  1.00  0.00     0.016 A 
ATOM     32  C   UNL A   1      36.786  33.932  29.826  1.00  0.00     0.010 A 
ATOM     33  C   UNL A   1      35.194  32.915  31.345  1.00  0.00     0.010 A 
ATOM     34  C   UNL A   1      36.526  33.204  30.994  1.00  0.00    -0.014 A 
BRANCH  34  35
ATOM     35  C   UNL A   1      37.652  32.576  31.730  1.00  0.00     0.031 A 
ATOM     36  C   UNL A   1      38.382  31.430  31.078  1.00  0.00     0.074 A 
ATOM     37  C   UNL A   1      38.044  33.019  32.938  1.00  0.00     0.049 A 
ATOM     38  N   UNL A   1      39.398  30.733  31.517  1.00  0.00    -0.248 NA
ATOM     39  C   UNL A   1      37.896  31.012  29.752  1.00  0.00     0.031 C 
ATOM     40  C   UNL A   1      37.431  34.120  33.678  1.00  0.00     0.029 A 
ATOM     41  N   UNL A   1      39.049  32.576  33.765  1.00  0.00    -0.354 N 
ATOM     42  C   UNL A   1      39.655  29.781  30.538  1.00  0.00     0.074 A 
ATOM     43  C   UNL A   1      38.678  29.976  29.491  1.00  0.00     0.031 C 
ATOM     44  C   UNL A   1      38.057  34.251  34.861  1.00  0.00     0.029 A 
ATOM     45  C   UNL A   1      39.101  33.233  34.970  1.00  0.00     0.049 A 
ATOM     46  H   UNL A   1      39.672  31.855  33.516  1.00  0.00     0.167 HD
ATOM     47  C   UNL A   1      40.627  28.838  30.502  1.00  0.00     0.034 A 
ATOM     48  C   UNL A   1      39.890  33.026  36.044  1.00  0.00     0.034 A 
ATOM     49  C   UNL A   1      41.606  28.647  31.537  1.00  0.00     0.049 A 
ATOM     50  C   UNL A   1      40.950  31.954  35.989  1.00  0.00     0.074 A 
ATOM     51  C   UNL A   1      42.656  27.747  31.572  1.00  0.00     0.029 A 
ATOM     52  N   UNL A   1      41.649  29.355  32.729  1.00  0.00    -0.354 N 
ATOM     53  N   UNL A   1      41.255  31.138  35.010  1.00  0.00    -0.248 NA
ATOM     54  C   UNL A   1      41.804  31.804  37.178  1.00  0.00     0.031 C 
ATOM     55  C   UNL A   1      43.309  27.882  32.802  1.00  0.00     0.029 A 
ATOM     56  C   UNL A   1      42.697  28.902  33.511  1.00  0.00     0.049 A 
ATOM     57  H   UNL A   1      41.024  30.072  32.981  1.00  0.00     0.167 HD
ATOM     58  C   UNL A   1      42.359  30.411  35.445  1.00  0.00     0.074 A 
ATOM     59  C   UNL A   1      42.681  30.898  36.769  1.00  0.00     0.031 C 
ATOM     60  C   UNL A   1      43.040  29.423  34.810  1.00  0.00     0.034 A 
BRANCH  47  61
ATOM     61  C   UNL A   1      40.684  27.942  29.292  1.00  0.00     0.023 A 
ATOM     62  C   UNL A   1      39.816  26.834  29.195  1.00  0.00     0.012 A 
ATOM     63  C   UNL A   1      41.564  28.224  28.229  1.00  0.00     0.148 A 
ATOM     64  C   UNL A   1      39.848  26.003  28.076  1.00  0.00     0.002 A 
ATOM     65  C   UNL A   1      41.555  27.421  27.095  1.00  0.00     0.091 A 
ATOM     66  F   UNL A   1      42.396  29.267  28.349  1.00  0.00    -0.205 F 
ATOM     67  C   UNL A   1      40.708  26.302  27.023  1.00  0.00     0.022 A 
BRANCH  65  68
ATOM     68  S   UNL A   1      42.564  27.771  25.652  1.00  0.00     0.127 S 
ATOM     69  O   UNL A   1      41.905  28.961  25.114  1.00  0.00    -0.237 OA
ATOM     70  O   UNL A   1      43.876  28.020  26.250  1.00  0.00    -0.237 OA
ATOM     71  O   UNL A   1      42.492  26.585  24.811  1.00  0.00    -0.744 OA
ENDBRANCH  65  68
ENDBRANCH  47  61
BRANCH  48  72
ATOM     72  C   UNL A   1      39.735  33.871  37.263  1.00  0.00     0.023 A 
ATOM     73  C   UNL A   1      40.350  35.138  37.319  1.00  0.00     0.012 A 
ATOM     74  C   UNL A   1      38.988  33.422  38.370  1.00  0.00     0.148 A 
ATOM     75  C   UNL A   1      40.256  35.924  38.468  1.00  0.00     0.002 A 
ATOM     76  C   UNL A   1      38.852  34.233  39.490  1.00  0.00     0.091 A 
ATOM     77  F   UNL A   1      38.427  32.206  38.303  1.00  0.00    -0.205 F 
ATOM     78  C   UNL A   1      39.500  35.477  39.549  1.00  0.00     0.022 A 
BRANCH  76  79
ATOM     79  S   UNL A   1      37.807  33.792  40.880  1.00  0.00     0.127 S 
ATOM     80  O   UNL A   1      37.507  35.099  41.456  1.00  0.00    -0.237 OA
ATOM     81  O   UNL A   1      36.680  33.139  40.213  1.00  0.00    -0.237 OA
ATOM     82  O   UNL A   1      38.610  32.906  41.714  1.00  0.00    -0.744 OA
ENDBRANCH  76  79
ENDBRANCH  48  72
BRANCH  60  83
ATOM     83  C   UNL A   1      44.241  28.838  35.511  1.00  0.00     0.023 A 
ATOM     84  C   UNL A   1      45.531  29.353  35.265  1.00  0.00     0.012 A 
ATOM     85  C   UNL A   1      44.084  27.799  36.453  1.00  0.00     0.148 A 
ATOM     86  C   UNL A   1      46.646  28.810  35.904  1.00  0.00     0.002 A 
ATOM     87  C   UNL A   1      45.194  27.303  37.127  1.00  0.00     0.091 A 
ATOM     88  F   UNL A   1      42.855  27.309  36.666  1.00  0.00    -0.205 F 
ATOM     89  C   UNL A   1      46.477  27.793  36.840  1.00  0.00     0.022 A 
BRANCH  87  90
ATOM     90  S   UNL A   1      45.057  26.065  38.421  1.00  0.00     0.127 S 
ATOM     91  O   UNL A   1      46.449  25.917  38.842  1.00  0.00    -0.237 OA
ATOM     92  O   UNL A   1      44.192  26.731  39.397  1.00  0.00    -0.237 OA
ATOM     93  O   UNL A   1      44.463  24.892  37.794  1.00  0.00    -0.744 OA
ENDBRANCH  87  90
ENDBRANCH  60  83
ENDBRANCH  34  35
ENDBRANCH  27  29
ENDBRANCH  26  27
ENDBRANCH  25  26
ENDBRANCH  24  25
ENDBRANCH  23  24
ENDBRANCH   1  23
TORSDOF 22
ENDMDL
