MODEL 1
REMARK VINA RESULT:     -10.4      0.000      0.000
REMARK SMILES Cc1ccnc(C(=O)c2[nH]c3ccc(C(C)(C)C)cc3c2CC(=O)OCCOCCOCCOC(=O)c2ccc(-c3c4nc(c(-c5cccc(S(=O)(=O)[O-])c5F)c5ccc([nH]5)c(-c5cccc(S(=O)(=O)[O-])c5F)c5nc(c(-c6cccc(S(=O)(=O)[O-])c6F)c6ccc3[nH]6)C=C5)C=C4)cc2)c1
REMARK SMILES IDX 29 1 28 2 27 3 26 4 25 5 23 6 24 7 22 8 21 9 9 10 10 11
REMARK SMILES IDX 11 12 20 14 12 15 19 16 13 17 14 18 7 19 8 20 6 21 1 22 2 23
REMARK SMILES IDX 3 24 100 25 4 26 5 27 15 28 16 29 17 30 18 31 30 32 31 33
REMARK SMILES IDX 32 34 33 35 34 36 35 37 36 38 37 39 38 40 99 41 39 42 98 43
REMARK SMILES IDX 40 44 41 45 42 46 92 47 43 48 97 49 91 50 93 51 44 52 96 53
REMARK SMILES IDX 90 54 89 55 45 57 77 58 57 59 76 60 58 61 61 62 75 63 94 64
REMARK SMILES IDX 59 65 60 66 74 68 95 69 62 70 46 71 47 72 55 73 48 74 50 75
REMARK SMILES IDX 56 76 49 77 51 78 52 79 53 80 54 81 78 82 79 83 87 84 80 85
REMARK SMILES IDX 82 86 88 87 81 88 83 89 84 90 85 91 86 92 63 93 64 94 72 95
REMARK SMILES IDX 65 96 67 97 73 98 66 99 68 100 69 101 70 102 71 103
REMARK H PARENT 10 13 93 56 61 67
REMARK Flexibility Score: inf
ROOT
ATOM      1  C   UNL A   1      33.585  33.410  28.054  1.00  0.00     0.188 C 
ENDROOT
BRANCH   1   2
ATOM      2  O   UNL A   1      32.504  32.744  27.410  1.00  0.00    -0.376 OA
BRANCH   2   3
ATOM      3  C   UNL A   1      32.773  31.510  26.761  1.00  0.00     0.202 C 
BRANCH   3   4
ATOM      4  C   UNL A   1      31.863  30.338  27.133  1.00  0.00     0.261 C 
BRANCH   4   5
ATOM      5  O   UNL A   1      32.071  29.198  26.272  1.00  0.00    -0.463 OA
BRANCH   5   6
ATOM      6  C   UNL A   1      31.523  28.032  26.701  1.00  0.00     0.310 C 
ATOM      7  O   UNL A   1      31.699  27.587  27.834  1.00  0.00    -0.252 OA
BRANCH   6   8
ATOM      8  C   UNL A   1      30.567  27.360  25.731  1.00  0.00     0.161 C 
BRANCH   8   9
ATOM      9  C   UNL A   1      30.888  27.325  24.251  1.00  0.00     0.000 A 
ATOM     10  C   UNL A   1      30.091  27.753  23.181  1.00  0.00     0.093 A 
ATOM     11  N   UNL A   1      30.824  27.565  22.030  1.00  0.00    -0.352 N 
ATOM     12  C   UNL A   1      31.827  26.662  22.271  1.00  0.00     0.046 A 
ATOM     13  H   UNL A   1      30.655  28.010  21.168  1.00  0.00     0.167 HD
ATOM     14  C   UNL A   1      31.909  26.520  23.651  1.00  0.00     0.004 A 
ATOM     15  C   UNL A   1      32.624  25.937  21.385  1.00  0.00     0.027 A 
ATOM     16  C   UNL A   1      32.812  25.580  24.172  1.00  0.00     0.015 A 
ATOM     17  C   UNL A   1      33.444  24.941  21.932  1.00  0.00     0.006 A 
ATOM     18  C   UNL A   1      33.526  24.717  23.315  1.00  0.00    -0.042 A 
BRANCH  10  19
ATOM     19  C   UNL A   1      28.741  28.277  23.218  1.00  0.00     0.227 C 
ATOM     20  O   UNL A   1      27.792  27.623  23.648  1.00  0.00    -0.285 OA
BRANCH  19  21
ATOM     21  C   UNL A   1      28.450  29.623  22.652  1.00  0.00     0.113 A 
ATOM     22  C   UNL A   1      29.195  33.251  23.392  1.00  0.00     0.044 C 
ATOM     23  C   UNL A   1      28.777  31.991  22.698  1.00  0.00    -0.047 A 
ATOM     24  C   UNL A   1      28.482  32.005  21.332  1.00  0.00     0.023 A 
ATOM     25  C   UNL A   1      28.784  30.764  23.371  1.00  0.00     0.036 A 
ATOM     26  C   UNL A   1      28.105  30.822  20.721  1.00  0.00     0.112 A 
ATOM     27  N   UNL A   1      28.039  29.637  21.364  1.00  0.00    -0.253 NA
ENDBRANCH  19  21
ENDBRANCH  10  19
BRANCH  18  28
ATOM     28  C   UNL A   1      34.268  23.522  23.932  1.00  0.00    -0.013 C 
ATOM     29  C   UNL A   1      33.454  22.233  23.711  1.00  0.00     0.016 C 
ATOM     30  C   UNL A   1      35.649  23.385  23.245  1.00  0.00     0.016 C 
ATOM     31  C   UNL A   1      34.532  23.664  25.445  1.00  0.00     0.016 C 
ENDBRANCH  18  28
ENDBRANCH   8   9
ENDBRANCH   6   8
ENDBRANCH   5   6
ENDBRANCH   4   5
ENDBRANCH   3   4
ENDBRANCH   2   3
ENDBRANCH   1   2
BRANCH   1  32
ATOM     32  C   UNL A   1      33.342  34.807  28.670  1.00  0.00     0.188 C 
BRANCH  32  33
ATOM     33  O   UNL A   1      32.612  34.926  29.883  1.00  0.00    -0.376 OA
BRANCH  33  34
ATOM     34  C   UNL A   1      32.976  35.988  30.753  1.00  0.00     0.202 C 
BRANCH  34  35
ATOM     35  C   UNL A   1      32.987  35.633  32.237  1.00  0.00     0.261 C 
BRANCH  35  36
ATOM     36  O   UNL A   1      34.247  35.059  32.634  1.00  0.00    -0.460 OA
BRANCH  36  37
ATOM     37  C   UNL A   1      34.224  33.709  32.749  1.00  0.00     0.338 C 
ATOM     38  O   UNL A   1      33.336  33.046  33.257  1.00  0.00    -0.246 OA
BRANCH  37  39
ATOM     39  C   UNL A   1      35.425  33.075  32.163  1.00  0.00     0.060 A 
ATOM     40  C   UNL A   1      36.142  32.125  32.881  1.00  0.00     0.016 A 
ATOM     41  C   UNL A   1      36.003  33.651  31.034  1.00  0.00     0.016 A 
ATOM     42  C   UNL A   1      37.490  31.898  32.594  1.00  0.00     0.010 A 
ATOM     43  C   UNL A   1      37.322  33.334  30.681  1.00  0.00     0.010 A 
ATOM     44  C   UNL A   1      38.117  32.521  31.508  1.00  0.00    -0.014 A 
BRANCH  44  45
ATOM     45  C   UNL A   1      39.599  32.410  31.308  1.00  0.00     0.031 A 
ATOM     46  C   UNL A   1      40.548  33.337  32.043  1.00  0.00     0.074 A 
ATOM     47  C   UNL A   1      40.120  31.455  30.509  1.00  0.00     0.049 A 
ATOM     48  N   UNL A   1      41.844  33.481  31.904  1.00  0.00    -0.248 NA
ATOM     49  C   UNL A   1      39.971  34.214  33.078  1.00  0.00     0.031 C 
ATOM     50  C   UNL A   1      39.352  30.444  29.779  1.00  0.00     0.029 A 
ATOM     51  N   UNL A   1      41.426  31.180  30.169  1.00  0.00    -0.354 N 
ATOM     52  C   UNL A   1      42.222  34.495  32.780  1.00  0.00     0.074 A 
ATOM     53  C   UNL A   1      41.021  34.928  33.460  1.00  0.00     0.031 C 
ATOM     54  C   UNL A   1      40.192  29.654  29.097  1.00  0.00     0.029 A 
ATOM     55  C   UNL A   1      41.549  30.160  29.252  1.00  0.00     0.049 A 
ATOM     56  H   UNL A   1      42.196  31.665  30.545  1.00  0.00     0.167 HD
ATOM     57  C   UNL A   1      43.452  35.020  33.004  1.00  0.00     0.034 A 
ATOM     58  C   UNL A   1      42.617  29.714  28.559  1.00  0.00     0.034 A 
ATOM     59  C   UNL A   1      44.656  34.585  32.345  1.00  0.00     0.049 A 
ATOM     60  C   UNL A   1      43.953  30.367  28.769  1.00  0.00     0.074 A 
ATOM     61  C   UNL A   1      45.943  35.079  32.490  1.00  0.00     0.029 A 
ATOM     62  N   UNL A   1      44.728  33.558  31.418  1.00  0.00    -0.354 N 
ATOM     63  N   UNL A   1      44.290  31.315  29.610  1.00  0.00    -0.248 NA
ATOM     64  C   UNL A   1      45.064  29.881  27.937  1.00  0.00     0.031 C 
ATOM     65  C   UNL A   1      46.786  34.371  31.626  1.00  0.00     0.029 A 
ATOM     66  C   UNL A   1      46.032  33.411  30.974  1.00  0.00     0.049 A 
ATOM     67  H   UNL A   1      43.965  33.014  31.118  1.00  0.00     0.167 HD
ATOM     68  C   UNL A   1      45.651  31.524  29.422  1.00  0.00     0.074 A 
ATOM     69  C   UNL A   1      46.085  30.574  28.419  1.00  0.00     0.031 C 
ATOM     70  C   UNL A   1      46.465  32.437  30.007  1.00  0.00     0.034 A 
BRANCH  57  71
ATOM     71  C   UNL A   1      43.574  36.138  34.011  1.00  0.00     0.023 A 
ATOM     72  C   UNL A   1      43.785  35.837  35.371  1.00  0.00     0.012 A 
ATOM     73  C   UNL A   1      43.569  37.485  33.592  1.00  0.00     0.148 A 
ATOM     74  C   UNL A   1      43.972  36.860  36.302  1.00  0.00     0.002 A 
ATOM     75  C   UNL A   1      43.796  38.496  34.520  1.00  0.00     0.091 A 
ATOM     76  F   UNL A   1      43.354  37.749  32.296  1.00  0.00    -0.205 F 
ATOM     77  C   UNL A   1      43.989  38.186  35.876  1.00  0.00     0.022 A 
BRANCH  75  78
ATOM     78  S   UNL A   1      43.907  40.229  34.063  1.00  0.00     0.127 S 
ATOM     79  O   UNL A   1      42.602  40.454  33.443  1.00  0.00    -0.237 OA
ATOM     80  O   UNL A   1      44.083  40.878  35.362  1.00  0.00    -0.237 OA
ATOM     81  O   UNL A   1      45.047  40.339  33.165  1.00  0.00    -0.744 OA
ENDBRANCH  75  78
ENDBRANCH  57  71
BRANCH  58  82
ATOM     82  C   UNL A   1      42.459  28.614  27.561  1.00  0.00     0.023 A 
ATOM     83  C   UNL A   1      42.169  28.920  26.218  1.00  0.00     0.012 A 
ATOM     84  C   UNL A   1      42.592  27.263  27.941  1.00  0.00     0.148 A 
ATOM     85  C   UNL A   1      41.985  27.902  25.280  1.00  0.00     0.002 A 
ATOM     86  C   UNL A   1      42.483  26.259  26.988  1.00  0.00     0.091 A 
ATOM     87  F   UNL A   1      42.827  26.983  29.231  1.00  0.00    -0.205 F 
ATOM     88  C   UNL A   1      42.158  26.574  25.661  1.00  0.00     0.022 A 
BRANCH  86  89
ATOM     89  S   UNL A   1      42.846  24.544  27.377  1.00  0.00     0.127 S 
ATOM     90  O   UNL A   1      41.982  24.308  28.531  1.00  0.00    -0.237 OA
ATOM     91  O   UNL A   1      42.436  23.857  26.150  1.00  0.00    -0.237 OA
ATOM     92  O   UNL A   1      44.280  24.502  27.631  1.00  0.00    -0.744 OA
ENDBRANCH  86  89
ENDBRANCH  58  82
BRANCH  70  93
ATOM     93  C   UNL A   1      47.915  32.424  29.600  1.00  0.00     0.023 A 
ATOM     94  C   UNL A   1      48.853  31.701  30.364  1.00  0.00     0.012 A 
ATOM     95  C   UNL A   1      48.349  33.120  28.455  1.00  0.00     0.148 A 
ATOM     96  C   UNL A   1      50.207  31.718  30.029  1.00  0.00     0.002 A 
ATOM     97  C   UNL A   1      49.691  33.089  28.097  1.00  0.00     0.091 A 
ATOM     98  F   UNL A   1      47.447  33.818  27.751  1.00  0.00    -0.205 F 
ATOM     99  C   UNL A   1      50.624  32.405  28.892  1.00  0.00     0.022 A 
BRANCH  97 100
ATOM    100  S   UNL A   1      50.296  33.869  26.597  1.00  0.00     0.127 S 
ATOM    101  O   UNL A   1      51.594  33.219  26.425  1.00  0.00    -0.237 OA
ATOM    102  O   UNL A   1      49.284  33.481  25.612  1.00  0.00    -0.237 OA
ATOM    103  O   UNL A   1      50.339  35.297  26.881  1.00  0.00    -0.744 OA
ENDBRANCH  97 100
ENDBRANCH  70  93
ENDBRANCH  44  45
ENDBRANCH  37  39
ENDBRANCH  36  37
ENDBRANCH  35  36
ENDBRANCH  34  35
ENDBRANCH  33  34
ENDBRANCH  32  33
ENDBRANCH   1  32
TORSDOF 24
ENDMDL
MODEL 2
REMARK VINA RESULT:     -10.3      4.075      8.633
REMARK SMILES Cc1ccnc(C(=O)c2[nH]c3ccc(C(C)(C)C)cc3c2CC(=O)OCCOCCOCCOC(=O)c2ccc(-c3c4nc(c(-c5cccc(S(=O)(=O)[O-])c5F)c5ccc([nH]5)c(-c5cccc(S(=O)(=O)[O-])c5F)c5nc(c(-c6cccc(S(=O)(=O)[O-])c6F)c6ccc3[nH]6)C=C5)C=C4)cc2)c1
REMARK SMILES IDX 29 1 28 2 27 3 26 4 25 5 23 6 24 7 22 8 21 9 9 10 10 11
REMARK SMILES IDX 11 12 20 14 12 15 19 16 13 17 14 18 7 19 8 20 6 21 1 22 2 23
REMARK SMILES IDX 3 24 100 25 4 26 5 27 15 28 16 29 17 30 18 31 30 32 31 33
REMARK SMILES IDX 32 34 33 35 34 36 35 37 36 38 37 39 38 40 99 41 39 42 98 43
REMARK SMILES IDX 40 44 41 45 42 46 92 47 43 48 97 49 91 50 93 51 44 52 96 53
REMARK SMILES IDX 90 54 89 55 45 57 77 58 57 59 76 60 58 61 61 62 75 63 94 64
REMARK SMILES IDX 59 65 60 66 74 68 95 69 62 70 46 71 47 72 55 73 48 74 50 75
REMARK SMILES IDX 56 76 49 77 51 78 52 79 53 80 54 81 78 82 79 83 87 84 80 85
REMARK SMILES IDX 82 86 88 87 81 88 83 89 84 90 85 91 86 92 63 93 64 94 72 95
REMARK SMILES IDX 65 96 67 97 73 98 66 99 68 100 69 101 70 102 71 103
REMARK H PARENT 10 13 93 56 61 67
REMARK Flexibility Score: inf
ROOT
ATOM      1  C   UNL A   1      34.256  33.494  28.250  1.00  0.00     0.188 C 
ENDROOT
BRANCH   1   2
ATOM      2  O   UNL A   1      33.469  32.542  27.542  1.00  0.00    -0.376 OA
BRANCH   2   3
ATOM      3  C   UNL A   1      33.851  31.177  27.611  1.00  0.00     0.202 C 
BRANCH   3   4
ATOM      4  C   UNL A   1      32.800  30.158  27.166  1.00  0.00     0.261 C 
BRANCH   4   5
ATOM      5  O   UNL A   1      33.185  29.480  25.950  1.00  0.00    -0.463 OA
BRANCH   5   6
ATOM      6  C   UNL A   1      32.862  28.164  25.886  1.00  0.00     0.310 C 
ATOM      7  O   UNL A   1      31.740  27.736  26.154  1.00  0.00    -0.252 OA
BRANCH   6   8
ATOM      8  C   UNL A   1      33.943  27.248  25.339  1.00  0.00     0.161 C 
BRANCH   8   9
ATOM      9  C   UNL A   1      33.722  26.506  24.037  1.00  0.00     0.000 A 
ATOM     10  C   UNL A   1      33.092  26.967  22.873  1.00  0.00     0.093 A 
ATOM     11  N   UNL A   1      33.174  25.956  21.941  1.00  0.00    -0.352 N 
ATOM     12  C   UNL A   1      33.420  24.767  22.579  1.00  0.00     0.046 A 
ATOM     13  H   UNL A   1      33.073  26.069  20.969  1.00  0.00     0.167 HD
ATOM     14  C   UNL A   1      33.796  25.085  23.879  1.00  0.00     0.004 A 
ATOM     15  C   UNL A   1      33.296  23.454  22.126  1.00  0.00     0.027 A 
ATOM     16  C   UNL A   1      34.029  24.036  24.782  1.00  0.00     0.015 A 
ATOM     17  C   UNL A   1      33.440  22.433  23.075  1.00  0.00     0.006 A 
ATOM     18  C   UNL A   1      33.766  22.700  24.414  1.00  0.00    -0.042 A 
BRANCH  10  19
ATOM     19  C   UNL A   1      32.439  28.240  22.648  1.00  0.00     0.227 C 
ATOM     20  O   UNL A   1      33.060  29.299  22.594  1.00  0.00    -0.285 OA
BRANCH  19  21
ATOM     21  C   UNL A   1      30.955  28.307  22.550  1.00  0.00     0.113 A 
ATOM     22  C   UNL A   1      27.919  26.633  24.050  1.00  0.00     0.044 C 
ATOM     23  C   UNL A   1      28.806  27.596  23.322  1.00  0.00    -0.047 A 
ATOM     24  C   UNL A   1      28.298  28.819  22.872  1.00  0.00     0.023 A 
ATOM     25  C   UNL A   1      30.175  27.343  23.178  1.00  0.00     0.036 A 
ATOM     26  C   UNL A   1      29.147  29.687  22.207  1.00  0.00     0.112 A 
ATOM     27  N   UNL A   1      30.457  29.436  21.998  1.00  0.00    -0.253 NA
ENDBRANCH  19  21
ENDBRANCH  10  19
BRANCH  18  28
ATOM     28  C   UNL A   1      33.752  21.627  25.514  1.00  0.00    -0.013 C 
ATOM     29  C   UNL A   1      33.557  22.294  26.888  1.00  0.00     0.016 C 
ATOM     30  C   UNL A   1      32.581  20.651  25.242  1.00  0.00     0.016 C 
ATOM     31  C   UNL A   1      35.039  20.779  25.576  1.00  0.00     0.016 C 
ENDBRANCH  18  28
ENDBRANCH   8   9
ENDBRANCH   6   8
ENDBRANCH   5   6
ENDBRANCH   4   5
ENDBRANCH   3   4
ENDBRANCH   2   3
ENDBRANCH   1   2
BRANCH   1  32
ATOM     32  C   UNL A   1      33.874  34.990  28.169  1.00  0.00     0.188 C 
BRANCH  32  33
ATOM     33  O   UNL A   1      32.954  35.534  29.104  1.00  0.00    -0.376 OA
BRANCH  33  34
ATOM     34  C   UNL A   1      33.255  36.818  29.632  1.00  0.00     0.202 C 
BRANCH  34  35
ATOM     35  C   UNL A   1      32.889  37.015  31.100  1.00  0.00     0.261 C 
BRANCH  35  36
ATOM     36  O   UNL A   1      33.823  36.351  31.972  1.00  0.00    -0.460 OA
BRANCH  36  37
ATOM     37  C   UNL A   1      33.498  35.065  32.250  1.00  0.00     0.338 C 
ATOM     38  O   UNL A   1      32.411  34.665  32.633  1.00  0.00    -0.246 OA
BRANCH  37  39
ATOM     39  C   UNL A   1      34.628  34.139  32.024  1.00  0.00     0.060 A 
ATOM     40  C   UNL A   1      34.636  32.880  32.613  1.00  0.00     0.016 A 
ATOM     41  C   UNL A   1      35.808  34.642  31.481  1.00  0.00     0.016 A 
ATOM     42  C   UNL A   1      35.845  32.216  32.835  1.00  0.00     0.010 A 
ATOM     43  C   UNL A   1      37.003  33.919  31.606  1.00  0.00     0.010 A 
ATOM     44  C   UNL A   1      37.057  32.737  32.365  1.00  0.00    -0.014 A 
BRANCH  44  45
ATOM     45  C   UNL A   1      38.364  32.113  32.754  1.00  0.00     0.031 A 
ATOM     46  C   UNL A   1      39.003  31.052  31.878  1.00  0.00     0.074 A 
ATOM     47  C   UNL A   1      39.020  32.514  33.863  1.00  0.00     0.049 A 
ATOM     48  N   UNL A   1      40.057  30.306  32.110  1.00  0.00    -0.248 NA
ATOM     49  C   UNL A   1      38.385  30.798  30.564  1.00  0.00     0.031 C 
ATOM     50  C   UNL A   1      38.576  33.565  34.781  1.00  0.00     0.029 A 
ATOM     51  N   UNL A   1      40.204  32.078  34.416  1.00  0.00    -0.354 N 
ATOM     52  C   UNL A   1      40.189  29.464  31.009  1.00  0.00     0.074 A 
ATOM     53  C   UNL A   1      39.116  29.793  30.098  1.00  0.00     0.031 C 
ATOM     54  C   UNL A   1      39.475  33.706  35.764  1.00  0.00     0.029 A 
ATOM     55  C   UNL A   1      40.507  32.689  35.612  1.00  0.00     0.049 A 
ATOM     56  H   UNL A   1      40.777  31.396  33.996  1.00  0.00     0.167 HD
ATOM     57  C   UNL A   1      41.117  28.504  30.773  1.00  0.00     0.034 A 
ATOM     58  C   UNL A   1      41.465  32.428  36.524  1.00  0.00     0.034 A 
ATOM     59  C   UNL A   1      42.200  28.178  31.664  1.00  0.00     0.049 A 
ATOM     60  C   UNL A   1      42.432  31.306  36.272  1.00  0.00     0.074 A 
ATOM     61  C   UNL A   1      43.172  27.201  31.518  1.00  0.00     0.029 A 
ATOM     62  N   UNL A   1      42.458  28.816  32.867  1.00  0.00    -0.354 N 
ATOM     63  N   UNL A   1      42.547  30.530  35.222  1.00  0.00    -0.248 NA
ATOM     64  C   UNL A   1      43.412  31.028  37.333  1.00  0.00     0.031 C 
ATOM     65  C   UNL A   1      43.998  27.229  32.647  1.00  0.00     0.029 A 
ATOM     66  C   UNL A   1      43.564  28.248  33.477  1.00  0.00     0.049 A 
ATOM     67  H   UNL A   1      41.932  29.563  33.233  1.00  0.00     0.167 HD
ATOM     68  C   UNL A   1      43.620  29.688  35.486  1.00  0.00     0.074 A 
ATOM     69  C   UNL A   1      44.149  30.078  36.777  1.00  0.00     0.031 C 
ATOM     70  C   UNL A   1      44.110  28.667  34.741  1.00  0.00     0.034 A 
BRANCH  57  71
ATOM     71  C   UNL A   1      41.013  27.718  29.488  1.00  0.00     0.023 A 
ATOM     72  C   UNL A   1      40.007  26.743  29.342  1.00  0.00     0.012 A 
ATOM     73  C   UNL A   1      41.855  28.012  28.395  1.00  0.00     0.148 A 
ATOM     74  C   UNL A   1      39.851  26.060  28.135  1.00  0.00     0.002 A 
ATOM     75  C   UNL A   1      41.669  27.355  27.184  1.00  0.00     0.091 A 
ATOM     76  F   UNL A   1      42.814  28.934  28.560  1.00  0.00    -0.205 F 
ATOM     77  C   UNL A   1      40.673  26.373  27.054  1.00  0.00     0.022 A 
BRANCH  75  78
ATOM     78  S   UNL A   1      42.626  27.735  25.713  1.00  0.00     0.127 S 
ATOM     79  O   UNL A   1      42.177  29.094  25.412  1.00  0.00    -0.237 OA
ATOM     80  O   UNL A   1      43.999  27.643  26.209  1.00  0.00    -0.237 OA
ATOM     81  O   UNL A   1      42.265  26.729  24.724  1.00  0.00    -0.744 OA
ENDBRANCH  75  78
ENDBRANCH  57  71
BRANCH  58  82
ATOM     82  C   UNL A   1      41.533  33.217  37.790  1.00  0.00     0.023 A 
ATOM     83  C   UNL A   1      40.862  32.758  38.941  1.00  0.00     0.012 A 
ATOM     84  C   UNL A   1      42.258  34.424  37.858  1.00  0.00     0.148 A 
ATOM     85  C   UNL A   1      40.888  33.502  40.122  1.00  0.00     0.002 A 
ATOM     86  C   UNL A   1      42.342  35.119  39.056  1.00  0.00     0.091 A 
ATOM     87  F   UNL A   1      42.857  34.871  36.744  1.00  0.00    -0.205 F 
ATOM     88  C   UNL A   1      41.640  34.673  40.185  1.00  0.00     0.022 A 
BRANCH  86  89
ATOM     89  S   UNL A   1      43.416  36.545  39.249  1.00  0.00     0.127 S 
ATOM     90  O   UNL A   1      43.230  36.873  40.659  1.00  0.00    -0.237 OA
ATOM     91  O   UNL A   1      44.728  35.989  38.914  1.00  0.00    -0.237 OA
ATOM     92  O   UNL A   1      42.925  37.529  38.292  1.00  0.00    -0.744 OA
ENDBRANCH  86  89
ENDBRANCH  58  82
BRANCH  70  93
ATOM     93  C   UNL A   1      45.299  27.925  35.291  1.00  0.00     0.023 A 
ATOM     94  C   UNL A   1      46.604  28.377  35.006  1.00  0.00     0.012 A 
ATOM     95  C   UNL A   1      45.127  26.784  36.099  1.00  0.00     0.148 A 
ATOM     96  C   UNL A   1      47.716  27.674  35.468  1.00  0.00     0.002 A 
ATOM     97  C   UNL A   1      46.239  26.119  36.599  1.00  0.00     0.091 A 
ATOM     98  F   UNL A   1      43.880  26.356  36.345  1.00  0.00    -0.205 F 
ATOM     99  C   UNL A   1      47.534  26.550  36.270  1.00  0.00     0.022 A 
BRANCH  97 100
ATOM    100  S   UNL A   1      46.092  24.720  37.716  1.00  0.00     0.127 S 
ATOM    101  O   UNL A   1      45.340  25.302  38.827  1.00  0.00    -0.237 OA
ATOM    102  O   UNL A   1      45.343  23.754  36.912  1.00  0.00    -0.237 OA
ATOM    103  O   UNL A   1      47.456  24.314  38.024  1.00  0.00    -0.744 OA
ENDBRANCH  97 100
ENDBRANCH  70  93
ENDBRANCH  44  45
ENDBRANCH  37  39
ENDBRANCH  36  37
ENDBRANCH  35  36
ENDBRANCH  34  35
ENDBRANCH  33  34
ENDBRANCH  32  33
ENDBRANCH   1  32
TORSDOF 24
ENDMDL
MODEL 3
REMARK VINA RESULT:     -10.3      3.110      5.608
REMARK SMILES Cc1ccnc(C(=O)c2[nH]c3ccc(C(C)(C)C)cc3c2CC(=O)OCCOCCOCCOC(=O)c2ccc(-c3c4nc(c(-c5cccc(S(=O)(=O)[O-])c5F)c5ccc([nH]5)c(-c5cccc(S(=O)(=O)[O-])c5F)c5nc(c(-c6cccc(S(=O)(=O)[O-])c6F)c6ccc3[nH]6)C=C5)C=C4)cc2)c1
REMARK SMILES IDX 29 1 28 2 27 3 26 4 25 5 23 6 24 7 22 8 21 9 9 10 10 11
REMARK SMILES IDX 11 12 20 14 12 15 19 16 13 17 14 18 7 19 8 20 6 21 1 22 2 23
REMARK SMILES IDX 3 24 100 25 4 26 5 27 15 28 16 29 17 30 18 31 30 32 31 33
REMARK SMILES IDX 32 34 33 35 34 36 35 37 36 38 37 39 38 40 99 41 39 42 98 43
REMARK SMILES IDX 40 44 41 45 42 46 92 47 43 48 97 49 91 50 93 51 44 52 96 53
REMARK SMILES IDX 90 54 89 55 45 57 77 58 57 59 76 60 58 61 61 62 75 63 94 64
REMARK SMILES IDX 59 65 60 66 74 68 95 69 62 70 46 71 47 72 55 73 48 74 50 75
REMARK SMILES IDX 56 76 49 77 51 78 52 79 53 80 54 81 78 82 79 83 87 84 80 85
REMARK SMILES IDX 82 86 88 87 81 88 83 89 84 90 85 91 86 92 63 93 64 94 72 95
REMARK SMILES IDX 65 96 67 97 73 98 66 99 68 100 69 101 70 102 71 103
REMARK H PARENT 10 13 93 56 61 67
REMARK Flexibility Score: inf
ROOT
ATOM      1  C   UNL A   1      33.680  29.154  27.055  1.00  0.00     0.188 C 
ENDROOT
BRANCH   1   2
ATOM      2  O   UNL A   1      32.644  28.198  26.856  1.00  0.00    -0.376 OA
BRANCH   2   3
ATOM      3  C   UNL A   1      32.302  27.853  25.522  1.00  0.00     0.202 C 
BRANCH   3   4
ATOM      4  C   UNL A   1      32.602  26.415  25.098  1.00  0.00     0.261 C 
BRANCH   4   5
ATOM      5  O   UNL A   1      33.990  26.235  24.743  1.00  0.00    -0.463 OA
BRANCH   5   6
ATOM      6  C   UNL A   1      34.398  24.947  24.609  1.00  0.00     0.310 C 
ATOM      7  O   UNL A   1      34.368  24.344  23.537  1.00  0.00    -0.252 OA
BRANCH   6   8
ATOM      8  C   UNL A   1      35.016  24.321  25.847  1.00  0.00     0.161 C 
BRANCH   8   9
ATOM      9  C   UNL A   1      36.006  23.184  25.709  1.00  0.00     0.000 A 
ATOM     10  C   UNL A   1      35.747  21.807  25.680  1.00  0.00     0.093 A 
ATOM     11  N   UNL A   1      36.954  21.171  25.492  1.00  0.00    -0.352 N 
ATOM     12  C   UNL A   1      37.975  22.021  25.835  1.00  0.00     0.046 A 
ATOM     13  H   UNL A   1      37.068  20.251  25.163  1.00  0.00     0.167 HD
ATOM     14  C   UNL A   1      37.415  23.288  25.944  1.00  0.00     0.004 A 
ATOM     15  C   UNL A   1      39.319  21.760  26.099  1.00  0.00     0.027 A 
ATOM     16  C   UNL A   1      38.235  24.345  26.369  1.00  0.00     0.015 A 
ATOM     17  C   UNL A   1      40.086  22.814  26.613  1.00  0.00     0.006 A 
ATOM     18  C   UNL A   1      39.558  24.103  26.795  1.00  0.00    -0.042 A 
BRANCH  10  19
ATOM     19  C   UNL A   1      34.477  21.128  25.838  1.00  0.00     0.227 C 
ATOM     20  O   UNL A   1      33.879  21.089  26.911  1.00  0.00    -0.285 OA
BRANCH  19  21
ATOM     21  C   UNL A   1      33.890  20.375  24.695  1.00  0.00     0.113 A 
ATOM     22  C   UNL A   1      33.378  16.798  23.595  1.00  0.00     0.044 C 
ATOM     23  C   UNL A   1      33.278  18.290  23.699  1.00  0.00    -0.047 A 
ATOM     24  C   UNL A   1      32.300  18.981  22.978  1.00  0.00     0.023 A 
ATOM     25  C   UNL A   1      34.078  19.002  24.599  1.00  0.00     0.036 A 
ATOM     26  C   UNL A   1      32.232  20.358  23.102  1.00  0.00     0.112 A 
ATOM     27  N   UNL A   1      33.037  21.076  23.913  1.00  0.00    -0.253 NA
ENDBRANCH  19  21
ENDBRANCH  10  19
BRANCH  18  28
ATOM     28  C   UNL A   1      40.311  25.227  27.522  1.00  0.00    -0.013 C 
ATOM     29  C   UNL A   1      41.514  24.638  28.283  1.00  0.00     0.016 C 
ATOM     30  C   UNL A   1      40.814  26.248  26.473  1.00  0.00     0.016 C 
ATOM     31  C   UNL A   1      39.445  26.008  28.531  1.00  0.00     0.016 C 
ENDBRANCH  18  28
ENDBRANCH   8   9
ENDBRANCH   6   8
ENDBRANCH   5   6
ENDBRANCH   4   5
ENDBRANCH   3   4
ENDBRANCH   2   3
ENDBRANCH   1   2
BRANCH   1  32
ATOM     32  C   UNL A   1      33.312  30.653  27.130  1.00  0.00     0.188 C 
BRANCH  32  33
ATOM     33  O   UNL A   1      34.319  31.613  27.416  1.00  0.00    -0.376 OA
BRANCH  33  34
ATOM     34  C   UNL A   1      33.899  32.826  28.025  1.00  0.00     0.202 C 
BRANCH  34  35
ATOM     35  C   UNL A   1      34.347  33.010  29.472  1.00  0.00     0.261 C 
BRANCH  35  36
ATOM     36  O   UNL A   1      34.747  31.761  30.066  1.00  0.00    -0.460 OA
BRANCH  36  37
ATOM     37  C   UNL A   1      35.618  31.895  31.095  1.00  0.00     0.338 C 
ATOM     38  O   UNL A   1      35.381  32.408  32.176  1.00  0.00    -0.246 OA
BRANCH  37  39
ATOM     39  C   UNL A   1      36.947  31.326  30.783  1.00  0.00     0.060 A 
ATOM     40  C   UNL A   1      37.791  30.906  31.805  1.00  0.00     0.016 A 
ATOM     41  C   UNL A   1      37.465  31.497  29.502  1.00  0.00     0.016 A 
ATOM     42  C   UNL A   1      39.171  30.849  31.597  1.00  0.00     0.010 A 
ATOM     43  C   UNL A   1      38.838  31.327  29.271  1.00  0.00     0.010 A 
ATOM     44  C   UNL A   1      39.727  31.090  30.335  1.00  0.00    -0.014 A 
BRANCH  44  45
ATOM     45  C   UNL A   1      41.211  31.198  30.156  1.00  0.00     0.031 A 
ATOM     46  C   UNL A   1      41.914  32.531  30.328  1.00  0.00     0.074 A 
ATOM     47  C   UNL A   1      41.958  30.106  29.886  1.00  0.00     0.049 A 
ATOM     48  N   UNL A   1      43.164  32.850  30.087  1.00  0.00    -0.248 NA
ATOM     49  C   UNL A   1      41.114  33.656  30.844  1.00  0.00     0.031 C 
ATOM     50  C   UNL A   1      41.448  28.740  29.751  1.00  0.00     0.029 A 
ATOM     51  N   UNL A   1      43.311  29.972  29.667  1.00  0.00    -0.354 N 
ATOM     52  C   UNL A   1      43.281  34.209  30.364  1.00  0.00     0.074 A 
ATOM     53  C   UNL A   1      41.979  34.661  30.802  1.00  0.00     0.031 C 
ATOM     54  C   UNL A   1      42.467  27.909  29.494  1.00  0.00     0.029 A 
ATOM     55  C   UNL A   1      43.688  28.689  29.339  1.00  0.00     0.049 A 
ATOM     56  H   UNL A   1      43.946  30.721  29.739  1.00  0.00     0.167 HD
ATOM     57  C   UNL A   1      44.369  35.012  30.266  1.00  0.00     0.034 A 
ATOM     58  C   UNL A   1      44.863  28.194  28.901  1.00  0.00     0.034 A 
ATOM     59  C   UNL A   1      45.674  34.571  29.847  1.00  0.00     0.049 A 
ATOM     60  C   UNL A   1      46.031  29.123  28.725  1.00  0.00     0.074 A 
ATOM     61  C   UNL A   1      46.828  35.322  29.691  1.00  0.00     0.029 A 
ATOM     62  N   UNL A   1      46.002  33.267  29.515  1.00  0.00    -0.354 N 
ATOM     63  N   UNL A   1      46.123  30.400  29.003  1.00  0.00    -0.248 NA
ATOM     64  C   UNL A   1      47.265  28.536  28.182  1.00  0.00     0.031 C 
ATOM     65  C   UNL A   1      47.845  34.477  29.236  1.00  0.00     0.029 A 
ATOM     66  C   UNL A   1      47.335  33.193  29.145  1.00  0.00     0.049 A 
ATOM     67  H   UNL A   1      45.379  32.505  29.537  1.00  0.00     0.167 HD
ATOM     68  C   UNL A   1      47.426  30.765  28.687  1.00  0.00     0.074 A 
ATOM     69  C   UNL A   1      48.099  29.564  28.239  1.00  0.00     0.031 C 
ATOM     70  C   UNL A   1      48.009  31.988  28.739  1.00  0.00     0.034 A 
BRANCH  57  71
ATOM     71  C   UNL A   1      44.207  36.472  30.617  1.00  0.00     0.023 A 
ATOM     72  C   UNL A   1      44.259  36.879  31.965  1.00  0.00     0.012 A 
ATOM     73  C   UNL A   1      44.095  37.447  29.604  1.00  0.00     0.148 A 
ATOM     74  C   UNL A   1      44.185  38.231  32.300  1.00  0.00     0.002 A 
ATOM     75  C   UNL A   1      44.061  38.794  29.944  1.00  0.00     0.091 A 
ATOM     76  F   UNL A   1      44.034  37.037  28.329  1.00  0.00    -0.205 F 
ATOM     77  C   UNL A   1      44.097  39.188  31.292  1.00  0.00     0.022 A 
BRANCH  75  78
ATOM     78  S   UNL A   1      44.019  40.107  28.719  1.00  0.00     0.127 S 
ATOM     79  O   UNL A   1      42.822  39.759  27.955  1.00  0.00    -0.237 OA
ATOM     80  O   UNL A   1      43.883  41.301  29.554  1.00  0.00    -0.237 OA
ATOM     81  O   UNL A   1      45.272  40.015  27.984  1.00  0.00    -0.744 OA
ENDBRANCH  75  78
ENDBRANCH  57  71
BRANCH  58  82
ATOM     82  C   UNL A   1      44.985  26.747  28.550  1.00  0.00     0.023 A 
ATOM     83  C   UNL A   1      45.174  25.791  29.566  1.00  0.00     0.012 A 
ATOM     84  C   UNL A   1      44.917  26.316  27.210  1.00  0.00     0.148 A 
ATOM     85  C   UNL A   1      45.324  24.439  29.251  1.00  0.00     0.002 A 
ATOM     86  C   UNL A   1      44.991  24.962  26.910  1.00  0.00     0.091 A 
ATOM     87  F   UNL A   1      44.778  27.241  26.248  1.00  0.00    -0.205 F 
ATOM     88  C   UNL A   1      45.216  24.023  27.926  1.00  0.00     0.022 A 
BRANCH  86  89
ATOM     89  S   UNL A   1      44.705  24.345  25.248  1.00  0.00     0.127 S 
ATOM     90  O   UNL A   1      44.491  22.921  25.489  1.00  0.00    -0.237 OA
ATOM     91  O   UNL A   1      43.508  25.088  24.846  1.00  0.00    -0.237 OA
ATOM     92  O   UNL A   1      45.902  24.695  24.496  1.00  0.00    -0.744 OA
ENDBRANCH  86  89
ENDBRANCH  58  82
BRANCH  70  93
ATOM     93  C   UNL A   1      49.457  32.077  28.333  1.00  0.00     0.023 A 
ATOM     94  C   UNL A   1      50.468  31.729  29.251  1.00  0.00     0.012 A 
ATOM     95  C   UNL A   1      49.817  32.496  27.037  1.00  0.00     0.148 A 
ATOM     96  C   UNL A   1      51.814  31.851  28.906  1.00  0.00     0.002 A 
ATOM     97  C   UNL A   1      51.158  32.565  26.684  1.00  0.00     0.091 A 
ATOM     98  F   UNL A   1      48.844  32.842  26.182  1.00  0.00    -0.205 F 
ATOM     99  C   UNL A   1      52.158  32.262  27.621  1.00  0.00     0.022 A 
BRANCH  97 100
ATOM    100  S   UNL A   1      51.686  32.994  25.021  1.00  0.00     0.127 S 
ATOM    101  O   UNL A   1      50.837  34.146  24.726  1.00  0.00    -0.237 OA
ATOM    102  O   UNL A   1      53.102  33.312  25.214  1.00  0.00    -0.237 OA
ATOM    103  O   UNL A   1      51.444  31.809  24.210  1.00  0.00    -0.744 OA
ENDBRANCH  97 100
ENDBRANCH  70  93
ENDBRANCH  44  45
ENDBRANCH  37  39
ENDBRANCH  36  37
ENDBRANCH  35  36
ENDBRANCH  34  35
ENDBRANCH  33  34
ENDBRANCH  32  33
ENDBRANCH   1  32
TORSDOF 24
ENDMDL
