MODEL 1
REMARK VINA RESULT:     -10.7      0.000      0.000
REMARK SMILES C[C@@]1(C(=O)c2ccccc2N)[C@H](C(=O)OCCOCCOCCOC(=O)c2ccc(-c3c4nc(c(-c5cccc(S(=O)(=O)[O-])c5F)c5ccc([nH]5)c(-c5cccc(S(=O)(=O)[O-])c5F)c5nc(c(-c6cccc(S(=O)(=O)[O-])c6F)c6ccc3[nH]6)C=C5)C=C4)cc2)[C@@H]1C(=O)N1CCOCC1
REMARK SMILES IDX 19 1 18 2 17 3 16 4 15 5 13 6 14 7 12 8 1 9 2 10 90 11 3 12
REMARK SMILES IDX 4 13 5 14 6 15 10 16 7 17 9 18 8 19 11 20 91 23 92 24 93 25
REMARK SMILES IDX 94 26 98 27 95 28 97 29 96 30 20 31 21 32 22 33 23 34 24 35
REMARK SMILES IDX 25 36 26 37 27 38 28 39 89 40 29 41 88 42 30 43 31 44 32 45
REMARK SMILES IDX 82 46 33 47 87 48 81 49 83 50 34 51 86 52 80 53 79 54 35 56
REMARK SMILES IDX 67 57 47 58 66 59 48 60 51 61 65 62 84 63 49 64 50 65 64 67
REMARK SMILES IDX 85 68 52 69 36 70 37 71 45 72 38 73 40 74 46 75 39 76 41 77
REMARK SMILES IDX 42 78 43 79 44 80 68 81 69 82 77 83 70 84 72 85 78 86 71 87
REMARK SMILES IDX 73 88 74 89 75 90 76 91 53 92 54 93 62 94 55 95 57 96 63 97
REMARK SMILES IDX 56 98 58 99 59 100 60 101 61 102
REMARK H PARENT 11 21 11 22 83 55 51 66
REMARK Flexibility Score: inf
ROOT
ATOM      1  C   UNL A   1      35.182  24.460  25.061  1.00  0.00     0.188 C 
ENDROOT
BRANCH   1   2
ATOM      2  O   UNL A   1      34.245  25.157  25.871  1.00  0.00    -0.376 OA
BRANCH   2   3
ATOM      3  C   UNL A   1      33.830  26.466  25.487  1.00  0.00     0.202 C 
BRANCH   3   4
ATOM      4  C   UNL A   1      32.820  27.240  26.354  1.00  0.00     0.261 C 
BRANCH   4   5
ATOM      5  O   UNL A   1      31.490  27.294  25.798  1.00  0.00    -0.463 OA
BRANCH   5   6
ATOM      6  C   UNL A   1      31.291  28.283  24.886  1.00  0.00     0.310 C 
ATOM      7  O   UNL A   1      31.284  29.470  25.152  1.00  0.00    -0.252 OA
BRANCH   6   8
ATOM      8  C   UNL A   1      31.469  27.820  23.483  1.00  0.00     0.127 C 
ATOM      9  C   UNL A   1      32.162  26.211  21.621  1.00  0.00     0.022 C 
ATOM     10  C   UNL A   1      31.213  26.491  22.816  1.00  0.00     0.057 C 
ATOM     11  C   UNL A   1      30.310  27.681  22.508  1.00  0.00     0.108 C 
BRANCH  10  12
ATOM     12  C   UNL A   1      30.662  25.199  23.373  1.00  0.00     0.172 C 
ATOM     13  O   UNL A   1      29.620  24.777  22.859  1.00  0.00    -0.293 OA
BRANCH  12  14
ATOM     14  C   UNL A   1      31.266  24.239  24.312  1.00  0.00     0.041 A 
ATOM     15  C   UNL A   1      32.099  23.262  23.724  1.00  0.00     0.014 A 
ATOM     16  C   UNL A   1      30.742  24.008  25.594  1.00  0.00     0.042 A 
ATOM     17  C   UNL A   1      32.453  22.099  24.413  1.00  0.00     0.001 A 
ATOM     18  C   UNL A   1      31.144  22.850  26.284  1.00  0.00     0.026 A 
ATOM     19  C   UNL A   1      31.973  21.894  25.697  1.00  0.00     0.002 A 
BRANCH  16  20
ATOM     20  N   UNL A   1      29.870  24.862  26.244  1.00  0.00    -0.398 N 
ATOM     21  H   UNL A   1      29.771  25.792  25.938  1.00  0.00     0.156 HD
ATOM     22  H   UNL A   1      29.347  24.539  27.014  1.00  0.00     0.156 HD
ENDBRANCH  16  20
ENDBRANCH  12  14
ENDBRANCH  10  12
BRANCH  11  23
ATOM     23  C   UNL A   1      28.960  28.080  22.956  1.00  0.00     0.227 C 
ATOM     24  O   UNL A   1      28.434  27.433  23.853  1.00  0.00    -0.275 OA
ATOM     25  N   UNL A   1      28.376  29.243  22.488  1.00  0.00    -0.338 N 
ATOM     26  C   UNL A   1      28.885  30.156  21.466  1.00  0.00     0.148 C 
ATOM     27  C   UNL A   1      27.225  29.775  23.222  1.00  0.00     0.148 C 
ATOM     28  C   UNL A   1      29.071  31.578  21.994  1.00  0.00     0.181 C 
ATOM     29  C   UNL A   1      27.593  31.149  23.784  1.00  0.00     0.181 C 
ATOM     30  O   UNL A   1      27.918  32.046  22.709  1.00  0.00    -0.378 OA
ENDBRANCH  11  23
ENDBRANCH   6   8
ENDBRANCH   5   6
ENDBRANCH   4   5
ENDBRANCH   3   4
ENDBRANCH   2   3
ENDBRANCH   1   2
BRANCH   1  31
ATOM     31  C   UNL A   1      36.030  23.354  25.710  1.00  0.00     0.188 C 
BRANCH  31  32
ATOM     32  O   UNL A   1      36.490  22.365  24.828  1.00  0.00    -0.376 OA
BRANCH  32  33
ATOM     33  C   UNL A   1      37.258  21.275  25.292  1.00  0.00     0.202 C 
BRANCH  33  34
ATOM     34  C   UNL A   1      38.740  21.355  25.697  1.00  0.00     0.261 C 
BRANCH  34  35
ATOM     35  O   UNL A   1      39.312  20.258  26.408  1.00  0.00    -0.460 OA
BRANCH  35  36
ATOM     36  C   UNL A   1      40.659  20.136  26.364  1.00  0.00     0.338 C 
ATOM     37  O   UNL A   1      41.298  19.170  25.975  1.00  0.00    -0.246 OA
BRANCH  36  38
ATOM     38  C   UNL A   1      41.224  21.470  26.645  1.00  0.00     0.060 A 
ATOM     39  C   UNL A   1      41.233  21.949  27.963  1.00  0.00     0.016 A 
ATOM     40  C   UNL A   1      41.766  22.230  25.607  1.00  0.00     0.016 A 
ATOM     41  C   UNL A   1      41.767  23.206  28.244  1.00  0.00     0.010 A 
ATOM     42  C   UNL A   1      42.278  23.497  25.887  1.00  0.00     0.010 A 
ATOM     43  C   UNL A   1      42.251  24.002  27.199  1.00  0.00    -0.014 A 
BRANCH  43  44
ATOM     44  C   UNL A   1      42.554  25.432  27.433  1.00  0.00     0.031 A 
ATOM     45  C   UNL A   1      43.904  25.948  27.020  1.00  0.00     0.074 A 
ATOM     46  C   UNL A   1      41.664  26.248  28.022  1.00  0.00     0.049 A 
ATOM     47  N   UNL A   1      44.425  27.134  27.184  1.00  0.00    -0.248 NA
ATOM     48  C   UNL A   1      44.787  24.989  26.336  1.00  0.00     0.031 C 
ATOM     49  C   UNL A   1      40.321  25.865  28.453  1.00  0.00     0.029 A 
ATOM     50  N   UNL A   1      41.775  27.565  28.386  1.00  0.00    -0.354 N 
ATOM     51  C   UNL A   1      45.709  27.057  26.658  1.00  0.00     0.074 A 
ATOM     52  C   UNL A   1      45.892  25.702  26.183  1.00  0.00     0.031 C 
ATOM     53  C   UNL A   1      39.739  26.922  29.048  1.00  0.00     0.029 A 
ATOM     54  C   UNL A   1      40.681  28.040  29.067  1.00  0.00     0.049 A 
ATOM     55  H   UNL A   1      42.564  28.118  28.178  1.00  0.00     0.167 HD
ATOM     56  C   UNL A   1      46.648  28.027  26.568  1.00  0.00     0.034 A 
ATOM     57  C   UNL A   1      40.477  29.232  29.661  1.00  0.00     0.034 A 
ATOM     58  C   UNL A   1      46.460  29.371  27.043  1.00  0.00     0.049 A 
ATOM     59  C   UNL A   1      41.554  30.285  29.592  1.00  0.00     0.074 A 
ATOM     60  C   UNL A   1      47.331  30.442  26.963  1.00  0.00     0.029 A 
ATOM     61  N   UNL A   1      45.329  29.824  27.706  1.00  0.00    -0.354 N 
ATOM     62  N   UNL A   1      42.724  30.234  29.000  1.00  0.00    -0.248 NA
ATOM     63  C   UNL A   1      41.270  31.569  30.247  1.00  0.00     0.031 C 
ATOM     64  C   UNL A   1      46.745  31.531  27.617  1.00  0.00     0.029 A 
ATOM     65  C   UNL A   1      45.486  31.153  28.059  1.00  0.00     0.049 A 
ATOM     66  H   UNL A   1      44.532  29.279  27.897  1.00  0.00     0.167 HD
ATOM     67  C   UNL A   1      43.296  31.490  29.174  1.00  0.00     0.074 A 
ATOM     68  C   UNL A   1      42.338  32.284  29.916  1.00  0.00     0.031 C 
ATOM     69  C   UNL A   1      44.507  31.944  28.761  1.00  0.00     0.034 A 
BRANCH  56  70
ATOM     70  C   UNL A   1      47.963  27.658  25.932  1.00  0.00     0.023 A 
ATOM     71  C   UNL A   1      49.052  27.268  26.741  1.00  0.00     0.012 A 
ATOM     72  C   UNL A   1      48.121  27.687  24.533  1.00  0.00     0.148 A 
ATOM     73  C   UNL A   1      50.288  26.964  26.171  1.00  0.00     0.002 A 
ATOM     74  C   UNL A   1      49.339  27.332  23.970  1.00  0.00     0.091 A 
ATOM     75  F   UNL A   1      47.084  28.083  23.781  1.00  0.00    -0.205 F 
ATOM     76  C   UNL A   1      50.429  26.987  24.787  1.00  0.00     0.022 A 
BRANCH  74  77
ATOM     77  S   UNL A   1      49.596  27.251  22.193  1.00  0.00     0.127 S 
ATOM     78  O   UNL A   1      49.320  28.629  21.793  1.00  0.00    -0.237 OA
ATOM     79  O   UNL A   1      51.003  26.860  22.105  1.00  0.00    -0.237 OA
ATOM     80  O   UNL A   1      48.657  26.255  21.698  1.00  0.00    -0.744 OA
ENDBRANCH  74  77
ENDBRANCH  56  70
BRANCH  57  81
ATOM     81  C   UNL A   1      39.180  29.512  30.339  1.00  0.00     0.023 A 
ATOM     82  C   UNL A   1      38.932  28.955  31.609  1.00  0.00     0.012 A 
ATOM     83  C   UNL A   1      38.207  30.341  29.750  1.00  0.00     0.148 A 
ATOM     84  C   UNL A   1      37.727  29.200  32.270  1.00  0.00     0.002 A 
ATOM     85  C   UNL A   1      37.031  30.624  30.435  1.00  0.00     0.091 A 
ATOM     86  F   UNL A   1      38.459  30.851  28.536  1.00  0.00    -0.205 F 
ATOM     87  C   UNL A   1      36.783  30.042  31.689  1.00  0.00     0.022 A 
BRANCH  85  88
ATOM     88  S   UNL A   1      35.804  31.782  29.821  1.00  0.00     0.127 S 
ATOM     89  O   UNL A   1      35.224  31.040  28.704  1.00  0.00    -0.237 OA
ATOM     90  O   UNL A   1      34.929  31.932  30.984  1.00  0.00    -0.237 OA
ATOM     91  O   UNL A   1      36.541  32.985  29.458  1.00  0.00    -0.744 OA
ENDBRANCH  85  88
ENDBRANCH  57  81
BRANCH  69  92
ATOM     92  C   UNL A   1      44.854  33.383  29.054  1.00  0.00     0.023 A 
ATOM     93  C   UNL A   1      44.585  34.387  28.102  1.00  0.00     0.012 A 
ATOM     94  C   UNL A   1      45.380  33.747  30.310  1.00  0.00     0.148 A 
ATOM     95  C   UNL A   1      44.869  35.723  28.382  1.00  0.00     0.002 A 
ATOM     96  C   UNL A   1      45.609  35.086  30.602  1.00  0.00     0.091 A 
ATOM     97  F   UNL A   1      45.644  32.777  31.197  1.00  0.00    -0.205 F 
ATOM     98  C   UNL A   1      45.370  36.074  29.634  1.00  0.00     0.022 A 
BRANCH  96  99
ATOM     99  S   UNL A   1      46.156  35.641  32.221  1.00  0.00     0.127 S 
ATOM    100  O   UNL A   1      45.640  37.008  32.258  1.00  0.00    -0.237 OA
ATOM    101  O   UNL A   1      45.472  34.706  33.116  1.00  0.00    -0.237 OA
ATOM    102  O   UNL A   1      47.608  35.523  32.219  1.00  0.00    -0.744 OA
ENDBRANCH  96  99
ENDBRANCH  69  92
ENDBRANCH  43  44
ENDBRANCH  36  38
ENDBRANCH  35  36
ENDBRANCH  34  35
ENDBRANCH  33  34
ENDBRANCH  32  33
ENDBRANCH  31  32
ENDBRANCH   1  31
TORSDOF 24
ENDMDL
MODEL 2
REMARK VINA RESULT:     -10.6      1.916      2.239
REMARK SMILES C[C@@]1(C(=O)c2ccccc2N)[C@H](C(=O)OCCOCCOCCOC(=O)c2ccc(-c3c4nc(c(-c5cccc(S(=O)(=O)[O-])c5F)c5ccc([nH]5)c(-c5cccc(S(=O)(=O)[O-])c5F)c5nc(c(-c6cccc(S(=O)(=O)[O-])c6F)c6ccc3[nH]6)C=C5)C=C4)cc2)[C@@H]1C(=O)N1CCOCC1
REMARK SMILES IDX 19 1 18 2 17 3 16 4 15 5 13 6 14 7 12 8 1 9 2 10 90 11 3 12
REMARK SMILES IDX 4 13 5 14 6 15 10 16 7 17 9 18 8 19 11 20 91 23 92 24 93 25
REMARK SMILES IDX 94 26 98 27 95 28 97 29 96 30 20 31 21 32 22 33 23 34 24 35
REMARK SMILES IDX 25 36 26 37 27 38 28 39 89 40 29 41 88 42 30 43 31 44 32 45
REMARK SMILES IDX 82 46 33 47 87 48 81 49 83 50 34 51 86 52 80 53 79 54 35 56
REMARK SMILES IDX 67 57 47 58 66 59 48 60 51 61 65 62 84 63 49 64 50 65 64 67
REMARK SMILES IDX 85 68 52 69 36 70 37 71 45 72 38 73 40 74 46 75 39 76 41 77
REMARK SMILES IDX 42 78 43 79 44 80 68 81 69 82 77 83 70 84 72 85 78 86 71 87
REMARK SMILES IDX 73 88 74 89 75 90 76 91 53 92 54 93 62 94 55 95 57 96 63 97
REMARK SMILES IDX 56 98 58 99 59 100 60 101 61 102
REMARK H PARENT 11 21 11 22 83 55 51 66
REMARK Flexibility Score: inf
ROOT
ATOM      1  C   UNL A   1      35.085  24.436  25.053  1.00  0.00     0.188 C 
ENDROOT
BRANCH   1   2
ATOM      2  O   UNL A   1      34.157  25.101  25.900  1.00  0.00    -0.376 OA
BRANCH   2   3
ATOM      3  C   UNL A   1      33.892  26.487  25.689  1.00  0.00     0.202 C 
BRANCH   3   4
ATOM      4  C   UNL A   1      32.763  27.183  26.470  1.00  0.00     0.261 C 
BRANCH   4   5
ATOM      5  O   UNL A   1      31.493  27.187  25.787  1.00  0.00    -0.463 OA
BRANCH   5   6
ATOM      6  C   UNL A   1      31.328  28.198  24.892  1.00  0.00     0.310 C 
ATOM      7  O   UNL A   1      31.376  29.379  25.174  1.00  0.00    -0.252 OA
BRANCH   6   8
ATOM      8  C   UNL A   1      31.470  27.748  23.480  1.00  0.00     0.127 C 
ATOM      9  C   UNL A   1      32.094  26.147  21.586  1.00  0.00     0.022 C 
ATOM     10  C   UNL A   1      31.173  26.433  22.802  1.00  0.00     0.057 C 
ATOM     11  C   UNL A   1      30.291  27.646  22.525  1.00  0.00     0.108 C 
BRANCH  10  12
ATOM     12  C   UNL A   1      30.605  25.146  23.354  1.00  0.00     0.172 C 
ATOM     13  O   UNL A   1      29.526  24.773  22.881  1.00  0.00    -0.293 OA
BRANCH  12  14
ATOM     14  C   UNL A   1      31.219  24.143  24.241  1.00  0.00     0.041 A 
ATOM     15  C   UNL A   1      31.997  23.160  23.591  1.00  0.00     0.014 A 
ATOM     16  C   UNL A   1      30.742  23.891  25.537  1.00  0.00     0.042 A 
ATOM     17  C   UNL A   1      32.344  21.968  24.233  1.00  0.00     0.001 A 
ATOM     18  C   UNL A   1      31.138  22.703  26.178  1.00  0.00     0.026 A 
ATOM     19  C   UNL A   1      31.913  21.741  25.531  1.00  0.00     0.002 A 
BRANCH  16  20
ATOM     20  N   UNL A   1      29.924  24.751  26.246  1.00  0.00    -0.398 N 
ATOM     21  H   UNL A   1      29.864  24.679  27.227  1.00  0.00     0.156 HD
ATOM     22  H   UNL A   1      29.402  25.438  25.771  1.00  0.00     0.156 HD
ENDBRANCH  16  20
ENDBRANCH  12  14
ENDBRANCH  10  12
BRANCH  11  23
ATOM     23  C   UNL A   1      28.958  28.067  23.003  1.00  0.00     0.227 C 
ATOM     24  O   UNL A   1      28.462  27.459  23.942  1.00  0.00    -0.275 OA
ATOM     25  N   UNL A   1      28.361  29.213  22.509  1.00  0.00    -0.338 N 
ATOM     26  C   UNL A   1      28.837  30.082  21.433  1.00  0.00     0.148 C 
ATOM     27  C   UNL A   1      27.237  29.779  23.259  1.00  0.00     0.148 C 
ATOM     28  C   UNL A   1      29.044  31.524  21.897  1.00  0.00     0.181 C 
ATOM     29  C   UNL A   1      27.628  31.173  23.752  1.00  0.00     0.181 C 
ATOM     30  O   UNL A   1      27.918  32.025  22.632  1.00  0.00    -0.378 OA
ENDBRANCH  11  23
ENDBRANCH   6   8
ENDBRANCH   5   6
ENDBRANCH   4   5
ENDBRANCH   3   4
ENDBRANCH   2   3
ENDBRANCH   1   2
BRANCH   1  31
ATOM     31  C   UNL A   1      36.034  23.402  25.679  1.00  0.00     0.188 C 
BRANCH  31  32
ATOM     32  O   UNL A   1      36.660  22.541  24.765  1.00  0.00    -0.376 OA
BRANCH  32  33
ATOM     33  C   UNL A   1      37.413  21.432  25.208  1.00  0.00     0.202 C 
BRANCH  33  34
ATOM     34  C   UNL A   1      38.851  21.508  25.749  1.00  0.00     0.261 C 
BRANCH  34  35
ATOM     35  O   UNL A   1      39.408  20.350  26.369  1.00  0.00    -0.460 OA
BRANCH  35  36
ATOM     36  C   UNL A   1      40.756  20.239  26.360  1.00  0.00     0.338 C 
ATOM     37  O   UNL A   1      41.414  19.287  25.968  1.00  0.00    -0.246 OA
BRANCH  36  38
ATOM     38  C   UNL A   1      41.302  21.571  26.683  1.00  0.00     0.060 A 
ATOM     39  C   UNL A   1      41.280  22.018  28.013  1.00  0.00     0.016 A 
ATOM     40  C   UNL A   1      41.859  22.360  25.676  1.00  0.00     0.016 A 
ATOM     41  C   UNL A   1      41.796  23.273  28.335  1.00  0.00     0.010 A 
ATOM     42  C   UNL A   1      42.353  23.625  25.996  1.00  0.00     0.010 A 
ATOM     43  C   UNL A   1      42.294  24.098  27.319  1.00  0.00    -0.014 A 
BRANCH  43  44
ATOM     44  C   UNL A   1      42.578  25.525  27.593  1.00  0.00     0.031 A 
ATOM     45  C   UNL A   1      43.978  26.024  27.373  1.00  0.00     0.074 A 
ATOM     46  C   UNL A   1      41.624  26.352  28.053  1.00  0.00     0.049 A 
ATOM     47  N   UNL A   1      44.485  27.205  27.607  1.00  0.00    -0.248 NA
ATOM     48  C   UNL A   1      44.937  25.055  26.818  1.00  0.00     0.031 C 
ATOM     49  C   UNL A   1      40.230  25.985  28.293  1.00  0.00     0.029 A 
ATOM     50  N   UNL A   1      41.699  27.668  28.429  1.00  0.00    -0.354 N 
ATOM     51  C   UNL A   1      45.829  27.112  27.266  1.00  0.00     0.074 A 
ATOM     52  C   UNL A   1      46.061  25.755  26.821  1.00  0.00     0.031 C 
ATOM     53  C   UNL A   1      39.584  27.049  28.801  1.00  0.00     0.029 A 
ATOM     54  C   UNL A   1      40.526  28.157  28.951  1.00  0.00     0.049 A 
ATOM     55  H   UNL A   1      42.516  28.211  28.333  1.00  0.00     0.167 HD
ATOM     56  C   UNL A   1      46.783  28.071  27.307  1.00  0.00     0.034 A 
ATOM     57  C   UNL A   1      40.255  29.352  29.511  1.00  0.00     0.034 A 
ATOM     58  C   UNL A   1      46.546  29.418  27.752  1.00  0.00     0.049 A 
ATOM     59  C   UNL A   1      41.344  30.392  29.593  1.00  0.00     0.074 A 
ATOM     60  C   UNL A   1      47.433  30.478  27.794  1.00  0.00     0.029 A 
ATOM     61  N   UNL A   1      45.340  29.885  28.251  1.00  0.00    -0.354 N 
ATOM     62  N   UNL A   1      42.585  30.326  29.170  1.00  0.00    -0.248 NA
ATOM     63  C   UNL A   1      40.987  31.681  30.202  1.00  0.00     0.031 C 
ATOM     64  C   UNL A   1      46.774  31.574  28.360  1.00  0.00     0.029 A 
ATOM     65  C   UNL A   1      45.461  31.212  28.623  1.00  0.00     0.049 A 
ATOM     66  H   UNL A   1      44.517  29.349  28.330  1.00  0.00     0.167 HD
ATOM     67  C   UNL A   1      43.141  31.576  29.422  1.00  0.00     0.074 A 
ATOM     68  C   UNL A   1      42.099  32.382  30.024  1.00  0.00     0.031 C 
ATOM     69  C   UNL A   1      44.403  32.016  29.181  1.00  0.00     0.034 A 
BRANCH  56  70
ATOM     70  C   UNL A   1      48.169  27.685  26.861  1.00  0.00     0.023 A 
ATOM     71  C   UNL A   1      48.474  27.626  25.484  1.00  0.00     0.012 A 
ATOM     72  C   UNL A   1      49.174  27.391  27.801  1.00  0.00     0.148 A 
ATOM     73  C   UNL A   1      49.740  27.230  25.053  1.00  0.00     0.002 A 
ATOM     74  C   UNL A   1      50.448  27.048  27.365  1.00  0.00     0.091 A 
ATOM     75  F   UNL A   1      48.861  27.428  29.105  1.00  0.00    -0.205 F 
ATOM     76  C   UNL A   1      50.728  26.951  25.992  1.00  0.00     0.022 A 
BRANCH  74  77
ATOM     77  S   UNL A   1      51.810  26.750  28.497  1.00  0.00     0.127 S 
ATOM     78  O   UNL A   1      51.265  25.687  29.340  1.00  0.00    -0.237 OA
ATOM     79  O   UNL A   1      52.875  26.324  27.590  1.00  0.00    -0.237 OA
ATOM     80  O   UNL A   1      52.056  28.018  29.170  1.00  0.00    -0.744 OA
ENDBRANCH  74  77
ENDBRANCH  56  70
BRANCH  57  81
ATOM     81  C   UNL A   1      38.880  29.648  30.002  1.00  0.00     0.023 A 
ATOM     82  C   UNL A   1      38.510  29.247  31.301  1.00  0.00     0.012 A 
ATOM     83  C   UNL A   1      37.949  30.341  29.206  1.00  0.00     0.148 A 
ATOM     84  C   UNL A   1      37.231  29.511  31.789  1.00  0.00     0.002 A 
ATOM     85  C   UNL A   1      36.694  30.647  29.716  1.00  0.00     0.091 A 
ATOM     86  F   UNL A   1      38.319  30.704  27.968  1.00  0.00    -0.205 F 
ATOM     87  C   UNL A   1      36.327  30.220  31.002  1.00  0.00     0.022 A 
BRANCH  85  88
ATOM     88  S   UNL A   1      35.501  31.651  28.824  1.00  0.00     0.127 S 
ATOM     89  O   UNL A   1      34.597  32.063  29.894  1.00  0.00    -0.237 OA
ATOM     90  O   UNL A   1      36.351  32.716  28.289  1.00  0.00    -0.237 OA
ATOM     91  O   UNL A   1      34.921  30.775  27.816  1.00  0.00    -0.744 OA
ENDBRANCH  85  88
ENDBRANCH  57  81
BRANCH  69  92
ATOM     92  C   UNL A   1      44.723  33.451  29.520  1.00  0.00     0.023 A 
ATOM     93  C   UNL A   1      45.293  33.777  30.767  1.00  0.00     0.012 A 
ATOM     94  C   UNL A   1      44.524  34.468  28.565  1.00  0.00     0.148 A 
ATOM     95  C   UNL A   1      45.625  35.097  31.071  1.00  0.00     0.002 A 
ATOM     96  C   UNL A   1      44.908  35.772  28.854  1.00  0.00     0.091 A 
ATOM     97  F   UNL A   1      43.966  34.143  27.390  1.00  0.00    -0.205 F 
ATOM     98  C   UNL A   1      45.444  36.091  30.112  1.00  0.00     0.022 A 
BRANCH  96  99
ATOM     99  S   UNL A   1      44.808  37.099  27.647  1.00  0.00     0.127 S 
ATOM    100  O   UNL A   1      45.056  38.277  28.476  1.00  0.00    -0.237 OA
ATOM    101  O   UNL A   1      45.894  36.761  26.726  1.00  0.00    -0.237 OA
ATOM    102  O   UNL A   1      43.474  37.015  27.066  1.00  0.00    -0.744 OA
ENDBRANCH  96  99
ENDBRANCH  69  92
ENDBRANCH  43  44
ENDBRANCH  36  38
ENDBRANCH  35  36
ENDBRANCH  34  35
ENDBRANCH  33  34
ENDBRANCH  32  33
ENDBRANCH  31  32
ENDBRANCH   1  31
TORSDOF 24
ENDMDL
MODEL 3
REMARK VINA RESULT:     -10.4      2.491      7.669
REMARK SMILES C[C@@]1(C(=O)c2ccccc2N)[C@H](C(=O)OCCOCCOCCOC(=O)c2ccc(-c3c4nc(c(-c5cccc(S(=O)(=O)[O-])c5F)c5ccc([nH]5)c(-c5cccc(S(=O)(=O)[O-])c5F)c5nc(c(-c6cccc(S(=O)(=O)[O-])c6F)c6ccc3[nH]6)C=C5)C=C4)cc2)[C@@H]1C(=O)N1CCOCC1
REMARK SMILES IDX 19 1 18 2 17 3 16 4 15 5 13 6 14 7 12 8 1 9 2 10 90 11 3 12
REMARK SMILES IDX 4 13 5 14 6 15 10 16 7 17 9 18 8 19 11 20 91 23 92 24 93 25
REMARK SMILES IDX 94 26 98 27 95 28 97 29 96 30 20 31 21 32 22 33 23 34 24 35
REMARK SMILES IDX 25 36 26 37 27 38 28 39 89 40 29 41 88 42 30 43 31 44 32 45
REMARK SMILES IDX 82 46 33 47 87 48 81 49 83 50 34 51 86 52 80 53 79 54 35 56
REMARK SMILES IDX 67 57 47 58 66 59 48 60 51 61 65 62 84 63 49 64 50 65 64 67
REMARK SMILES IDX 85 68 52 69 36 70 37 71 45 72 38 73 40 74 46 75 39 76 41 77
REMARK SMILES IDX 42 78 43 79 44 80 68 81 69 82 77 83 70 84 72 85 78 86 71 87
REMARK SMILES IDX 73 88 74 89 75 90 76 91 53 92 54 93 62 94 55 95 57 96 63 97
REMARK SMILES IDX 56 98 58 99 59 100 60 101 61 102
REMARK H PARENT 11 21 11 22 83 55 51 66
REMARK Flexibility Score: inf
ROOT
ATOM      1  C   UNL A   1      35.705  23.725  24.664  1.00  0.00     0.188 C 
ENDROOT
BRANCH   1   2
ATOM      2  O   UNL A   1      35.017  24.533  25.610  1.00  0.00    -0.376 OA
BRANCH   2   3
ATOM      3  C   UNL A   1      34.190  25.598  25.144  1.00  0.00     0.202 C 
BRANCH   3   4
ATOM      4  C   UNL A   1      33.856  26.779  26.075  1.00  0.00     0.261 C 
BRANCH   4   5
ATOM      5  O   UNL A   1      32.634  27.464  25.738  1.00  0.00    -0.463 OA
BRANCH   5   6
ATOM      6  C   UNL A   1      32.765  28.441  24.801  1.00  0.00     0.310 C 
ATOM      7  O   UNL A   1      33.499  29.404  24.912  1.00  0.00    -0.252 OA
BRANCH   6   8
ATOM      8  C   UNL A   1      32.235  28.039  23.469  1.00  0.00     0.127 C 
ATOM      9  C   UNL A   1      31.376  26.424  21.683  1.00  0.00     0.022 C 
ATOM     10  C   UNL A   1      31.133  27.093  23.062  1.00  0.00     0.057 C 
ATOM     11  C   UNL A   1      30.942  28.597  22.894  1.00  0.00     0.108 C 
BRANCH  10  12
ATOM     12  C   UNL A   1      30.190  26.260  23.899  1.00  0.00     0.172 C 
ATOM     13  O   UNL A   1      28.988  26.540  23.818  1.00  0.00    -0.293 OA
BRANCH  12  14
ATOM     14  C   UNL A   1      30.440  25.028  24.665  1.00  0.00     0.041 A 
ATOM     15  C   UNL A   1      30.613  25.206  26.055  1.00  0.00     0.014 A 
ATOM     16  C   UNL A   1      30.911  23.850  24.063  1.00  0.00     0.042 A 
ATOM     17  C   UNL A   1      31.193  24.212  26.848  1.00  0.00     0.001 A 
ATOM     18  C   UNL A   1      31.454  22.848  24.887  1.00  0.00     0.026 A 
ATOM     19  C   UNL A   1      31.614  23.029  26.260  1.00  0.00     0.002 A 
BRANCH  16  20
ATOM     20  N   UNL A   1      30.852  23.592  22.706  1.00  0.00    -0.398 N 
ATOM     21  H   UNL A   1      31.428  24.093  22.083  1.00  0.00     0.156 HD
ATOM     22  H   UNL A   1      30.234  22.907  22.362  1.00  0.00     0.156 HD
ENDBRANCH  16  20
ENDBRANCH  12  14
ENDBRANCH  10  12
BRANCH  11  23
ATOM     23  C   UNL A   1      30.214  29.624  23.666  1.00  0.00     0.227 C 
ATOM     24  O   UNL A   1      30.737  30.066  24.681  1.00  0.00    -0.275 OA
ATOM     25  N   UNL A   1      29.049  30.184  23.171  1.00  0.00    -0.338 N 
ATOM     26  C   UNL A   1      28.320  29.816  21.958  1.00  0.00     0.148 C 
ATOM     27  C   UNL A   1      28.574  31.429  23.781  1.00  0.00     0.148 C 
ATOM     28  C   UNL A   1      28.180  30.987  20.985  1.00  0.00     0.181 C 
ATOM     29  C   UNL A   1      28.592  32.532  22.721  1.00  0.00     0.181 C 
ATOM     30  O   UNL A   1      27.720  32.181  21.635  1.00  0.00    -0.378 OA
ENDBRANCH  11  23
ENDBRANCH   6   8
ENDBRANCH   5   6
ENDBRANCH   4   5
ENDBRANCH   3   4
ENDBRANCH   2   3
ENDBRANCH   1   2
BRANCH   1  31
ATOM     31  C   UNL A   1      37.057  23.117  25.070  1.00  0.00     0.188 C 
BRANCH  31  32
ATOM     32  O   UNL A   1      37.322  21.848  24.532  1.00  0.00    -0.376 OA
BRANCH  32  33
ATOM     33  C   UNL A   1      38.155  20.930  25.207  1.00  0.00     0.202 C 
BRANCH  33  34
ATOM     34  C   UNL A   1      39.336  21.319  26.112  1.00  0.00     0.261 C 
BRANCH  34  35
ATOM     35  O   UNL A   1      40.125  20.278  26.688  1.00  0.00    -0.460 OA
BRANCH  35  36
ATOM     36  C   UNL A   1      41.375  20.115  26.197  1.00  0.00     0.338 C 
ATOM     37  O   UNL A   1      41.768  19.216  25.468  1.00  0.00    -0.246 OA
BRANCH  36  38
ATOM     38  C   UNL A   1      42.124  21.350  26.500  1.00  0.00     0.060 A 
ATOM     39  C   UNL A   1      42.454  21.644  27.831  1.00  0.00     0.016 A 
ATOM     40  C   UNL A   1      42.521  22.196  25.464  1.00  0.00     0.016 A 
ATOM     41  C   UNL A   1      43.165  22.805  28.133  1.00  0.00     0.010 A 
ATOM     42  C   UNL A   1      43.211  23.369  25.770  1.00  0.00     0.010 A 
ATOM     43  C   UNL A   1      43.507  23.693  27.106  1.00  0.00    -0.014 A 
BRANCH  43  44
ATOM     44  C   UNL A   1      44.002  25.050  27.432  1.00  0.00     0.031 A 
ATOM     45  C   UNL A   1      43.019  26.057  27.958  1.00  0.00     0.074 A 
ATOM     46  C   UNL A   1      45.288  25.389  27.240  1.00  0.00     0.049 A 
ATOM     47  N   UNL A   1      43.195  27.318  28.245  1.00  0.00    -0.248 NA
ATOM     48  C   UNL A   1      41.646  25.573  28.182  1.00  0.00     0.031 C 
ATOM     49  C   UNL A   1      46.335  24.496  26.749  1.00  0.00     0.029 A 
ATOM     50  N   UNL A   1      45.921  26.594  27.410  1.00  0.00    -0.354 N 
ATOM     51  C   UNL A   1      41.952  27.790  28.647  1.00  0.00     0.074 A 
ATOM     52  C   UNL A   1      41.026  26.682  28.554  1.00  0.00     0.031 C 
ATOM     53  C   UNL A   1      47.479  25.192  26.633  1.00  0.00     0.029 A 
ATOM     54  C   UNL A   1      47.235  26.584  27.010  1.00  0.00     0.049 A 
ATOM     55  H   UNL A   1      45.476  27.390  27.783  1.00  0.00     0.167 HD
ATOM     56  C   UNL A   1      41.611  29.031  29.068  1.00  0.00     0.034 A 
ATOM     57  C   UNL A   1      48.127  27.590  26.933  1.00  0.00     0.034 A 
ATOM     58  C   UNL A   1      42.535  30.129  29.158  1.00  0.00     0.049 A 
ATOM     59  C   UNL A   1      47.715  28.976  27.359  1.00  0.00     0.074 A 
ATOM     60  C   UNL A   1      42.303  31.414  29.611  1.00  0.00     0.029 A 
ATOM     61  N   UNL A   1      43.865  30.076  28.768  1.00  0.00    -0.354 N 
ATOM     62  N   UNL A   1      46.565  29.387  27.838  1.00  0.00    -0.248 NA
ATOM     63  C   UNL A   1      48.735  30.030  27.265  1.00  0.00     0.031 C 
ATOM     64  C   UNL A   1      43.481  32.151  29.453  1.00  0.00     0.029 A 
ATOM     65  C   UNL A   1      44.462  31.311  28.949  1.00  0.00     0.049 A 
ATOM     66  H   UNL A   1      44.317  29.277  28.412  1.00  0.00     0.167 HD
ATOM     67  C   UNL A   1      46.735  30.734  28.140  1.00  0.00     0.074 A 
ATOM     68  C   UNL A   1      48.104  31.066  27.802  1.00  0.00     0.031 C 
ATOM     69  C   UNL A   1      45.838  31.617  28.648  1.00  0.00     0.034 A 
BRANCH  56  70
ATOM     70  C   UNL A   1      40.173  29.257  29.459  1.00  0.00     0.023 A 
ATOM     71  C   UNL A   1      39.210  29.541  28.466  1.00  0.00     0.012 A 
ATOM     72  C   UNL A   1      39.771  29.179  30.806  1.00  0.00     0.148 A 
ATOM     73  C   UNL A   1      37.883  29.793  28.815  1.00  0.00     0.002 A 
ATOM     74  C   UNL A   1      38.438  29.380  31.139  1.00  0.00     0.091 A 
ATOM     75  F   UNL A   1      40.703  28.933  31.738  1.00  0.00    -0.205 F 
ATOM     76  C   UNL A   1      37.497  29.704  30.149  1.00  0.00     0.022 A 
BRANCH  74  77
ATOM     77  S   UNL A   1      37.825  29.206  32.819  1.00  0.00     0.127 S 
ATOM     78  O   UNL A   1      36.526  29.871  32.729  1.00  0.00    -0.237 OA
ATOM     79  O   UNL A   1      37.757  27.753  32.972  1.00  0.00    -0.237 OA
ATOM     80  O   UNL A   1      38.806  29.861  33.673  1.00  0.00    -0.744 OA
ENDBRANCH  74  77
ENDBRANCH  56  70
BRANCH  57  81
ATOM     81  C   UNL A   1      49.517  27.317  26.468  1.00  0.00     0.023 A 
ATOM     82  C   UNL A   1      49.805  27.367  25.090  1.00  0.00     0.012 A 
ATOM     83  C   UNL A   1      50.553  27.033  27.377  1.00  0.00     0.148 A 
ATOM     84  C   UNL A   1      51.097  27.118  24.625  1.00  0.00     0.002 A 
ATOM     85  C   UNL A   1      51.847  26.837  26.913  1.00  0.00     0.091 A 
ATOM     86  F   UNL A   1      50.253  26.979  28.683  1.00  0.00    -0.205 F 
ATOM     87  C   UNL A   1      52.119  26.863  25.535  1.00  0.00     0.022 A 
BRANCH  85  88
ATOM     88  S   UNL A   1      53.250  26.614  28.012  1.00  0.00     0.127 S 
ATOM     89  O   UNL A   1      54.009  25.574  27.321  1.00  0.00    -0.237 OA
ATOM     90  O   UNL A   1      53.860  27.943  27.987  1.00  0.00    -0.237 OA
ATOM     91  O   UNL A   1      52.688  26.228  29.299  1.00  0.00    -0.744 OA
ENDBRANCH  85  88
ENDBRANCH  57  81
BRANCH  69  92
ATOM     92  C   UNL A   1      46.314  33.023  28.921  1.00  0.00     0.023 A 
ATOM     93  C   UNL A   1      47.026  33.316  30.102  1.00  0.00     0.012 A 
ATOM     94  C   UNL A   1      46.118  34.039  27.964  1.00  0.00     0.148 A 
ATOM     95  C   UNL A   1      47.501  34.605  30.342  1.00  0.00     0.002 A 
ATOM     96  C   UNL A   1      46.642  35.307  28.185  1.00  0.00     0.091 A 
ATOM     97  F   UNL A   1      45.426  33.746  26.854  1.00  0.00    -0.205 F 
ATOM     98  C   UNL A   1      47.320  35.596  29.379  1.00  0.00     0.022 A 
BRANCH  96  99
ATOM     99  S   UNL A   1      46.547  36.617  26.960  1.00  0.00     0.127 S 
ATOM    100  O   UNL A   1      45.191  37.124  27.168  1.00  0.00    -0.237 OA
ATOM    101  O   UNL A   1      47.610  37.525  27.394  1.00  0.00    -0.237 OA
ATOM    102  O   UNL A   1      46.783  35.983  25.670  1.00  0.00    -0.744 OA
ENDBRANCH  96  99
ENDBRANCH  69  92
ENDBRANCH  43  44
ENDBRANCH  36  38
ENDBRANCH  35  36
ENDBRANCH  34  35
ENDBRANCH  33  34
ENDBRANCH  32  33
ENDBRANCH  31  32
ENDBRANCH   1  31
TORSDOF 24
ENDMDL
