MODEL 1
REMARK VINA RESULT:     -10.6      0.000      0.000
REMARK SMILES O=C(OCCOCCOCCOC(=O)[C@H]1C[C@H]2CCCC[C@@H]2[N@@H+]1C1CCSCC1)c1ccc(-c2c3nc(c(-c4cccc(S(=O)(=O)[O-])c4F)c4ccc([nH]4)c(-c4cccc(S(=O)(=O)[O-])c4F)c4nc(c(-c5cccc(S(=O)(=O)[O-])c5F)c5ccc2[nH]5)C=C4)C=C3)cc1
REMARK SMILES IDX 7 1 6 2 5 3 4 4 3 5 2 6 1 7 30 8 31 9 92 10 32 11 91 12
REMARK SMILES IDX 33 13 34 14 35 15 85 16 36 17 90 18 84 19 86 20 37 21 89 22
REMARK SMILES IDX 83 23 82 24 38 26 70 27 50 28 69 29 51 30 54 31 68 32 87 33
REMARK SMILES IDX 52 34 53 35 67 37 88 38 55 39 39 40 40 41 48 42 41 43 43 44
REMARK SMILES IDX 49 45 42 46 44 47 45 48 46 49 47 50 71 51 72 52 80 53 73 54
REMARK SMILES IDX 75 55 81 56 74 57 76 58 77 59 78 60 79 61 56 62 57 63 65 64
REMARK SMILES IDX 58 65 60 66 66 67 59 68 61 69 62 70 63 71 64 72 8 73 9 74
REMARK SMILES IDX 10 75 11 76 12 77 13 78 14 79 15 80 16 81 23 82 17 83 22 84
REMARK SMILES IDX 18 86 21 87 19 88 20 89 24 90 25 91 29 92 26 93 28 94 27 95
REMARK H PARENT 86 25 54 36 23 85
REMARK Flexibility Score: inf
ROOT
ATOM      1  C   UNL A   1      33.660  20.106  25.279  1.00  0.00     0.188 C 
ENDROOT
BRANCH   1   2
ATOM      2  O   UNL A   1      34.759  20.543  24.474  1.00  0.00    -0.376 OA
BRANCH   2   3
ATOM      3  C   UNL A   1      36.047  20.137  24.948  1.00  0.00     0.202 C 
BRANCH   3   4
ATOM      4  C   UNL A   1      36.904  21.211  25.639  1.00  0.00     0.261 C 
BRANCH   4   5
ATOM      5  O   UNL A   1      38.311  21.100  25.377  1.00  0.00    -0.460 OA
BRANCH   5   6
ATOM      6  C   UNL A   1      39.349  21.272  26.230  1.00  0.00     0.338 C 
ATOM      7  O   UNL A   1      39.811  20.277  26.787  1.00  0.00    -0.246 OA
BRANCH   6   8
ATOM      8  C   UNL A   1      39.960  22.602  26.543  1.00  0.00     0.060 A 
ATOM      9  C   UNL A   1      39.478  23.832  26.095  1.00  0.00     0.016 A 
ATOM     10  C   UNL A   1      41.042  22.610  27.441  1.00  0.00     0.016 A 
ATOM     11  C   UNL A   1      40.082  25.030  26.469  1.00  0.00     0.010 A 
ATOM     12  C   UNL A   1      41.637  23.811  27.847  1.00  0.00     0.010 A 
ATOM     13  C   UNL A   1      41.166  25.026  27.346  1.00  0.00    -0.014 A 
BRANCH  13  14
ATOM     14  C   UNL A   1      41.825  26.313  27.648  1.00  0.00     0.031 A 
ATOM     15  C   UNL A   1      43.115  26.615  26.966  1.00  0.00     0.074 A 
ATOM     16  C   UNL A   1      41.246  27.189  28.490  1.00  0.00     0.049 A 
ATOM     17  N   UNL A   1      43.830  27.701  27.027  1.00  0.00    -0.248 NA
ATOM     18  C   UNL A   1      43.699  25.546  26.138  1.00  0.00     0.031 C 
ATOM     19  C   UNL A   1      40.032  26.906  29.237  1.00  0.00     0.029 A 
ATOM     20  N   UNL A   1      41.559  28.475  28.853  1.00  0.00    -0.354 N 
ATOM     21  C   UNL A   1      45.016  27.393  26.380  1.00  0.00     0.074 A 
ATOM     22  C   UNL A   1      44.876  26.067  25.822  1.00  0.00     0.031 C 
ATOM     23  C   UNL A   1      39.659  28.003  29.913  1.00  0.00     0.029 A 
ATOM     24  C   UNL A   1      40.609  29.073  29.661  1.00  0.00     0.049 A 
ATOM     25  H   UNL A   1      42.385  28.929  28.565  1.00  0.00     0.167 HD
ATOM     26  C   UNL A   1      46.144  28.132  26.349  1.00  0.00     0.034 A 
ATOM     27  C   UNL A   1      40.515  30.346  30.109  1.00  0.00     0.034 A 
ATOM     28  C   UNL A   1      46.237  29.447  26.918  1.00  0.00     0.049 A 
ATOM     29  C   UNL A   1      41.678  31.245  29.783  1.00  0.00     0.074 A 
ATOM     30  C   UNL A   1      47.328  30.294  26.952  1.00  0.00     0.029 A 
ATOM     31  N   UNL A   1      45.200  30.094  27.575  1.00  0.00    -0.354 N 
ATOM     32  N   UNL A   1      42.732  30.985  29.044  1.00  0.00    -0.248 NA
ATOM     33  C   UNL A   1      41.665  32.594  30.363  1.00  0.00     0.031 C 
ATOM     34  C   UNL A   1      46.962  31.438  27.667  1.00  0.00     0.029 A 
ATOM     35  C   UNL A   1      45.631  31.322  28.036  1.00  0.00     0.049 A 
ATOM     36  H   UNL A   1      44.293  29.731  27.694  1.00  0.00     0.167 HD
ATOM     37  C   UNL A   1      43.537  32.106  29.137  1.00  0.00     0.074 A 
ATOM     38  C   UNL A   1      42.783  33.104  29.869  1.00  0.00     0.031 C 
ATOM     39  C   UNL A   1      44.825  32.272  28.752  1.00  0.00     0.034 A 
BRANCH  26  40
ATOM     40  C   UNL A   1      47.383  27.488  25.803  1.00  0.00     0.023 A 
ATOM     41  C   UNL A   1      47.748  27.636  24.453  1.00  0.00     0.012 A 
ATOM     42  C   UNL A   1      48.211  26.750  26.674  1.00  0.00     0.148 A 
ATOM     43  C   UNL A   1      48.917  27.043  23.973  1.00  0.00     0.002 A 
ATOM     44  C   UNL A   1      49.394  26.205  26.202  1.00  0.00     0.091 A 
ATOM     45  F   UNL A   1      47.817  26.593  27.946  1.00  0.00    -0.205 F 
ATOM     46  C   UNL A   1      49.744  26.341  24.849  1.00  0.00     0.022 A 
BRANCH  44  47
ATOM     47  S   UNL A   1      50.559  25.350  27.267  1.00  0.00     0.127 S 
ATOM     48  O   UNL A   1      51.607  24.975  26.317  1.00  0.00    -0.237 OA
ATOM     49  O   UNL A   1      50.934  26.405  28.207  1.00  0.00    -0.237 OA
ATOM     50  O   UNL A   1      49.831  24.233  27.851  1.00  0.00    -0.744 OA
ENDBRANCH  44  47
ENDBRANCH  26  40
BRANCH  27  51
ATOM     51  C   UNL A   1      39.301  30.884  30.816  1.00  0.00     0.023 A 
ATOM     52  C   UNL A   1      39.287  30.907  32.233  1.00  0.00     0.012 A 
ATOM     53  C   UNL A   1      38.195  31.436  30.146  1.00  0.00     0.148 A 
ATOM     54  C   UNL A   1      38.211  31.439  32.950  1.00  0.00     0.002 A 
ATOM     55  C   UNL A   1      37.179  32.068  30.865  1.00  0.00     0.091 A 
ATOM     56  F   UNL A   1      38.140  31.354  28.809  1.00  0.00    -0.205 F 
ATOM     57  C   UNL A   1      37.166  32.044  32.264  1.00  0.00     0.022 A 
BRANCH  55  58
ATOM     58  S   UNL A   1      35.977  33.110  30.027  1.00  0.00     0.127 S 
ATOM     59  O   UNL A   1      36.833  34.007  29.256  1.00  0.00    -0.237 OA
ATOM     60  O   UNL A   1      35.219  32.144  29.230  1.00  0.00    -0.237 OA
ATOM     61  O   UNL A   1      35.206  33.712  31.109  1.00  0.00    -0.744 OA
ENDBRANCH  55  58
ENDBRANCH  27  51
BRANCH  39  62
ATOM     62  C   UNL A   1      45.487  33.536  29.210  1.00  0.00     0.023 A 
ATOM     63  C   UNL A   1      46.158  33.542  30.451  1.00  0.00     0.012 A 
ATOM     64  C   UNL A   1      45.493  34.683  28.402  1.00  0.00     0.148 A 
ATOM     65  C   UNL A   1      46.797  34.693  30.900  1.00  0.00     0.002 A 
ATOM     66  C   UNL A   1      46.176  35.810  28.833  1.00  0.00     0.091 A 
ATOM     67  F   UNL A   1      44.834  34.646  27.236  1.00  0.00    -0.205 F 
ATOM     68  C   UNL A   1      46.815  35.823  30.086  1.00  0.00     0.022 A 
BRANCH  66  69
ATOM     69  S   UNL A   1      46.331  37.281  27.821  1.00  0.00     0.127 S 
ATOM     70  O   UNL A   1      47.524  37.908  28.389  1.00  0.00    -0.237 OA
ATOM     71  O   UNL A   1      46.514  36.714  26.485  1.00  0.00    -0.237 OA
ATOM     72  O   UNL A   1      45.094  38.029  28.002  1.00  0.00    -0.744 OA
ENDBRANCH  66  69
ENDBRANCH  39  62
ENDBRANCH  13  14
ENDBRANCH   6   8
ENDBRANCH   5   6
ENDBRANCH   4   5
ENDBRANCH   3   4
ENDBRANCH   2   3
ENDBRANCH   1   2
BRANCH   1  73
ATOM     73  C   UNL A   1      32.294  20.429  24.670  1.00  0.00     0.188 C 
BRANCH  73  74
ATOM     74  O   UNL A   1      31.372  21.143  25.492  1.00  0.00    -0.376 OA
BRANCH  74  75
ATOM     75  C   UNL A   1      31.528  22.555  25.589  1.00  0.00     0.202 C 
BRANCH  75  76
ATOM     76  C   UNL A   1      30.860  23.273  26.767  1.00  0.00     0.261 C 
BRANCH  76  77
ATOM     77  O   UNL A   1      31.396  24.577  27.014  1.00  0.00    -0.459 OA
BRANCH  77  78
ATOM     78  C   UNL A   1      30.878  25.589  26.256  1.00  0.00     0.365 C 
ATOM     79  O   UNL A   1      29.673  25.823  26.166  1.00  0.00    -0.245 OA
BRANCH  78  80
ATOM     80  C   UNL A   1      32.011  26.457  25.648  1.00  0.00     0.296 C 
ATOM     81  C   UNL A   1      33.390  25.933  26.065  1.00  0.00     0.087 C 
ATOM     82  N   UNL A   1      31.948  26.336  24.180  1.00  0.00    -0.318 N 
ATOM     83  C   UNL A   1      33.979  25.375  24.787  1.00  0.00     0.054 C 
ATOM     84  C   UNL A   1      32.785  25.178  23.867  1.00  0.00     0.188 C 
ATOM     85  H   UNL A   1      30.977  26.197  23.898  1.00  0.00     0.349 HD
ATOM     86  C   UNL A   1      34.802  24.108  24.929  1.00  0.00     0.010 C 
ATOM     87  C   UNL A   1      33.251  24.827  22.461  1.00  0.00     0.065 C 
ATOM     88  C   UNL A   1      35.236  23.641  23.543  1.00  0.00     0.001 C 
ATOM     89  C   UNL A   1      34.081  23.535  22.540  1.00  0.00     0.006 C 
BRANCH  82  90
ATOM     90  C   UNL A   1      31.932  27.503  23.289  1.00  0.00     0.186 C 
ATOM     91  C   UNL A   1      30.679  27.555  22.379  1.00  0.00     0.076 C 
ATOM     92  C   UNL A   1      32.254  28.897  23.851  1.00  0.00     0.076 C 
ATOM     93  C   UNL A   1      29.426  28.237  22.915  1.00  0.00     0.075 C 
ATOM     94  C   UNL A   1      31.129  29.594  24.592  1.00  0.00     0.075 C 
ATOM     95  S   UNL A   1      29.702  29.917  23.521  1.00  0.00    -0.162 SA
ENDBRANCH  82  90
ENDBRANCH  78  80
ENDBRANCH  77  78
ENDBRANCH  76  77
ENDBRANCH  75  76
ENDBRANCH  74  75
ENDBRANCH  73  74
ENDBRANCH   1  73
TORSDOF 21
ENDMDL
MODEL 2
REMARK VINA RESULT:     -10.1      2.706      8.197
REMARK SMILES O=C(OCCOCCOCCOC(=O)[C@H]1C[C@H]2CCCC[C@@H]2[N@@H+]1C1CCSCC1)c1ccc(-c2c3nc(c(-c4cccc(S(=O)(=O)[O-])c4F)c4ccc([nH]4)c(-c4cccc(S(=O)(=O)[O-])c4F)c4nc(c(-c5cccc(S(=O)(=O)[O-])c5F)c5ccc2[nH]5)C=C4)C=C3)cc1
REMARK SMILES IDX 7 1 6 2 5 3 4 4 3 5 2 6 1 7 30 8 31 9 92 10 32 11 91 12
REMARK SMILES IDX 33 13 34 14 35 15 85 16 36 17 90 18 84 19 86 20 37 21 89 22
REMARK SMILES IDX 83 23 82 24 38 26 70 27 50 28 69 29 51 30 54 31 68 32 87 33
REMARK SMILES IDX 52 34 53 35 67 37 88 38 55 39 39 40 40 41 48 42 41 43 43 44
REMARK SMILES IDX 49 45 42 46 44 47 45 48 46 49 47 50 71 51 72 52 80 53 73 54
REMARK SMILES IDX 75 55 81 56 74 57 76 58 77 59 78 60 79 61 56 62 57 63 65 64
REMARK SMILES IDX 58 65 60 66 66 67 59 68 61 69 62 70 63 71 64 72 8 73 9 74
REMARK SMILES IDX 10 75 11 76 12 77 13 78 14 79 15 80 16 81 23 82 17 83 22 84
REMARK SMILES IDX 18 86 21 87 19 88 20 89 24 90 25 91 29 92 26 93 28 94 27 95
REMARK H PARENT 86 25 54 36 23 85
REMARK Flexibility Score: inf
ROOT
ATOM      1  C   UNL A   1      36.860  22.165  25.746  1.00  0.00     0.188 C 
ENDROOT
BRANCH   1   2
ATOM      2  O   UNL A   1      37.504  20.983  25.259  1.00  0.00    -0.376 OA
BRANCH   2   3
ATOM      3  C   UNL A   1      38.803  20.739  25.806  1.00  0.00     0.202 C 
BRANCH   3   4
ATOM      4  C   UNL A   1      39.453  19.384  25.482  1.00  0.00     0.261 C 
BRANCH   4   5
ATOM      5  O   UNL A   1      40.663  19.123  26.207  1.00  0.00    -0.460 OA
BRANCH   5   6
ATOM      6  C   UNL A   1      41.925  19.525  25.923  1.00  0.00     0.338 C 
ATOM      7  O   UNL A   1      42.676  18.724  25.369  1.00  0.00    -0.246 OA
BRANCH   6   8
ATOM      8  C   UNL A   1      42.462  20.882  26.251  1.00  0.00     0.060 A 
ATOM      9  C   UNL A   1      42.715  21.356  27.539  1.00  0.00     0.016 A 
ATOM     10  C   UNL A   1      42.833  21.699  25.168  1.00  0.00     0.016 A 
ATOM     11  C   UNL A   1      43.258  22.620  27.755  1.00  0.00     0.010 A 
ATOM     12  C   UNL A   1      43.408  22.959  25.375  1.00  0.00     0.010 A 
ATOM     13  C   UNL A   1      43.607  23.430  26.675  1.00  0.00    -0.014 A 
BRANCH  13  14
ATOM     14  C   UNL A   1      44.101  24.792  26.955  1.00  0.00     0.031 A 
ATOM     15  C   UNL A   1      43.219  25.712  27.729  1.00  0.00     0.074 A 
ATOM     16  C   UNL A   1      45.327  25.166  26.544  1.00  0.00     0.049 A 
ATOM     17  N   UNL A   1      43.471  26.919  28.144  1.00  0.00    -0.248 NA
ATOM     18  C   UNL A   1      41.864  25.228  28.046  1.00  0.00     0.031 C 
ATOM     19  C   UNL A   1      46.188  24.334  25.720  1.00  0.00     0.029 A 
ATOM     20  N   UNL A   1      46.076  26.296  26.761  1.00  0.00    -0.354 N 
ATOM     21  C   UNL A   1      42.264  27.396  28.629  1.00  0.00     0.074 A 
ATOM     22  C   UNL A   1      41.313  26.310  28.576  1.00  0.00     0.031 C 
ATOM     23  C   UNL A   1      47.373  24.943  25.559  1.00  0.00     0.029 A 
ATOM     24  C   UNL A   1      47.362  26.216  26.256  1.00  0.00     0.049 A 
ATOM     25  H   UNL A   1      45.729  27.089  27.230  1.00  0.00     0.167 HD
ATOM     26  C   UNL A   1      41.974  28.663  28.991  1.00  0.00     0.034 A 
ATOM     27  C   UNL A   1      48.405  27.068  26.381  1.00  0.00     0.034 A 
ATOM     28  C   UNL A   1      42.954  29.713  29.028  1.00  0.00     0.049 A 
ATOM     29  C   UNL A   1      48.112  28.370  27.079  1.00  0.00     0.074 A 
ATOM     30  C   UNL A   1      42.780  31.039  29.375  1.00  0.00     0.029 A 
ATOM     31  N   UNL A   1      44.287  29.556  28.679  1.00  0.00    -0.354 N 
ATOM     32  N   UNL A   1      47.002  28.753  27.664  1.00  0.00    -0.248 NA
ATOM     33  C   UNL A   1      49.190  29.366  27.117  1.00  0.00     0.031 C 
ATOM     34  C   UNL A   1      44.003  31.693  29.198  1.00  0.00     0.029 A 
ATOM     35  C   UNL A   1      44.945  30.765  28.784  1.00  0.00     0.049 A 
ATOM     36  H   UNL A   1      44.702  28.708  28.399  1.00  0.00     0.167 HD
ATOM     37  C   UNL A   1      47.225  30.058  28.067  1.00  0.00     0.074 A 
ATOM     38  C   UNL A   1      48.620  30.344  27.804  1.00  0.00     0.031 C 
ATOM     39  C   UNL A   1      46.340  30.980  28.514  1.00  0.00     0.034 A 
BRANCH  26  40
ATOM     40  C   UNL A   1      40.537  29.003  29.244  1.00  0.00     0.023 A 
ATOM     41  C   UNL A   1      39.678  29.376  28.194  1.00  0.00     0.012 A 
ATOM     42  C   UNL A   1      40.033  28.913  30.558  1.00  0.00     0.148 A 
ATOM     43  C   UNL A   1      38.339  29.669  28.452  1.00  0.00     0.002 A 
ATOM     44  C   UNL A   1      38.690  29.157  30.800  1.00  0.00     0.091 A 
ATOM     45  F   UNL A   1      40.883  28.593  31.545  1.00  0.00    -0.205 F 
ATOM     46  C   UNL A   1      37.843  29.547  29.750  1.00  0.00     0.022 A 
BRANCH  44  47
ATOM     47  S   UNL A   1      37.945  28.953  32.420  1.00  0.00     0.127 S 
ATOM     48  O   UNL A   1      38.732  29.886  33.226  1.00  0.00    -0.237 OA
ATOM     49  O   UNL A   1      36.567  29.372  32.171  1.00  0.00    -0.237 OA
ATOM     50  O   UNL A   1      38.111  27.549  32.769  1.00  0.00    -0.744 OA
ENDBRANCH  44  47
ENDBRANCH  26  40
BRANCH  27  51
ATOM     51  C   UNL A   1      49.803  26.730  25.937  1.00  0.00     0.023 A 
ATOM     52  C   UNL A   1      50.569  25.826  26.713  1.00  0.00     0.012 A 
ATOM     53  C   UNL A   1      50.376  27.210  24.746  1.00  0.00     0.148 A 
ATOM     54  C   UNL A   1      51.855  25.433  26.331  1.00  0.00     0.002 A 
ATOM     55  C   UNL A   1      51.610  26.726  24.312  1.00  0.00     0.091 A 
ATOM     56  F   UNL A   1      49.710  28.130  24.032  1.00  0.00    -0.205 F 
ATOM     57  C   UNL A   1      52.367  25.863  25.114  1.00  0.00     0.022 A 
BRANCH  55  58
ATOM     58  S   UNL A   1      52.168  27.019  22.628  1.00  0.00     0.127 S 
ATOM     59  O   UNL A   1      53.216  26.017  22.472  1.00  0.00    -0.237 OA
ATOM     60  O   UNL A   1      50.956  26.772  21.844  1.00  0.00    -0.237 OA
ATOM     61  O   UNL A   1      52.592  28.414  22.627  1.00  0.00    -0.744 OA
ENDBRANCH  55  58
ENDBRANCH  27  51
BRANCH  39  62
ATOM     62  C   UNL A   1      46.862  32.379  28.643  1.00  0.00     0.023 A 
ATOM     63  C   UNL A   1      47.391  32.797  29.881  1.00  0.00     0.012 A 
ATOM     64  C   UNL A   1      46.880  33.248  27.541  1.00  0.00     0.148 A 
ATOM     65  C   UNL A   1      47.898  34.084  30.032  1.00  0.00     0.002 A 
ATOM     66  C   UNL A   1      47.434  34.510  27.685  1.00  0.00     0.091 A 
ATOM     67  F   UNL A   1      46.357  32.822  26.383  1.00  0.00    -0.205 F 
ATOM     68  C   UNL A   1      47.929  34.936  28.930  1.00  0.00     0.022 A 
BRANCH  66  69
ATOM     69  S   UNL A   1      47.600  35.646  26.308  1.00  0.00     0.127 S 
ATOM     70  O   UNL A   1      48.366  34.844  25.353  1.00  0.00    -0.237 OA
ATOM     71  O   UNL A   1      46.206  35.877  25.934  1.00  0.00    -0.237 OA
ATOM     72  O   UNL A   1      48.296  36.815  26.828  1.00  0.00    -0.744 OA
ENDBRANCH  66  69
ENDBRANCH  39  62
ENDBRANCH  13  14
ENDBRANCH   6   8
ENDBRANCH   5   6
ENDBRANCH   4   5
ENDBRANCH   3   4
ENDBRANCH   2   3
ENDBRANCH   1   2
BRANCH   1  73
ATOM     73  C   UNL A   1      36.878  23.323  24.744  1.00  0.00     0.188 C 
BRANCH  73  74
ATOM     74  O   UNL A   1      36.603  23.002  23.381  1.00  0.00    -0.376 OA
BRANCH  74  75
ATOM     75  C   UNL A   1      35.240  22.897  22.988  1.00  0.00     0.202 C 
BRANCH  75  76
ATOM     76  C   UNL A   1      34.392  24.175  22.978  1.00  0.00     0.261 C 
BRANCH  76  77
ATOM     77  O   UNL A   1      33.460  24.229  21.893  1.00  0.00    -0.459 OA
BRANCH  77  78
ATOM     78  C   UNL A   1      32.733  25.381  21.788  1.00  0.00     0.365 C 
ATOM     79  O   UNL A   1      32.170  25.737  20.753  1.00  0.00    -0.245 OA
BRANCH  78  80
ATOM     80  C   UNL A   1      32.615  26.086  23.164  1.00  0.00     0.296 C 
ATOM     81  C   UNL A   1      32.695  27.610  23.010  1.00  0.00     0.087 C 
ATOM     82  N   UNL A   1      31.282  25.795  23.721  1.00  0.00    -0.318 N 
ATOM     83  C   UNL A   1      31.299  28.091  23.343  1.00  0.00     0.054 C 
ATOM     84  C   UNL A   1      30.422  26.857  23.200  1.00  0.00     0.188 C 
ATOM     85  H   UNL A   1      30.985  24.870  23.408  1.00  0.00     0.349 HD
ATOM     86  C   UNL A   1      30.779  29.255  22.518  1.00  0.00     0.010 C 
ATOM     87  C   UNL A   1      29.019  27.140  23.720  1.00  0.00     0.065 C 
ATOM     88  C   UNL A   1      29.337  29.544  22.923  1.00  0.00     0.001 C 
ATOM     89  C   UNL A   1      28.433  28.306  22.906  1.00  0.00     0.006 C 
BRANCH  82  90
ATOM     90  C   UNL A   1      31.087  25.282  25.083  1.00  0.00     0.186 C 
ATOM     91  C   UNL A   1      30.788  23.763  25.124  1.00  0.00     0.076 C 
ATOM     92  C   UNL A   1      32.077  25.671  26.194  1.00  0.00     0.076 C 
ATOM     93  C   UNL A   1      31.965  22.796  25.176  1.00  0.00     0.075 C 
ATOM     94  C   UNL A   1      33.386  24.906  26.219  1.00  0.00     0.075 C 
ATOM     95  S   UNL A   1      33.137  23.134  26.511  1.00  0.00    -0.162 SA
ENDBRANCH  82  90
ENDBRANCH  78  80
ENDBRANCH  77  78
ENDBRANCH  76  77
ENDBRANCH  75  76
ENDBRANCH  74  75
ENDBRANCH  73  74
ENDBRANCH   1  73
TORSDOF 21
ENDMDL
MODEL 3
REMARK VINA RESULT:     -10.0      1.864      2.668
REMARK SMILES O=C(OCCOCCOCCOC(=O)[C@H]1C[C@H]2CCCC[C@@H]2[N@@H+]1C1CCSCC1)c1ccc(-c2c3nc(c(-c4cccc(S(=O)(=O)[O-])c4F)c4ccc([nH]4)c(-c4cccc(S(=O)(=O)[O-])c4F)c4nc(c(-c5cccc(S(=O)(=O)[O-])c5F)c5ccc2[nH]5)C=C4)C=C3)cc1
REMARK SMILES IDX 7 1 6 2 5 3 4 4 3 5 2 6 1 7 30 8 31 9 92 10 32 11 91 12
REMARK SMILES IDX 33 13 34 14 35 15 85 16 36 17 90 18 84 19 86 20 37 21 89 22
REMARK SMILES IDX 83 23 82 24 38 26 70 27 50 28 69 29 51 30 54 31 68 32 87 33
REMARK SMILES IDX 52 34 53 35 67 37 88 38 55 39 39 40 40 41 48 42 41 43 43 44
REMARK SMILES IDX 49 45 42 46 44 47 45 48 46 49 47 50 71 51 72 52 80 53 73 54
REMARK SMILES IDX 75 55 81 56 74 57 76 58 77 59 78 60 79 61 56 62 57 63 65 64
REMARK SMILES IDX 58 65 60 66 66 67 59 68 61 69 62 70 63 71 64 72 8 73 9 74
REMARK SMILES IDX 10 75 11 76 12 77 13 78 14 79 15 80 16 81 23 82 17 83 22 84
REMARK SMILES IDX 18 86 21 87 19 88 20 89 24 90 25 91 29 92 26 93 28 94 27 95
REMARK H PARENT 86 25 54 36 23 85
REMARK Flexibility Score: inf
ROOT
ATOM      1  C   UNL A   1      33.968  20.340  24.635  1.00  0.00     0.188 C 
ENDROOT
BRANCH   1   2
ATOM      2  O   UNL A   1      34.937  21.347  24.328  1.00  0.00    -0.376 OA
BRANCH   2   3
ATOM      3  C   UNL A   1      35.981  21.489  25.296  1.00  0.00     0.202 C 
BRANCH   3   4
ATOM      4  C   UNL A   1      37.351  20.890  24.937  1.00  0.00     0.261 C 
BRANCH   4   5
ATOM      5  O   UNL A   1      38.202  20.648  26.066  1.00  0.00    -0.460 OA
BRANCH   5   6
ATOM      6  C   UNL A   1      39.526  20.903  26.200  1.00  0.00     0.338 C 
ATOM      7  O   UNL A   1      40.310  19.963  26.084  1.00  0.00    -0.246 OA
BRANCH   6   8
ATOM      8  C   UNL A   1      40.089  22.259  26.489  1.00  0.00     0.060 A 
ATOM      9  C   UNL A   1      39.522  23.467  26.084  1.00  0.00     0.016 A 
ATOM     10  C   UNL A   1      41.223  22.314  27.320  1.00  0.00     0.016 A 
ATOM     11  C   UNL A   1      40.089  24.691  26.433  1.00  0.00     0.010 A 
ATOM     12  C   UNL A   1      41.782  23.539  27.702  1.00  0.00     0.010 A 
ATOM     13  C   UNL A   1      41.223  24.734  27.243  1.00  0.00    -0.014 A 
BRANCH  13  14
ATOM     14  C   UNL A   1      41.835  26.049  27.518  1.00  0.00     0.031 A 
ATOM     15  C   UNL A   1      43.057  26.425  26.752  1.00  0.00     0.074 A 
ATOM     16  C   UNL A   1      41.274  26.884  28.411  1.00  0.00     0.049 A 
ATOM     17  N   UNL A   1      43.719  27.545  26.780  1.00  0.00    -0.248 NA
ATOM     18  C   UNL A   1      43.635  25.397  25.869  1.00  0.00     0.031 C 
ATOM     19  C   UNL A   1      40.131  26.530  29.237  1.00  0.00     0.029 A 
ATOM     20  N   UNL A   1      41.546  28.181  28.771  1.00  0.00    -0.354 N 
ATOM     21  C   UNL A   1      44.871  27.306  26.047  1.00  0.00     0.074 A 
ATOM     22  C   UNL A   1      44.759  25.982  25.481  1.00  0.00     0.031 C 
ATOM     23  C   UNL A   1      39.751  27.599  29.953  1.00  0.00     0.029 A 
ATOM     24  C   UNL A   1      40.625  28.719  29.652  1.00  0.00     0.049 A 
ATOM     25  H   UNL A   1      42.325  28.680  28.434  1.00  0.00     0.167 HD
ATOM     26  C   UNL A   1      45.955  28.103  25.949  1.00  0.00     0.034 A 
ATOM     27  C   UNL A   1      40.500  29.980  30.125  1.00  0.00     0.034 A 
ATOM     28  C   UNL A   1      46.021  29.415  26.530  1.00  0.00     0.049 A 
ATOM     29  C   UNL A   1      41.590  30.942  29.732  1.00  0.00     0.074 A 
ATOM     30  C   UNL A   1      47.068  30.316  26.501  1.00  0.00     0.029 A 
ATOM     31  N   UNL A   1      45.002  30.000  27.267  1.00  0.00    -0.354 N 
ATOM     32  N   UNL A   1      42.601  30.745  28.918  1.00  0.00    -0.248 NA
ATOM     33  C   UNL A   1      41.549  32.281  30.332  1.00  0.00     0.031 C 
ATOM     34  C   UNL A   1      46.695  31.432  27.257  1.00  0.00     0.029 A 
ATOM     35  C   UNL A   1      45.401  31.243  27.716  1.00  0.00     0.049 A 
ATOM     36  H   UNL A   1      44.124  29.589  27.444  1.00  0.00     0.167 HD
ATOM     37  C   UNL A   1      43.353  31.905  28.972  1.00  0.00     0.074 A 
ATOM     38  C   UNL A   1      42.602  32.854  29.769  1.00  0.00     0.031 C 
ATOM     39  C   UNL A   1      44.600  32.142  28.501  1.00  0.00     0.034 A 
BRANCH  26  40
ATOM     40  C   UNL A   1      47.183  27.530  25.309  1.00  0.00     0.023 A 
ATOM     41  C   UNL A   1      48.021  26.639  26.004  1.00  0.00     0.012 A 
ATOM     42  C   UNL A   1      47.481  27.870  23.973  1.00  0.00     0.148 A 
ATOM     43  C   UNL A   1      49.148  26.104  25.380  1.00  0.00     0.002 A 
ATOM     44  C   UNL A   1      48.575  27.297  23.344  1.00  0.00     0.091 A 
ATOM     45  F   UNL A   1      46.686  28.752  23.349  1.00  0.00    -0.205 F 
ATOM     46  C   UNL A   1      49.417  26.422  24.049  1.00  0.00     0.022 A 
BRANCH  44  47
ATOM     47  S   UNL A   1      48.957  27.586  21.614  1.00  0.00     0.127 S 
ATOM     48  O   UNL A   1      49.379  28.986  21.635  1.00  0.00    -0.237 OA
ATOM     49  O   UNL A   1      50.034  26.626  21.381  1.00  0.00    -0.237 OA
ATOM     50  O   UNL A   1      47.728  27.325  20.878  1.00  0.00    -0.744 OA
ENDBRANCH  44  47
ENDBRANCH  26  40
BRANCH  27  51
ATOM     51  C   UNL A   1      39.312  30.447  30.923  1.00  0.00     0.023 A 
ATOM     52  C   UNL A   1      39.347  30.332  32.334  1.00  0.00     0.012 A 
ATOM     53  C   UNL A   1      38.186  31.063  30.349  1.00  0.00     0.148 A 
ATOM     54  C   UNL A   1      38.298  30.790  33.136  1.00  0.00     0.002 A 
ATOM     55  C   UNL A   1      37.198  31.621  31.160  1.00  0.00     0.091 A 
ATOM     56  F   UNL A   1      38.085  31.113  29.012  1.00  0.00    -0.205 F 
ATOM     57  C   UNL A   1      37.233  31.461  32.550  1.00  0.00     0.022 A 
BRANCH  55  58
ATOM     58  S   UNL A   1      35.972  32.742  30.470  1.00  0.00     0.127 S 
ATOM     59  O   UNL A   1      34.754  32.323  31.154  1.00  0.00    -0.237 OA
ATOM     60  O   UNL A   1      36.483  34.056  30.867  1.00  0.00    -0.237 OA
ATOM     61  O   UNL A   1      36.031  32.500  29.033  1.00  0.00    -0.744 OA
ENDBRANCH  55  58
ENDBRANCH  27  51
BRANCH  39  62
ATOM     62  C   UNL A   1      45.228  33.433  28.931  1.00  0.00     0.023 A 
ATOM     63  C   UNL A   1      45.903  33.483  30.169  1.00  0.00     0.012 A 
ATOM     64  C   UNL A   1      45.200  34.562  28.099  1.00  0.00     0.148 A 
ATOM     65  C   UNL A   1      46.510  34.660  30.593  1.00  0.00     0.002 A 
ATOM     66  C   UNL A   1      45.853  35.716  28.505  1.00  0.00     0.091 A 
ATOM     67  F   UNL A   1      44.539  34.483  26.936  1.00  0.00    -0.205 F 
ATOM     68  C   UNL A   1      46.494  35.773  29.755  1.00  0.00     0.022 A 
BRANCH  66  69
ATOM     69  S   UNL A   1      45.963  37.170  27.463  1.00  0.00     0.127 S 
ATOM     70  O   UNL A   1      46.750  38.076  28.300  1.00  0.00    -0.237 OA
ATOM     71  O   UNL A   1      46.668  36.652  26.291  1.00  0.00    -0.237 OA
ATOM     72  O   UNL A   1      44.593  37.595  27.213  1.00  0.00    -0.744 OA
ENDBRANCH  66  69
ENDBRANCH  39  62
ENDBRANCH  13  14
ENDBRANCH   6   8
ENDBRANCH   5   6
ENDBRANCH   4   5
ENDBRANCH   3   4
ENDBRANCH   2   3
ENDBRANCH   1   2
BRANCH   1  73
ATOM     73  C   UNL A   1      32.618  20.910  25.078  1.00  0.00     0.188 C 
BRANCH  73  74
ATOM     74  O   UNL A   1      32.526  21.382  26.421  1.00  0.00    -0.376 OA
BRANCH  74  75
ATOM     75  C   UNL A   1      32.113  22.729  26.622  1.00  0.00     0.202 C 
BRANCH  75  76
ATOM     76  C   UNL A   1      30.691  23.117  26.203  1.00  0.00     0.261 C 
BRANCH  76  77
ATOM     77  O   UNL A   1      30.653  24.120  25.184  1.00  0.00    -0.459 OA
BRANCH  77  78
ATOM     78  C   UNL A   1      30.625  25.415  25.620  1.00  0.00     0.365 C 
ATOM     79  O   UNL A   1      30.228  25.748  26.736  1.00  0.00    -0.245 OA
BRANCH  78  80
ATOM     80  C   UNL A   1      31.274  26.362  24.577  1.00  0.00     0.296 C 
ATOM     81  C   UNL A   1      30.759  27.797  24.740  1.00  0.00     0.087 C 
ATOM     82  N   UNL A   1      32.725  26.410  24.836  1.00  0.00    -0.318 N 
ATOM     83  C   UNL A   1      31.956  28.564  25.260  1.00  0.00     0.054 C 
ATOM     84  C   UNL A   1      32.894  27.496  25.799  1.00  0.00     0.188 C 
ATOM     85  H   UNL A   1      33.026  25.510  25.212  1.00  0.00     0.349 HD
ATOM     86  C   UNL A   1      31.663  29.637  26.295  1.00  0.00     0.010 C 
ATOM     87  C   UNL A   1      34.242  28.107  26.157  1.00  0.00     0.065 C 
ATOM     88  C   UNL A   1      32.981  30.240  26.770  1.00  0.00     0.001 C 
ATOM     89  C   UNL A   1      34.009  29.195  27.219  1.00  0.00     0.006 C 
BRANCH  82  90
ATOM     90  C   UNL A   1      33.725  26.187  23.783  1.00  0.00     0.186 C 
ATOM     91  C   UNL A   1      34.109  24.696  23.616  1.00  0.00     0.076 C 
ATOM     92  C   UNL A   1      33.553  26.862  22.412  1.00  0.00     0.076 C 
ATOM     93  C   UNL A   1      33.270  23.836  22.679  1.00  0.00     0.075 C 
ATOM     94  C   UNL A   1      32.576  26.200  21.460  1.00  0.00     0.075 C 
ATOM     95  S   UNL A   1      33.087  24.519  21.015  1.00  0.00    -0.162 SA
ENDBRANCH  82  90
ENDBRANCH  78  80
ENDBRANCH  77  78
ENDBRANCH  76  77
ENDBRANCH  75  76
ENDBRANCH  74  75
ENDBRANCH  73  74
ENDBRANCH   1  73
TORSDOF 21
ENDMDL
