MODEL 1
REMARK VINA RESULT:      -7.8      0.000      0.000
REMARK SMILES CC(C)CN(C)c1cc2c(cc1Cl)C=C(C(=O)OCCOCCOCCOC(=O)c1ccc(-c3c4nc(c(-c5cccc(S(=O)(=O)[O-])c5F)c5ccc([nH]5)c(-c5cccc(S(=O)(=O)[O-])c5F)c5nc(c(-c6cccc(S(=O)(=O)[O-])c6F)c6ccc3[nH]6)C=C5)C=C4)cc1)[C@@H](C(F)(F)F)O2
REMARK SMILES IDX 22 1 21 2 20 3 19 4 18 5 16 6 17 7 15 8 7 9 8 10 12 11 9 12
REMARK SMILES IDX 11 13 13 14 10 15 98 16 14 17 93 18 5 19 6 20 4 21 2 22 1 23
REMARK SMILES IDX 3 24 94 25 95 26 96 27 97 28 23 29 24 30 25 31 26 32 27 33
REMARK SMILES IDX 28 34 29 35 30 36 31 37 92 38 32 39 91 40 33 41 34 42 35 43
REMARK SMILES IDX 85 44 36 45 90 46 84 47 86 48 37 49 89 50 83 51 82 52 38 54
REMARK SMILES IDX 70 55 50 56 69 57 51 58 54 59 68 60 87 61 52 62 53 63 67 65
REMARK SMILES IDX 88 66 55 67 39 68 40 69 48 70 41 71 43 72 49 73 42 74 44 75
REMARK SMILES IDX 45 76 46 77 47 78 71 79 72 80 80 81 73 82 75 83 81 84 74 85
REMARK SMILES IDX 76 86 77 87 78 88 79 89 56 90 57 91 65 92 58 93 60 94 66 95
REMARK SMILES IDX 59 96 61 97 62 98 63 99 64 100
REMARK H PARENT 86 53 54 64
REMARK Flexibility Score: inf
ROOT
ATOM      1  C   UNL A   1      40.825  19.395  26.253  1.00  0.00     0.188 C 
ENDROOT
BRANCH   1   2
ATOM      2  O   UNL A   1      40.327  20.712  26.320  1.00  0.00    -0.376 OA
BRANCH   2   3
ATOM      3  C   UNL A   1      40.886  21.633  27.239  1.00  0.00     0.202 C 
BRANCH   3   4
ATOM      4  C   UNL A   1      41.347  23.056  26.862  1.00  0.00     0.261 C 
BRANCH   4   5
ATOM      5  O   UNL A   1      41.054  24.113  27.781  1.00  0.00    -0.460 OA
BRANCH   5   6
ATOM      6  C   UNL A   1      40.282  25.112  27.299  1.00  0.00     0.338 C 
ATOM      7  O   UNL A   1      39.510  25.034  26.354  1.00  0.00    -0.246 OA
BRANCH   6   8
ATOM      8  C   UNL A   1      40.398  26.303  28.161  1.00  0.00     0.087 C 
ATOM      9  C   UNL A   1      39.324  30.154  31.227  1.00  0.00     0.059 A 
ATOM     10  C   UNL A   1      40.473  29.768  30.501  1.00  0.00     0.074 A 
ATOM     11  C   UNL A   1      38.212  29.285  31.175  1.00  0.00     0.065 A 
ATOM     12  C   UNL A   1      40.504  28.573  29.767  1.00  0.00     0.130 A 
ATOM     13  C   UNL A   1      38.288  28.041  30.547  1.00  0.00     0.034 A 
ATOM     14  Cl  UNL A   1      36.647  29.738  31.759  1.00  0.00    -0.082 Cl
ATOM     15  C   UNL A   1      39.428  27.692  29.831  1.00  0.00     0.019 A 
ATOM     16  O   UNL A   1      41.614  28.322  29.001  1.00  0.00    -0.475 OA
ATOM     17  C   UNL A   1      39.444  26.447  29.088  1.00  0.00     0.027 C 
ATOM     18  C   UNL A   1      41.495  27.312  27.947  1.00  0.00     0.316 C 
BRANCH   9  19
ATOM     19  N   UNL A   1      39.281  31.369  31.918  1.00  0.00    -0.373 N 
ATOM     20  C   UNL A   1      39.491  31.296  33.357  1.00  0.00     0.143 C 
BRANCH  19  21
ATOM     21  C   UNL A   1      38.447  32.473  31.397  1.00  0.00     0.119 C 
BRANCH  21  22
ATOM     22  C   UNL A   1      39.072  33.194  30.183  1.00  0.00     0.002 C 
ATOM     23  C   UNL A   1      38.073  34.128  29.496  1.00  0.00     0.009 C 
ATOM     24  C   UNL A   1      40.315  34.002  30.570  1.00  0.00     0.009 C 
ENDBRANCH  21  22
ENDBRANCH  19  21
ENDBRANCH   9  19
BRANCH  18  25
ATOM     25  C   UNL A   1      41.371  27.982  26.572  1.00  0.00     0.430 C 
ATOM     26  F   UNL A   1      42.142  29.093  26.484  1.00  0.00    -0.167 F 
ATOM     27  F   UNL A   1      41.784  27.150  25.583  1.00  0.00    -0.167 F 
ATOM     28  F   UNL A   1      40.102  28.347  26.285  1.00  0.00    -0.167 F 
ENDBRANCH  18  25
ENDBRANCH   6   8
ENDBRANCH   5   6
ENDBRANCH   4   5
ENDBRANCH   3   4
ENDBRANCH   2   3
ENDBRANCH   1   2
BRANCH   1  29
ATOM     29  C   UNL A   1      42.366  19.327  26.182  1.00  0.00     0.188 C 
BRANCH  29  30
ATOM     30  O   UNL A   1      43.042  19.778  25.014  1.00  0.00    -0.376 OA
BRANCH  30  31
ATOM     31  C   UNL A   1      44.434  20.070  25.089  1.00  0.00     0.202 C 
BRANCH  31  32
ATOM     32  C   UNL A   1      44.945  21.212  25.983  1.00  0.00     0.261 C 
BRANCH  32  33
ATOM     33  O   UNL A   1      46.171  21.827  25.562  1.00  0.00    -0.460 OA
BRANCH  33  34
ATOM     34  C   UNL A   1      46.047  23.041  24.963  1.00  0.00     0.338 C 
ATOM     35  O   UNL A   1      45.987  23.268  23.767  1.00  0.00    -0.246 OA
BRANCH  34  36
ATOM     36  C   UNL A   1      45.781  24.058  26.003  1.00  0.00     0.060 A 
ATOM     37  C   UNL A   1      46.790  24.468  26.874  1.00  0.00     0.016 A 
ATOM     38  C   UNL A   1      44.491  24.599  26.105  1.00  0.00     0.016 A 
ATOM     39  C   UNL A   1      46.509  25.442  27.836  1.00  0.00     0.010 A 
ATOM     40  C   UNL A   1      44.206  25.556  27.082  1.00  0.00     0.010 A 
ATOM     41  C   UNL A   1      45.220  26.000  27.942  1.00  0.00    -0.014 A 
BRANCH  41  42
ATOM     42  C   UNL A   1      44.997  27.173  28.820  1.00  0.00     0.031 A 
ATOM     43  C   UNL A   1      45.119  28.583  28.325  1.00  0.00     0.074 A 
ATOM     44  C   UNL A   1      44.686  26.938  30.110  1.00  0.00     0.049 A 
ATOM     45  N   UNL A   1      44.842  29.694  28.957  1.00  0.00    -0.248 NA
ATOM     46  C   UNL A   1      45.615  28.778  26.954  1.00  0.00     0.031 C 
ATOM     47  C   UNL A   1      44.609  25.610  30.724  1.00  0.00     0.029 A 
ATOM     48  N   UNL A   1      44.382  27.798  31.133  1.00  0.00    -0.354 N 
ATOM     49  C   UNL A   1      45.124  30.722  28.068  1.00  0.00     0.074 A 
ATOM     50  C   UNL A   1      45.615  30.104  26.854  1.00  0.00     0.031 C 
ATOM     51  C   UNL A   1      44.263  25.743  32.012  1.00  0.00     0.029 A 
ATOM     52  C   UNL A   1      44.104  27.162  32.319  1.00  0.00     0.049 A 
ATOM     53  H   UNL A   1      44.364  28.777  31.028  1.00  0.00     0.167 HD
ATOM     54  C   UNL A   1      44.961  32.055  28.247  1.00  0.00     0.034 A 
ATOM     55  C   UNL A   1      43.747  27.658  33.519  1.00  0.00     0.034 A 
ATOM     56  C   UNL A   1      44.459  32.663  29.452  1.00  0.00     0.049 A 
ATOM     57  C   UNL A   1      43.557  29.138  33.680  1.00  0.00     0.074 A 
ATOM     58  C   UNL A   1      44.195  34.002  29.689  1.00  0.00     0.029 A 
ATOM     59  N   UNL A   1      44.156  31.984  30.621  1.00  0.00    -0.354 N 
ATOM     60  N   UNL A   1      43.677  30.081  32.779  1.00  0.00    -0.248 NA
ATOM     61  C   UNL A   1      43.148  29.620  35.008  1.00  0.00     0.031 C 
ATOM     62  C   UNL A   1      43.749  34.136  31.007  1.00  0.00     0.029 A 
ATOM     63  C   UNL A   1      43.719  32.878  31.585  1.00  0.00     0.049 A 
ATOM     64  H   UNL A   1      44.240  31.012  30.749  1.00  0.00     0.167 HD
ATOM     65  C   UNL A   1      43.342  31.266  33.423  1.00  0.00     0.074 A 
ATOM     66  C   UNL A   1      42.998  30.920  34.787  1.00  0.00     0.031 C 
ATOM     67  C   UNL A   1      43.335  32.525  32.927  1.00  0.00     0.034 A 
BRANCH  54  68
ATOM     68  C   UNL A   1      45.251  32.977  27.093  1.00  0.00     0.023 A 
ATOM     69  C   UNL A   1      44.189  33.360  26.251  1.00  0.00     0.012 A 
ATOM     70  C   UNL A   1      46.511  33.589  26.946  1.00  0.00     0.148 A 
ATOM     71  C   UNL A   1      44.375  34.341  25.279  1.00  0.00     0.002 A 
ATOM     72  C   UNL A   1      46.682  34.585  25.992  1.00  0.00     0.091 A 
ATOM     73  F   UNL A   1      47.505  33.205  27.761  1.00  0.00    -0.205 F 
ATOM     74  C   UNL A   1      45.615  34.961  25.157  1.00  0.00     0.022 A 
BRANCH  72  75
ATOM     75  S   UNL A   1      48.218  35.494  25.790  1.00  0.00     0.127 S 
ATOM     76  O   UNL A   1      47.757  36.702  25.107  1.00  0.00    -0.237 OA
ATOM     77  O   UNL A   1      48.637  35.700  27.177  1.00  0.00    -0.237 OA
ATOM     78  O   UNL A   1      49.095  34.638  25.003  1.00  0.00    -0.744 OA
ENDBRANCH  72  75
ENDBRANCH  54  68
BRANCH  55  79
ATOM     79  C   UNL A   1      43.474  26.720  34.639  1.00  0.00     0.023 A 
ATOM     80  C   UNL A   1      42.177  26.198  34.802  1.00  0.00     0.012 A 
ATOM     81  C   UNL A   1      44.508  26.289  35.492  1.00  0.00     0.148 A 
ATOM     82  C   UNL A   1      41.910  25.270  35.807  1.00  0.00     0.002 A 
ATOM     83  C   UNL A   1      44.244  25.335  36.465  1.00  0.00     0.091 A 
ATOM     84  F   UNL A   1      45.732  26.804  35.311  1.00  0.00    -0.205 F 
ATOM     85  C   UNL A   1      42.944  24.831  36.631  1.00  0.00     0.022 A 
BRANCH  83  86
ATOM     86  S   UNL A   1      45.528  24.635  37.506  1.00  0.00     0.127 S 
ATOM     87  O   UNL A   1      46.497  24.174  36.514  1.00  0.00    -0.237 OA
ATOM     88  O   UNL A   1      45.950  25.799  38.286  1.00  0.00    -0.237 OA
ATOM     89  O   UNL A   1      44.881  23.587  38.285  1.00  0.00    -0.744 OA
ENDBRANCH  83  86
ENDBRANCH  55  79
BRANCH  67  90
ATOM     90  C   UNL A   1      42.937  33.648  33.845  1.00  0.00     0.023 A 
ATOM     91  C   UNL A   1      41.577  33.993  33.962  1.00  0.00     0.012 A 
ATOM     92  C   UNL A   1      43.888  34.267  34.680  1.00  0.00     0.148 A 
ATOM     93  C   UNL A   1      41.168  34.946  34.895  1.00  0.00     0.002 A 
ATOM     94  C   UNL A   1      43.470  35.192  35.629  1.00  0.00     0.091 A 
ATOM     95  F   UNL A   1      45.176  33.925  34.541  1.00  0.00    -0.205 F 
ATOM     96  C   UNL A   1      42.111  35.535  35.736  1.00  0.00     0.022 A 
BRANCH  94  97
ATOM     97  S   UNL A   1      44.594  35.953  36.805  1.00  0.00     0.127 S 
ATOM     98  O   UNL A   1      43.846  37.145  37.202  1.00  0.00    -0.237 OA
ATOM     99  O   UNL A   1      44.700  34.926  37.841  1.00  0.00    -0.237 OA
ATOM    100  O   UNL A   1      45.828  36.214  36.075  1.00  0.00    -0.744 OA
ENDBRANCH  94  97
ENDBRANCH  67  90
ENDBRANCH  41  42
ENDBRANCH  34  36
ENDBRANCH  33  34
ENDBRANCH  32  33
ENDBRANCH  31  32
ENDBRANCH  30  31
ENDBRANCH  29  30
ENDBRANCH   1  29
TORSDOF 24
ENDMDL
MODEL 2
REMARK VINA RESULT:      -7.7      1.605      2.058
REMARK SMILES CC(C)CN(C)c1cc2c(cc1Cl)C=C(C(=O)OCCOCCOCCOC(=O)c1ccc(-c3c4nc(c(-c5cccc(S(=O)(=O)[O-])c5F)c5ccc([nH]5)c(-c5cccc(S(=O)(=O)[O-])c5F)c5nc(c(-c6cccc(S(=O)(=O)[O-])c6F)c6ccc3[nH]6)C=C5)C=C4)cc1)[C@@H](C(F)(F)F)O2
REMARK SMILES IDX 22 1 21 2 20 3 19 4 18 5 16 6 17 7 15 8 7 9 8 10 12 11 9 12
REMARK SMILES IDX 11 13 13 14 10 15 98 16 14 17 93 18 5 19 6 20 4 21 2 22 1 23
REMARK SMILES IDX 3 24 94 25 95 26 96 27 97 28 23 29 24 30 25 31 26 32 27 33
REMARK SMILES IDX 28 34 29 35 30 36 31 37 92 38 32 39 91 40 33 41 34 42 35 43
REMARK SMILES IDX 85 44 36 45 90 46 84 47 86 48 37 49 89 50 83 51 82 52 38 54
REMARK SMILES IDX 70 55 50 56 69 57 51 58 54 59 68 60 87 61 52 62 53 63 67 65
REMARK SMILES IDX 88 66 55 67 39 68 40 69 48 70 41 71 43 72 49 73 42 74 44 75
REMARK SMILES IDX 45 76 46 77 47 78 71 79 72 80 80 81 73 82 75 83 81 84 74 85
REMARK SMILES IDX 76 86 77 87 78 88 79 89 56 90 57 91 65 92 58 93 60 94 66 95
REMARK SMILES IDX 59 96 61 97 62 98 63 99 64 100
REMARK H PARENT 86 53 54 64
REMARK Flexibility Score: inf
ROOT
ATOM      1  C   UNL A   1      42.321  21.024  26.346  1.00  0.00     0.188 C 
ENDROOT
BRANCH   1   2
ATOM      2  O   UNL A   1      41.708  22.000  27.158  1.00  0.00    -0.376 OA
BRANCH   2   3
ATOM      3  C   UNL A   1      40.431  22.505  26.812  1.00  0.00     0.202 C 
BRANCH   3   4
ATOM      4  C   UNL A   1      39.913  23.898  27.224  1.00  0.00     0.261 C 
BRANCH   4   5
ATOM      5  O   UNL A   1      40.883  24.931  27.428  1.00  0.00    -0.460 OA
BRANCH   5   6
ATOM      6  C   UNL A   1      40.775  26.006  26.616  1.00  0.00     0.338 C 
ATOM      7  O   UNL A   1      40.780  25.988  25.393  1.00  0.00    -0.246 OA
BRANCH   6   8
ATOM      8  C   UNL A   1      40.517  27.220  27.412  1.00  0.00     0.087 C 
ATOM      9  C   UNL A   1      38.247  31.120  29.651  1.00  0.00     0.059 A 
ATOM     10  C   UNL A   1      39.596  30.742  29.471  1.00  0.00     0.074 A 
ATOM     11  C   UNL A   1      37.261  30.227  29.177  1.00  0.00     0.065 A 
ATOM     12  C   UNL A   1      39.936  29.530  28.850  1.00  0.00     0.130 A 
ATOM     13  C   UNL A   1      37.600  28.970  28.673  1.00  0.00     0.034 A 
ATOM     14  Cl  UNL A   1      35.591  30.660  29.056  1.00  0.00    -0.082 Cl
ATOM     15  C   UNL A   1      38.936  28.628  28.497  1.00  0.00     0.019 A 
ATOM     16  O   UNL A   1      41.264  29.284  28.613  1.00  0.00    -0.475 OA
ATOM     17  C   UNL A   1      39.267  27.366  27.864  1.00  0.00     0.027 C 
ATOM     18  C   UNL A   1      41.597  28.247  27.634  1.00  0.00     0.316 C 
BRANCH   9  19
ATOM     19  N   UNL A   1      37.914  32.351  30.227  1.00  0.00    -0.373 N 
ATOM     20  C   UNL A   1      38.721  33.491  29.814  1.00  0.00     0.143 C 
BRANCH  19  21
ATOM     21  C   UNL A   1      37.313  32.384  31.577  1.00  0.00     0.119 C 
BRANCH  21  22
ATOM     22  C   UNL A   1      36.450  33.639  31.833  1.00  0.00     0.002 C 
ATOM     23  C   UNL A   1      35.182  33.645  30.976  1.00  0.00     0.009 C 
ATOM     24  C   UNL A   1      36.049  33.771  33.306  1.00  0.00     0.009 C 
ENDBRANCH  21  22
ENDBRANCH  19  21
ENDBRANCH   9  19
BRANCH  18  25
ATOM     25  C   UNL A   1      42.040  28.880  26.308  1.00  0.00     0.430 C 
ATOM     26  F   UNL A   1      41.017  28.957  25.424  1.00  0.00    -0.167 F 
ATOM     27  F   UNL A   1      42.482  30.149  26.495  1.00  0.00    -0.167 F 
ATOM     28  F   UNL A   1      43.039  28.191  25.713  1.00  0.00    -0.167 F 
ENDBRANCH  18  25
ENDBRANCH   6   8
ENDBRANCH   5   6
ENDBRANCH   4   5
ENDBRANCH   3   4
ENDBRANCH   2   3
ENDBRANCH   1   2
BRANCH   1  29
ATOM     29  C   UNL A   1      43.633  21.510  25.691  1.00  0.00     0.188 C 
BRANCH  29  30
ATOM     30  O   UNL A   1      43.614  22.636  24.822  1.00  0.00    -0.376 OA
BRANCH  30  31
ATOM     31  C   UNL A   1      44.749  22.895  24.001  1.00  0.00     0.202 C 
BRANCH  31  32
ATOM     32  C   UNL A   1      46.163  22.533  24.487  1.00  0.00     0.261 C 
BRANCH  32  33
ATOM     33  O   UNL A   1      46.657  23.311  25.587  1.00  0.00    -0.460 OA
BRANCH  33  34
ATOM     34  C   UNL A   1      46.998  24.594  25.296  1.00  0.00     0.338 C 
ATOM     35  O   UNL A   1      47.486  25.007  24.257  1.00  0.00    -0.246 OA
BRANCH  34  36
ATOM     36  C   UNL A   1      46.489  25.476  26.368  1.00  0.00     0.060 A 
ATOM     37  C   UNL A   1      47.364  26.249  27.130  1.00  0.00     0.016 A 
ATOM     38  C   UNL A   1      45.108  25.518  26.610  1.00  0.00     0.016 A 
ATOM     39  C   UNL A   1      46.849  27.083  28.127  1.00  0.00     0.010 A 
ATOM     40  C   UNL A   1      44.598  26.335  27.621  1.00  0.00     0.010 A 
ATOM     41  C   UNL A   1      45.464  27.141  28.373  1.00  0.00    -0.014 A 
BRANCH  41  42
ATOM     42  C   UNL A   1      44.922  28.179  29.282  1.00  0.00     0.031 A 
ATOM     43  C   UNL A   1      44.798  29.617  28.875  1.00  0.00     0.074 A 
ATOM     44  C   UNL A   1      44.544  27.794  30.516  1.00  0.00     0.049 A 
ATOM     45  N   UNL A   1      44.240  30.602  29.530  1.00  0.00    -0.248 NA
ATOM     46  C   UNL A   1      45.372  30.006  27.578  1.00  0.00     0.031 C 
ATOM     47  C   UNL A   1      44.683  26.436  31.049  1.00  0.00     0.029 A 
ATOM     48  N   UNL A   1      43.973  28.500  31.543  1.00  0.00    -0.354 N 
ATOM     49  C   UNL A   1      44.388  31.728  28.731  1.00  0.00     0.074 A 
ATOM     50  C   UNL A   1      45.109  31.309  27.547  1.00  0.00     0.031 C 
ATOM     51  C   UNL A   1      44.196  26.405  32.298  1.00  0.00     0.029 A 
ATOM     52  C   UNL A   1      43.720  27.738  32.658  1.00  0.00     0.049 A 
ATOM     53  H   UNL A   1      43.764  29.461  31.488  1.00  0.00     0.167 HD
ATOM     54  C   UNL A   1      43.939  32.985  28.959  1.00  0.00     0.034 A 
ATOM     55  C   UNL A   1      43.156  28.065  33.836  1.00  0.00     0.034 A 
ATOM     56  C   UNL A   1      43.209  33.392  30.133  1.00  0.00     0.049 A 
ATOM     57  C   UNL A   1      42.651  29.461  34.051  1.00  0.00     0.074 A 
ATOM     58  C   UNL A   1      42.655  34.631  30.409  1.00  0.00     0.029 A 
ATOM     59  N   UNL A   1      42.942  32.584  31.226  1.00  0.00    -0.354 N 
ATOM     60  N   UNL A   1      42.661  30.473  33.219  1.00  0.00    -0.248 NA
ATOM     61  C   UNL A   1      42.028  29.755  35.351  1.00  0.00     0.031 C 
ATOM     62  C   UNL A   1      42.067  34.577  31.675  1.00  0.00     0.029 A 
ATOM     63  C   UNL A   1      42.241  33.301  32.181  1.00  0.00     0.049 A 
ATOM     64  H   UNL A   1      43.212  31.641  31.312  1.00  0.00     0.167 HD
ATOM     65  C   UNL A   1      42.030  31.517  33.883  1.00  0.00     0.074 A 
ATOM     66  C   UNL A   1      41.635  31.012  35.182  1.00  0.00     0.031 C 
ATOM     67  C   UNL A   1      41.811  32.782  33.454  1.00  0.00     0.034 A 
BRANCH  54  68
ATOM     68  C   UNL A   1      44.141  34.027  27.892  1.00  0.00     0.023 A 
ATOM     69  C   UNL A   1      43.075  34.317  27.020  1.00  0.00     0.012 A 
ATOM     70  C   UNL A   1      45.302  34.824  27.863  1.00  0.00     0.148 A 
ATOM     71  C   UNL A   1      43.158  35.388  26.132  1.00  0.00     0.002 A 
ATOM     72  C   UNL A   1      45.368  35.906  26.992  1.00  0.00     0.091 A 
ATOM     73  F   UNL A   1      46.303  34.525  28.704  1.00  0.00    -0.205 F 
ATOM     74  C   UNL A   1      44.297  36.189  26.127  1.00  0.00     0.022 A 
BRANCH  72  75
ATOM     75  S   UNL A   1      46.759  37.041  26.945  1.00  0.00     0.127 S 
ATOM     76  O   UNL A   1      46.778  37.541  28.320  1.00  0.00    -0.237 OA
ATOM     77  O   UNL A   1      47.869  36.151  26.605  1.00  0.00    -0.237 OA
ATOM     78  O   UNL A   1      46.435  38.037  25.933  1.00  0.00    -0.744 OA
ENDBRANCH  72  75
ENDBRANCH  54  68
BRANCH  55  79
ATOM     79  C   UNL A   1      42.976  27.012  34.870  1.00  0.00     0.023 A 
ATOM     80  C   UNL A   1      41.811  26.223  34.856  1.00  0.00     0.012 A 
ATOM     81  C   UNL A   1      43.984  26.746  35.816  1.00  0.00     0.148 A 
ATOM     82  C   UNL A   1      41.646  25.190  35.777  1.00  0.00     0.002 A 
ATOM     83  C   UNL A   1      43.832  25.691  36.705  1.00  0.00     0.091 A 
ATOM     84  F   UNL A   1      45.082  27.515  35.804  1.00  0.00    -0.205 F 
ATOM     85  C   UNL A   1      42.660  24.917  36.694  1.00  0.00     0.022 A 
BRANCH  83  86
ATOM     86  S   UNL A   1      45.121  25.199  37.853  1.00  0.00     0.127 S 
ATOM     87  O   UNL A   1      45.216  26.374  38.716  1.00  0.00    -0.237 OA
ATOM     88  O   UNL A   1      44.528  24.018  38.481  1.00  0.00    -0.237 OA
ATOM     89  O   UNL A   1      46.296  24.924  37.037  1.00  0.00    -0.744 OA
ENDBRANCH  83  86
ENDBRANCH  55  79
BRANCH  67  90
ATOM     90  C   UNL A   1      41.106  33.734  34.380  1.00  0.00     0.023 A 
ATOM     91  C   UNL A   1      39.699  33.803  34.356  1.00  0.00     0.012 A 
ATOM     92  C   UNL A   1      41.823  34.456  35.354  1.00  0.00     0.148 A 
ATOM     93  C   UNL A   1      39.015  34.586  35.286  1.00  0.00     0.002 A 
ATOM     94  C   UNL A   1      41.133  35.208  36.298  1.00  0.00     0.091 A 
ATOM     95  F   UNL A   1      43.160  34.377  35.350  1.00  0.00    -0.205 F 
ATOM     96  C   UNL A   1      39.730  35.276  36.263  1.00  0.00     0.022 A 
BRANCH  94  97
ATOM     97  S   UNL A   1      41.956  36.075  37.639  1.00  0.00     0.127 S 
ATOM     98  O   UNL A   1      42.826  36.996  36.907  1.00  0.00    -0.237 OA
ATOM     99  O   UNL A   1      40.835  36.713  38.327  1.00  0.00    -0.237 OA
ATOM    100  O   UNL A   1      42.650  35.056  38.415  1.00  0.00    -0.744 OA
ENDBRANCH  94  97
ENDBRANCH  67  90
ENDBRANCH  41  42
ENDBRANCH  34  36
ENDBRANCH  33  34
ENDBRANCH  32  33
ENDBRANCH  31  32
ENDBRANCH  30  31
ENDBRANCH  29  30
ENDBRANCH   1  29
TORSDOF 24
ENDMDL
MODEL 3
REMARK VINA RESULT:      -7.6      5.368      9.834
REMARK SMILES CC(C)CN(C)c1cc2c(cc1Cl)C=C(C(=O)OCCOCCOCCOC(=O)c1ccc(-c3c4nc(c(-c5cccc(S(=O)(=O)[O-])c5F)c5ccc([nH]5)c(-c5cccc(S(=O)(=O)[O-])c5F)c5nc(c(-c6cccc(S(=O)(=O)[O-])c6F)c6ccc3[nH]6)C=C5)C=C4)cc1)[C@@H](C(F)(F)F)O2
REMARK SMILES IDX 22 1 21 2 20 3 19 4 18 5 16 6 17 7 15 8 7 9 8 10 12 11 9 12
REMARK SMILES IDX 11 13 13 14 10 15 98 16 14 17 93 18 5 19 6 20 4 21 2 22 1 23
REMARK SMILES IDX 3 24 94 25 95 26 96 27 97 28 23 29 24 30 25 31 26 32 27 33
REMARK SMILES IDX 28 34 29 35 30 36 31 37 92 38 32 39 91 40 33 41 34 42 35 43
REMARK SMILES IDX 85 44 36 45 90 46 84 47 86 48 37 49 89 50 83 51 82 52 38 54
REMARK SMILES IDX 70 55 50 56 69 57 51 58 54 59 68 60 87 61 52 62 53 63 67 65
REMARK SMILES IDX 88 66 55 67 39 68 40 69 48 70 41 71 43 72 49 73 42 74 44 75
REMARK SMILES IDX 45 76 46 77 47 78 71 79 72 80 80 81 73 82 75 83 81 84 74 85
REMARK SMILES IDX 76 86 77 87 78 88 79 89 56 90 57 91 65 92 58 93 60 94 66 95
REMARK SMILES IDX 59 96 61 97 62 98 63 99 64 100
REMARK H PARENT 86 53 54 64
REMARK Flexibility Score: inf
ROOT
ATOM      1  C   UNL A   1      33.253  26.760  21.989  1.00  0.00     0.188 C 
ENDROOT
BRANCH   1   2
ATOM      2  O   UNL A   1      31.904  26.448  21.722  1.00  0.00    -0.376 OA
BRANCH   2   3
ATOM      3  C   UNL A   1      30.873  27.091  22.449  1.00  0.00     0.202 C 
BRANCH   3   4
ATOM      4  C   UNL A   1      30.427  26.675  23.865  1.00  0.00     0.261 C 
BRANCH   4   5
ATOM      5  O   UNL A   1      31.285  27.021  24.958  1.00  0.00    -0.460 OA
BRANCH   5   6
ATOM      6  C   UNL A   1      31.139  26.276  26.076  1.00  0.00     0.338 C 
ATOM      7  O   UNL A   1      30.262  26.404  26.918  1.00  0.00    -0.246 OA
BRANCH   6   8
ATOM      8  C   UNL A   1      32.126  25.180  26.087  1.00  0.00     0.087 C 
ATOM      9  C   UNL A   1      35.892  22.076  24.840  1.00  0.00     0.059 A 
ATOM     10  C   UNL A   1      34.890  22.052  25.835  1.00  0.00     0.074 A 
ATOM     11  C   UNL A   1      35.949  23.220  24.014  1.00  0.00     0.065 A 
ATOM     12  C   UNL A   1      33.995  23.120  25.992  1.00  0.00     0.130 A 
ATOM     13  C   UNL A   1      35.138  24.331  24.253  1.00  0.00     0.034 A 
ATOM     14  Cl  UNL A   1      36.913  23.288  22.579  1.00  0.00    -0.082 Cl
ATOM     15  C   UNL A   1      34.153  24.276  25.232  1.00  0.00     0.019 A 
ATOM     16  O   UNL A   1      32.982  22.976  26.907  1.00  0.00    -0.475 OA
ATOM     17  C   UNL A   1      33.245  25.395  25.387  1.00  0.00     0.027 C 
ATOM     18  C   UNL A   1      31.838  23.883  26.798  1.00  0.00     0.316 C 
BRANCH   9  19
ATOM     19  N   UNL A   1      36.752  20.988  24.655  1.00  0.00    -0.373 N 
ATOM     20  C   UNL A   1      36.216  19.681  25.009  1.00  0.00     0.143 C 
BRANCH  19  21
ATOM     21  C   UNL A   1      38.213  21.187  24.763  1.00  0.00     0.119 C 
BRANCH  21  22
ATOM     22  C   UNL A   1      38.654  21.749  26.132  1.00  0.00     0.002 C 
ATOM     23  C   UNL A   1      40.024  21.212  26.555  1.00  0.00     0.009 C 
ATOM     24  C   UNL A   1      38.703  23.280  26.137  1.00  0.00     0.009 C 
ENDBRANCH  21  22
ENDBRANCH  19  21
ENDBRANCH   9  19
BRANCH  18  25
ATOM     25  C   UNL A   1      30.636  23.163  26.171  1.00  0.00     0.430 C 
ATOM     26  F   UNL A   1      29.493  23.406  26.855  1.00  0.00    -0.167 F 
ATOM     27  F   UNL A   1      30.420  23.585  24.900  1.00  0.00    -0.167 F 
ATOM     28  F   UNL A   1      30.802  21.822  26.124  1.00  0.00    -0.167 F 
ENDBRANCH  18  25
ENDBRANCH   6   8
ENDBRANCH   5   6
ENDBRANCH   4   5
ENDBRANCH   3   4
ENDBRANCH   2   3
ENDBRANCH   1   2
BRANCH   1  29
ATOM     29  C   UNL A   1      33.469  28.232  22.402  1.00  0.00     0.188 C 
BRANCH  29  30
ATOM     30  O   UNL A   1      34.085  28.534  23.648  1.00  0.00    -0.376 OA
BRANCH  30  31
ATOM     31  C   UNL A   1      33.373  29.319  24.599  1.00  0.00     0.202 C 
BRANCH  31  32
ATOM     32  C   UNL A   1      33.854  29.406  26.058  1.00  0.00     0.261 C 
BRANCH  32  33
ATOM     33  O   UNL A   1      33.133  30.323  26.894  1.00  0.00    -0.460 OA
BRANCH  33  34
ATOM     34  C   UNL A   1      33.824  31.422  27.297  1.00  0.00     0.338 C 
ATOM     35  O   UNL A   1      33.445  32.580  27.263  1.00  0.00    -0.246 OA
BRANCH  34  36
ATOM     36  C   UNL A   1      35.053  30.982  27.992  1.00  0.00     0.060 A 
ATOM     37  C   UNL A   1      36.167  31.817  28.066  1.00  0.00     0.016 A 
ATOM     38  C   UNL A   1      35.081  29.705  28.571  1.00  0.00     0.016 A 
ATOM     39  C   UNL A   1      37.308  31.377  28.743  1.00  0.00     0.010 A 
ATOM     40  C   UNL A   1      36.229  29.258  29.228  1.00  0.00     0.010 A 
ATOM     41  C   UNL A   1      37.345  30.100  29.337  1.00  0.00    -0.014 A 
BRANCH  41  42
ATOM     42  C   UNL A   1      38.475  29.736  30.224  1.00  0.00     0.031 A 
ATOM     43  C   UNL A   1      39.523  28.741  29.824  1.00  0.00     0.074 A 
ATOM     44  C   UNL A   1      38.535  30.325  31.434  1.00  0.00     0.049 A 
ATOM     45  N   UNL A   1      40.621  28.417  30.458  1.00  0.00    -0.248 NA
ATOM     46  C   UNL A   1      39.320  28.014  28.562  1.00  0.00     0.031 C 
ATOM     47  C   UNL A   1      37.534  31.257  31.961  1.00  0.00     0.029 A 
ATOM     48  N   UNL A   1      39.465  30.232  32.436  1.00  0.00    -0.354 N 
ATOM     49  C   UNL A   1      41.244  27.453  29.677  1.00  0.00     0.074 A 
ATOM     50  C   UNL A   1      40.391  27.227  28.529  1.00  0.00     0.031 C 
ATOM     51  C   UNL A   1      37.913  31.660  33.183  1.00  0.00     0.029 A 
ATOM     52  C   UNL A   1      39.175  31.012  33.529  1.00  0.00     0.049 A 
ATOM     53  H   UNL A   1      40.266  29.661  32.378  1.00  0.00     0.167 HD
ATOM     54  C   UNL A   1      42.431  26.837  29.893  1.00  0.00     0.034 A 
ATOM     55  C   UNL A   1      39.849  31.199  34.680  1.00  0.00     0.034 A 
ATOM     56  C   UNL A   1      43.282  27.077  31.030  1.00  0.00     0.049 A 
ATOM     57  C   UNL A   1      41.171  30.517  34.880  1.00  0.00     0.074 A 
ATOM     58  C   UNL A   1      44.536  26.547  31.287  1.00  0.00     0.029 A 
ATOM     59  N   UNL A   1      42.970  27.898  32.101  1.00  0.00    -0.354 N 
ATOM     60  N   UNL A   1      41.819  29.729  34.058  1.00  0.00    -0.248 NA
ATOM     61  C   UNL A   1      41.871  30.774  36.147  1.00  0.00     0.031 C 
ATOM     62  C   UNL A   1      44.975  27.035  32.521  1.00  0.00     0.029 A 
ATOM     63  C   UNL A   1      44.002  27.881  33.024  1.00  0.00     0.049 A 
ATOM     64  H   UNL A   1      42.138  28.416  32.192  1.00  0.00     0.167 HD
ATOM     65  C   UNL A   1      43.010  29.411  34.697  1.00  0.00     0.074 A 
ATOM     66  C   UNL A   1      43.004  30.103  35.969  1.00  0.00     0.031 C 
ATOM     67  C   UNL A   1      44.010  28.606  34.268  1.00  0.00     0.034 A 
BRANCH  54  68
ATOM     68  C   UNL A   1      42.950  25.887  28.847  1.00  0.00     0.023 A 
ATOM     69  C   UNL A   1      42.343  24.622  28.722  1.00  0.00     0.012 A 
ATOM     70  C   UNL A   1      43.900  26.300  27.893  1.00  0.00     0.148 A 
ATOM     71  C   UNL A   1      42.673  23.780  27.662  1.00  0.00     0.002 A 
ATOM     72  C   UNL A   1      44.205  25.466  26.824  1.00  0.00     0.091 A 
ATOM     73  F   UNL A   1      44.462  27.510  28.036  1.00  0.00    -0.205 F 
ATOM     74  C   UNL A   1      43.593  24.206  26.707  1.00  0.00     0.022 A 
BRANCH  72  75
ATOM     75  S   UNL A   1      45.328  25.938  25.503  1.00  0.00     0.127 S 
ATOM     76  O   UNL A   1      44.701  27.164  25.009  1.00  0.00    -0.237 OA
ATOM     77  O   UNL A   1      46.583  26.143  26.226  1.00  0.00    -0.237 OA
ATOM     78  O   UNL A   1      45.333  24.827  24.561  1.00  0.00    -0.744 OA
ENDBRANCH  72  75
ENDBRANCH  54  68
BRANCH  55  79
ATOM     79  C   UNL A   1      39.306  32.140  35.693  1.00  0.00     0.023 A 
ATOM     80  C   UNL A   1      38.331  31.688  36.602  1.00  0.00     0.012 A 
ATOM     81  C   UNL A   1      39.805  33.452  35.805  1.00  0.00     0.148 A 
ATOM     82  C   UNL A   1      37.850  32.534  37.600  1.00  0.00     0.002 A 
ATOM     83  C   UNL A   1      39.351  34.276  36.826  1.00  0.00     0.091 A 
ATOM     84  F   UNL A   1      40.733  33.853  34.925  1.00  0.00    -0.205 F 
ATOM     85  C   UNL A   1      38.366  33.823  37.719  1.00  0.00     0.022 A 
BRANCH  83  86
ATOM     86  S   UNL A   1      40.027  35.913  37.121  1.00  0.00     0.127 S 
ATOM     87  O   UNL A   1      39.668  36.610  35.888  1.00  0.00    -0.237 OA
ATOM     88  O   UNL A   1      39.282  36.334  38.308  1.00  0.00    -0.237 OA
ATOM     89  O   UNL A   1      41.454  35.719  37.339  1.00  0.00    -0.744 OA
ENDBRANCH  83  86
ENDBRANCH  55  79
BRANCH  67  90
ATOM     90  C   UNL A   1      45.203  28.417  35.165  1.00  0.00     0.023 A 
ATOM     91  C   UNL A   1      46.281  29.320  35.077  1.00  0.00     0.012 A 
ATOM     92  C   UNL A   1      45.199  27.432  36.171  1.00  0.00     0.148 A 
ATOM     93  C   UNL A   1      47.343  29.241  35.978  1.00  0.00     0.002 A 
ATOM     94  C   UNL A   1      46.244  27.379  37.086  1.00  0.00     0.091 A 
ATOM     95  F   UNL A   1      44.165  26.581  36.226  1.00  0.00    -0.205 F 
ATOM     96  C   UNL A   1      47.318  28.281  36.988  1.00  0.00     0.022 A 
BRANCH  94  97
ATOM     97  S   UNL A   1      46.273  26.228  38.464  1.00  0.00     0.127 S 
ATOM     98  O   UNL A   1      46.650  27.103  39.574  1.00  0.00    -0.237 OA
ATOM     99  O   UNL A   1      44.889  25.757  38.502  1.00  0.00    -0.237 OA
ATOM    100  O   UNL A   1      47.256  25.209  38.120  1.00  0.00    -0.744 OA
ENDBRANCH  94  97
ENDBRANCH  67  90
ENDBRANCH  41  42
ENDBRANCH  34  36
ENDBRANCH  33  34
ENDBRANCH  32  33
ENDBRANCH  31  32
ENDBRANCH  30  31
ENDBRANCH  29  30
ENDBRANCH   1  29
TORSDOF 24
ENDMDL
