MODEL 1
REMARK VINA RESULT:      -9.7      0.000      0.000
REMARK SMILES Cn1ccnc1[C@@H]1[C@@H](C(=O)OCCOCCOCCOC(=O)c2ccc(-c3c4nc(c(-c5cccc(S(=O)(=O)[O-])c5F)c5ccc([nH]5)c(-c5cccc(S(=O)(=O)[O-])c5F)c5nc(c(-c6cccc(S(=O)(=O)[O-])c6F)c6ccc3[nH]6)C=C5)C=C4)cc2)CC(=O)N1CCc1ccccc1F
REMARK SMILES IDX 15 1 14 2 13 3 12 4 11 5 9 6 10 7 8 8 7 9 89 10 86 11 87 12
REMARK SMILES IDX 88 13 6 14 1 15 2 16 3 17 4 18 5 19 90 20 91 21 92 22 93 23
REMARK SMILES IDX 97 24 94 25 96 26 98 27 95 28 16 29 17 30 18 31 19 32 20 33
REMARK SMILES IDX 21 34 22 35 23 36 24 37 85 38 25 39 84 40 26 41 27 42 28 43
REMARK SMILES IDX 78 44 29 45 83 46 77 47 79 48 30 49 82 50 76 51 75 52 31 54
REMARK SMILES IDX 63 55 43 56 62 57 44 58 47 59 61 60 80 61 45 62 46 63 60 65
REMARK SMILES IDX 81 66 48 67 32 68 33 69 41 70 34 71 36 72 42 73 35 74 37 75
REMARK SMILES IDX 38 76 39 77 40 78 64 79 65 80 73 81 66 82 68 83 74 84 67 85
REMARK SMILES IDX 69 86 70 87 71 88 72 89 49 90 50 91 58 92 51 93 53 94 59 95
REMARK SMILES IDX 52 96 54 97 55 98 56 99 57 100
REMARK H PARENT 79 53 47 64
REMARK Flexibility Score: inf
ROOT
ATOM      1  C   UNL A   1      39.285  21.909  26.256  1.00  0.00     0.188 C 
ENDROOT
BRANCH   1   2
ATOM      2  O   UNL A   1      38.370  22.571  25.394  1.00  0.00    -0.376 OA
BRANCH   2   3
ATOM      3  C   UNL A   1      37.320  23.368  25.914  1.00  0.00     0.202 C 
BRANCH   3   4
ATOM      4  C   UNL A   1      35.989  23.496  25.153  1.00  0.00     0.261 C 
BRANCH   4   5
ATOM      5  O   UNL A   1      34.777  23.398  25.927  1.00  0.00    -0.463 OA
BRANCH   5   6
ATOM      6  C   UNL A   1      33.653  23.815  25.288  1.00  0.00     0.312 C 
ATOM      7  O   UNL A   1      32.520  23.466  25.597  1.00  0.00    -0.252 OA
BRANCH   6   8
ATOM      8  C   UNL A   1      33.900  24.774  24.140  1.00  0.00     0.139 C 
ATOM      9  C   UNL A   1      32.837  25.846  24.225  1.00  0.00     0.166 C 
ATOM     10  N   UNL A   1      32.774  26.416  22.894  1.00  0.00    -0.331 N 
ATOM     11  C   UNL A   1      33.775  24.306  22.689  1.00  0.00     0.118 C 
ATOM     12  C   UNL A   1      33.243  25.511  21.957  1.00  0.00     0.224 C 
ATOM     13  O   UNL A   1      33.186  25.623  20.744  1.00  0.00    -0.275 OA
BRANCH   9  14
ATOM     14  C   UNL A   1      33.036  26.809  25.344  1.00  0.00     0.132 A 
ATOM     15  C   UNL A   1      30.777  26.712  26.501  1.00  0.00     0.151 C 
ATOM     16  N   UNL A   1      32.141  27.146  26.330  1.00  0.00    -0.336 N 
ATOM     17  C   UNL A   1      32.761  28.045  27.159  1.00  0.00     0.107 A 
ATOM     18  C   UNL A   1      33.974  28.301  26.577  1.00  0.00     0.131 A 
ATOM     19  N   UNL A   1      34.137  27.530  25.466  1.00  0.00    -0.239 NA
ENDBRANCH   9  14
BRANCH  10  20
ATOM     20  C   UNL A   1      31.925  27.545  22.518  1.00  0.00     0.125 C 
BRANCH  20  21
ATOM     21  C   UNL A   1      30.415  27.262  22.645  1.00  0.00     0.060 C 
BRANCH  21  22
ATOM     22  C   UNL A   1      29.574  28.515  22.647  1.00  0.00    -0.010 A 
ATOM     23  C   UNL A   1      30.042  29.701  22.063  1.00  0.00     0.007 A 
ATOM     24  C   UNL A   1      28.259  28.477  23.123  1.00  0.00     0.126 A 
ATOM     25  C   UNL A   1      29.176  30.781  21.872  1.00  0.00     0.000 A 
ATOM     26  C   UNL A   1      27.401  29.559  22.962  1.00  0.00     0.039 A 
ATOM     27  F   UNL A   1      27.791  27.356  23.692  1.00  0.00    -0.207 F 
ATOM     28  C   UNL A   1      27.853  30.705  22.311  1.00  0.00     0.003 A 
ENDBRANCH  21  22
ENDBRANCH  20  21
ENDBRANCH  10  20
ENDBRANCH   6   8
ENDBRANCH   5   6
ENDBRANCH   4   5
ENDBRANCH   3   4
ENDBRANCH   2   3
ENDBRANCH   1   2
BRANCH   1  29
ATOM     29  C   UNL A   1      39.729  20.474  25.939  1.00  0.00     0.188 C 
BRANCH  29  30
ATOM     30  O   UNL A   1      40.659  19.923  26.836  1.00  0.00    -0.376 OA
BRANCH  30  31
ATOM     31  C   UNL A   1      41.929  19.542  26.348  1.00  0.00     0.202 C 
BRANCH  31  32
ATOM     32  C   UNL A   1      42.952  20.569  25.826  1.00  0.00     0.261 C 
BRANCH  32  33
ATOM     33  O   UNL A   1      42.776  21.949  26.186  1.00  0.00    -0.460 OA
BRANCH  33  34
ATOM     34  C   UNL A   1      43.220  22.892  25.324  1.00  0.00     0.338 C 
ATOM     35  O   UNL A   1      43.515  22.723  24.150  1.00  0.00    -0.246 OA
BRANCH  34  36
ATOM     36  C   UNL A   1      43.055  24.217  25.972  1.00  0.00     0.060 A 
ATOM     37  C   UNL A   1      42.825  25.348  25.173  1.00  0.00     0.016 A 
ATOM     38  C   UNL A   1      43.104  24.343  27.362  1.00  0.00     0.016 A 
ATOM     39  C   UNL A   1      42.668  26.608  25.760  1.00  0.00     0.010 A 
ATOM     40  C   UNL A   1      42.972  25.608  27.945  1.00  0.00     0.010 A 
ATOM     41  C   UNL A   1      42.782  26.752  27.148  1.00  0.00    -0.014 A 
BRANCH  41  42
ATOM     42  C   UNL A   1      42.882  28.103  27.760  1.00  0.00     0.031 A 
ATOM     43  C   UNL A   1      44.241  28.740  27.878  1.00  0.00     0.074 A 
ATOM     44  C   UNL A   1      41.799  28.746  28.236  1.00  0.00     0.049 A 
ATOM     45  N   UNL A   1      44.586  29.862  28.452  1.00  0.00    -0.248 NA
ATOM     46  C   UNL A   1      45.362  28.004  27.270  1.00  0.00     0.031 C 
ATOM     47  C   UNL A   1      40.426  28.248  28.180  1.00  0.00     0.029 A 
ATOM     48  N   UNL A   1      41.697  29.946  28.899  1.00  0.00    -0.354 N 
ATOM     49  C   UNL A   1      45.966  29.948  28.315  1.00  0.00     0.074 A 
ATOM     50  C   UNL A   1      46.395  28.763  27.602  1.00  0.00     0.031 C 
ATOM     51  C   UNL A   1      39.623  29.117  28.822  1.00  0.00     0.029 A 
ATOM     52  C   UNL A   1      40.429  30.212  29.360  1.00  0.00     0.049 A 
ATOM     53  H   UNL A   1      42.459  30.557  29.030  1.00  0.00     0.167 HD
ATOM     54  C   UNL A   1      46.804  30.924  28.737  1.00  0.00     0.034 A 
ATOM     55  C   UNL A   1      39.977  31.203  30.156  1.00  0.00     0.034 A 
ATOM     56  C   UNL A   1      46.381  32.107  29.435  1.00  0.00     0.049 A 
ATOM     57  C   UNL A   1      40.934  32.264  30.642  1.00  0.00     0.074 A 
ATOM     58  C   UNL A   1      47.149  33.181  29.849  1.00  0.00     0.029 A 
ATOM     59  N   UNL A   1      45.082  32.364  29.844  1.00  0.00    -0.354 N 
ATOM     60  N   UNL A   1      42.215  32.397  30.399  1.00  0.00    -0.248 NA
ATOM     61  C   UNL A   1      40.375  33.330  31.488  1.00  0.00     0.031 C 
ATOM     62  C   UNL A   1      46.322  34.067  30.548  1.00  0.00     0.029 A 
ATOM     63  C   UNL A   1      45.030  33.568  30.526  1.00  0.00     0.049 A 
ATOM     64  H   UNL A   1      44.310  31.777  29.675  1.00  0.00     0.167 HD
ATOM     65  C   UNL A   1      42.607  33.574  31.030  1.00  0.00     0.074 A 
ATOM     66  C   UNL A   1      41.422  34.129  31.649  1.00  0.00     0.031 C 
ATOM     67  C   UNL A   1      43.838  34.140  31.099  1.00  0.00     0.034 A 
BRANCH  54  68
ATOM     68  C   UNL A   1      48.274  30.755  28.454  1.00  0.00     0.023 A 
ATOM     69  C   UNL A   1      48.829  31.280  27.269  1.00  0.00     0.012 A 
ATOM     70  C   UNL A   1      49.116  30.119  29.389  1.00  0.00     0.148 A 
ATOM     71  C   UNL A   1      50.192  31.144  27.004  1.00  0.00     0.002 A 
ATOM     72  C   UNL A   1      50.479  30.031  29.139  1.00  0.00     0.091 A 
ATOM     73  F   UNL A   1      48.564  29.607  30.498  1.00  0.00    -0.205 F 
ATOM     74  C   UNL A   1      51.017  30.530  27.943  1.00  0.00     0.022 A 
BRANCH  72  75
ATOM     75  S   UNL A   1      51.636  29.334  30.323  1.00  0.00     0.127 S 
ATOM     76  O   UNL A   1      52.679  28.811  29.440  1.00  0.00    -0.237 OA
ATOM     77  O   UNL A   1      52.028  30.511  31.098  1.00  0.00    -0.237 OA
ATOM     78  O   UNL A   1      50.893  28.331  31.072  1.00  0.00    -0.744 OA
ENDBRANCH  72  75
ENDBRANCH  54  68
BRANCH  55  79
ATOM     79  C   UNL A   1      38.538  31.250  30.546  1.00  0.00     0.023 A 
ATOM     80  C   UNL A   1      38.110  30.599  31.719  1.00  0.00     0.012 A 
ATOM     81  C   UNL A   1      37.594  31.939  29.760  1.00  0.00     0.148 A 
ATOM     82  C   UNL A   1      36.763  30.607  32.086  1.00  0.00     0.002 A 
ATOM     83  C   UNL A   1      36.264  31.992  30.161  1.00  0.00     0.091 A 
ATOM     84  F   UNL A   1      38.018  32.536  28.637  1.00  0.00    -0.205 F 
ATOM     85  C   UNL A   1      35.844  31.311  31.315  1.00  0.00     0.022 A 
BRANCH  83  86
ATOM     86  S   UNL A   1      35.031  32.970  29.297  1.00  0.00     0.127 S 
ATOM     87  O   UNL A   1      35.720  34.248  29.139  1.00  0.00    -0.237 OA
ATOM     88  O   UNL A   1      34.858  32.205  28.061  1.00  0.00    -0.237 OA
ATOM     89  O   UNL A   1      33.862  32.987  30.165  1.00  0.00    -0.744 OA
ENDBRANCH  83  86
ENDBRANCH  55  79
BRANCH  67  90
ATOM     90  C   UNL A   1      43.974  35.452  31.830  1.00  0.00     0.023 A 
ATOM     91  C   UNL A   1      44.267  35.469  33.208  1.00  0.00     0.012 A 
ATOM     92  C   UNL A   1      43.888  36.673  31.129  1.00  0.00     0.148 A 
ATOM     93  C   UNL A   1      44.435  36.678  33.884  1.00  0.00     0.002 A 
ATOM     94  C   UNL A   1      44.109  37.871  31.798  1.00  0.00     0.091 A 
ATOM     95  F   UNL A   1      43.594  36.639  29.821  1.00  0.00    -0.205 F 
ATOM     96  C   UNL A   1      44.369  37.877  33.177  1.00  0.00     0.022 A 
BRANCH  94  97
ATOM     97  S   UNL A   1      44.141  39.457  30.952  1.00  0.00     0.127 S 
ATOM     98  O   UNL A   1      43.796  40.378  32.034  1.00  0.00    -0.237 OA
ATOM     99  O   UNL A   1      45.532  39.539  30.503  1.00  0.00    -0.237 OA
ATOM    100  O   UNL A   1      43.162  39.362  29.878  1.00  0.00    -0.744 OA
ENDBRANCH  94  97
ENDBRANCH  67  90
ENDBRANCH  41  42
ENDBRANCH  34  36
ENDBRANCH  33  34
ENDBRANCH  32  33
ENDBRANCH  31  32
ENDBRANCH  30  31
ENDBRANCH  29  30
ENDBRANCH   1  29
TORSDOF 24
ENDMDL
MODEL 2
REMARK VINA RESULT:      -9.6      1.716      2.138
REMARK SMILES Cn1ccnc1[C@@H]1[C@@H](C(=O)OCCOCCOCCOC(=O)c2ccc(-c3c4nc(c(-c5cccc(S(=O)(=O)[O-])c5F)c5ccc([nH]5)c(-c5cccc(S(=O)(=O)[O-])c5F)c5nc(c(-c6cccc(S(=O)(=O)[O-])c6F)c6ccc3[nH]6)C=C5)C=C4)cc2)CC(=O)N1CCc1ccccc1F
REMARK SMILES IDX 15 1 14 2 13 3 12 4 11 5 9 6 10 7 8 8 7 9 89 10 86 11 87 12
REMARK SMILES IDX 88 13 6 14 1 15 2 16 3 17 4 18 5 19 90 20 91 21 92 22 93 23
REMARK SMILES IDX 97 24 94 25 96 26 98 27 95 28 16 29 17 30 18 31 19 32 20 33
REMARK SMILES IDX 21 34 22 35 23 36 24 37 85 38 25 39 84 40 26 41 27 42 28 43
REMARK SMILES IDX 78 44 29 45 83 46 77 47 79 48 30 49 82 50 76 51 75 52 31 54
REMARK SMILES IDX 63 55 43 56 62 57 44 58 47 59 61 60 80 61 45 62 46 63 60 65
REMARK SMILES IDX 81 66 48 67 32 68 33 69 41 70 34 71 36 72 42 73 35 74 37 75
REMARK SMILES IDX 38 76 39 77 40 78 64 79 65 80 73 81 66 82 68 83 74 84 67 85
REMARK SMILES IDX 69 86 70 87 71 88 72 89 49 90 50 91 58 92 51 93 53 94 59 95
REMARK SMILES IDX 52 96 54 97 55 98 56 99 57 100
REMARK H PARENT 79 53 47 64
REMARK Flexibility Score: inf
ROOT
ATOM      1  C   UNL A   1      38.693  22.057  25.804  1.00  0.00     0.188 C 
ENDROOT
BRANCH   1   2
ATOM      2  O   UNL A   1      37.468  22.046  25.084  1.00  0.00    -0.376 OA
BRANCH   2   3
ATOM      3  C   UNL A   1      36.385  21.230  25.494  1.00  0.00     0.202 C 
BRANCH   3   4
ATOM      4  C   UNL A   1      34.938  21.625  25.149  1.00  0.00     0.261 C 
BRANCH   4   5
ATOM      5  O   UNL A   1      34.205  20.742  24.277  1.00  0.00    -0.463 OA
BRANCH   5   6
ATOM      6  C   UNL A   1      33.172  21.321  23.611  1.00  0.00     0.312 C 
ATOM      7  O   UNL A   1      32.182  20.714  23.223  1.00  0.00    -0.252 OA
BRANCH   6   8
ATOM      8  C   UNL A   1      33.328  22.812  23.381  1.00  0.00     0.139 C 
ATOM      9  C   UNL A   1      31.966  23.434  23.593  1.00  0.00     0.166 C 
ATOM     10  N   UNL A   1      32.022  24.702  22.892  1.00  0.00    -0.331 N 
ATOM     11  C   UNL A   1      33.722  23.353  22.006  1.00  0.00     0.118 C 
ATOM     12  C   UNL A   1      32.987  24.665  21.901  1.00  0.00     0.224 C 
ATOM     13  O   UNL A   1      33.182  25.509  21.043  1.00  0.00    -0.275 OA
BRANCH   9  14
ATOM     14  C   UNL A   1      31.542  23.490  25.020  1.00  0.00     0.132 A 
ATOM     15  C   UNL A   1      33.384  24.910  26.040  1.00  0.00     0.151 C 
ATOM     16  N   UNL A   1      32.156  24.156  26.052  1.00  0.00    -0.336 N 
ATOM     17  C   UNL A   1      31.403  23.952  27.180  1.00  0.00     0.107 A 
ATOM     18  C   UNL A   1      30.418  23.078  26.806  1.00  0.00     0.131 A 
ATOM     19  N   UNL A   1      30.507  22.806  25.474  1.00  0.00    -0.239 NA
ENDBRANCH   9  14
BRANCH  10  20
ATOM     20  C   UNL A   1      30.943  25.687  22.881  1.00  0.00     0.125 C 
BRANCH  20  21
ATOM     21  C   UNL A   1      31.175  26.882  23.828  1.00  0.00     0.060 C 
BRANCH  21  22
ATOM     22  C   UNL A   1      30.293  28.067  23.517  1.00  0.00    -0.010 A 
ATOM     23  C   UNL A   1      29.019  27.892  22.955  1.00  0.00     0.007 A 
ATOM     24  C   UNL A   1      30.684  29.353  23.903  1.00  0.00     0.126 A 
ATOM     25  C   UNL A   1      28.131  28.968  22.881  1.00  0.00     0.000 A 
ATOM     26  C   UNL A   1      29.814  30.433  23.804  1.00  0.00     0.039 A 
ATOM     27  F   UNL A   1      31.900  29.545  24.436  1.00  0.00    -0.207 F 
ATOM     28  C   UNL A   1      28.524  30.234  23.316  1.00  0.00     0.003 A 
ENDBRANCH  21  22
ENDBRANCH  20  21
ENDBRANCH  10  20
ENDBRANCH   6   8
ENDBRANCH   5   6
ENDBRANCH   4   5
ENDBRANCH   3   4
ENDBRANCH   2   3
ENDBRANCH   1   2
BRANCH   1  29
ATOM     29  C   UNL A   1      39.436  20.739  26.066  1.00  0.00     0.188 C 
BRANCH  29  30
ATOM     30  O   UNL A   1      40.327  20.760  27.151  1.00  0.00    -0.376 OA
BRANCH  30  31
ATOM     31  C   UNL A   1      41.575  20.112  27.017  1.00  0.00     0.202 C 
BRANCH  31  32
ATOM     32  C   UNL A   1      42.730  20.712  26.192  1.00  0.00     0.261 C 
BRANCH  32  33
ATOM     33  O   UNL A   1      43.196  22.028  26.531  1.00  0.00    -0.460 OA
BRANCH  33  34
ATOM     34  C   UNL A   1      43.238  22.960  25.549  1.00  0.00     0.338 C 
ATOM     35  O   UNL A   1      43.220  22.748  24.346  1.00  0.00    -0.246 OA
BRANCH  34  36
ATOM     36  C   UNL A   1      43.059  24.293  26.177  1.00  0.00     0.060 A 
ATOM     37  C   UNL A   1      42.890  25.420  25.359  1.00  0.00     0.016 A 
ATOM     38  C   UNL A   1      43.037  24.429  27.567  1.00  0.00     0.016 A 
ATOM     39  C   UNL A   1      42.722  26.687  25.927  1.00  0.00     0.010 A 
ATOM     40  C   UNL A   1      42.894  25.701  28.132  1.00  0.00     0.010 A 
ATOM     41  C   UNL A   1      42.765  26.841  27.318  1.00  0.00    -0.014 A 
BRANCH  41  42
ATOM     42  C   UNL A   1      42.853  28.196  27.923  1.00  0.00     0.031 A 
ATOM     43  C   UNL A   1      44.213  28.821  28.090  1.00  0.00     0.074 A 
ATOM     44  C   UNL A   1      41.759  28.853  28.351  1.00  0.00     0.049 A 
ATOM     45  N   UNL A   1      44.546  29.944  28.669  1.00  0.00    -0.248 NA
ATOM     46  C   UNL A   1      45.350  28.070  27.533  1.00  0.00     0.031 C 
ATOM     47  C   UNL A   1      40.385  28.367  28.244  1.00  0.00     0.029 A 
ATOM     48  N   UNL A   1      41.643  30.059  29.001  1.00  0.00    -0.354 N 
ATOM     49  C   UNL A   1      45.931  30.016  28.586  1.00  0.00     0.074 A 
ATOM     50  C   UNL A   1      46.376  28.822  27.900  1.00  0.00     0.031 C 
ATOM     51  C   UNL A   1      39.565  29.249  28.847  1.00  0.00     0.029 A 
ATOM     52  C   UNL A   1      40.360  30.341  29.409  1.00  0.00     0.049 A 
ATOM     53  H   UNL A   1      42.404  30.663  29.157  1.00  0.00     0.167 HD
ATOM     54  C   UNL A   1      46.761  30.987  29.034  1.00  0.00     0.034 A 
ATOM     55  C   UNL A   1      39.886  31.342  30.180  1.00  0.00     0.034 A 
ATOM     56  C   UNL A   1      46.322  32.180  29.706  1.00  0.00     0.049 A 
ATOM     57  C   UNL A   1      40.834  32.397  30.695  1.00  0.00     0.074 A 
ATOM     58  C   UNL A   1      47.084  33.250  30.143  1.00  0.00     0.029 A 
ATOM     59  N   UNL A   1      45.010  32.452  30.061  1.00  0.00    -0.354 N 
ATOM     60  N   UNL A   1      42.124  32.516  30.502  1.00  0.00    -0.248 NA
ATOM     61  C   UNL A   1      40.251  33.475  31.511  1.00  0.00     0.031 C 
ATOM     62  C   UNL A   1      46.238  34.149  30.802  1.00  0.00     0.029 A 
ATOM     63  C   UNL A   1      44.943  33.661  30.732  1.00  0.00     0.049 A 
ATOM     64  H   UNL A   1      44.240  31.871  29.866  1.00  0.00     0.167 HD
ATOM     65  C   UNL A   1      42.502  33.694  31.140  1.00  0.00     0.074 A 
ATOM     66  C   UNL A   1      41.299  34.265  31.707  1.00  0.00     0.031 C 
ATOM     67  C   UNL A   1      43.735  34.249  31.254  1.00  0.00     0.034 A 
BRANCH  54  68
ATOM     68  C   UNL A   1      48.240  30.802  28.811  1.00  0.00     0.023 A 
ATOM     69  C   UNL A   1      48.982  29.964  29.668  1.00  0.00     0.012 A 
ATOM     70  C   UNL A   1      48.883  31.420  27.720  1.00  0.00     0.148 A 
ATOM     71  C   UNL A   1      50.348  29.772  29.463  1.00  0.00     0.002 A 
ATOM     72  C   UNL A   1      50.233  31.184  27.495  1.00  0.00     0.091 A 
ATOM     73  F   UNL A   1      48.164  32.230  26.931  1.00  0.00    -0.205 F 
ATOM     74  C   UNL A   1      50.970  30.373  28.372  1.00  0.00     0.022 A 
BRANCH  72  75
ATOM     75  S   UNL A   1      51.106  31.844  26.070  1.00  0.00     0.127 S 
ATOM     76  O   UNL A   1      52.334  32.347  26.685  1.00  0.00    -0.237 OA
ATOM     77  O   UNL A   1      51.283  30.652  25.241  1.00  0.00    -0.237 OA
ATOM     78  O   UNL A   1      50.234  32.860  25.498  1.00  0.00    -0.744 OA
ENDBRANCH  72  75
ENDBRANCH  54  68
BRANCH  55  79
ATOM     79  C   UNL A   1      38.433  31.405  30.512  1.00  0.00     0.023 A 
ATOM     80  C   UNL A   1      37.949  30.752  31.662  1.00  0.00     0.012 A 
ATOM     81  C   UNL A   1      37.530  32.112  29.694  1.00  0.00     0.148 A 
ATOM     82  C   UNL A   1      36.589  30.775  31.974  1.00  0.00     0.002 A 
ATOM     83  C   UNL A   1      36.187  32.180  30.041  1.00  0.00     0.091 A 
ATOM     84  F   UNL A   1      38.007  32.712  28.593  1.00  0.00    -0.205 F 
ATOM     85  C   UNL A   1      35.711  31.497  31.172  1.00  0.00     0.022 A 
BRANCH  83  86
ATOM     86  S   UNL A   1      35.002  33.180  29.136  1.00  0.00     0.127 S 
ATOM     87  O   UNL A   1      35.756  34.412  28.917  1.00  0.00    -0.237 OA
ATOM     88  O   UNL A   1      34.783  32.370  27.937  1.00  0.00    -0.237 OA
ATOM     89  O   UNL A   1      33.841  33.300  30.005  1.00  0.00    -0.744 OA
ENDBRANCH  83  86
ENDBRANCH  55  79
BRANCH  67  90
ATOM     90  C   UNL A   1      43.855  35.565  31.980  1.00  0.00     0.023 A 
ATOM     91  C   UNL A   1      44.002  35.592  33.381  1.00  0.00     0.012 A 
ATOM     92  C   UNL A   1      43.899  36.778  31.260  1.00  0.00     0.148 A 
ATOM     93  C   UNL A   1      44.154  36.802  34.057  1.00  0.00     0.002 A 
ATOM     94  C   UNL A   1      44.105  37.975  31.935  1.00  0.00     0.091 A 
ATOM     95  F   UNL A   1      43.744  36.735  29.929  1.00  0.00    -0.205 F 
ATOM     96  C   UNL A   1      44.218  37.992  33.333  1.00  0.00     0.022 A 
BRANCH  94  97
ATOM     97  S   UNL A   1      44.300  39.543  31.079  1.00  0.00     0.127 S 
ATOM     98  O   UNL A   1      45.566  39.343  30.376  1.00  0.00    -0.237 OA
ATOM     99  O   UNL A   1      43.120  39.572  30.214  1.00  0.00    -0.237 OA
ATOM    100  O   UNL A   1      44.317  40.569  32.113  1.00  0.00    -0.744 OA
ENDBRANCH  94  97
ENDBRANCH  67  90
ENDBRANCH  41  42
ENDBRANCH  34  36
ENDBRANCH  33  34
ENDBRANCH  32  33
ENDBRANCH  31  32
ENDBRANCH  30  31
ENDBRANCH  29  30
ENDBRANCH   1  29
TORSDOF 24
ENDMDL
MODEL 3
REMARK VINA RESULT:      -9.4      5.371     10.108
REMARK SMILES Cn1ccnc1[C@@H]1[C@@H](C(=O)OCCOCCOCCOC(=O)c2ccc(-c3c4nc(c(-c5cccc(S(=O)(=O)[O-])c5F)c5ccc([nH]5)c(-c5cccc(S(=O)(=O)[O-])c5F)c5nc(c(-c6cccc(S(=O)(=O)[O-])c6F)c6ccc3[nH]6)C=C5)C=C4)cc2)CC(=O)N1CCc1ccccc1F
REMARK SMILES IDX 15 1 14 2 13 3 12 4 11 5 9 6 10 7 8 8 7 9 89 10 86 11 87 12
REMARK SMILES IDX 88 13 6 14 1 15 2 16 3 17 4 18 5 19 90 20 91 21 92 22 93 23
REMARK SMILES IDX 97 24 94 25 96 26 98 27 95 28 16 29 17 30 18 31 19 32 20 33
REMARK SMILES IDX 21 34 22 35 23 36 24 37 85 38 25 39 84 40 26 41 27 42 28 43
REMARK SMILES IDX 78 44 29 45 83 46 77 47 79 48 30 49 82 50 76 51 75 52 31 54
REMARK SMILES IDX 63 55 43 56 62 57 44 58 47 59 61 60 80 61 45 62 46 63 60 65
REMARK SMILES IDX 81 66 48 67 32 68 33 69 41 70 34 71 36 72 42 73 35 74 37 75
REMARK SMILES IDX 38 76 39 77 40 78 64 79 65 80 73 81 66 82 68 83 74 84 67 85
REMARK SMILES IDX 69 86 70 87 71 88 72 89 49 90 50 91 58 92 51 93 53 94 59 95
REMARK SMILES IDX 52 96 54 97 55 98 56 99 57 100
REMARK H PARENT 79 53 47 64
REMARK Flexibility Score: inf
ROOT
ATOM      1  C   UNL A   1      34.564  31.571  27.924  1.00  0.00     0.188 C 
ENDROOT
BRANCH   1   2
ATOM      2  O   UNL A   1      35.160  30.283  27.988  1.00  0.00    -0.376 OA
BRANCH   2   3
ATOM      3  C   UNL A   1      34.832  29.277  27.046  1.00  0.00     0.202 C 
BRANCH   3   4
ATOM      4  C   UNL A   1      33.528  28.471  27.188  1.00  0.00     0.261 C 
BRANCH   4   5
ATOM      5  O   UNL A   1      33.446  27.221  26.475  1.00  0.00    -0.463 OA
BRANCH   5   6
ATOM      6  C   UNL A   1      32.204  26.892  26.035  1.00  0.00     0.312 C 
ATOM      7  O   UNL A   1      31.167  27.282  26.557  1.00  0.00    -0.252 OA
BRANCH   6   8
ATOM      8  C   UNL A   1      32.186  25.991  24.816  1.00  0.00     0.139 C 
ATOM      9  C   UNL A   1      32.632  24.621  25.273  1.00  0.00     0.166 C 
ATOM     10  N   UNL A   1      33.089  23.955  24.069  1.00  0.00    -0.331 N 
ATOM     11  C   UNL A   1      33.118  26.258  23.633  1.00  0.00     0.118 C 
ATOM     12  C   UNL A   1      33.458  24.885  23.113  1.00  0.00     0.224 C 
ATOM     13  O   UNL A   1      34.019  24.658  22.054  1.00  0.00    -0.275 OA
BRANCH   9  14
ATOM     14  C   UNL A   1      31.615  23.892  26.081  1.00  0.00     0.132 A 
ATOM     15  C   UNL A   1      33.085  22.637  27.730  1.00  0.00     0.151 C 
ATOM     16  N   UNL A   1      31.834  23.063  27.154  1.00  0.00    -0.336 N 
ATOM     17  C   UNL A   1      30.610  22.637  27.603  1.00  0.00     0.107 A 
ATOM     18  C   UNL A   1      29.700  23.142  26.712  1.00  0.00     0.131 A 
ATOM     19  N   UNL A   1      30.328  23.919  25.785  1.00  0.00    -0.239 NA
ENDBRANCH   9  14
BRANCH  10  20
ATOM     20  C   UNL A   1      33.551  22.570  24.017  1.00  0.00     0.125 C 
BRANCH  20  21
ATOM     21  C   UNL A   1      32.412  21.531  23.980  1.00  0.00     0.060 C 
BRANCH  21  22
ATOM     22  C   UNL A   1      32.902  20.122  23.744  1.00  0.00    -0.010 A 
ATOM     23  C   UNL A   1      33.778  19.500  24.646  1.00  0.00     0.007 A 
ATOM     24  C   UNL A   1      32.387  19.369  22.683  1.00  0.00     0.126 A 
ATOM     25  C   UNL A   1      34.043  18.132  24.538  1.00  0.00     0.000 A 
ATOM     26  C   UNL A   1      32.671  18.015  22.554  1.00  0.00     0.039 A 
ATOM     27  F   UNL A   1      31.553  19.945  21.804  1.00  0.00    -0.207 F 
ATOM     28  C   UNL A   1      33.481  17.388  23.500  1.00  0.00     0.003 A 
ENDBRANCH  21  22
ENDBRANCH  20  21
ENDBRANCH  10  20
ENDBRANCH   6   8
ENDBRANCH   5   6
ENDBRANCH   4   5
ENDBRANCH   3   4
ENDBRANCH   2   3
ENDBRANCH   1   2
BRANCH   1  29
ATOM     29  C   UNL A   1      35.315  32.787  28.484  1.00  0.00     0.188 C 
BRANCH  29  30
ATOM     30  O   UNL A   1      35.179  33.970  27.740  1.00  0.00    -0.376 OA
BRANCH  30  31
ATOM     31  C   UNL A   1      34.154  34.877  28.089  1.00  0.00     0.202 C 
BRANCH  31  32
ATOM     32  C   UNL A   1      33.170  34.604  29.243  1.00  0.00     0.261 C 
BRANCH  32  33
ATOM     33  O   UNL A   1      33.019  35.606  30.260  1.00  0.00    -0.460 OA
BRANCH  33  34
ATOM     34  C   UNL A   1      33.040  35.208  31.553  1.00  0.00     0.338 C 
ATOM     35  O   UNL A   1      32.096  35.210  32.330  1.00  0.00    -0.246 OA
BRANCH  34  36
ATOM     36  C   UNL A   1      34.339  34.535  31.802  1.00  0.00     0.060 A 
ATOM     37  C   UNL A   1      34.350  33.188  32.195  1.00  0.00     0.016 A 
ATOM     38  C   UNL A   1      35.543  35.221  31.628  1.00  0.00     0.016 A 
ATOM     39  C   UNL A   1      35.562  32.532  32.438  1.00  0.00     0.010 A 
ATOM     40  C   UNL A   1      36.753  34.570  31.895  1.00  0.00     0.010 A 
ATOM     41  C   UNL A   1      36.769  33.231  32.329  1.00  0.00    -0.014 A 
BRANCH  41  42
ATOM     42  C   UNL A   1      38.034  32.635  32.833  1.00  0.00     0.031 A 
ATOM     43  C   UNL A   1      38.685  31.543  32.026  1.00  0.00     0.074 A 
ATOM     44  C   UNL A   1      38.584  33.022  33.999  1.00  0.00     0.049 A 
ATOM     45  N   UNL A   1      39.734  30.815  32.305  1.00  0.00    -0.248 NA
ATOM     46  C   UNL A   1      38.061  31.228  30.730  1.00  0.00     0.031 C 
ATOM     47  C   UNL A   1      38.063  34.069  34.875  1.00  0.00     0.029 A 
ATOM     48  N   UNL A   1      39.688  32.543  34.665  1.00  0.00    -0.354 N 
ATOM     49  C   UNL A   1      39.871  29.927  31.245  1.00  0.00     0.074 A 
ATOM     50  C   UNL A   1      38.798  30.209  30.316  1.00  0.00     0.031 C 
ATOM     51  C   UNL A   1      38.823  34.126  35.984  1.00  0.00     0.029 A 
ATOM     52  C   UNL A   1      39.861  33.099  35.911  1.00  0.00     0.049 A 
ATOM     53  H   UNL A   1      40.296  31.867  34.285  1.00  0.00     0.167 HD
ATOM     54  C   UNL A   1      40.807  28.968  31.055  1.00  0.00     0.034 A 
ATOM     55  C   UNL A   1      40.731  32.789  36.895  1.00  0.00     0.034 A 
ATOM     56  C   UNL A   1      41.881  28.693  31.971  1.00  0.00     0.049 A 
ATOM     57  C   UNL A   1      41.746  31.694  36.674  1.00  0.00     0.074 A 
ATOM     58  C   UNL A   1      42.913  27.781  31.834  1.00  0.00     0.029 A 
ATOM     59  N   UNL A   1      42.051  29.308  33.201  1.00  0.00    -0.354 N 
ATOM     60  N   UNL A   1      41.941  30.947  35.614  1.00  0.00    -0.248 NA
ATOM     61  C   UNL A   1      42.682  31.420  37.776  1.00  0.00     0.031 C 
ATOM     62  C   UNL A   1      43.682  27.813  33.003  1.00  0.00     0.029 A 
ATOM     63  C   UNL A   1      43.157  28.780  33.845  1.00  0.00     0.049 A 
ATOM     64  H   UNL A   1      41.471  30.016  33.563  1.00  0.00     0.167 HD
ATOM     65  C   UNL A   1      43.038  30.142  35.907  1.00  0.00     0.074 A 
ATOM     66  C   UNL A   1      43.480  30.508  37.236  1.00  0.00     0.031 C 
ATOM     67  C   UNL A   1      43.622  29.181  35.149  1.00  0.00     0.034 A 
BRANCH  54  68
ATOM     68  C   UNL A   1      40.712  28.136  29.802  1.00  0.00     0.023 A 
ATOM     69  C   UNL A   1      39.727  27.133  29.695  1.00  0.00     0.012 A 
ATOM     70  C   UNL A   1      41.569  28.385  28.711  1.00  0.00     0.148 A 
ATOM     71  C   UNL A   1      39.619  26.368  28.534  1.00  0.00     0.002 A 
ATOM     72  C   UNL A   1      41.422  27.650  27.541  1.00  0.00     0.091 A 
ATOM     73  F   UNL A   1      42.513  29.327  28.842  1.00  0.00    -0.205 F 
ATOM     74  C   UNL A   1      40.458  26.633  27.455  1.00  0.00     0.022 A 
BRANCH  72  75
ATOM     75  S   UNL A   1      42.397  27.973  26.068  1.00  0.00     0.127 S 
ATOM     76  O   UNL A   1      43.705  27.447  26.460  1.00  0.00    -0.237 OA
ATOM     77  O   UNL A   1      41.699  27.177  25.058  1.00  0.00    -0.237 OA
ATOM     78  O   UNL A   1      42.343  29.412  25.855  1.00  0.00    -0.744 OA
ENDBRANCH  72  75
ENDBRANCH  54  68
BRANCH  55  79
ATOM     79  C   UNL A   1      40.692  33.532  38.188  1.00  0.00     0.023 A 
ATOM     80  C   UNL A   1      39.869  33.072  39.233  1.00  0.00     0.012 A 
ATOM     81  C   UNL A   1      41.469  34.690  38.385  1.00  0.00     0.148 A 
ATOM     82  C   UNL A   1      39.796  33.769  40.441  1.00  0.00     0.002 A 
ATOM     83  C   UNL A   1      41.436  35.347  39.608  1.00  0.00     0.091 A 
ATOM     84  F   UNL A   1      42.231  35.123  37.370  1.00  0.00    -0.205 F 
ATOM     85  C   UNL A   1      40.586  34.898  40.632  1.00  0.00     0.022 A 
BRANCH  83  86
ATOM     86  S   UNL A   1      42.504  36.740  39.988  1.00  0.00     0.127 S 
ATOM     87  O   UNL A   1      43.801  36.259  39.519  1.00  0.00    -0.237 OA
ATOM     88  O   UNL A   1      41.908  37.801  39.176  1.00  0.00    -0.237 OA
ATOM     89  O   UNL A   1      42.390  36.943  41.426  1.00  0.00    -0.744 OA
ENDBRANCH  83  86
ENDBRANCH  55  79
BRANCH  67  90
ATOM     90  C   UNL A   1      44.834  28.477  35.706  1.00  0.00     0.023 A 
ATOM     91  C   UNL A   1      46.120  29.019  35.512  1.00  0.00     0.012 A 
ATOM     92  C   UNL A   1      44.687  27.315  36.492  1.00  0.00     0.148 A 
ATOM     93  C   UNL A   1      47.242  28.397  36.059  1.00  0.00     0.002 A 
ATOM     94  C   UNL A   1      45.804  26.731  37.078  1.00  0.00     0.091 A 
ATOM     95  F   UNL A   1      43.457  26.806  36.654  1.00  0.00    -0.205 F 
ATOM     96  C   UNL A   1      47.083  27.262  36.852  1.00  0.00     0.022 A 
BRANCH  94  97
ATOM     97  S   UNL A   1      45.685  25.327  38.193  1.00  0.00     0.127 S 
ATOM     98  O   UNL A   1      47.094  25.037  38.456  1.00  0.00    -0.237 OA
ATOM     99  O   UNL A   1      44.958  25.894  39.329  1.00  0.00    -0.237 OA
ATOM    100  O   UNL A   1      44.961  24.293  37.466  1.00  0.00    -0.744 OA
ENDBRANCH  94  97
ENDBRANCH  67  90
ENDBRANCH  41  42
ENDBRANCH  34  36
ENDBRANCH  33  34
ENDBRANCH  32  33
ENDBRANCH  31  32
ENDBRANCH  30  31
ENDBRANCH  29  30
ENDBRANCH   1  29
TORSDOF 24
ENDMDL
