MODEL 1
REMARK VINA RESULT:     -10.7      0.000      0.000
REMARK SMILES CC(C)COc1ccc(CC(=O)OCCOCCOCCOC(=O)c2ccc(-c3c4nc(c(-c5cccc(S(=O)(=O)[O-])c5F)c5ccc([nH]5)c(-c5cccc(S(=O)(=O)[O-])c5F)c5nc(c(-c6cccc(S(=O)(=O)[O-])c6F)c6ccc3[nH]6)C=C5)C=C4)cc2)cc1
REMARK SMILES IDX 17 1 16 2 15 3 14 4 13 5 11 6 12 7 10 8 9 9 6 10 7 11 89 12
REMARK SMILES IDX 8 13 88 14 5 15 4 16 2 17 1 18 3 19 18 20 19 21 20 22 21 23
REMARK SMILES IDX 22 24 23 25 24 26 25 27 26 28 87 29 27 30 86 31 28 32 29 33
REMARK SMILES IDX 30 34 80 35 31 36 85 37 79 38 81 39 32 40 84 41 78 42 77 43
REMARK SMILES IDX 33 45 65 46 45 47 64 48 46 49 49 50 63 51 82 52 47 53 48 54
REMARK SMILES IDX 62 56 83 57 50 58 34 59 35 60 43 61 36 62 38 63 44 64 37 65
REMARK SMILES IDX 39 66 40 67 41 68 42 69 66 70 67 71 75 72 68 73 70 74 76 75
REMARK SMILES IDX 69 76 71 77 72 78 73 79 74 80 51 81 52 82 60 83 53 84 55 85
REMARK SMILES IDX 61 86 54 87 56 88 57 89 58 90 59 91
REMARK H PARENT 81 44 49 55
REMARK Flexibility Score: inf
ROOT
ATOM      1  C   UNL A   1      32.324  20.487  24.601  1.00  0.00     0.188 C 
ENDROOT
BRANCH   1   2
ATOM      2  O   UNL A   1      31.525  21.169  25.568  1.00  0.00    -0.376 OA
BRANCH   2   3
ATOM      3  C   UNL A   1      31.281  22.558  25.391  1.00  0.00     0.202 C 
BRANCH   3   4
ATOM      4  C   UNL A   1      32.336  23.481  25.996  1.00  0.00     0.261 C 
BRANCH   4   5
ATOM      5  O   UNL A   1      31.738  24.487  26.833  1.00  0.00    -0.463 OA
BRANCH   5   6
ATOM      6  C   UNL A   1      31.879  25.768  26.421  1.00  0.00     0.310 C 
ATOM      7  O   UNL A   1      32.957  26.346  26.323  1.00  0.00    -0.252 OA
BRANCH   6   8
ATOM      8  C   UNL A   1      30.585  26.436  26.007  1.00  0.00     0.158 C 
BRANCH   8   9
ATOM      9  C   UNL A   1      30.510  27.227  24.715  1.00  0.00    -0.037 A 
ATOM     10  C   UNL A   1      30.229  28.961  22.525  1.00  0.00     0.119 A 
ATOM     11  C   UNL A   1      31.323  29.098  23.371  1.00  0.00     0.047 A 
ATOM     12  C   UNL A   1      29.324  27.917  22.709  1.00  0.00     0.047 A 
ATOM     13  C   UNL A   1      31.455  28.241  24.468  1.00  0.00     0.008 A 
ATOM     14  C   UNL A   1      29.447  27.070  23.814  1.00  0.00     0.008 A 
BRANCH  10  15
ATOM     15  O   UNL A   1      30.002  29.826  21.492  1.00  0.00    -0.493 OA
BRANCH  15  16
ATOM     16  C   UNL A   1      28.652  30.334  21.463  1.00  0.00     0.232 C 
BRANCH  16  17
ATOM     17  C   UNL A   1      28.536  31.690  22.193  1.00  0.00     0.020 C 
ATOM     18  C   UNL A   1      27.970  32.785  21.281  1.00  0.00     0.011 C 
ATOM     19  C   UNL A   1      27.639  31.579  23.428  1.00  0.00     0.011 C 
ENDBRANCH  16  17
ENDBRANCH  15  16
ENDBRANCH  10  15
ENDBRANCH   8   9
ENDBRANCH   6   8
ENDBRANCH   5   6
ENDBRANCH   4   5
ENDBRANCH   3   4
ENDBRANCH   2   3
ENDBRANCH   1   2
BRANCH   1  20
ATOM     20  C   UNL A   1      33.741  20.047  25.001  1.00  0.00     0.188 C 
BRANCH  20  21
ATOM     21  O   UNL A   1      34.173  20.691  26.196  1.00  0.00    -0.376 OA
BRANCH  21  22
ATOM     22  C   UNL A   1      35.357  21.459  26.043  1.00  0.00     0.202 C 
BRANCH  22  23
ATOM     23  C   UNL A   1      36.316  20.749  25.087  1.00  0.00     0.261 C 
BRANCH  23  24
ATOM     24  O   UNL A   1      37.574  21.424  24.906  1.00  0.00    -0.460 OA
BRANCH  24  25
ATOM     25  C   UNL A   1      38.608  21.005  25.669  1.00  0.00     0.338 C 
ATOM     26  O   UNL A   1      39.009  19.863  25.799  1.00  0.00    -0.246 OA
BRANCH  25  27
ATOM     27  C   UNL A   1      39.279  22.200  26.221  1.00  0.00     0.060 A 
ATOM     28  C   UNL A   1      38.763  23.471  25.937  1.00  0.00     0.016 A 
ATOM     29  C   UNL A   1      40.420  22.061  27.014  1.00  0.00     0.016 A 
ATOM     30  C   UNL A   1      39.400  24.611  26.441  1.00  0.00     0.010 A 
ATOM     31  C   UNL A   1      41.059  23.200  27.506  1.00  0.00     0.010 A 
ATOM     32  C   UNL A   1      40.565  24.484  27.211  1.00  0.00    -0.014 A 
BRANCH  32  33
ATOM     33  C   UNL A   1      41.338  25.673  27.651  1.00  0.00     0.031 A 
ATOM     34  C   UNL A   1      40.641  26.751  28.435  1.00  0.00     0.074 A 
ATOM     35  C   UNL A   1      42.624  25.832  27.291  1.00  0.00     0.049 A 
ATOM     36  N   UNL A   1      41.078  27.929  28.794  1.00  0.00    -0.248 NA
ATOM     37  C   UNL A   1      39.263  26.462  28.866  1.00  0.00     0.031 C 
ATOM     38  C   UNL A   1      43.417  24.863  26.537  1.00  0.00     0.029 A 
ATOM     39  N   UNL A   1      43.479  26.893  27.480  1.00  0.00    -0.354 N 
ATOM     40  C   UNL A   1      40.023  28.539  29.461  1.00  0.00     0.074 A 
ATOM     41  C   UNL A   1      38.922  27.599  29.456  1.00  0.00     0.031 C 
ATOM     42  C   UNL A   1      44.630  25.388  26.294  1.00  0.00     0.029 A 
ATOM     43  C   UNL A   1      44.686  26.743  26.838  1.00  0.00     0.049 A 
ATOM     44  H   UNL A   1      43.248  27.681  28.022  1.00  0.00     0.167 HD
ATOM     45  C   UNL A   1      39.975  29.766  30.032  1.00  0.00     0.034 A 
ATOM     46  C   UNL A   1      45.703  27.613  26.673  1.00  0.00     0.034 A 
ATOM     47  C   UNL A   1      41.072  30.696  30.051  1.00  0.00     0.049 A 
ATOM     48  C   UNL A   1      45.606  28.994  27.272  1.00  0.00     0.074 A 
ATOM     49  C   UNL A   1      41.136  31.937  30.658  1.00  0.00     0.029 A 
ATOM     50  N   UNL A   1      42.289  30.497  29.420  1.00  0.00    -0.354 N 
ATOM     51  N   UNL A   1      44.649  29.511  28.004  1.00  0.00    -0.248 NA
ATOM     52  C   UNL A   1      46.737  29.905  27.036  1.00  0.00     0.031 C 
ATOM     53  C   UNL A   1      42.382  32.503  30.368  1.00  0.00     0.029 A 
ATOM     54  C   UNL A   1      43.103  31.603  29.601  1.00  0.00     0.049 A 
ATOM     55  H   UNL A   1      42.539  29.689  28.917  1.00  0.00     0.167 HD
ATOM     56  C   UNL A   1      45.072  30.796  28.335  1.00  0.00     0.074 A 
ATOM     57  C   UNL A   1      46.383  30.969  27.743  1.00  0.00     0.031 C 
ATOM     58  C   UNL A   1      44.425  31.751  29.048  1.00  0.00     0.034 A 
BRANCH  45  59
ATOM     59  C   UNL A   1      38.691  30.169  30.709  1.00  0.00     0.023 A 
ATOM     60  C   UNL A   1      38.481  29.829  32.061  1.00  0.00     0.012 A 
ATOM     61  C   UNL A   1      37.720  30.926  30.026  1.00  0.00     0.148 A 
ATOM     62  C   UNL A   1      37.309  30.209  32.713  1.00  0.00     0.002 A 
ATOM     63  C   UNL A   1      36.572  31.336  30.695  1.00  0.00     0.091 A 
ATOM     64  F   UNL A   1      37.928  31.219  28.735  1.00  0.00    -0.205 F 
ATOM     65  C   UNL A   1      36.361  30.971  32.034  1.00  0.00     0.022 A 
BRANCH  63  66
ATOM     66  S   UNL A   1      35.327  32.379  29.928  1.00  0.00     0.127 S 
ATOM     67  O   UNL A   1      36.108  33.569  29.592  1.00  0.00    -0.237 OA
ATOM     68  O   UNL A   1      34.916  31.576  28.777  1.00  0.00    -0.237 OA
ATOM     69  O   UNL A   1      34.291  32.571  30.933  1.00  0.00    -0.744 OA
ENDBRANCH  63  66
ENDBRANCH  45  59
BRANCH  46  70
ATOM     70  C   UNL A   1      46.918  27.202  25.912  1.00  0.00     0.023 A 
ATOM     71  C   UNL A   1      47.877  26.379  26.530  1.00  0.00     0.012 A 
ATOM     72  C   UNL A   1      47.118  27.608  24.577  1.00  0.00     0.148 A 
ATOM     73  C   UNL A   1      49.024  25.983  25.843  1.00  0.00     0.002 A 
ATOM     74  C   UNL A   1      48.236  27.167  23.880  1.00  0.00     0.091 A 
ATOM     75  F   UNL A   1      46.206  28.412  24.014  1.00  0.00    -0.205 F 
ATOM     76  C   UNL A   1      49.198  26.366  24.515  1.00  0.00     0.022 A 
BRANCH  74  77
ATOM     77  S   UNL A   1      48.485  27.512  22.134  1.00  0.00     0.127 S 
ATOM     78  O   UNL A   1      49.659  28.380  22.166  1.00  0.00    -0.237 OA
ATOM     79  O   UNL A   1      48.724  26.172  21.595  1.00  0.00    -0.237 OA
ATOM     80  O   UNL A   1      47.251  28.134  21.677  1.00  0.00    -0.744 OA
ENDBRANCH  74  77
ENDBRANCH  46  70
BRANCH  58  81
ATOM     81  C   UNL A   1      45.121  33.074  29.250  1.00  0.00     0.023 A 
ATOM     82  C   UNL A   1      45.987  33.244  30.348  1.00  0.00     0.012 A 
ATOM     83  C   UNL A   1      44.989  34.113  28.306  1.00  0.00     0.148 A 
ATOM     84  C   UNL A   1      46.691  34.436  30.518  1.00  0.00     0.002 A 
ATOM     85  C   UNL A   1      45.729  35.280  28.458  1.00  0.00     0.091 A 
ATOM     86  F   UNL A   1      44.149  33.937  27.276  1.00  0.00    -0.205 F 
ATOM     87  C   UNL A   1      46.572  35.448  29.568  1.00  0.00     0.022 A 
BRANCH  85  88
ATOM     88  S   UNL A   1      45.712  36.603  27.240  1.00  0.00     0.127 S 
ATOM     89  O   UNL A   1      44.280  36.767  26.999  1.00  0.00    -0.237 OA
ATOM     90  O   UNL A   1      46.337  37.704  27.972  1.00  0.00    -0.237 OA
ATOM     91  O   UNL A   1      46.483  36.114  26.104  1.00  0.00    -0.744 OA
ENDBRANCH  85  88
ENDBRANCH  58  81
ENDBRANCH  32  33
ENDBRANCH  25  27
ENDBRANCH  24  25
ENDBRANCH  23  24
ENDBRANCH  22  23
ENDBRANCH  21  22
ENDBRANCH  20  21
ENDBRANCH   1  20
TORSDOF 24
ENDMDL
MODEL 2
REMARK VINA RESULT:      -9.7      3.103      8.840
REMARK SMILES CC(C)COc1ccc(CC(=O)OCCOCCOCCOC(=O)c2ccc(-c3c4nc(c(-c5cccc(S(=O)(=O)[O-])c5F)c5ccc([nH]5)c(-c5cccc(S(=O)(=O)[O-])c5F)c5nc(c(-c6cccc(S(=O)(=O)[O-])c6F)c6ccc3[nH]6)C=C5)C=C4)cc2)cc1
REMARK SMILES IDX 17 1 16 2 15 3 14 4 13 5 11 6 12 7 10 8 9 9 6 10 7 11 89 12
REMARK SMILES IDX 8 13 88 14 5 15 4 16 2 17 1 18 3 19 18 20 19 21 20 22 21 23
REMARK SMILES IDX 22 24 23 25 24 26 25 27 26 28 87 29 27 30 86 31 28 32 29 33
REMARK SMILES IDX 30 34 80 35 31 36 85 37 79 38 81 39 32 40 84 41 78 42 77 43
REMARK SMILES IDX 33 45 65 46 45 47 64 48 46 49 49 50 63 51 82 52 47 53 48 54
REMARK SMILES IDX 62 56 83 57 50 58 34 59 35 60 43 61 36 62 38 63 44 64 37 65
REMARK SMILES IDX 39 66 40 67 41 68 42 69 66 70 67 71 75 72 68 73 70 74 76 75
REMARK SMILES IDX 69 76 71 77 72 78 73 79 74 80 51 81 52 82 60 83 53 84 55 85
REMARK SMILES IDX 61 86 54 87 56 88 57 89 58 90 59 91
REMARK H PARENT 81 44 49 55
REMARK Flexibility Score: inf
ROOT
ATOM      1  C   UNL A   1      34.331  25.315  25.482  1.00  0.00     0.188 C 
ENDROOT
BRANCH   1   2
ATOM      2  O   UNL A   1      33.033  25.894  25.629  1.00  0.00    -0.376 OA
BRANCH   2   3
ATOM      3  C   UNL A   1      32.859  27.263  25.292  1.00  0.00     0.202 C 
BRANCH   3   4
ATOM      4  C   UNL A   1      32.235  27.516  23.920  1.00  0.00     0.261 C 
BRANCH   4   5
ATOM      5  O   UNL A   1      31.022  26.763  23.747  1.00  0.00    -0.463 OA
BRANCH   5   6
ATOM      6  C   UNL A   1      31.082  25.723  22.883  1.00  0.00     0.310 C 
ATOM      7  O   UNL A   1      31.643  25.766  21.792  1.00  0.00    -0.252 OA
BRANCH   6   8
ATOM      8  C   UNL A   1      30.456  24.446  23.400  1.00  0.00     0.158 C 
BRANCH   8   9
ATOM      9  C   UNL A   1      31.331  23.299  23.869  1.00  0.00    -0.037 A 
ATOM     10  C   UNL A   1      32.692  20.956  24.603  1.00  0.00     0.119 A 
ATOM     11  C   UNL A   1      32.774  21.414  23.294  1.00  0.00     0.047 A 
ATOM     12  C   UNL A   1      32.010  21.698  25.566  1.00  0.00     0.047 A 
ATOM     13  C   UNL A   1      32.086  22.575  22.927  1.00  0.00     0.008 A 
ATOM     14  C   UNL A   1      31.310  22.850  25.197  1.00  0.00     0.008 A 
BRANCH  10  15
ATOM     15  O   UNL A   1      33.268  19.781  24.995  1.00  0.00    -0.493 OA
BRANCH  15  16
ATOM     16  C   UNL A   1      32.372  18.653  24.911  1.00  0.00     0.232 C 
BRANCH  16  17
ATOM     17  C   UNL A   1      32.892  17.581  23.928  1.00  0.00     0.020 C 
ATOM     18  C   UNL A   1      32.541  17.916  22.474  1.00  0.00     0.011 C 
ATOM     19  C   UNL A   1      34.411  17.424  24.033  1.00  0.00     0.011 C 
ENDBRANCH  16  17
ENDBRANCH  15  16
ENDBRANCH  10  15
ENDBRANCH   8   9
ENDBRANCH   6   8
ENDBRANCH   5   6
ENDBRANCH   4   5
ENDBRANCH   3   4
ENDBRANCH   2   3
ENDBRANCH   1   2
BRANCH   1  20
ATOM     20  C   UNL A   1      34.718  24.723  24.118  1.00  0.00     0.188 C 
BRANCH  20  21
ATOM     21  O   UNL A   1      35.681  23.681  24.252  1.00  0.00    -0.376 OA
BRANCH  21  22
ATOM     22  C   UNL A   1      35.576  22.950  25.464  1.00  0.00     0.202 C 
BRANCH  22  23
ATOM     23  C   UNL A   1      36.830  23.165  26.311  1.00  0.00     0.261 C 
BRANCH  23  24
ATOM     24  O   UNL A   1      38.062  22.874  25.624  1.00  0.00    -0.460 OA
BRANCH  24  25
ATOM     25  C   UNL A   1      39.155  22.671  26.392  1.00  0.00     0.338 C 
ATOM     26  O   UNL A   1      39.717  21.613  26.604  1.00  0.00    -0.246 OA
BRANCH  25  27
ATOM     27  C   UNL A   1      39.656  23.991  26.827  1.00  0.00     0.060 A 
ATOM     28  C   UNL A   1      39.707  24.291  28.194  1.00  0.00     0.016 A 
ATOM     29  C   UNL A   1      40.070  24.931  25.881  1.00  0.00     0.016 A 
ATOM     30  C   UNL A   1      40.164  25.545  28.618  1.00  0.00     0.010 A 
ATOM     31  C   UNL A   1      40.515  26.184  26.306  1.00  0.00     0.010 A 
ATOM     32  C   UNL A   1      40.550  26.508  27.674  1.00  0.00    -0.014 A 
BRANCH  32  33
ATOM     33  C   UNL A   1      40.916  27.889  28.081  1.00  0.00     0.031 A 
ATOM     34  C   UNL A   1      42.368  28.275  28.139  1.00  0.00     0.074 A 
ATOM     35  C   UNL A   1      39.973  28.766  28.470  1.00  0.00     0.049 A 
ATOM     36  N   UNL A   1      42.917  29.369  28.599  1.00  0.00    -0.248 NA
ATOM     37  C   UNL A   1      43.330  27.294  27.612  1.00  0.00     0.031 C 
ATOM     38  C   UNL A   1      38.532  28.518  28.458  1.00  0.00     0.029 A 
ATOM     39  N   UNL A   1      40.093  30.032  28.992  1.00  0.00    -0.354 N 
ATOM     40  C   UNL A   1      44.287  29.197  28.453  1.00  0.00     0.074 A 
ATOM     41  C   UNL A   1      44.487  27.890  27.861  1.00  0.00     0.031 C 
ATOM     42  C   UNL A   1      37.904  29.584  28.985  1.00  0.00     0.029 A 
ATOM     43  C   UNL A   1      38.897  30.568  29.408  1.00  0.00     0.049 A 
ATOM     44  H   UNL A   1      40.952  30.507  29.062  1.00  0.00     0.167 HD
ATOM     45  C   UNL A   1      45.290  30.049  28.775  1.00  0.00     0.034 A 
ATOM     46  C   UNL A   1      38.636  31.703  30.089  1.00  0.00     0.034 A 
ATOM     47  C   UNL A   1      45.093  31.352  29.350  1.00  0.00     0.049 A 
ATOM     48  C   UNL A   1      39.773  32.611  30.485  1.00  0.00     0.074 A 
ATOM     49  C   UNL A   1      46.045  32.310  29.654  1.00  0.00     0.029 A 
ATOM     50  N   UNL A   1      43.866  31.875  29.727  1.00  0.00    -0.354 N 
ATOM     51  N   UNL A   1      41.054  32.491  30.231  1.00  0.00    -0.248 NA
ATOM     52  C   UNL A   1      39.426  33.821  31.248  1.00  0.00     0.031 C 
ATOM     53  C   UNL A   1      45.395  33.400  30.243  1.00  0.00     0.029 A 
ATOM     54  C   UNL A   1      44.037  33.131  30.283  1.00  0.00     0.049 A 
ATOM     55  H   UNL A   1      43.000  31.420  29.615  1.00  0.00     0.167 HD
ATOM     56  C   UNL A   1      41.661  33.617  30.780  1.00  0.00     0.074 A 
ATOM     57  C   UNL A   1      40.603  34.420  31.359  1.00  0.00     0.031 C 
ATOM     58  C   UNL A   1      42.975  33.946  30.817  1.00  0.00     0.034 A 
BRANCH  45  59
ATOM     59  C   UNL A   1      46.700  29.604  28.490  1.00  0.00     0.023 A 
ATOM     60  C   UNL A   1      47.312  29.967  27.274  1.00  0.00     0.012 A 
ATOM     61  C   UNL A   1      47.435  28.875  29.445  1.00  0.00     0.148 A 
ATOM     62  C   UNL A   1      48.623  29.584  26.997  1.00  0.00     0.002 A 
ATOM     63  C   UNL A   1      48.756  28.530  29.179  1.00  0.00     0.091 A 
ATOM     64  F   UNL A   1      46.828  28.519  30.585  1.00  0.00    -0.205 F 
ATOM     65  C   UNL A   1      49.348  28.876  27.953  1.00  0.00     0.022 A 
BRANCH  63  66
ATOM     66  S   UNL A   1      49.793  27.681  30.375  1.00  0.00     0.127 S 
ATOM     67  O   UNL A   1      49.898  28.682  31.435  1.00  0.00    -0.237 OA
ATOM     68  O   UNL A   1      48.979  26.515  30.717  1.00  0.00    -0.237 OA
ATOM     69  O   UNL A   1      51.034  27.370  29.679  1.00  0.00    -0.744 OA
ENDBRANCH  63  66
ENDBRANCH  45  59
BRANCH  46  70
ATOM     70  C   UNL A   1      37.229  32.056  30.434  1.00  0.00     0.023 A 
ATOM     71  C   UNL A   1      36.717  31.704  31.697  1.00  0.00     0.012 A 
ATOM     72  C   UNL A   1      36.404  32.751  29.528  1.00  0.00     0.148 A 
ATOM     73  C   UNL A   1      35.404  32.018  32.046  1.00  0.00     0.002 A 
ATOM     74  C   UNL A   1      35.114  33.109  29.901  1.00  0.00     0.091 A 
ATOM     75  F   UNL A   1      36.901  33.056  28.321  1.00  0.00    -0.205 F 
ATOM     76  C   UNL A   1      34.606  32.731  31.153  1.00  0.00     0.022 A 
BRANCH  74  77
ATOM     77  S   UNL A   1      34.056  34.127  28.865  1.00  0.00     0.127 S 
ATOM     78  O   UNL A   1      33.546  33.149  27.907  1.00  0.00    -0.237 OA
ATOM     79  O   UNL A   1      33.071  34.615  29.831  1.00  0.00    -0.237 OA
ATOM     80  O   UNL A   1      34.922  35.160  28.314  1.00  0.00    -0.744 OA
ENDBRANCH  74  77
ENDBRANCH  46  70
BRANCH  58  81
ATOM     81  C   UNL A   1      43.361  35.239  31.492  1.00  0.00     0.023 A 
ATOM     82  C   UNL A   1      43.593  35.257  32.881  1.00  0.00     0.012 A 
ATOM     83  C   UNL A   1      43.580  36.411  30.739  1.00  0.00     0.148 A 
ATOM     84  C   UNL A   1      44.013  36.425  33.515  1.00  0.00     0.002 A 
ATOM     85  C   UNL A   1      44.043  37.559  31.371  1.00  0.00     0.091 A 
ATOM     86  F   UNL A   1      43.340  36.378  29.421  1.00  0.00    -0.205 F 
ATOM     87  C   UNL A   1      44.250  37.572  32.760  1.00  0.00     0.022 A 
BRANCH  85  88
ATOM     88  S   UNL A   1      44.464  39.058  30.472  1.00  0.00     0.127 S 
ATOM     89  O   UNL A   1      44.756  39.988  31.562  1.00  0.00    -0.237 OA
ATOM     90  O   UNL A   1      45.633  38.637  29.700  1.00  0.00    -0.237 OA
ATOM     91  O   UNL A   1      43.294  39.388  29.669  1.00  0.00    -0.744 OA
ENDBRANCH  85  88
ENDBRANCH  58  81
ENDBRANCH  32  33
ENDBRANCH  25  27
ENDBRANCH  24  25
ENDBRANCH  23  24
ENDBRANCH  22  23
ENDBRANCH  21  22
ENDBRANCH  20  21
ENDBRANCH   1  20
TORSDOF 24
ENDMDL
MODEL 3
REMARK VINA RESULT:      -9.6      6.013     10.766
REMARK SMILES CC(C)COc1ccc(CC(=O)OCCOCCOCCOC(=O)c2ccc(-c3c4nc(c(-c5cccc(S(=O)(=O)[O-])c5F)c5ccc([nH]5)c(-c5cccc(S(=O)(=O)[O-])c5F)c5nc(c(-c6cccc(S(=O)(=O)[O-])c6F)c6ccc3[nH]6)C=C5)C=C4)cc2)cc1
REMARK SMILES IDX 17 1 16 2 15 3 14 4 13 5 11 6 12 7 10 8 9 9 6 10 7 11 89 12
REMARK SMILES IDX 8 13 88 14 5 15 4 16 2 17 1 18 3 19 18 20 19 21 20 22 21 23
REMARK SMILES IDX 22 24 23 25 24 26 25 27 26 28 87 29 27 30 86 31 28 32 29 33
REMARK SMILES IDX 30 34 80 35 31 36 85 37 79 38 81 39 32 40 84 41 78 42 77 43
REMARK SMILES IDX 33 45 65 46 45 47 64 48 46 49 49 50 63 51 82 52 47 53 48 54
REMARK SMILES IDX 62 56 83 57 50 58 34 59 35 60 43 61 36 62 38 63 44 64 37 65
REMARK SMILES IDX 39 66 40 67 41 68 42 69 66 70 67 71 75 72 68 73 70 74 76 75
REMARK SMILES IDX 69 76 71 77 72 78 73 79 74 80 51 81 52 82 60 83 53 84 55 85
REMARK SMILES IDX 61 86 54 87 56 88 57 89 58 90 59 91
REMARK H PARENT 81 44 49 55
REMARK Flexibility Score: inf
ROOT
ATOM      1  C   UNL A   1      32.910  36.101  30.264  1.00  0.00     0.188 C 
ENDROOT
BRANCH   1   2
ATOM      2  O   UNL A   1      32.837  37.393  30.868  1.00  0.00    -0.376 OA
BRANCH   2   3
ATOM      3  C   UNL A   1      33.651  37.659  32.003  1.00  0.00     0.202 C 
BRANCH   3   4
ATOM      4  C   UNL A   1      33.437  36.717  33.186  1.00  0.00     0.261 C 
BRANCH   4   5
ATOM      5  O   UNL A   1      34.675  36.124  33.618  1.00  0.00    -0.463 OA
BRANCH   5   6
ATOM      6  C   UNL A   1      34.678  34.778  33.753  1.00  0.00     0.310 C 
ATOM      7  O   UNL A   1      33.887  34.027  33.189  1.00  0.00    -0.252 OA
BRANCH   6   8
ATOM      8  C   UNL A   1      35.801  34.240  34.612  1.00  0.00     0.158 C 
BRANCH   8   9
ATOM      9  C   UNL A   1      37.216  34.172  34.070  1.00  0.00    -0.037 A 
ATOM     10  C   UNL A   1      39.821  34.410  33.050  1.00  0.00     0.119 A 
ATOM     11  C   UNL A   1      39.598  34.599  34.409  1.00  0.00     0.047 A 
ATOM     12  C   UNL A   1      38.777  34.021  32.213  1.00  0.00     0.047 A 
ATOM     13  C   UNL A   1      38.298  34.491  34.913  1.00  0.00     0.008 A 
ATOM     14  C   UNL A   1      37.475  33.928  32.714  1.00  0.00     0.008 A 
BRANCH  10  15
ATOM     15  O   UNL A   1      41.054  34.591  32.489  1.00  0.00    -0.493 OA
BRANCH  15  16
ATOM     16  C   UNL A   1      41.084  34.297  31.077  1.00  0.00     0.232 C 
BRANCH  16  17
ATOM     17  C   UNL A   1      42.528  34.139  30.556  1.00  0.00     0.020 C 
ATOM     18  C   UNL A   1      42.805  32.717  30.053  1.00  0.00     0.011 C 
ATOM     19  C   UNL A   1      42.815  35.118  29.415  1.00  0.00     0.011 C 
ENDBRANCH  16  17
ENDBRANCH  15  16
ENDBRANCH  10  15
ENDBRANCH   8   9
ENDBRANCH   6   8
ENDBRANCH   5   6
ENDBRANCH   4   5
ENDBRANCH   3   4
ENDBRANCH   2   3
ENDBRANCH   1   2
BRANCH   1  20
ATOM     20  C   UNL A   1      33.478  35.988  28.842  1.00  0.00     0.188 C 
BRANCH  20  21
ATOM     21  O   UNL A   1      34.484  34.982  28.757  1.00  0.00    -0.376 OA
BRANCH  21  22
ATOM     22  C   UNL A   1      34.057  33.791  28.114  1.00  0.00     0.202 C 
BRANCH  22  23
ATOM     23  C   UNL A   1      35.265  32.908  27.800  1.00  0.00     0.261 C 
BRANCH  23  24
ATOM     24  O   UNL A   1      35.306  31.679  28.548  1.00  0.00    -0.460 OA
BRANCH  24  25
ATOM     25  C   UNL A   1      35.491  31.783  29.883  1.00  0.00     0.338 C 
ATOM     26  O   UNL A   1      34.680  32.159  30.710  1.00  0.00    -0.246 OA
BRANCH  25  27
ATOM     27  C   UNL A   1      36.818  31.218  30.203  1.00  0.00     0.060 A 
ATOM     28  C   UNL A   1      37.955  31.731  29.567  1.00  0.00     0.016 A 
ATOM     29  C   UNL A   1      36.934  30.179  31.129  1.00  0.00     0.016 A 
ATOM     30  C   UNL A   1      39.216  31.192  29.849  1.00  0.00     0.010 A 
ATOM     31  C   UNL A   1      38.191  29.636  31.401  1.00  0.00     0.010 A 
ATOM     32  C   UNL A   1      39.339  30.126  30.752  1.00  0.00    -0.014 A 
BRANCH  32  33
ATOM     33  C   UNL A   1      40.641  29.446  30.977  1.00  0.00     0.031 A 
ATOM     34  C   UNL A   1      41.565  29.967  32.043  1.00  0.00     0.074 A 
ATOM     35  C   UNL A   1      41.031  28.426  30.191  1.00  0.00     0.049 A 
ATOM     36  N   UNL A   1      42.796  29.622  32.313  1.00  0.00    -0.248 NA
ATOM     37  C   UNL A   1      41.029  31.022  32.918  1.00  0.00     0.031 C 
ATOM     38  C   UNL A   1      40.230  27.825  29.126  1.00  0.00     0.029 A 
ATOM     39  N   UNL A   1      42.224  27.744  30.142  1.00  0.00    -0.354 N 
ATOM     40  C   UNL A   1      43.199  30.439  33.362  1.00  0.00     0.074 A 
ATOM     41  C   UNL A   1      42.078  31.299  33.680  1.00  0.00     0.031 C 
ATOM     42  C   UNL A   1      40.966  26.888  28.504  1.00  0.00     0.029 A 
ATOM     43  C   UNL A   1      42.301  26.852  29.098  1.00  0.00     0.049 A 
ATOM     44  H   UNL A   1      42.950  27.881  30.792  1.00  0.00     0.167 HD
ATOM     45  C   UNL A   1      44.388  30.468  34.008  1.00  0.00     0.034 A 
ATOM     46  C   UNL A   1      43.341  26.121  28.646  1.00  0.00     0.034 A 
ATOM     47  C   UNL A   1      45.498  29.605  33.703  1.00  0.00     0.049 A 
ATOM     48  C   UNL A   1      44.673  26.210  29.349  1.00  0.00     0.074 A 
ATOM     49  C   UNL A   1      46.722  29.521  34.343  1.00  0.00     0.029 A 
ATOM     50  N   UNL A   1      45.529  28.693  32.661  1.00  0.00    -0.354 N 
ATOM     51  N   UNL A   1      45.000  26.898  30.415  1.00  0.00    -0.248 NA
ATOM     52  C   UNL A   1      45.774  25.408  28.793  1.00  0.00     0.031 C 
ATOM     53  C   UNL A   1      47.505  28.578  33.668  1.00  0.00     0.029 A 
ATOM     54  C   UNL A   1      46.759  28.058  32.624  1.00  0.00     0.049 A 
ATOM     55  H   UNL A   1      44.786  28.521  32.039  1.00  0.00     0.167 HD
ATOM     56  C   UNL A   1      46.335  26.594  30.672  1.00  0.00     0.074 A 
ATOM     57  C   UNL A   1      46.747  25.641  29.663  1.00  0.00     0.031 C 
ATOM     58  C   UNL A   1      47.149  27.075  31.644  1.00  0.00     0.034 A 
BRANCH  45  59
ATOM     59  C   UNL A   1      44.546  31.457  35.132  1.00  0.00     0.023 A 
ATOM     60  C   UNL A   1      45.011  32.758  34.854  1.00  0.00     0.012 A 
ATOM     61  C   UNL A   1      44.186  31.118  36.451  1.00  0.00     0.148 A 
ATOM     62  C   UNL A   1      45.146  33.697  35.876  1.00  0.00     0.002 A 
ATOM     63  C   UNL A   1      44.285  32.071  37.458  1.00  0.00     0.091 A 
ATOM     64  F   UNL A   1      43.768  29.869  36.699  1.00  0.00    -0.205 F 
ATOM     65  C   UNL A   1      44.773  33.357  37.174  1.00  0.00     0.022 A 
BRANCH  63  66
ATOM     66  S   UNL A   1      43.763  31.752  39.146  1.00  0.00     0.127 S 
ATOM     67  O   UNL A   1      44.479  30.513  39.445  1.00  0.00    -0.237 OA
ATOM     68  O   UNL A   1      44.262  32.931  39.854  1.00  0.00    -0.237 OA
ATOM     69  O   UNL A   1      42.311  31.642  39.102  1.00  0.00    -0.744 OA
ENDBRANCH  63  66
ENDBRANCH  45  59
BRANCH  46  70
ATOM     70  C   UNL A   1      43.164  25.226  27.468  1.00  0.00     0.023 A 
ATOM     71  C   UNL A   1      43.601  25.655  26.200  1.00  0.00     0.012 A 
ATOM     72  C   UNL A   1      42.583  23.949  27.598  1.00  0.00     0.148 A 
ATOM     73  C   UNL A   1      43.445  24.840  25.080  1.00  0.00     0.002 A 
ATOM     74  C   UNL A   1      42.479  23.119  26.488  1.00  0.00     0.091 A 
ATOM     75  F   UNL A   1      42.151  23.567  28.808  1.00  0.00    -0.205 F 
ATOM     76  C   UNL A   1      42.896  23.568  25.225  1.00  0.00     0.022 A 
BRANCH  74  77
ATOM     77  S   UNL A   1      41.895  21.424  26.599  1.00  0.00     0.127 S 
ATOM     78  O   UNL A   1      42.631  20.782  25.513  1.00  0.00    -0.237 OA
ATOM     79  O   UNL A   1      42.327  21.045  27.945  1.00  0.00    -0.237 OA
ATOM     80  O   UNL A   1      40.450  21.494  26.429  1.00  0.00    -0.744 OA
ENDBRANCH  74  77
ENDBRANCH  46  70
BRANCH  58  81
ATOM     81  C   UNL A   1      48.571  26.575  31.686  1.00  0.00     0.023 A 
ATOM     82  C   UNL A   1      49.580  27.289  31.010  1.00  0.00     0.012 A 
ATOM     83  C   UNL A   1      48.920  25.453  32.465  1.00  0.00     0.148 A 
ATOM     84  C   UNL A   1      50.911  26.881  31.089  1.00  0.00     0.002 A 
ATOM     85  C   UNL A   1      50.255  25.080  32.576  1.00  0.00     0.091 A 
ATOM     86  F   UNL A   1      47.944  24.778  33.088  1.00  0.00    -0.205 F 
ATOM     87  C   UNL A   1      51.250  25.786  31.881  1.00  0.00     0.022 A 
BRANCH  85  88
ATOM     88  S   UNL A   1      50.801  23.740  33.643  1.00  0.00     0.127 S 
ATOM     89  O   UNL A   1      50.224  24.129  34.929  1.00  0.00    -0.237 OA
ATOM     90  O   UNL A   1      50.174  22.574  33.021  1.00  0.00    -0.237 OA
ATOM     91  O   UNL A   1      52.258  23.748  33.586  1.00  0.00    -0.744 OA
ENDBRANCH  85  88
ENDBRANCH  58  81
ENDBRANCH  32  33
ENDBRANCH  25  27
ENDBRANCH  24  25
ENDBRANCH  23  24
ENDBRANCH  22  23
ENDBRANCH  21  22
ENDBRANCH  20  21
ENDBRANCH   1  20
TORSDOF 24
ENDMDL
