MODEL 1
REMARK VINA RESULT:     -11.2      0.000      0.000
REMARK SMILES Cc1cc(Cl)cc2c1O[C@H](C(F)(F)F)C(C(=O)OCCOCCOCCOC(=O)c1ccc(-c3c4nc(c(-c5cccc(S(=O)(=O)[O-])c5F)c5ccc([nH]5)c(-c5cccc(S(=O)(=O)[O-])c5F)c5nc(c(-c6cccc(S(=O)(=O)[O-])c6F)c6ccc3[nH]6)C=C5)C=C4)cc1)=C2
REMARK SMILES IDX 23 1 22 2 21 3 20 4 19 5 18 6 16 7 17 8 15 9 1 10 2 11 3 12
REMARK SMILES IDX 8 13 4 14 7 15 9 16 5 17 6 18 93 19 10 20 11 21 12 22 13 23
REMARK SMILES IDX 14 24 24 25 25 26 26 27 27 28 28 29 29 30 30 31 31 32 92 33
REMARK SMILES IDX 32 34 91 35 33 36 34 37 35 38 85 39 36 40 90 41 84 42 86 43
REMARK SMILES IDX 37 44 89 45 83 46 82 47 38 49 70 50 50 51 69 52 51 53 54 54
REMARK SMILES IDX 68 55 87 56 52 57 53 58 67 60 88 61 55 62 39 63 40 64 48 65
REMARK SMILES IDX 41 66 43 67 49 68 42 69 44 70 45 71 46 72 47 73 71 74 72 75
REMARK SMILES IDX 80 76 73 77 75 78 81 79 74 80 76 81 77 82 78 83 79 84 56 85
REMARK SMILES IDX 57 86 65 87 58 88 60 89 66 90 59 91 61 92 62 93 63 94 64 95
REMARK H PARENT 86 48 54 59
REMARK Flexibility Score: inf
ROOT
ATOM      1  C   UNL A   1      32.356  28.864  24.388  1.00  0.00     0.188 C 
ENDROOT
BRANCH   1   2
ATOM      2  C   UNL A   1      31.771  28.302  23.073  1.00  0.00     0.188 C 
BRANCH   2   3
ATOM      3  O   UNL A   1      31.053  27.104  23.253  1.00  0.00    -0.376 OA
BRANCH   3   4
ATOM      4  C   UNL A   1      31.600  26.037  24.001  1.00  0.00     0.202 C 
BRANCH   4   5
ATOM      5  C   UNL A   1      30.765  25.027  24.809  1.00  0.00     0.261 C 
BRANCH   5   6
ATOM      6  O   UNL A   1      30.874  23.647  24.452  1.00  0.00    -0.460 OA
BRANCH   6   7
ATOM      7  C   UNL A   1      31.029  22.771  25.471  1.00  0.00     0.338 C 
ATOM      8  O   UNL A   1      30.259  22.581  26.396  1.00  0.00    -0.246 OA
BRANCH   7   9
ATOM      9  C   UNL A   1      32.264  21.993  25.244  1.00  0.00     0.087 C 
ATOM     10  C   UNL A   1      37.117  20.297  25.050  1.00  0.00     0.048 C 
ATOM     11  C   UNL A   1      35.750  19.721  24.800  1.00  0.00    -0.007 A 
ATOM     12  C   UNL A   1      35.633  18.346  24.549  1.00  0.00     0.027 A 
ATOM     13  C   UNL A   1      34.583  20.499  24.900  1.00  0.00     0.131 A 
ATOM     14  C   UNL A   1      34.378  17.766  24.373  1.00  0.00     0.042 A 
ATOM     15  C   UNL A   1      33.323  19.905  24.755  1.00  0.00     0.019 A 
ATOM     16  O   UNL A   1      34.753  21.831  25.152  1.00  0.00    -0.475 OA
ATOM     17  Cl  UNL A   1      34.256  16.078  24.067  1.00  0.00    -0.084 Cl
ATOM     18  C   UNL A   1      33.223  18.538  24.471  1.00  0.00     0.032 A 
ATOM     19  C   UNL A   1      32.117  20.695  24.952  1.00  0.00     0.027 C 
ATOM     20  C   UNL A   1      33.594  22.688  25.329  1.00  0.00     0.316 C 
BRANCH  20  21
ATOM     21  C   UNL A   1      33.778  23.453  26.647  1.00  0.00     0.430 C 
ATOM     22  F   UNL A   1      33.494  24.770  26.494  1.00  0.00    -0.167 F 
ATOM     23  F   UNL A   1      32.954  22.996  27.620  1.00  0.00    -0.167 F 
ATOM     24  F   UNL A   1      35.044  23.367  27.115  1.00  0.00    -0.167 F 
ENDBRANCH  20  21
ENDBRANCH   7   9
ENDBRANCH   6   7
ENDBRANCH   5   6
ENDBRANCH   4   5
ENDBRANCH   3   4
ENDBRANCH   2   3
ENDBRANCH   1   2
BRANCH   1  25
ATOM     25  O   UNL A   1      31.484  29.351  25.402  1.00  0.00    -0.376 OA
BRANCH  25  26
ATOM     26  C   UNL A   1      31.249  30.753  25.496  1.00  0.00     0.202 C 
BRANCH  26  27
ATOM     27  C   UNL A   1      31.708  31.518  26.747  1.00  0.00     0.261 C 
BRANCH  27  28
ATOM     28  O   UNL A   1      33.012  31.161  27.229  1.00  0.00    -0.460 OA
BRANCH  28  29
ATOM     29  C   UNL A   1      33.799  32.202  27.598  1.00  0.00     0.338 C 
ATOM     30  O   UNL A   1      33.475  33.373  27.702  1.00  0.00    -0.246 OA
BRANCH  29  31
ATOM     31  C   UNL A   1      35.104  31.690  28.062  1.00  0.00     0.060 A 
ATOM     32  C   UNL A   1      35.190  30.340  28.429  1.00  0.00     0.016 A 
ATOM     33  C   UNL A   1      36.212  32.530  28.180  1.00  0.00     0.016 A 
ATOM     34  C   UNL A   1      36.384  29.826  28.933  1.00  0.00     0.010 A 
ATOM     35  C   UNL A   1      37.400  32.022  28.714  1.00  0.00     0.010 A 
ATOM     36  C   UNL A   1      37.481  30.676  29.118  1.00  0.00    -0.014 A 
BRANCH  36  37
ATOM     37  C   UNL A   1      38.643  30.203  29.906  1.00  0.00     0.031 A 
ATOM     38  C   UNL A   1      39.526  29.140  29.311  1.00  0.00     0.074 A 
ATOM     39  C   UNL A   1      38.919  30.714  31.119  1.00  0.00     0.049 A 
ATOM     40  N   UNL A   1      40.586  28.569  29.816  1.00  0.00    -0.248 NA
ATOM     41  C   UNL A   1      39.164  28.661  27.965  1.00  0.00     0.031 C 
ATOM     42  C   UNL A   1      38.151  31.761  31.790  1.00  0.00     0.029 A 
ATOM     43  N   UNL A   1      39.918  30.404  32.008  1.00  0.00    -0.354 N 
ATOM     44  C   UNL A   1      41.015  27.659  28.858  1.00  0.00     0.074 A 
ATOM     45  C   UNL A   1      40.090  27.739  27.749  1.00  0.00     0.031 C 
ATOM     46  C   UNL A   1      38.695  31.993  32.997  1.00  0.00     0.029 A 
ATOM     47  C   UNL A   1      39.836  31.098  33.193  1.00  0.00     0.049 A 
ATOM     48  H   UNL A   1      40.626  29.748  31.816  1.00  0.00     0.167 HD
ATOM     49  C   UNL A   1      42.096  26.845  28.887  1.00  0.00     0.034 A 
ATOM     50  C   UNL A   1      40.587  31.007  34.310  1.00  0.00     0.034 A 
ATOM     51  C   UNL A   1      43.017  26.768  29.987  1.00  0.00     0.049 A 
ATOM     52  C   UNL A   1      41.749  30.044  34.342  1.00  0.00     0.074 A 
ATOM     53  C   UNL A   1      44.151  25.986  30.101  1.00  0.00     0.029 A 
ATOM     54  N   UNL A   1      42.907  27.490  31.165  1.00  0.00    -0.354 N 
ATOM     55  N   UNL A   1      42.205  29.267  33.389  1.00  0.00    -0.248 NA
ATOM     56  C   UNL A   1      42.516  29.964  35.596  1.00  0.00     0.031 C 
ATOM     57  C   UNL A   1      44.716  26.218  31.358  1.00  0.00     0.029 A 
ATOM     58  C   UNL A   1      43.946  27.163  32.017  1.00  0.00     0.049 A 
ATOM     59  H   UNL A   1      42.195  28.141  31.364  1.00  0.00     0.167 HD
ATOM     60  C   UNL A   1      43.327  28.632  33.915  1.00  0.00     0.074 A 
ATOM     61  C   UNL A   1      43.494  29.131  35.264  1.00  0.00     0.031 C 
ATOM     62  C   UNL A   1      44.134  27.707  33.338  1.00  0.00     0.034 A 
BRANCH  49  63
ATOM     63  C   UNL A   1      42.367  25.998  27.675  1.00  0.00     0.023 A 
ATOM     64  C   UNL A   1      43.165  26.517  26.636  1.00  0.00     0.012 A 
ATOM     65  C   UNL A   1      41.907  24.669  27.598  1.00  0.00     0.148 A 
ATOM     66  C   UNL A   1      43.486  25.735  25.529  1.00  0.00     0.002 A 
ATOM     67  C   UNL A   1      42.265  23.881  26.511  1.00  0.00     0.091 A 
ATOM     68  F   UNL A   1      41.130  24.203  28.586  1.00  0.00    -0.205 F 
ATOM     69  C   UNL A   1      43.046  24.414  25.472  1.00  0.00     0.022 A 
BRANCH  67  70
ATOM     70  S   UNL A   1      41.817  22.147  26.378  1.00  0.00     0.127 S 
ATOM     71  O   UNL A   1      42.198  21.643  27.698  1.00  0.00    -0.237 OA
ATOM     72  O   UNL A   1      40.374  22.220  26.147  1.00  0.00    -0.237 OA
ATOM     73  O   UNL A   1      42.588  21.615  25.263  1.00  0.00    -0.744 OA
ENDBRANCH  67  70
ENDBRANCH  49  63
BRANCH  50  74
ATOM     74  C   UNL A   1      40.295  31.888  35.476  1.00  0.00     0.023 A 
ATOM     75  C   UNL A   1      41.093  33.028  35.697  1.00  0.00     0.012 A 
ATOM     76  C   UNL A   1      39.222  31.623  36.350  1.00  0.00     0.148 A 
ATOM     77  C   UNL A   1      40.841  33.875  36.777  1.00  0.00     0.002 A 
ATOM     78  C   UNL A   1      38.943  32.500  37.393  1.00  0.00     0.091 A 
ATOM     79  F   UNL A   1      38.487  30.522  36.138  1.00  0.00    -0.205 F 
ATOM     80  C   UNL A   1      39.762  33.619  37.617  1.00  0.00     0.022 A 
BRANCH  78  81
ATOM     81  S   UNL A   1      37.500  32.321  38.448  1.00  0.00     0.127 S 
ATOM     82  O   UNL A   1      36.453  32.925  37.629  1.00  0.00    -0.237 OA
ATOM     83  O   UNL A   1      37.412  30.868  38.591  1.00  0.00    -0.237 OA
ATOM     84  O   UNL A   1      37.824  33.027  39.680  1.00  0.00    -0.744 OA
ENDBRANCH  78  81
ENDBRANCH  50  74
BRANCH  62  85
ATOM     85  C   UNL A   1      45.288  27.166  34.143  1.00  0.00     0.023 A 
ATOM     86  C   UNL A   1      46.501  27.881  34.184  1.00  0.00     0.012 A 
ATOM     87  C   UNL A   1      45.130  26.025  34.958  1.00  0.00     0.148 A 
ATOM     88  C   UNL A   1      47.545  27.462  35.009  1.00  0.00     0.002 A 
ATOM     89  C   UNL A   1      46.157  25.643  35.815  1.00  0.00     0.091 A 
ATOM     90  F   UNL A   1      43.973  25.350  34.895  1.00  0.00    -0.205 F 
ATOM     91  C   UNL A   1      47.367  26.353  35.835  1.00  0.00     0.022 A 
BRANCH  89  92
ATOM     92  S   UNL A   1      45.982  24.294  36.991  1.00  0.00     0.127 S 
ATOM     93  O   UNL A   1      45.191  24.921  38.048  1.00  0.00    -0.237 OA
ATOM     94  O   UNL A   1      45.266  23.289  36.206  1.00  0.00    -0.237 OA
ATOM     95  O   UNL A   1      47.336  23.913  37.369  1.00  0.00    -0.744 OA
ENDBRANCH  89  92
ENDBRANCH  62  85
ENDBRANCH  36  37
ENDBRANCH  29  31
ENDBRANCH  28  29
ENDBRANCH  27  28
ENDBRANCH  26  27
ENDBRANCH  25  26
ENDBRANCH   1  25
TORSDOF 21
ENDMDL
MODEL 2
REMARK VINA RESULT:     -11.1      1.239      7.529
REMARK SMILES Cc1cc(Cl)cc2c1O[C@H](C(F)(F)F)C(C(=O)OCCOCCOCCOC(=O)c1ccc(-c3c4nc(c(-c5cccc(S(=O)(=O)[O-])c5F)c5ccc([nH]5)c(-c5cccc(S(=O)(=O)[O-])c5F)c5nc(c(-c6cccc(S(=O)(=O)[O-])c6F)c6ccc3[nH]6)C=C5)C=C4)cc1)=C2
REMARK SMILES IDX 23 1 22 2 21 3 20 4 19 5 18 6 16 7 17 8 15 9 1 10 2 11 3 12
REMARK SMILES IDX 8 13 4 14 7 15 9 16 5 17 6 18 93 19 10 20 11 21 12 22 13 23
REMARK SMILES IDX 14 24 24 25 25 26 26 27 27 28 28 29 29 30 30 31 31 32 92 33
REMARK SMILES IDX 32 34 91 35 33 36 34 37 35 38 85 39 36 40 90 41 84 42 86 43
REMARK SMILES IDX 37 44 89 45 83 46 82 47 38 49 70 50 50 51 69 52 51 53 54 54
REMARK SMILES IDX 68 55 87 56 52 57 53 58 67 60 88 61 55 62 39 63 40 64 48 65
REMARK SMILES IDX 41 66 43 67 49 68 42 69 44 70 45 71 46 72 47 73 71 74 72 75
REMARK SMILES IDX 80 76 73 77 75 78 81 79 74 80 76 81 77 82 78 83 79 84 56 85
REMARK SMILES IDX 57 86 65 87 58 88 60 89 66 90 59 91 61 92 62 93 63 94 64 95
REMARK H PARENT 86 48 54 59
REMARK Flexibility Score: inf
ROOT
ATOM      1  C   UNL A   1      31.010  28.965  23.363  1.00  0.00     0.188 C 
ENDROOT
BRANCH   1   2
ATOM      2  C   UNL A   1      29.831  28.172  22.758  1.00  0.00     0.188 C 
BRANCH   2   3
ATOM      3  O   UNL A   1      29.658  26.903  23.345  1.00  0.00    -0.376 OA
BRANCH   3   4
ATOM      4  C   UNL A   1      30.712  26.282  24.052  1.00  0.00     0.202 C 
BRANCH   4   5
ATOM      5  C   UNL A   1      31.450  25.019  23.573  1.00  0.00     0.261 C 
BRANCH   5   6
ATOM      6  O   UNL A   1      30.911  23.753  23.961  1.00  0.00    -0.460 OA
BRANCH   6   7
ATOM      7  C   UNL A   1      31.275  23.291  25.179  1.00  0.00     0.338 C 
ATOM      8  O   UNL A   1      30.754  23.557  26.248  1.00  0.00    -0.246 OA
BRANCH   7   9
ATOM      9  C   UNL A   1      32.373  22.318  25.010  1.00  0.00     0.087 C 
ATOM     10  C   UNL A   1      36.905  19.884  24.952  1.00  0.00     0.048 C 
ATOM     11  C   UNL A   1      35.464  19.511  24.733  1.00  0.00    -0.007 A 
ATOM     12  C   UNL A   1      35.135  18.157  24.572  1.00  0.00     0.027 A 
ATOM     13  C   UNL A   1      34.432  20.464  24.776  1.00  0.00     0.131 A 
ATOM     14  C   UNL A   1      33.805  17.768  24.427  1.00  0.00     0.042 A 
ATOM     15  C   UNL A   1      33.094  20.064  24.663  1.00  0.00     0.019 A 
ATOM     16  O   UNL A   1      34.807  21.768  24.942  1.00  0.00    -0.475 OA
ATOM     17  Cl  UNL A   1      33.422  16.103  24.229  1.00  0.00    -0.084 Cl
ATOM     18  C   UNL A   1      32.784  18.714  24.468  1.00  0.00     0.032 A 
ATOM     19  C   UNL A   1      32.026  21.042  24.802  1.00  0.00     0.027 C 
ATOM     20  C   UNL A   1      33.795  22.803  25.057  1.00  0.00     0.316 C 
BRANCH  20  21
ATOM     21  C   UNL A   1      34.102  23.615  26.324  1.00  0.00     0.430 C 
ATOM     22  F   UNL A   1      35.439  23.732  26.520  1.00  0.00    -0.167 F 
ATOM     23  F   UNL A   1      33.616  24.877  26.249  1.00  0.00    -0.167 F 
ATOM     24  F   UNL A   1      33.581  23.044  27.434  1.00  0.00    -0.167 F 
ENDBRANCH  20  21
ENDBRANCH   7   9
ENDBRANCH   6   7
ENDBRANCH   5   6
ENDBRANCH   4   5
ENDBRANCH   3   4
ENDBRANCH   2   3
ENDBRANCH   1   2
BRANCH   1  25
ATOM     25  O   UNL A   1      30.860  29.608  24.625  1.00  0.00    -0.376 OA
BRANCH  25  26
ATOM     26  C   UNL A   1      31.825  29.365  25.644  1.00  0.00     0.202 C 
BRANCH  26  27
ATOM     27  C   UNL A   1      32.830  30.465  26.017  1.00  0.00     0.261 C 
BRANCH  27  28
ATOM     28  O   UNL A   1      32.543  31.156  27.242  1.00  0.00    -0.460 OA
BRANCH  28  29
ATOM     29  C   UNL A   1      33.384  32.177  27.545  1.00  0.00     0.338 C 
ATOM     30  O   UNL A   1      33.105  33.360  27.639  1.00  0.00    -0.246 OA
BRANCH  29  31
ATOM     31  C   UNL A   1      34.693  31.630  27.952  1.00  0.00     0.060 A 
ATOM     32  C   UNL A   1      34.757  30.280  28.328  1.00  0.00     0.016 A 
ATOM     33  C   UNL A   1      35.830  32.437  28.010  1.00  0.00     0.016 A 
ATOM     34  C   UNL A   1      35.958  29.736  28.779  1.00  0.00     0.010 A 
ATOM     35  C   UNL A   1      37.027  31.898  28.492  1.00  0.00     0.010 A 
ATOM     36  C   UNL A   1      37.087  30.554  28.905  1.00  0.00    -0.014 A 
BRANCH  36  37
ATOM     37  C   UNL A   1      38.270  30.053  29.642  1.00  0.00     0.031 A 
ATOM     38  C   UNL A   1      38.517  30.567  31.034  1.00  0.00     0.074 A 
ATOM     39  C   UNL A   1      39.102  29.149  29.094  1.00  0.00     0.049 A 
ATOM     40  N   UNL A   1      39.486  30.279  31.861  1.00  0.00    -0.248 NA
ATOM     41  C   UNL A   1      37.537  31.531  31.564  1.00  0.00     0.031 C 
ATOM     42  C   UNL A   1      38.955  28.562  27.764  1.00  0.00     0.029 A 
ATOM     43  N   UNL A   1      40.249  28.580  29.590  1.00  0.00    -0.354 N 
ATOM     44  C   UNL A   1      39.241  31.030  33.003  1.00  0.00     0.074 A 
ATOM     45  C   UNL A   1      38.042  31.801  32.758  1.00  0.00     0.031 C 
ATOM     46  C   UNL A   1      39.986  27.730  27.540  1.00  0.00     0.029 A 
ATOM     47  C   UNL A   1      40.877  27.741  28.701  1.00  0.00     0.049 A 
ATOM     48  H   UNL A   1      40.589  28.757  30.497  1.00  0.00     0.167 HD
ATOM     49  C   UNL A   1      39.937  31.059  34.163  1.00  0.00     0.034 A 
ATOM     50  C   UNL A   1      42.044  27.072  28.808  1.00  0.00     0.034 A 
ATOM     51  C   UNL A   1      41.126  30.291  34.409  1.00  0.00     0.049 A 
ATOM     52  C   UNL A   1      42.836  27.171  30.089  1.00  0.00     0.074 A 
ATOM     53  C   UNL A   1      41.891  30.241  35.559  1.00  0.00     0.029 A 
ATOM     54  N   UNL A   1      41.728  29.446  33.489  1.00  0.00    -0.354 N 
ATOM     55  N   UNL A   1      42.536  27.802  31.200  1.00  0.00    -0.248 NA
ATOM     56  C   UNL A   1      44.116  26.446  30.142  1.00  0.00     0.031 C 
ATOM     57  C   UNL A   1      42.970  29.383  35.328  1.00  0.00     0.029 A 
ATOM     58  C   UNL A   1      42.863  28.880  34.041  1.00  0.00     0.049 A 
ATOM     59  H   UNL A   1      41.395  29.275  32.578  1.00  0.00     0.167 HD
ATOM     60  C   UNL A   1      43.570  27.525  32.090  1.00  0.00     0.074 A 
ATOM     61  C   UNL A   1      44.494  26.652  31.397  1.00  0.00     0.031 C 
ATOM     62  C   UNL A   1      43.746  27.968  33.360  1.00  0.00     0.034 A 
BRANCH  49  63
ATOM     63  C   UNL A   1      39.410  31.922  35.276  1.00  0.00     0.023 A 
ATOM     64  C   UNL A   1      38.504  31.371  36.204  1.00  0.00     0.012 A 
ATOM     65  C   UNL A   1      39.866  33.242  35.452  1.00  0.00     0.148 A 
ATOM     66  C   UNL A   1      38.044  32.126  37.281  1.00  0.00     0.002 A 
ATOM     67  C   UNL A   1      39.436  33.976  36.551  1.00  0.00     0.091 A 
ATOM     68  F   UNL A   1      40.710  33.754  34.543  1.00  0.00    -0.205 F 
ATOM     69  C   UNL A   1      38.520  33.423  37.461  1.00  0.00     0.022 A 
BRANCH  67  70
ATOM     70  S   UNL A   1      40.047  35.624  36.918  1.00  0.00     0.127 S 
ATOM     71  O   UNL A   1      41.492  35.398  36.970  1.00  0.00    -0.237 OA
ATOM     72  O   UNL A   1      39.591  36.386  35.755  1.00  0.00    -0.237 OA
ATOM     73  O   UNL A   1      39.432  36.011  38.180  1.00  0.00    -0.744 OA
ENDBRANCH  67  70
ENDBRANCH  49  63
BRANCH  50  74
ATOM     74  C   UNL A   1      42.512  26.208  27.688  1.00  0.00     0.023 A 
ATOM     75  C   UNL A   1      43.451  26.716  26.769  1.00  0.00     0.012 A 
ATOM     76  C   UNL A   1      42.056  24.882  27.539  1.00  0.00     0.148 A 
ATOM     77  C   UNL A   1      43.912  25.930  25.713  1.00  0.00     0.002 A 
ATOM     78  C   UNL A   1      42.559  24.086  26.516  1.00  0.00     0.091 A 
ATOM     79  F   UNL A   1      41.146  24.423  28.409  1.00  0.00    -0.205 F 
ATOM     80  C   UNL A   1      43.476  24.613  25.593  1.00  0.00     0.022 A 
BRANCH  78  81
ATOM     81  S   UNL A   1      42.154  22.343  26.358  1.00  0.00     0.127 S 
ATOM     82  O   UNL A   1      42.910  21.965  25.168  1.00  0.00    -0.237 OA
ATOM     83  O   UNL A   1      42.669  21.801  27.616  1.00  0.00    -0.237 OA
ATOM     84  O   UNL A   1      40.704  22.287  26.229  1.00  0.00    -0.744 OA
ENDBRANCH  78  81
ENDBRANCH  50  74
BRANCH  62  85
ATOM     85  C   UNL A   1      44.975  27.518  34.109  1.00  0.00     0.023 A 
ATOM     86  C   UNL A   1      46.129  28.325  34.097  1.00  0.00     0.012 A 
ATOM     87  C   UNL A   1      44.943  26.370  34.928  1.00  0.00     0.148 A 
ATOM     88  C   UNL A   1      47.240  27.988  34.872  1.00  0.00     0.002 A 
ATOM     89  C   UNL A   1      46.034  26.068  35.735  1.00  0.00     0.091 A 
ATOM     90  F   UNL A   1      43.840  25.607  34.916  1.00  0.00    -0.205 F 
ATOM     91  C   UNL A   1      47.186  26.870  35.701  1.00  0.00     0.022 A 
BRANCH  89  92
ATOM     92  S   UNL A   1      46.019  24.712  36.915  1.00  0.00     0.127 S 
ATOM     93  O   UNL A   1      45.314  23.673  36.165  1.00  0.00    -0.237 OA
ATOM     94  O   UNL A   1      47.446  24.458  37.114  1.00  0.00    -0.237 OA
ATOM     95  O   UNL A   1      45.323  25.211  38.093  1.00  0.00    -0.744 OA
ENDBRANCH  89  92
ENDBRANCH  62  85
ENDBRANCH  36  37
ENDBRANCH  29  31
ENDBRANCH  28  29
ENDBRANCH  27  28
ENDBRANCH  26  27
ENDBRANCH  25  26
ENDBRANCH   1  25
TORSDOF 21
ENDMDL
MODEL 3
REMARK VINA RESULT:     -10.8      1.559      2.067
REMARK SMILES Cc1cc(Cl)cc2c1O[C@H](C(F)(F)F)C(C(=O)OCCOCCOCCOC(=O)c1ccc(-c3c4nc(c(-c5cccc(S(=O)(=O)[O-])c5F)c5ccc([nH]5)c(-c5cccc(S(=O)(=O)[O-])c5F)c5nc(c(-c6cccc(S(=O)(=O)[O-])c6F)c6ccc3[nH]6)C=C5)C=C4)cc1)=C2
REMARK SMILES IDX 23 1 22 2 21 3 20 4 19 5 18 6 16 7 17 8 15 9 1 10 2 11 3 12
REMARK SMILES IDX 8 13 4 14 7 15 9 16 5 17 6 18 93 19 10 20 11 21 12 22 13 23
REMARK SMILES IDX 14 24 24 25 25 26 26 27 27 28 28 29 29 30 30 31 31 32 92 33
REMARK SMILES IDX 32 34 91 35 33 36 34 37 35 38 85 39 36 40 90 41 84 42 86 43
REMARK SMILES IDX 37 44 89 45 83 46 82 47 38 49 70 50 50 51 69 52 51 53 54 54
REMARK SMILES IDX 68 55 87 56 52 57 53 58 67 60 88 61 55 62 39 63 40 64 48 65
REMARK SMILES IDX 41 66 43 67 49 68 42 69 44 70 45 71 46 72 47 73 71 74 72 75
REMARK SMILES IDX 80 76 73 77 75 78 81 79 74 80 76 81 77 82 78 83 79 84 56 85
REMARK SMILES IDX 57 86 65 87 58 88 60 89 66 90 59 91 61 92 62 93 63 94 64 95
REMARK H PARENT 86 48 54 59
REMARK Flexibility Score: inf
ROOT
ATOM      1  C   UNL A   1      32.441  28.754  24.293  1.00  0.00     0.188 C 
ENDROOT
BRANCH   1   2
ATOM      2  C   UNL A   1      31.959  28.053  23.004  1.00  0.00     0.188 C 
BRANCH   2   3
ATOM      3  O   UNL A   1      31.224  26.878  23.254  1.00  0.00    -0.376 OA
BRANCH   3   4
ATOM      4  C   UNL A   1      31.843  25.744  23.825  1.00  0.00     0.202 C 
BRANCH   4   5
ATOM      5  C   UNL A   1      31.095  24.647  24.603  1.00  0.00     0.261 C 
BRANCH   5   6
ATOM      6  O   UNL A   1      31.386  23.287  24.271  1.00  0.00    -0.460 OA
BRANCH   6   7
ATOM      7  C   UNL A   1      31.561  22.438  25.308  1.00  0.00     0.338 C 
ATOM      8  O   UNL A   1      30.697  21.990  26.042  1.00  0.00    -0.246 OA
BRANCH   7   9
ATOM      9  C   UNL A   1      32.985  22.050  25.370  1.00  0.00     0.087 C 
ATOM     10  C   UNL A   1      37.518  19.656  24.938  1.00  0.00     0.048 C 
ATOM     11  C   UNL A   1      37.041  21.022  25.349  1.00  0.00    -0.007 A 
ATOM     12  C   UNL A   1      37.993  22.023  25.594  1.00  0.00     0.027 A 
ATOM     13  C   UNL A   1      35.675  21.351  25.404  1.00  0.00     0.131 A 
ATOM     14  C   UNL A   1      37.588  23.316  25.917  1.00  0.00     0.042 A 
ATOM     15  C   UNL A   1      35.274  22.660  25.698  1.00  0.00     0.019 A 
ATOM     16  O   UNL A   1      34.790  20.341  25.150  1.00  0.00    -0.475 OA
ATOM     17  Cl  UNL A   1      38.771  24.528  26.216  1.00  0.00    -0.084 Cl
ATOM     18  C   UNL A   1      36.235  23.639  25.974  1.00  0.00     0.032 A 
ATOM     19  C   UNL A   1      33.864  23.016  25.661  1.00  0.00     0.027 C 
ATOM     20  C   UNL A   1      33.365  20.616  25.129  1.00  0.00     0.316 C 
BRANCH  20  21
ATOM     21  C   UNL A   1      32.805  20.070  23.808  1.00  0.00     0.430 C 
ATOM     22  F   UNL A   1      33.536  19.018  23.363  1.00  0.00    -0.167 F 
ATOM     23  F   UNL A   1      31.534  19.620  23.942  1.00  0.00    -0.167 F 
ATOM     24  F   UNL A   1      32.805  21.002  22.829  1.00  0.00    -0.167 F 
ENDBRANCH  20  21
ENDBRANCH   7   9
ENDBRANCH   6   7
ENDBRANCH   5   6
ENDBRANCH   4   5
ENDBRANCH   3   4
ENDBRANCH   2   3
ENDBRANCH   1   2
BRANCH   1  25
ATOM     25  O   UNL A   1      31.495  29.161  25.276  1.00  0.00    -0.376 OA
BRANCH  25  26
ATOM     26  C   UNL A   1      31.184  30.545  25.406  1.00  0.00     0.202 C 
BRANCH  26  27
ATOM     27  C   UNL A   1      31.664  31.318  26.644  1.00  0.00     0.261 C 
BRANCH  27  28
ATOM     28  O   UNL A   1      32.991  30.992  27.083  1.00  0.00    -0.460 OA
BRANCH  28  29
ATOM     29  C   UNL A   1      33.716  32.033  27.563  1.00  0.00     0.338 C 
ATOM     30  O   UNL A   1      33.328  33.171  27.767  1.00  0.00    -0.246 OA
BRANCH  29  31
ATOM     31  C   UNL A   1      35.038  31.548  28.007  1.00  0.00     0.060 A 
ATOM     32  C   UNL A   1      35.167  30.189  28.329  1.00  0.00     0.016 A 
ATOM     33  C   UNL A   1      36.119  32.418  28.152  1.00  0.00     0.016 A 
ATOM     34  C   UNL A   1      36.378  29.697  28.813  1.00  0.00     0.010 A 
ATOM     35  C   UNL A   1      37.324  31.930  28.666  1.00  0.00     0.010 A 
ATOM     36  C   UNL A   1      37.449  30.575  29.025  1.00  0.00    -0.014 A 
BRANCH  36  37
ATOM     37  C   UNL A   1      38.627  30.112  29.794  1.00  0.00     0.031 A 
ATOM     38  C   UNL A   1      39.528  29.081  29.171  1.00  0.00     0.074 A 
ATOM     39  C   UNL A   1      38.901  30.606  31.014  1.00  0.00     0.049 A 
ATOM     40  N   UNL A   1      40.605  28.525  29.657  1.00  0.00    -0.248 NA
ATOM     41  C   UNL A   1      39.166  28.620  27.820  1.00  0.00     0.031 C 
ATOM     42  C   UNL A   1      38.116  31.623  31.711  1.00  0.00     0.029 A 
ATOM     43  N   UNL A   1      39.914  30.302  31.890  1.00  0.00    -0.354 N 
ATOM     44  C   UNL A   1      41.046  27.643  28.678  1.00  0.00     0.074 A 
ATOM     45  C   UNL A   1      40.110  27.724  27.578  1.00  0.00     0.031 C 
ATOM     46  C   UNL A   1      38.665  31.844  32.918  1.00  0.00     0.029 A 
ATOM     47  C   UNL A   1      39.826  30.971  33.088  1.00  0.00     0.049 A 
ATOM     48  H   UNL A   1      40.635  29.665  31.679  1.00  0.00     0.167 HD
ATOM     49  C   UNL A   1      42.144  26.852  28.683  1.00  0.00     0.034 A 
ATOM     50  C   UNL A   1      40.588  30.875  34.197  1.00  0.00     0.034 A 
ATOM     51  C   UNL A   1      43.076  26.775  29.774  1.00  0.00     0.049 A 
ATOM     52  C   UNL A   1      41.772  29.938  34.202  1.00  0.00     0.074 A 
ATOM     53  C   UNL A   1      44.228  26.016  29.864  1.00  0.00     0.029 A 
ATOM     54  N   UNL A   1      42.960  27.472  30.967  1.00  0.00    -0.354 N 
ATOM     55  N   UNL A   1      42.237  29.189  33.230  1.00  0.00    -0.248 NA
ATOM     56  C   UNL A   1      42.551  29.851  35.448  1.00  0.00     0.031 C 
ATOM     57  C   UNL A   1      44.798  26.236  31.121  1.00  0.00     0.029 A 
ATOM     58  C   UNL A   1      44.013  27.151  31.805  1.00  0.00     0.049 A 
ATOM     59  H   UNL A   1      42.235  28.102  31.184  1.00  0.00     0.167 HD
ATOM     60  C   UNL A   1      43.377  28.569  33.735  1.00  0.00     0.074 A 
ATOM     61  C   UNL A   1      43.544  29.046  35.092  1.00  0.00     0.031 C 
ATOM     62  C   UNL A   1      44.199  27.674  33.135  1.00  0.00     0.034 A 
BRANCH  49  63
ATOM     63  C   UNL A   1      42.425  26.035  27.453  1.00  0.00     0.023 A 
ATOM     64  C   UNL A   1      42.990  26.661  26.324  1.00  0.00     0.012 A 
ATOM     65  C   UNL A   1      42.209  24.644  27.439  1.00  0.00     0.148 A 
ATOM     66  C   UNL A   1      43.318  25.918  25.191  1.00  0.00     0.002 A 
ATOM     67  C   UNL A   1      42.577  23.903  26.322  1.00  0.00     0.091 A 
ATOM     68  F   UNL A   1      41.648  24.073  28.516  1.00  0.00    -0.205 F 
ATOM     69  C   UNL A   1      43.123  24.539  25.195  1.00  0.00     0.022 A 
BRANCH  67  70
ATOM     70  S   UNL A   1      42.440  22.114  26.255  1.00  0.00     0.127 S 
ATOM     71  O   UNL A   1      42.951  21.729  27.571  1.00  0.00    -0.237 OA
ATOM     72  O   UNL A   1      41.000  21.923  26.080  1.00  0.00    -0.237 OA
ATOM     73  O   UNL A   1      43.254  21.689  25.124  1.00  0.00    -0.744 OA
ENDBRANCH  67  70
ENDBRANCH  49  63
BRANCH  50  74
ATOM     74  C   UNL A   1      40.287  31.727  35.382  1.00  0.00     0.023 A 
ATOM     75  C   UNL A   1      41.091  32.853  35.646  1.00  0.00     0.012 A 
ATOM     76  C   UNL A   1      39.199  31.448  36.234  1.00  0.00     0.148 A 
ATOM     77  C   UNL A   1      40.831  33.673  36.745  1.00  0.00     0.002 A 
ATOM     78  C   UNL A   1      38.912  32.299  37.295  1.00  0.00     0.091 A 
ATOM     79  F   UNL A   1      38.458  30.360  35.980  1.00  0.00    -0.205 F 
ATOM     80  C   UNL A   1      39.737  33.404  37.562  1.00  0.00     0.022 A 
BRANCH  78  81
ATOM     81  S   UNL A   1      37.452  32.105  38.324  1.00  0.00     0.127 S 
ATOM     82  O   UNL A   1      37.203  30.669  38.224  1.00  0.00    -0.237 OA
ATOM     83  O   UNL A   1      37.941  32.558  39.626  1.00  0.00    -0.237 OA
ATOM     84  O   UNL A   1      36.436  32.963  37.731  1.00  0.00    -0.744 OA
ENDBRANCH  78  81
ENDBRANCH  50  74
BRANCH  62  85
ATOM     85  C   UNL A   1      45.372  27.143  33.920  1.00  0.00     0.023 A 
ATOM     86  C   UNL A   1      46.582  27.864  33.932  1.00  0.00     0.012 A 
ATOM     87  C   UNL A   1      45.235  26.008  34.746  1.00  0.00     0.148 A 
ATOM     88  C   UNL A   1      47.644  27.455  34.739  1.00  0.00     0.002 A 
ATOM     89  C   UNL A   1      46.280  25.635  35.584  1.00  0.00     0.091 A 
ATOM     90  F   UNL A   1      44.081  25.327  34.710  1.00  0.00    -0.205 F 
ATOM     91  C   UNL A   1      47.488  26.351  35.575  1.00  0.00     0.022 A 
BRANCH  89  92
ATOM     92  S   UNL A   1      46.136  24.294  36.773  1.00  0.00     0.127 S 
ATOM     93  O   UNL A   1      46.104  23.123  35.898  1.00  0.00    -0.237 OA
ATOM     94  O   UNL A   1      47.364  24.439  37.555  1.00  0.00    -0.237 OA
ATOM     95  O   UNL A   1      44.911  24.549  37.519  1.00  0.00    -0.744 OA
ENDBRANCH  89  92
ENDBRANCH  62  85
ENDBRANCH  36  37
ENDBRANCH  29  31
ENDBRANCH  28  29
ENDBRANCH  27  28
ENDBRANCH  26  27
ENDBRANCH  25  26
ENDBRANCH   1  25
TORSDOF 21
ENDMDL
