MODEL 1
REMARK VINA RESULT:      -9.9      0.000      0.000
REMARK SMILES COc1ccc([C@@H]2[C@H](C(=O)OCCOCCOCCOC(=O)c3ccc(-c4c5nc(c(-c6cccc(S(=O)(=O)[O-])c6F)c6ccc([nH]6)c(-c6cccc(S(=O)(=O)[O-])c6F)c6nc(c(-c7cccc(S(=O)(=O)[O-])c7F)c7ccc4[nH]7)C=C6)C=C5)cc3)c3ccccc3C(=O)N2C2CC2)cc1
REMARK SMILES IDX 16 1 15 2 14 3 13 4 12 5 11 6 9 7 10 8 8 9 7 10 94 11 86 12
REMARK SMILES IDX 92 13 87 14 91 15 93 16 88 17 90 18 89 19 6 20 3 21 4 22
REMARK SMILES IDX 99 23 5 24 98 25 2 26 1 27 95 28 96 29 97 30 17 31 18 32
REMARK SMILES IDX 19 33 20 34 21 35 22 36 23 37 24 38 85 39 25 40 84 41 26 42
REMARK SMILES IDX 27 43 28 44 78 45 29 46 83 47 77 48 79 49 30 50 82 51 76 52
REMARK SMILES IDX 75 53 31 55 63 56 43 57 62 58 44 59 47 60 61 61 80 62 45 63
REMARK SMILES IDX 46 64 60 66 81 67 48 68 32 69 33 70 41 71 34 72 36 73 42 74
REMARK SMILES IDX 35 75 37 76 38 77 39 78 40 79 64 80 65 81 73 82 66 83 68 84
REMARK SMILES IDX 74 85 67 86 69 87 70 88 71 89 72 90 49 91 50 92 58 93 51 94
REMARK SMILES IDX 53 95 59 96 52 97 54 98 55 99 56 100 57 101
REMARK H PARENT 79 54 47 65
REMARK Flexibility Score: inf
ROOT
ATOM      1  C   UNL A   1      33.830  32.876  28.089  1.00  0.00     0.188 C 
ENDROOT
BRANCH   1   2
ATOM      2  C   UNL A   1      32.496  33.099  27.365  1.00  0.00     0.188 C 
BRANCH   2   3
ATOM      3  O   UNL A   1      32.036  31.900  26.749  1.00  0.00    -0.376 OA
BRANCH   3   4
ATOM      4  C   UNL A   1      32.822  30.748  27.052  1.00  0.00     0.202 C 
BRANCH   4   5
ATOM      5  C   UNL A   1      32.979  29.772  25.872  1.00  0.00     0.261 C 
BRANCH   5   6
ATOM      6  O   UNL A   1      31.961  28.738  25.804  1.00  0.00    -0.463 OA
BRANCH   6   7
ATOM      7  C   UNL A   1      32.323  27.428  25.627  1.00  0.00     0.316 C 
ATOM      8  O   UNL A   1      33.488  27.063  25.507  1.00  0.00    -0.251 OA
BRANCH   7   9
ATOM      9  C   UNL A   1      31.119  26.468  25.467  1.00  0.00     0.157 C 
ATOM     10  C   UNL A   1      30.320  26.477  24.103  1.00  0.00     0.135 C 
ATOM     11  N   UNL A   1      31.043  25.669  23.119  1.00  0.00    -0.327 N 
ATOM     12  C   UNL A   1      31.503  24.998  25.799  1.00  0.00    -0.019 A 
ATOM     13  C   UNL A   1      30.851  24.315  23.460  1.00  0.00     0.254 C 
ATOM     14  C   UNL A   1      32.071  24.645  27.035  1.00  0.00     0.005 A 
ATOM     15  C   UNL A   1      31.306  23.974  24.843  1.00  0.00     0.044 A 
ATOM     16  O   UNL A   1      30.291  23.480  22.767  1.00  0.00    -0.269 OA
ATOM     17  C   UNL A   1      32.425  23.315  27.300  1.00  0.00     0.000 A 
ATOM     18  C   UNL A   1      31.592  22.637  25.143  1.00  0.00     0.014 A 
ATOM     19  C   UNL A   1      32.166  22.312  26.367  1.00  0.00     0.001 A 
BRANCH  10  20
ATOM     20  C   UNL A   1      29.543  27.639  23.495  1.00  0.00    -0.024 A 
ATOM     21  C   UNL A   1      28.155  29.857  22.453  1.00  0.00     0.118 A 
ATOM     22  C   UNL A   1      29.500  29.729  22.203  1.00  0.00     0.047 A 
ATOM     23  C   UNL A   1      27.455  28.787  23.010  1.00  0.00     0.047 A 
ATOM     24  C   UNL A   1      30.144  28.586  22.653  1.00  0.00     0.010 A 
ATOM     25  C   UNL A   1      28.147  27.701  23.563  1.00  0.00     0.010 A 
BRANCH  21  26
ATOM     26  O   UNL A   1      27.573  31.044  22.116  1.00  0.00    -0.497 OA
ATOM     27  C   UNL A   1      28.043  31.506  20.852  1.00  0.00     0.278 C 
ENDBRANCH  21  26
ENDBRANCH  10  20
BRANCH  11  28
ATOM     28  C   UNL A   1      32.395  26.083  22.731  1.00  0.00     0.086 C 
ATOM     29  C   UNL A   1      33.567  25.226  22.332  1.00  0.00     0.027 C 
ATOM     30  C   UNL A   1      32.916  26.071  21.301  1.00  0.00     0.027 C 
ENDBRANCH  11  28
ENDBRANCH   7   9
ENDBRANCH   6   7
ENDBRANCH   5   6
ENDBRANCH   4   5
ENDBRANCH   3   4
ENDBRANCH   2   3
ENDBRANCH   1   2
BRANCH   1  31
ATOM     31  O   UNL A   1      34.018  33.535  29.337  1.00  0.00    -0.376 OA
BRANCH  31  32
ATOM     32  C   UNL A   1      33.985  34.952  29.305  1.00  0.00     0.202 C 
BRANCH  32  33
ATOM     33  C   UNL A   1      32.926  35.631  30.190  1.00  0.00     0.261 C 
BRANCH  33  34
ATOM     34  O   UNL A   1      32.892  35.209  31.572  1.00  0.00    -0.460 OA
BRANCH  34  35
ATOM     35  C   UNL A   1      33.544  36.012  32.450  1.00  0.00     0.338 C 
ATOM     36  O   UNL A   1      33.185  37.132  32.805  1.00  0.00    -0.246 OA
BRANCH  35  37
ATOM     37  C   UNL A   1      34.704  35.321  33.073  1.00  0.00     0.060 A 
ATOM     38  C   UNL A   1      35.961  35.511  32.495  1.00  0.00     0.016 A 
ATOM     39  C   UNL A   1      34.574  34.414  34.126  1.00  0.00     0.016 A 
ATOM     40  C   UNL A   1      37.081  34.802  32.951  1.00  0.00     0.010 A 
ATOM     41  C   UNL A   1      35.696  33.673  34.560  1.00  0.00     0.010 A 
ATOM     42  C   UNL A   1      36.957  33.847  33.961  1.00  0.00    -0.014 A 
BRANCH  42  43
ATOM     43  C   UNL A   1      38.085  32.898  34.212  1.00  0.00     0.031 A 
ATOM     44  C   UNL A   1      38.939  33.110  35.425  1.00  0.00     0.074 A 
ATOM     45  C   UNL A   1      38.351  31.841  33.420  1.00  0.00     0.049 A 
ATOM     46  N   UNL A   1      40.019  32.476  35.796  1.00  0.00    -0.248 NA
ATOM     47  C   UNL A   1      38.522  34.186  36.336  1.00  0.00     0.031 C 
ATOM     48  C   UNL A   1      37.574  31.480  32.251  1.00  0.00     0.029 A 
ATOM     49  N   UNL A   1      39.343  30.888  33.455  1.00  0.00    -0.354 N 
ATOM     50  C   UNL A   1      40.439  33.102  36.960  1.00  0.00     0.074 A 
ATOM     51  C   UNL A   1      39.492  34.161  37.237  1.00  0.00     0.031 C 
ATOM     52  C   UNL A   1      38.100  30.394  31.665  1.00  0.00     0.029 A 
ATOM     53  C   UNL A   1      39.313  30.019  32.384  1.00  0.00     0.049 A 
ATOM     54  H   UNL A   1      40.010  30.832  34.177  1.00  0.00     0.167 HD
ATOM     55  C   UNL A   1      41.519  32.824  37.726  1.00  0.00     0.034 A 
ATOM     56  C   UNL A   1      40.187  29.067  31.996  1.00  0.00     0.034 A 
ATOM     57  C   UNL A   1      42.458  31.770  37.457  1.00  0.00     0.049 A 
ATOM     58  C   UNL A   1      41.419  28.823  32.830  1.00  0.00     0.074 A 
ATOM     59  C   UNL A   1      43.579  31.415  38.186  1.00  0.00     0.029 A 
ATOM     60  N   UNL A   1      42.402  30.911  36.370  1.00  0.00    -0.354 N 
ATOM     61  N   UNL A   1      41.778  29.391  33.956  1.00  0.00    -0.248 NA
ATOM     62  C   UNL A   1      42.360  27.798  32.353  1.00  0.00     0.031 C 
ATOM     63  C   UNL A   1      44.223  30.369  37.520  1.00  0.00     0.029 A 
ATOM     64  C   UNL A   1      43.477  30.038  36.401  1.00  0.00     0.049 A 
ATOM     65  H   UNL A   1      41.700  30.919  35.679  1.00  0.00     0.167 HD
ATOM     66  C   UNL A   1      42.958  28.765  34.342  1.00  0.00     0.074 A 
ATOM     67  C   UNL A   1      43.249  27.764  33.337  1.00  0.00     0.031 C 
ATOM     68  C   UNL A   1      43.732  29.005  35.428  1.00  0.00     0.034 A 
BRANCH  55  69
ATOM     69  C   UNL A   1      41.754  33.703  38.923  1.00  0.00     0.023 A 
ATOM     70  C   UNL A   1      42.560  34.853  38.808  1.00  0.00     0.012 A 
ATOM     71  C   UNL A   1      41.146  33.401  40.156  1.00  0.00     0.148 A 
ATOM     72  C   UNL A   1      42.789  35.669  39.915  1.00  0.00     0.002 A 
ATOM     73  C   UNL A   1      41.337  34.245  41.241  1.00  0.00     0.091 A 
ATOM     74  F   UNL A   1      40.404  32.288  40.247  1.00  0.00    -0.205 F 
ATOM     75  C   UNL A   1      42.169  35.371  41.127  1.00  0.00     0.022 A 
BRANCH  73  76
ATOM     76  S   UNL A   1      40.519  33.991  42.819  1.00  0.00     0.127 S 
ATOM     77  O   UNL A   1      39.112  33.969  42.422  1.00  0.00    -0.237 OA
ATOM     78  O   UNL A   1      41.056  32.695  43.234  1.00  0.00    -0.237 OA
ATOM     79  O   UNL A   1      40.911  35.110  43.663  1.00  0.00    -0.744 OA
ENDBRANCH  73  76
ENDBRANCH  55  69
BRANCH  56  80
ATOM     80  C   UNL A   1      39.954  28.278  30.747  1.00  0.00     0.023 A 
ATOM     81  C   UNL A   1      39.083  27.171  30.772  1.00  0.00     0.012 A 
ATOM     82  C   UNL A   1      40.610  28.603  29.543  1.00  0.00     0.148 A 
ATOM     83  C   UNL A   1      38.900  26.383  29.633  1.00  0.00     0.002 A 
ATOM     84  C   UNL A   1      40.377  27.848  28.397  1.00  0.00     0.091 A 
ATOM     85  F   UNL A   1      41.452  29.646  29.540  1.00  0.00    -0.205 F 
ATOM     86  C   UNL A   1      39.539  26.725  28.445  1.00  0.00     0.022 A 
BRANCH  84  87
ATOM     87  S   UNL A   1      41.066  28.285  26.796  1.00  0.00     0.127 S 
ATOM     88  O   UNL A   1      41.098  26.990  26.119  1.00  0.00    -0.237 OA
ATOM     89  O   UNL A   1      40.067  29.224  26.285  1.00  0.00    -0.237 OA
ATOM     90  O   UNL A   1      42.365  28.883  27.073  1.00  0.00    -0.744 OA
ENDBRANCH  84  87
ENDBRANCH  56  80
BRANCH  68  91
ATOM     91  C   UNL A   1      44.947  28.137  35.638  1.00  0.00     0.023 A 
ATOM     92  C   UNL A   1      46.207  28.551  35.162  1.00  0.00     0.012 A 
ATOM     93  C   UNL A   1      44.850  26.947  36.387  1.00  0.00     0.148 A 
ATOM     94  C   UNL A   1      47.345  27.778  35.400  1.00  0.00     0.002 A 
ATOM     95  C   UNL A   1      45.995  26.210  36.667  1.00  0.00     0.091 A 
ATOM     96  F   UNL A   1      43.640  26.561  36.818  1.00  0.00    -0.205 F 
ATOM     97  C   UNL A   1      47.240  26.617  36.163  1.00  0.00     0.022 A 
BRANCH  95  98
ATOM     98  S   UNL A   1      45.974  24.758  37.724  1.00  0.00     0.127 S 
ATOM     99  O   UNL A   1      44.598  24.771  38.223  1.00  0.00    -0.237 OA
ATOM    100  O   UNL A   1      46.267  23.682  36.777  1.00  0.00    -0.237 OA
ATOM    101  O   UNL A   1      47.002  24.976  38.732  1.00  0.00    -0.744 OA
ENDBRANCH  95  98
ENDBRANCH  68  91
ENDBRANCH  42  43
ENDBRANCH  35  37
ENDBRANCH  34  35
ENDBRANCH  33  34
ENDBRANCH  32  33
ENDBRANCH  31  32
ENDBRANCH   1  31
TORSDOF 23
ENDMDL
MODEL 2
REMARK VINA RESULT:      -9.4      1.381      7.493
REMARK SMILES COc1ccc([C@@H]2[C@H](C(=O)OCCOCCOCCOC(=O)c3ccc(-c4c5nc(c(-c6cccc(S(=O)(=O)[O-])c6F)c6ccc([nH]6)c(-c6cccc(S(=O)(=O)[O-])c6F)c6nc(c(-c7cccc(S(=O)(=O)[O-])c7F)c7ccc4[nH]7)C=C6)C=C5)cc3)c3ccccc3C(=O)N2C2CC2)cc1
REMARK SMILES IDX 16 1 15 2 14 3 13 4 12 5 11 6 9 7 10 8 8 9 7 10 94 11 86 12
REMARK SMILES IDX 92 13 87 14 91 15 93 16 88 17 90 18 89 19 6 20 3 21 4 22
REMARK SMILES IDX 99 23 5 24 98 25 2 26 1 27 95 28 96 29 97 30 17 31 18 32
REMARK SMILES IDX 19 33 20 34 21 35 22 36 23 37 24 38 85 39 25 40 84 41 26 42
REMARK SMILES IDX 27 43 28 44 78 45 29 46 83 47 77 48 79 49 30 50 82 51 76 52
REMARK SMILES IDX 75 53 31 55 63 56 43 57 62 58 44 59 47 60 61 61 80 62 45 63
REMARK SMILES IDX 46 64 60 66 81 67 48 68 32 69 33 70 41 71 34 72 36 73 42 74
REMARK SMILES IDX 35 75 37 76 38 77 39 78 40 79 64 80 65 81 73 82 66 83 68 84
REMARK SMILES IDX 74 85 67 86 69 87 70 88 71 89 72 90 49 91 50 92 58 93 51 94
REMARK SMILES IDX 53 95 59 96 52 97 54 98 55 99 56 100 57 101
REMARK H PARENT 79 54 47 65
REMARK Flexibility Score: inf
ROOT
ATOM      1  C   UNL A   1      33.606  32.263  27.414  1.00  0.00     0.188 C 
ENDROOT
BRANCH   1   2
ATOM      2  C   UNL A   1      32.487  31.335  26.921  1.00  0.00     0.188 C 
BRANCH   2   3
ATOM      3  O   UNL A   1      32.607  30.035  27.491  1.00  0.00    -0.376 OA
BRANCH   3   4
ATOM      4  C   UNL A   1      31.462  29.205  27.300  1.00  0.00     0.202 C 
BRANCH   4   5
ATOM      5  C   UNL A   1      31.799  27.762  26.885  1.00  0.00     0.261 C 
BRANCH   5   6
ATOM      6  O   UNL A   1      30.731  27.070  26.184  1.00  0.00    -0.463 OA
BRANCH   6   7
ATOM      7  C   UNL A   1      30.840  25.729  25.918  1.00  0.00     0.316 C 
ATOM      8  O   UNL A   1      31.289  24.920  26.722  1.00  0.00    -0.251 OA
BRANCH   7   9
ATOM      9  C   UNL A   1      30.459  25.352  24.467  1.00  0.00     0.157 C 
ATOM     10  C   UNL A   1      30.481  26.481  23.360  1.00  0.00     0.135 C 
ATOM     11  N   UNL A   1      31.858  26.679  22.905  1.00  0.00    -0.327 N 
ATOM     12  C   UNL A   1      31.288  24.143  23.947  1.00  0.00    -0.019 A 
ATOM     13  C   UNL A   1      32.195  25.583  22.085  1.00  0.00     0.254 C 
ATOM     14  C   UNL A   1      31.313  22.916  24.634  1.00  0.00     0.005 A 
ATOM     15  C   UNL A   1      32.062  24.259  22.769  1.00  0.00     0.044 A 
ATOM     16  O   UNL A   1      32.485  25.643  20.900  1.00  0.00    -0.269 OA
ATOM     17  C   UNL A   1      32.084  21.849  24.153  1.00  0.00     0.000 A 
ATOM     18  C   UNL A   1      32.769  23.166  22.254  1.00  0.00     0.014 A 
ATOM     19  C   UNL A   1      32.791  21.966  22.956  1.00  0.00     0.001 A 
BRANCH  10  20
ATOM     20  C   UNL A   1      29.628  27.743  23.312  1.00  0.00    -0.024 A 
ATOM     21  C   UNL A   1      28.029  30.053  23.108  1.00  0.00     0.118 A 
ATOM     22  C   UNL A   1      27.424  28.820  23.160  1.00  0.00     0.047 A 
ATOM     23  C   UNL A   1      29.391  30.162  23.390  1.00  0.00     0.047 A 
ATOM     24  C   UNL A   1      28.227  27.704  23.346  1.00  0.00     0.010 A 
ATOM     25  C   UNL A   1      30.193  29.015  23.452  1.00  0.00     0.010 A 
BRANCH  21  26
ATOM     26  O   UNL A   1      27.237  31.119  22.796  1.00  0.00    -0.497 OA
ATOM     27  C   UNL A   1      27.985  32.141  22.141  1.00  0.00     0.278 C 
ENDBRANCH  21  26
ENDBRANCH  10  20
BRANCH  11  28
ATOM     28  C   UNL A   1      32.860  27.127  23.878  1.00  0.00     0.086 C 
ATOM     29  C   UNL A   1      34.353  27.224  23.719  1.00  0.00     0.027 C 
ATOM     30  C   UNL A   1      33.563  28.476  23.821  1.00  0.00     0.027 C 
ENDBRANCH  11  28
ENDBRANCH   7   9
ENDBRANCH   6   7
ENDBRANCH   5   6
ENDBRANCH   4   5
ENDBRANCH   3   4
ENDBRANCH   2   3
ENDBRANCH   1   2
BRANCH   1  31
ATOM     31  O   UNL A   1      33.260  33.614  27.697  1.00  0.00    -0.376 OA
BRANCH  31  32
ATOM     32  C   UNL A   1      33.177  33.962  29.069  1.00  0.00     0.202 C 
BRANCH  32  33
ATOM     33  C   UNL A   1      33.495  35.424  29.424  1.00  0.00     0.261 C 
BRANCH  33  34
ATOM     34  O   UNL A   1      32.733  35.990  30.515  1.00  0.00    -0.460 OA
BRANCH  34  35
ATOM     35  C   UNL A   1      32.848  35.353  31.707  1.00  0.00     0.338 C 
ATOM     36  O   UNL A   1      31.968  35.256  32.559  1.00  0.00    -0.246 OA
BRANCH  35  37
ATOM     37  C   UNL A   1      34.144  34.635  31.826  1.00  0.00     0.060 A 
ATOM     38  C   UNL A   1      34.141  33.389  32.458  1.00  0.00     0.016 A 
ATOM     39  C   UNL A   1      35.363  35.195  31.439  1.00  0.00     0.016 A 
ATOM     40  C   UNL A   1      35.339  32.706  32.713  1.00  0.00     0.010 A 
ATOM     41  C   UNL A   1      36.570  34.522  31.730  1.00  0.00     0.010 A 
ATOM     42  C   UNL A   1      36.569  33.280  32.389  1.00  0.00    -0.014 A 
BRANCH  42  43
ATOM     43  C   UNL A   1      37.823  32.681  32.943  1.00  0.00     0.031 A 
ATOM     44  C   UNL A   1      38.490  31.583  32.172  1.00  0.00     0.074 A 
ATOM     45  C   UNL A   1      38.400  33.102  34.085  1.00  0.00     0.049 A 
ATOM     46  N   UNL A   1      39.526  30.857  32.496  1.00  0.00    -0.248 NA
ATOM     47  C   UNL A   1      37.905  31.257  30.862  1.00  0.00     0.031 C 
ATOM     48  C   UNL A   1      37.901  34.191  34.900  1.00  0.00     0.029 A 
ATOM     49  N   UNL A   1      39.512  32.670  34.771  1.00  0.00    -0.354 N 
ATOM     50  C   UNL A   1      39.694  29.957  31.455  1.00  0.00     0.074 A 
ATOM     51  C   UNL A   1      38.657  30.234  30.484  1.00  0.00     0.031 C 
ATOM     52  C   UNL A   1      38.681  34.357  35.978  1.00  0.00     0.029 A 
ATOM     53  C   UNL A   1      39.711  33.322  35.970  1.00  0.00     0.049 A 
ATOM     54  H   UNL A   1      40.110  31.962  34.436  1.00  0.00     0.167 HD
ATOM     55  C   UNL A   1      40.624  28.983  31.321  1.00  0.00     0.034 A 
ATOM     56  C   UNL A   1      40.584  33.083  36.970  1.00  0.00     0.034 A 
ATOM     57  C   UNL A   1      41.658  28.709  32.281  1.00  0.00     0.049 A 
ATOM     58  C   UNL A   1      41.566  31.948  36.827  1.00  0.00     0.074 A 
ATOM     59  C   UNL A   1      42.647  27.743  32.220  1.00  0.00     0.029 A 
ATOM     60  N   UNL A   1      41.833  29.383  33.479  1.00  0.00    -0.354 N 
ATOM     61  N   UNL A   1      41.744  31.136  35.813  1.00  0.00    -0.248 NA
ATOM     62  C   UNL A   1      42.478  31.704  37.954  1.00  0.00     0.031 C 
ATOM     63  C   UNL A   1      43.394  27.806  33.400  1.00  0.00     0.029 A 
ATOM     64  C   UNL A   1      42.903  28.844  34.174  1.00  0.00     0.049 A 
ATOM     65  H   UNL A   1      41.278  30.136  33.790  1.00  0.00     0.167 HD
ATOM     66  C   UNL A   1      42.812  30.317  36.161  1.00  0.00     0.074 A 
ATOM     67  C   UNL A   1      43.251  30.738  37.475  1.00  0.00     0.031 C 
ATOM     68  C   UNL A   1      43.372  29.303  35.457  1.00  0.00     0.034 A 
BRANCH  55  69
ATOM     69  C   UNL A   1      40.541  28.122  30.092  1.00  0.00     0.023 A 
ATOM     70  C   UNL A   1      39.586  27.088  30.016  1.00  0.00     0.012 A 
ATOM     71  C   UNL A   1      41.393  28.362  28.998  1.00  0.00     0.148 A 
ATOM     72  C   UNL A   1      39.509  26.280  28.883  1.00  0.00     0.002 A 
ATOM     73  C   UNL A   1      41.276  27.585  27.853  1.00  0.00     0.091 A 
ATOM     74  F   UNL A   1      42.311  29.334  29.103  1.00  0.00    -0.205 F 
ATOM     75  C   UNL A   1      40.345  26.536  27.799  1.00  0.00     0.022 A 
BRANCH  73  76
ATOM     76  S   UNL A   1      42.253  27.888  26.377  1.00  0.00     0.127 S 
ATOM     77  O   UNL A   1      43.606  27.612  26.856  1.00  0.00    -0.237 OA
ATOM     78  O   UNL A   1      41.719  26.892  25.449  1.00  0.00    -0.237 OA
ATOM     79  O   UNL A   1      41.996  29.270  25.999  1.00  0.00    -0.744 OA
ENDBRANCH  73  76
ENDBRANCH  55  69
BRANCH  56  80
ATOM     80  C   UNL A   1      40.569  33.914  38.213  1.00  0.00     0.023 A 
ATOM     81  C   UNL A   1      41.500  34.960  38.367  1.00  0.00     0.012 A 
ATOM     82  C   UNL A   1      39.654  33.656  39.255  1.00  0.00     0.148 A 
ATOM     83  C   UNL A   1      41.544  35.707  39.547  1.00  0.00     0.002 A 
ATOM     84  C   UNL A   1      39.666  34.443  40.402  1.00  0.00     0.091 A 
ATOM     85  F   UNL A   1      38.788  32.644  39.103  1.00  0.00    -0.205 F 
ATOM     86  C   UNL A   1      40.624  35.455  40.559  1.00  0.00     0.022 A 
BRANCH  84  87
ATOM     87  S   UNL A   1      38.444  34.266  41.707  1.00  0.00     0.127 S 
ATOM     88  O   UNL A   1      39.225  33.633  42.768  1.00  0.00    -0.237 OA
ATOM     89  O   UNL A   1      38.072  35.658  41.962  1.00  0.00    -0.237 OA
ATOM     90  O   UNL A   1      37.375  33.454  41.142  1.00  0.00    -0.744 OA
ENDBRANCH  84  87
ENDBRANCH  56  80
BRANCH  68  91
ATOM     91  C   UNL A   1      44.566  28.601  36.053  1.00  0.00     0.023 A 
ATOM     92  C   UNL A   1      45.868  29.081  35.806  1.00  0.00     0.012 A 
ATOM     93  C   UNL A   1      44.387  27.513  36.931  1.00  0.00     0.148 A 
ATOM     94  C   UNL A   1      46.974  28.469  36.399  1.00  0.00     0.002 A 
ATOM     95  C   UNL A   1      45.487  26.943  37.560  1.00  0.00     0.091 A 
ATOM     96  F   UNL A   1      43.142  27.061  37.141  1.00  0.00    -0.205 F 
ATOM     97  C   UNL A   1      46.782  27.410  37.285  1.00  0.00     0.022 A 
BRANCH  95  98
ATOM     98  S   UNL A   1      45.330  25.645  38.792  1.00  0.00     0.127 S 
ATOM     99  O   UNL A   1      44.576  24.628  38.059  1.00  0.00    -0.237 OA
ATOM    100  O   UNL A   1      46.727  25.296  39.053  1.00  0.00    -0.237 OA
ATOM    101  O   UNL A   1      44.632  26.241  39.923  1.00  0.00    -0.744 OA
ENDBRANCH  95  98
ENDBRANCH  68  91
ENDBRANCH  42  43
ENDBRANCH  35  37
ENDBRANCH  34  35
ENDBRANCH  33  34
ENDBRANCH  32  33
ENDBRANCH  31  32
ENDBRANCH   1  31
TORSDOF 23
ENDMDL
MODEL 3
REMARK VINA RESULT:      -9.1     11.416     14.715
REMARK SMILES COc1ccc([C@@H]2[C@H](C(=O)OCCOCCOCCOC(=O)c3ccc(-c4c5nc(c(-c6cccc(S(=O)(=O)[O-])c6F)c6ccc([nH]6)c(-c6cccc(S(=O)(=O)[O-])c6F)c6nc(c(-c7cccc(S(=O)(=O)[O-])c7F)c7ccc4[nH]7)C=C6)C=C5)cc3)c3ccccc3C(=O)N2C2CC2)cc1
REMARK SMILES IDX 16 1 15 2 14 3 13 4 12 5 11 6 9 7 10 8 8 9 7 10 94 11 86 12
REMARK SMILES IDX 92 13 87 14 91 15 93 16 88 17 90 18 89 19 6 20 3 21 4 22
REMARK SMILES IDX 99 23 5 24 98 25 2 26 1 27 95 28 96 29 97 30 17 31 18 32
REMARK SMILES IDX 19 33 20 34 21 35 22 36 23 37 24 38 85 39 25 40 84 41 26 42
REMARK SMILES IDX 27 43 28 44 78 45 29 46 83 47 77 48 79 49 30 50 82 51 76 52
REMARK SMILES IDX 75 53 31 55 63 56 43 57 62 58 44 59 47 60 61 61 80 62 45 63
REMARK SMILES IDX 46 64 60 66 81 67 48 68 32 69 33 70 41 71 34 72 36 73 42 74
REMARK SMILES IDX 35 75 37 76 38 77 39 78 40 79 64 80 65 81 73 82 66 83 68 84
REMARK SMILES IDX 74 85 67 86 69 87 70 88 71 89 72 90 49 91 50 92 58 93 51 94
REMARK SMILES IDX 53 95 59 96 52 97 54 98 55 99 56 100 57 101
REMARK H PARENT 79 54 47 65
REMARK Flexibility Score: inf
ROOT
ATOM      1  C   UNL A   1      41.840  42.379  23.741  1.00  0.00     0.188 C 
ENDROOT
BRANCH   1   2
ATOM      2  C   UNL A   1      42.563  42.538  22.397  1.00  0.00     0.188 C 
BRANCH   2   3
ATOM      3  O   UNL A   1      41.634  42.696  21.327  1.00  0.00    -0.376 OA
BRANCH   3   4
ATOM      4  C   UNL A   1      42.231  43.056  20.083  1.00  0.00     0.202 C 
BRANCH   4   5
ATOM      5  C   UNL A   1      43.639  43.664  20.218  1.00  0.00     0.261 C 
BRANCH   5   6
ATOM      6  O   UNL A   1      44.440  43.608  19.007  1.00  0.00    -0.463 OA
BRANCH   6   7
ATOM      7  C   UNL A   1      44.372  44.626  18.091  1.00  0.00     0.316 C 
ATOM      8  O   UNL A   1      44.444  44.446  16.880  1.00  0.00    -0.251 OA
BRANCH   7   9
ATOM      9  C   UNL A   1      44.324  46.033  18.732  1.00  0.00     0.157 C 
ATOM     10  C   UNL A   1      45.667  46.666  19.274  1.00  0.00     0.135 C 
ATOM     11  N   UNL A   1      46.409  47.247  18.154  1.00  0.00    -0.327 N 
ATOM     12  C   UNL A   1      43.637  47.071  17.798  1.00  0.00    -0.019 A 
ATOM     13  C   UNL A   1      45.755  48.440  17.785  1.00  0.00     0.254 C 
ATOM     14  C   UNL A   1      42.339  46.867  17.298  1.00  0.00     0.005 A 
ATOM     15  C   UNL A   1      44.320  48.246  17.409  1.00  0.00     0.044 A 
ATOM     16  O   UNL A   1      46.238  49.560  17.836  1.00  0.00    -0.269 OA
ATOM     17  C   UNL A   1      41.751  47.809  16.443  1.00  0.00     0.000 A 
ATOM     18  C   UNL A   1      43.699  49.218  16.617  1.00  0.00     0.014 A 
ATOM     19  C   UNL A   1      42.420  48.991  16.121  1.00  0.00     0.001 A 
BRANCH  10  20
ATOM     20  C   UNL A   1      46.555  46.131  20.390  1.00  0.00    -0.024 A 
ATOM     21  C   UNL A   1      48.102  45.088  22.501  1.00  0.00     0.118 A 
ATOM     22  C   UNL A   1      47.702  44.252  21.485  1.00  0.00     0.047 A 
ATOM     23  C   UNL A   1      47.943  46.466  22.359  1.00  0.00     0.047 A 
ATOM     24  C   UNL A   1      47.014  44.806  20.415  1.00  0.00     0.010 A 
ATOM     25  C   UNL A   1      47.142  46.983  21.332  1.00  0.00     0.010 A 
BRANCH  21  26
ATOM     26  O   UNL A   1      48.660  44.503  23.600  1.00  0.00    -0.497 OA
ATOM     27  C   UNL A   1      48.117  45.044  24.802  1.00  0.00     0.278 C 
ENDBRANCH  21  26
ENDBRANCH  10  20
BRANCH  11  28
ATOM     28  C   UNL A   1      46.854  46.359  17.074  1.00  0.00     0.086 C 
ATOM     29  C   UNL A   1      47.815  46.647  15.952  1.00  0.00     0.027 C 
ATOM     30  C   UNL A   1      48.226  45.701  17.018  1.00  0.00     0.027 C 
ENDBRANCH  11  28
ENDBRANCH   7   9
ENDBRANCH   6   7
ENDBRANCH   5   6
ENDBRANCH   4   5
ENDBRANCH   3   4
ENDBRANCH   2   3
ENDBRANCH   1   2
BRANCH   1  31
ATOM     31  O   UNL A   1      41.775  41.072  24.300  1.00  0.00    -0.376 OA
BRANCH  31  32
ATOM     32  C   UNL A   1      41.744  41.000  25.715  1.00  0.00     0.202 C 
BRANCH  32  33
ATOM     33  C   UNL A   1      43.090  40.751  26.416  1.00  0.00     0.261 C 
BRANCH  33  34
ATOM     34  O   UNL A   1      43.254  39.452  27.029  1.00  0.00    -0.460 OA
BRANCH  34  35
ATOM     35  C   UNL A   1      44.368  38.766  26.668  1.00  0.00     0.338 C 
ATOM     36  O   UNL A   1      45.369  39.245  26.141  1.00  0.00    -0.246 OA
BRANCH  35  37
ATOM     37  C   UNL A   1      44.315  37.351  27.121  1.00  0.00     0.060 A 
ATOM     38  C   UNL A   1      43.059  36.749  27.229  1.00  0.00     0.016 A 
ATOM     39  C   UNL A   1      45.442  36.645  27.545  1.00  0.00     0.016 A 
ATOM     40  C   UNL A   1      42.919  35.460  27.760  1.00  0.00     0.010 A 
ATOM     41  C   UNL A   1      45.295  35.361  28.114  1.00  0.00     0.010 A 
ATOM     42  C   UNL A   1      44.028  34.765  28.246  1.00  0.00    -0.014 A 
BRANCH  42  43
ATOM     43  C   UNL A   1      43.815  33.540  29.078  1.00  0.00     0.031 A 
ATOM     44  C   UNL A   1      43.587  33.710  30.550  1.00  0.00     0.074 A 
ATOM     45  C   UNL A   1      43.784  32.295  28.565  1.00  0.00     0.049 A 
ATOM     46  N   UNL A   1      43.471  32.798  31.478  1.00  0.00    -0.248 NA
ATOM     47  C   UNL A   1      43.485  35.092  31.039  1.00  0.00     0.031 C 
ATOM     48  C   UNL A   1      43.928  31.988  27.157  1.00  0.00     0.029 A 
ATOM     49  N   UNL A   1      43.640  31.059  29.152  1.00  0.00    -0.354 N 
ATOM     50  C   UNL A   1      43.326  33.492  32.669  1.00  0.00     0.074 A 
ATOM     51  C   UNL A   1      43.361  34.903  32.344  1.00  0.00     0.031 C 
ATOM     52  C   UNL A   1      43.872  30.662  26.965  1.00  0.00     0.029 A 
ATOM     53  C   UNL A   1      43.761  30.009  28.266  1.00  0.00     0.049 A 
ATOM     54  H   UNL A   1      43.466  30.937  30.114  1.00  0.00     0.167 HD
ATOM     55  C   UNL A   1      43.183  33.001  33.921  1.00  0.00     0.034 A 
ATOM     56  C   UNL A   1      43.828  28.678  28.479  1.00  0.00     0.034 A 
ATOM     57  C   UNL A   1      43.142  31.602  34.247  1.00  0.00     0.049 A 
ATOM     58  C   UNL A   1      43.735  28.159  29.891  1.00  0.00     0.074 A 
ATOM     59  C   UNL A   1      42.993  31.017  35.491  1.00  0.00     0.029 A 
ATOM     60  N   UNL A   1      43.266  30.567  33.332  1.00  0.00    -0.354 N 
ATOM     61  N   UNL A   1      43.548  28.827  31.004  1.00  0.00    -0.248 NA
ATOM     62  C   UNL A   1      43.843  26.705  30.080  1.00  0.00     0.031 C 
ATOM     63  C   UNL A   1      43.068  29.630  35.336  1.00  0.00     0.029 A 
ATOM     64  C   UNL A   1      43.213  29.348  33.988  1.00  0.00     0.049 A 
ATOM     65  H   UNL A   1      43.375  30.682  32.360  1.00  0.00     0.167 HD
ATOM     66  C   UNL A   1      43.474  27.875  32.015  1.00  0.00     0.074 A 
ATOM     67  C   UNL A   1      43.623  26.581  31.382  1.00  0.00     0.031 C 
ATOM     68  C   UNL A   1      43.306  28.060  33.347  1.00  0.00     0.034 A 
BRANCH  55  69
ATOM     69  C   UNL A   1      43.086  33.999  35.041  1.00  0.00     0.023 A 
ATOM     70  C   UNL A   1      44.256  34.503  35.643  1.00  0.00     0.012 A 
ATOM     71  C   UNL A   1      41.828  34.460  35.475  1.00  0.00     0.148 A 
ATOM     72  C   UNL A   1      44.174  35.422  36.687  1.00  0.00     0.002 A 
ATOM     73  C   UNL A   1      41.756  35.414  36.481  1.00  0.00     0.091 A 
ATOM     74  F   UNL A   1      40.728  33.947  34.905  1.00  0.00    -0.205 F 
ATOM     75  C   UNL A   1      42.926  35.886  37.098  1.00  0.00     0.022 A 
BRANCH  73  76
ATOM     76  S   UNL A   1      40.201  36.129  37.023  1.00  0.00     0.127 S 
ATOM     77  O   UNL A   1      39.637  36.603  35.760  1.00  0.00    -0.237 OA
ATOM     78  O   UNL A   1      39.518  34.972  37.601  1.00  0.00    -0.237 OA
ATOM     79  O   UNL A   1      40.547  37.171  37.980  1.00  0.00    -0.744 OA
ENDBRANCH  73  76
ENDBRANCH  55  69
BRANCH  56  80
ATOM     80  C   UNL A   1      44.014  27.730  27.338  1.00  0.00     0.023 A 
ATOM     81  C   UNL A   1      42.895  27.085  26.775  1.00  0.00     0.012 A 
ATOM     82  C   UNL A   1      45.296  27.443  26.826  1.00  0.00     0.148 A 
ATOM     83  C   UNL A   1      43.052  26.148  25.751  1.00  0.00     0.002 A 
ATOM     84  C   UNL A   1      45.439  26.552  25.767  1.00  0.00     0.091 A 
ATOM     85  F   UNL A   1      46.353  28.047  27.386  1.00  0.00    -0.205 F 
ATOM     86  C   UNL A   1      44.321  25.888  25.242  1.00  0.00     0.022 A 
BRANCH  84  87
ATOM     87  S   UNL A   1      47.019  26.244  24.970  1.00  0.00     0.127 S 
ATOM     88  O   UNL A   1      46.847  24.881  24.475  1.00  0.00    -0.237 OA
ATOM     89  O   UNL A   1      47.042  27.278  23.936  1.00  0.00    -0.237 OA
ATOM     90  O   UNL A   1      48.027  26.414  26.009  1.00  0.00    -0.744 OA
ENDBRANCH  84  87
ENDBRANCH  56  80
BRANCH  68  91
ATOM     91  C   UNL A   1      43.210  26.838  34.225  1.00  0.00     0.023 A 
ATOM     92  C   UNL A   1      41.953  26.360  34.643  1.00  0.00     0.012 A 
ATOM     93  C   UNL A   1      44.371  26.113  34.564  1.00  0.00     0.148 A 
ATOM     94  C   UNL A   1      41.854  25.198  35.410  1.00  0.00     0.002 A 
ATOM     95  C   UNL A   1      44.262  24.928  35.282  1.00  0.00     0.091 A 
ATOM     96  F   UNL A   1      45.560  26.593  34.172  1.00  0.00    -0.205 F 
ATOM     97  C   UNL A   1      43.006  24.477  35.718  1.00  0.00     0.022 A 
BRANCH  95  98
ATOM     98  S   UNL A   1      45.677  23.881  35.637  1.00  0.00     0.127 S 
ATOM     99  O   UNL A   1      46.195  23.614  34.296  1.00  0.00    -0.237 OA
ATOM    100  O   UNL A   1      46.517  24.761  36.450  1.00  0.00    -0.237 OA
ATOM    101  O   UNL A   1      45.155  22.720  36.345  1.00  0.00    -0.744 OA
ENDBRANCH  95  98
ENDBRANCH  68  91
ENDBRANCH  42  43
ENDBRANCH  35  37
ENDBRANCH  34  35
ENDBRANCH  33  34
ENDBRANCH  32  33
ENDBRANCH  31  32
ENDBRANCH   1  31
TORSDOF 23
ENDMDL
