MODEL 1
REMARK VINA RESULT:      -9.8      0.000      0.000
REMARK SMILES O=C(NC[C@@H]1CC[C@@H](C(=O)OCCOCCOCCOC(=O)c2ccc(-c3c4nc(c(-c5cccc(S(=O)(=O)[O-])c5F)c5ccc([nH]5)c(-c5cccc(S(=O)(=O)[O-])c5F)c5nc(c(-c6cccc(S(=O)(=O)[O-])c6F)c6ccc3[nH]6)C=C5)C=C4)cc2)O1)c1cccc(O)c1
REMARK SMILES IDX 15 1 14 2 13 3 12 4 11 5 9 6 10 7 8 8 5 9 6 10 86 11 7 12
REMARK SMILES IDX 4 13 3 14 1 15 2 16 87 18 88 19 93 20 89 21 91 22 90 23
REMARK SMILES IDX 92 24 16 26 17 27 18 28 19 29 20 30 21 31 22 32 23 33 24 34
REMARK SMILES IDX 85 35 25 36 84 37 26 38 27 39 28 40 78 41 29 42 83 43 77 44
REMARK SMILES IDX 79 45 30 46 82 47 76 48 75 49 31 51 63 52 43 53 62 54 44 55
REMARK SMILES IDX 47 56 61 57 80 58 45 59 46 60 60 62 81 63 48 64 32 65 33 66
REMARK SMILES IDX 41 67 34 68 36 69 42 70 35 71 37 72 38 73 39 74 40 75 64 76
REMARK SMILES IDX 65 77 73 78 66 79 68 80 74 81 67 82 69 83 70 84 71 85 72 86
REMARK SMILES IDX 49 87 50 88 58 89 51 90 53 91 59 92 52 93 54 94 55 95 56 96
REMARK SMILES IDX 57 97
REMARK H PARENT 3 17 92 25 79 50 47 61
REMARK Flexibility Score: inf
ROOT
ATOM      1  C   UNL A   1      36.990  23.480  25.470  1.00  0.00     0.188 C 
ENDROOT
BRANCH   1   2
ATOM      2  O   UNL A   1      35.728  23.491  26.110  1.00  0.00    -0.376 OA
BRANCH   2   3
ATOM      3  C   UNL A   1      35.231  22.292  26.687  1.00  0.00     0.202 C 
BRANCH   3   4
ATOM      4  C   UNL A   1      33.728  21.961  26.762  1.00  0.00     0.261 C 
BRANCH   4   5
ATOM      5  O   UNL A   1      32.905  22.611  25.780  1.00  0.00    -0.461 OA
BRANCH   5   6
ATOM      6  C   UNL A   1      32.286  23.754  26.183  1.00  0.00     0.335 C 
ATOM      7  O   UNL A   1      31.705  23.883  27.256  1.00  0.00    -0.249 OA
BRANCH   6   8
ATOM      8  C   UNL A   1      32.455  24.912  25.190  1.00  0.00     0.228 C 
ATOM      9  C   UNL A   1      33.948  26.384  24.152  1.00  0.00     0.138 C 
ATOM     10  C   UNL A   1      32.948  25.871  23.116  1.00  0.00     0.037 C 
ATOM     11  O   UNL A   1      33.675  25.650  25.369  1.00  0.00    -0.361 OA
ATOM     12  C   UNL A   1      32.445  24.570  23.714  1.00  0.00     0.047 C 
BRANCH   9  13
ATOM     13  C   UNL A   1      33.912  27.885  24.494  1.00  0.00     0.148 C 
BRANCH  13  14
ATOM     14  N   UNL A   1      33.254  28.237  25.741  1.00  0.00    -0.349 N 
ATOM     15  O   UNL A   1      31.588  29.025  27.048  1.00  0.00    -0.269 OA
ATOM     16  C   UNL A   1      31.946  28.602  25.953  1.00  0.00     0.251 C 
ATOM     17  H   UNL A   1      33.822  28.212  26.545  1.00  0.00     0.163 HD
BRANCH  16  18
ATOM     18  C   UNL A   1      30.974  28.569  24.837  1.00  0.00     0.043 A 
ATOM     19  C   UNL A   1      30.185  27.441  24.581  1.00  0.00     0.014 A 
ATOM     20  C   UNL A   1      30.859  29.707  24.033  1.00  0.00     0.060 A 
ATOM     21  C   UNL A   1      29.362  27.412  23.454  1.00  0.00     0.005 A 
ATOM     22  C   UNL A   1      30.016  29.671  22.928  1.00  0.00     0.116 A 
ATOM     23  C   UNL A   1      29.289  28.526  22.618  1.00  0.00     0.046 A 
BRANCH  22  24
ATOM     24  O   UNL A   1      29.881  30.754  22.109  1.00  0.00    -0.508 OA
ATOM     25  H   UNL A   1      29.757  30.631  21.187  1.00  0.00     0.293 HD
ENDBRANCH  22  24
ENDBRANCH  16  18
ENDBRANCH  13  14
ENDBRANCH   9  13
ENDBRANCH   6   8
ENDBRANCH   5   6
ENDBRANCH   4   5
ENDBRANCH   3   4
ENDBRANCH   2   3
ENDBRANCH   1   2
BRANCH   1  26
ATOM     26  C   UNL A   1      37.875  22.225  25.613  1.00  0.00     0.188 C 
BRANCH  26  27
ATOM     27  O   UNL A   1      37.757  21.206  24.651  1.00  0.00    -0.376 OA
BRANCH  27  28
ATOM     28  C   UNL A   1      37.910  19.849  25.029  1.00  0.00     0.202 C 
BRANCH  28  29
ATOM     29  C   UNL A   1      39.228  19.152  25.430  1.00  0.00     0.261 C 
BRANCH  29  30
ATOM     30  O   UNL A   1      40.008  19.708  26.491  1.00  0.00    -0.460 OA
BRANCH  30  31
ATOM     31  C   UNL A   1      41.352  19.658  26.324  1.00  0.00     0.338 C 
ATOM     32  O   UNL A   1      42.006  18.720  25.886  1.00  0.00    -0.246 OA
BRANCH  31  33
ATOM     33  C   UNL A   1      41.907  21.005  26.549  1.00  0.00     0.060 A 
ATOM     34  C   UNL A   1      42.129  21.430  27.868  1.00  0.00     0.016 A 
ATOM     35  C   UNL A   1      42.179  21.853  25.476  1.00  0.00     0.016 A 
ATOM     36  C   UNL A   1      42.615  22.711  28.120  1.00  0.00     0.010 A 
ATOM     37  C   UNL A   1      42.636  23.148  25.732  1.00  0.00     0.010 A 
ATOM     38  C   UNL A   1      42.830  23.592  27.055  1.00  0.00    -0.014 A 
BRANCH  38  39
ATOM     39  C   UNL A   1      43.069  25.030  27.327  1.00  0.00     0.031 A 
ATOM     40  C   UNL A   1      44.448  25.581  27.090  1.00  0.00     0.074 A 
ATOM     41  C   UNL A   1      42.086  25.831  27.774  1.00  0.00     0.049 A 
ATOM     42  N   UNL A   1      44.915  26.777  27.328  1.00  0.00    -0.248 NA
ATOM     43  C   UNL A   1      45.431  24.653  26.506  1.00  0.00     0.031 C 
ATOM     44  C   UNL A   1      40.702  25.426  28.010  1.00  0.00     0.029 A 
ATOM     45  N   UNL A   1      42.118  27.156  28.136  1.00  0.00    -0.354 N 
ATOM     46  C   UNL A   1      46.256  26.738  26.960  1.00  0.00     0.074 A 
ATOM     47  C   UNL A   1      46.527  25.397  26.488  1.00  0.00     0.031 C 
ATOM     48  C   UNL A   1      40.022  26.473  28.511  1.00  0.00     0.029 A 
ATOM     49  C   UNL A   1      40.931  27.608  28.662  1.00  0.00     0.049 A 
ATOM     50  H   UNL A   1      42.914  27.725  28.029  1.00  0.00     0.167 HD
ATOM     51  C   UNL A   1      47.176  27.729  27.002  1.00  0.00     0.034 A 
ATOM     52  C   UNL A   1      40.627  28.793  29.231  1.00  0.00     0.034 A 
ATOM     53  C   UNL A   1      46.904  29.062  27.465  1.00  0.00     0.049 A 
ATOM     54  C   UNL A   1      41.685  29.864  29.318  1.00  0.00     0.074 A 
ATOM     55  C   UNL A   1      47.761  30.146  27.520  1.00  0.00     0.029 A 
ATOM     56  N   UNL A   1      45.684  29.491  27.966  1.00  0.00    -0.354 N 
ATOM     57  N   UNL A   1      42.924  29.843  28.886  1.00  0.00    -0.248 NA
ATOM     58  C   UNL A   1      41.295  31.135  29.948  1.00  0.00     0.031 C 
ATOM     59  C   UNL A   1      47.071  31.220  28.090  1.00  0.00     0.029 A 
ATOM     60  C   UNL A   1      45.770  30.820  28.347  1.00  0.00     0.049 A 
ATOM     61  H   UNL A   1      44.877  28.933  28.042  1.00  0.00     0.167 HD
ATOM     62  C   UNL A   1      43.443  31.107  29.148  1.00  0.00     0.074 A 
ATOM     63  C   UNL A   1      42.381  31.874  29.765  1.00  0.00     0.031 C 
ATOM     64  C   UNL A   1      44.688  31.588  28.908  1.00  0.00     0.034 A 
BRANCH  51  65
ATOM     65  C   UNL A   1      48.569  27.403  26.529  1.00  0.00     0.023 A 
ATOM     66  C   UNL A   1      49.506  26.853  27.427  1.00  0.00     0.012 A 
ATOM     67  C   UNL A   1      48.939  27.611  25.185  1.00  0.00     0.148 A 
ATOM     68  C   UNL A   1      50.802  26.553  27.007  1.00  0.00     0.002 A 
ATOM     69  C   UNL A   1      50.217  27.264  24.762  1.00  0.00     0.091 A 
ATOM     70  F   UNL A   1      48.043  28.157  24.352  1.00  0.00    -0.205 F 
ATOM     71  C   UNL A   1      51.153  26.749  25.674  1.00  0.00     0.022 A 
BRANCH  69  72
ATOM     72  S   UNL A   1      50.741  27.402  23.051  1.00  0.00     0.127 S 
ATOM     73  O   UNL A   1      50.751  28.852  22.862  1.00  0.00    -0.237 OA
ATOM     74  O   UNL A   1      52.065  26.782  23.084  1.00  0.00    -0.237 OA
ATOM     75  O   UNL A   1      49.750  26.678  22.266  1.00  0.00    -0.744 OA
ENDBRANCH  69  72
ENDBRANCH  51  65
BRANCH  52  76
ATOM     76  C   UNL A   1      39.251  29.047  29.748  1.00  0.00     0.023 A 
ATOM     77  C   UNL A   1      38.924  28.671  31.065  1.00  0.00     0.012 A 
ATOM     78  C   UNL A   1      38.266  29.650  28.942  1.00  0.00     0.148 A 
ATOM     79  C   UNL A   1      37.632  28.857  31.559  1.00  0.00     0.002 A 
ATOM     80  C   UNL A   1      36.998  29.884  29.458  1.00  0.00     0.091 A 
ATOM     81  F   UNL A   1      38.593  29.987  27.686  1.00  0.00    -0.205 F 
ATOM     82  C   UNL A   1      36.673  29.472  30.759  1.00  0.00     0.022 A 
BRANCH  80  83
ATOM     83  S   UNL A   1      35.731  30.773  28.546  1.00  0.00     0.127 S 
ATOM     84  O   UNL A   1      34.958  31.383  29.625  1.00  0.00    -0.237 OA
ATOM     85  O   UNL A   1      36.532  31.707  27.756  1.00  0.00    -0.237 OA
ATOM     86  O   UNL A   1      35.029  29.766  27.761  1.00  0.00    -0.744 OA
ENDBRANCH  80  83
ENDBRANCH  52  76
BRANCH  64  87
ATOM     87  C   UNL A   1      44.966  33.031  29.251  1.00  0.00     0.023 A 
ATOM     88  C   UNL A   1      45.389  33.384  30.548  1.00  0.00     0.012 A 
ATOM     89  C   UNL A   1      44.879  34.029  28.260  1.00  0.00     0.148 A 
ATOM     90  C   UNL A   1      45.685  34.711  30.861  1.00  0.00     0.002 A 
ATOM     91  C   UNL A   1      45.228  35.340  28.563  1.00  0.00     0.091 A 
ATOM     92  F   UNL A   1      44.460  33.677  27.036  1.00  0.00    -0.205 F 
ATOM     93  C   UNL A   1      45.617  35.685  29.868  1.00  0.00     0.022 A 
BRANCH  91  94
ATOM     94  S   UNL A   1      45.268  36.639  27.324  1.00  0.00     0.127 S 
ATOM     95  O   UNL A   1      43.844  36.841  27.059  1.00  0.00    -0.237 OA
ATOM     96  O   UNL A   1      45.916  37.735  28.047  1.00  0.00    -0.237 OA
ATOM     97  O   UNL A   1      46.040  36.110  26.209  1.00  0.00    -0.744 OA
ENDBRANCH  91  94
ENDBRANCH  64  87
ENDBRANCH  38  39
ENDBRANCH  31  33
ENDBRANCH  30  31
ENDBRANCH  29  30
ENDBRANCH  28  29
ENDBRANCH  27  28
ENDBRANCH  26  27
ENDBRANCH   1  26
TORSDOF 24
ENDMDL
MODEL 2
REMARK VINA RESULT:      -9.3      2.155      7.842
REMARK SMILES O=C(NC[C@@H]1CC[C@@H](C(=O)OCCOCCOCCOC(=O)c2ccc(-c3c4nc(c(-c5cccc(S(=O)(=O)[O-])c5F)c5ccc([nH]5)c(-c5cccc(S(=O)(=O)[O-])c5F)c5nc(c(-c6cccc(S(=O)(=O)[O-])c6F)c6ccc3[nH]6)C=C5)C=C4)cc2)O1)c1cccc(O)c1
REMARK SMILES IDX 15 1 14 2 13 3 12 4 11 5 9 6 10 7 8 8 5 9 6 10 86 11 7 12
REMARK SMILES IDX 4 13 3 14 1 15 2 16 87 18 88 19 93 20 89 21 91 22 90 23
REMARK SMILES IDX 92 24 16 26 17 27 18 28 19 29 20 30 21 31 22 32 23 33 24 34
REMARK SMILES IDX 85 35 25 36 84 37 26 38 27 39 28 40 78 41 29 42 83 43 77 44
REMARK SMILES IDX 79 45 30 46 82 47 76 48 75 49 31 51 63 52 43 53 62 54 44 55
REMARK SMILES IDX 47 56 61 57 80 58 45 59 46 60 60 62 81 63 48 64 32 65 33 66
REMARK SMILES IDX 41 67 34 68 36 69 42 70 35 71 37 72 38 73 39 74 40 75 64 76
REMARK SMILES IDX 65 77 73 78 66 79 68 80 74 81 67 82 69 83 70 84 71 85 72 86
REMARK SMILES IDX 49 87 50 88 58 89 51 90 53 91 59 92 52 93 54 94 55 95 56 96
REMARK SMILES IDX 57 97
REMARK H PARENT 3 17 92 25 79 50 47 61
REMARK Flexibility Score: inf
ROOT
ATOM      1  C   UNL A   1      36.490  23.550  24.712  1.00  0.00     0.188 C 
ENDROOT
BRANCH   1   2
ATOM      2  O   UNL A   1      35.289  23.662  25.454  1.00  0.00    -0.376 OA
BRANCH   2   3
ATOM      3  C   UNL A   1      35.054  22.771  26.533  1.00  0.00     0.202 C 
BRANCH   3   4
ATOM      4  C   UNL A   1      34.326  21.424  26.361  1.00  0.00     0.261 C 
BRANCH   4   5
ATOM      5  O   UNL A   1      33.952  21.094  25.014  1.00  0.00    -0.461 OA
BRANCH   5   6
ATOM      6  C   UNL A   1      32.618  21.109  24.744  1.00  0.00     0.335 C 
ATOM      7  O   UNL A   1      31.826  20.257  25.134  1.00  0.00    -0.249 OA
BRANCH   6   8
ATOM      8  C   UNL A   1      32.175  22.354  23.964  1.00  0.00     0.228 C 
ATOM      9  C   UNL A   1      32.092  24.691  23.912  1.00  0.00     0.138 C 
ATOM     10  C   UNL A   1      32.477  24.173  22.527  1.00  0.00     0.037 C 
ATOM     11  O   UNL A   1      32.058  23.532  24.778  1.00  0.00    -0.361 OA
ATOM     12  C   UNL A   1      33.046  22.793  22.803  1.00  0.00     0.047 C 
BRANCH   9  13
ATOM     13  C   UNL A   1      30.740  25.416  24.051  1.00  0.00     0.148 C 
BRANCH  13  14
ATOM     14  N   UNL A   1      30.410  26.355  22.992  1.00  0.00    -0.349 N 
ATOM     15  O   UNL A   1      30.268  28.376  21.992  1.00  0.00    -0.269 OA
ATOM     16  C   UNL A   1      30.765  27.678  22.871  1.00  0.00     0.251 C 
ATOM     17  H   UNL A   1      29.857  25.997  22.261  1.00  0.00     0.163 HD
BRANCH  16  18
ATOM     18  C   UNL A   1      31.685  28.294  23.853  1.00  0.00     0.043 A 
ATOM     19  C   UNL A   1      32.995  27.833  24.024  1.00  0.00     0.014 A 
ATOM     20  C   UNL A   1      31.210  29.366  24.615  1.00  0.00     0.060 A 
ATOM     21  C   UNL A   1      33.792  28.369  25.036  1.00  0.00     0.005 A 
ATOM     22  C   UNL A   1      32.025  29.907  25.602  1.00  0.00     0.116 A 
ATOM     23  C   UNL A   1      33.299  29.400  25.836  1.00  0.00     0.046 A 
BRANCH  22  24
ATOM     24  O   UNL A   1      31.599  30.946  26.378  1.00  0.00    -0.508 OA
ATOM     25  H   UNL A   1      31.048  31.610  26.011  1.00  0.00     0.293 HD
ENDBRANCH  22  24
ENDBRANCH  16  18
ENDBRANCH  13  14
ENDBRANCH   9  13
ENDBRANCH   6   8
ENDBRANCH   5   6
ENDBRANCH   4   5
ENDBRANCH   3   4
ENDBRANCH   2   3
ENDBRANCH   1   2
BRANCH   1  26
ATOM     26  C   UNL A   1      37.468  22.413  25.066  1.00  0.00     0.188 C 
BRANCH  26  27
ATOM     27  O   UNL A   1      37.434  21.233  24.300  1.00  0.00    -0.376 OA
BRANCH  27  28
ATOM     28  C   UNL A   1      37.613  19.974  24.923  1.00  0.00     0.202 C 
BRANCH  28  29
ATOM     29  C   UNL A   1      38.948  19.379  25.421  1.00  0.00     0.261 C 
BRANCH  29  30
ATOM     30  O   UNL A   1      39.860  20.224  26.126  1.00  0.00    -0.460 OA
BRANCH  30  31
ATOM     31  C   UNL A   1      41.165  19.864  26.067  1.00  0.00     0.338 C 
ATOM     32  O   UNL A   1      41.617  18.791  25.685  1.00  0.00    -0.246 OA
BRANCH  31  33
ATOM     33  C   UNL A   1      41.996  21.052  26.330  1.00  0.00     0.060 A 
ATOM     34  C   UNL A   1      42.344  21.350  27.657  1.00  0.00     0.016 A 
ATOM     35  C   UNL A   1      42.406  21.881  25.287  1.00  0.00     0.016 A 
ATOM     36  C   UNL A   1      43.095  22.486  27.946  1.00  0.00     0.010 A 
ATOM     37  C   UNL A   1      43.133  23.037  25.583  1.00  0.00     0.010 A 
ATOM     38  C   UNL A   1      43.457  23.359  26.915  1.00  0.00    -0.014 A 
BRANCH  38  39
ATOM     39  C   UNL A   1      44.000  24.700  27.243  1.00  0.00     0.031 A 
ATOM     40  C   UNL A   1      43.056  25.739  27.783  1.00  0.00     0.074 A 
ATOM     41  C   UNL A   1      45.300  24.991  27.066  1.00  0.00     0.049 A 
ATOM     42  N   UNL A   1      43.278  26.994  28.066  1.00  0.00    -0.248 NA
ATOM     43  C   UNL A   1      41.674  25.298  28.036  1.00  0.00     0.031 C 
ATOM     44  C   UNL A   1      46.320  24.063  26.583  1.00  0.00     0.029 A 
ATOM     45  N   UNL A   1      45.977  26.172  27.250  1.00  0.00    -0.354 N 
ATOM     46  C   UNL A   1      42.059  27.506  28.494  1.00  0.00     0.074 A 
ATOM     47  C   UNL A   1      41.099  26.425  28.428  1.00  0.00     0.031 C 
ATOM     48  C   UNL A   1      47.489  24.720  26.476  1.00  0.00     0.029 A 
ATOM     49  C   UNL A   1      47.291  26.119  26.849  1.00  0.00     0.049 A 
ATOM     50  H   UNL A   1      45.561  26.978  27.632  1.00  0.00     0.167 HD
ATOM     51  C   UNL A   1      41.764  28.759  28.914  1.00  0.00     0.034 A 
ATOM     52  C   UNL A   1      48.215  27.098  26.763  1.00  0.00     0.034 A 
ATOM     53  C   UNL A   1      42.720  29.829  28.985  1.00  0.00     0.049 A 
ATOM     54  C   UNL A   1      47.848  28.499  27.184  1.00  0.00     0.074 A 
ATOM     55  C   UNL A   1      42.527  31.127  29.423  1.00  0.00     0.029 A 
ATOM     56  N   UNL A   1      44.047  29.732  28.595  1.00  0.00    -0.354 N 
ATOM     57  N   UNL A   1      46.715  28.949  27.670  1.00  0.00    -0.248 NA
ATOM     58  C   UNL A   1      48.896  29.525  27.068  1.00  0.00     0.031 C 
ATOM     59  C   UNL A   1      43.728  31.825  29.262  1.00  0.00     0.029 A 
ATOM     60  C   UNL A   1      44.682  30.950  28.768  1.00  0.00     0.049 A 
ATOM     61  H   UNL A   1      44.474  28.917  28.244  1.00  0.00     0.167 HD
ATOM     62  C   UNL A   1      46.930  30.294  27.960  1.00  0.00     0.074 A 
ATOM     63  C   UNL A   1      48.305  30.582  27.608  1.00  0.00     0.031 C 
ATOM     64  C   UNL A   1      46.067  31.209  28.466  1.00  0.00     0.034 A 
BRANCH  51  65
ATOM     65  C   UNL A   1      40.343  29.035  29.331  1.00  0.00     0.023 A 
ATOM     66  C   UNL A   1      39.388  29.418  28.367  1.00  0.00     0.012 A 
ATOM     67  C   UNL A   1      39.945  28.881  30.675  1.00  0.00     0.148 A 
ATOM     68  C   UNL A   1      38.071  29.685  28.738  1.00  0.00     0.002 A 
ATOM     69  C   UNL A   1      38.619  29.100  31.028  1.00  0.00     0.091 A 
ATOM     70  F   UNL A   1      40.871  28.538  31.581  1.00  0.00    -0.205 F 
ATOM     71  C   UNL A   1      37.685  29.517  30.066  1.00  0.00     0.022 A 
BRANCH  69  72
ATOM     72  S   UNL A   1      38.006  28.833  32.694  1.00  0.00     0.127 S 
ATOM     73  O   UNL A   1      38.120  27.381  32.821  1.00  0.00    -0.237 OA
ATOM     74  O   UNL A   1      38.963  29.593  33.499  1.00  0.00    -0.237 OA
ATOM     75  O   UNL A   1      36.646  29.356  32.712  1.00  0.00    -0.744 OA
ENDBRANCH  69  72
ENDBRANCH  51  65
BRANCH  52  76
ATOM     76  C   UNL A   1      49.592  26.791  26.279  1.00  0.00     0.023 A 
ATOM     77  C   UNL A   1      50.496  26.128  27.131  1.00  0.00     0.012 A 
ATOM     78  C   UNL A   1      50.011  27.158  24.985  1.00  0.00     0.148 A 
ATOM     79  C   UNL A   1      51.803  25.868  26.718  1.00  0.00     0.002 A 
ATOM     80  C   UNL A   1      51.296  26.845  24.560  1.00  0.00     0.091 A 
ATOM     81  F   UNL A   1      49.140  27.801  24.194  1.00  0.00    -0.205 F 
ATOM     82  C   UNL A   1      52.200  26.217  25.431  1.00  0.00     0.022 A 
BRANCH  80  83
ATOM     83  S   UNL A   1      51.862  27.150  22.883  1.00  0.00     0.127 S 
ATOM     84  O   UNL A   1      50.697  26.750  22.097  1.00  0.00    -0.237 OA
ATOM     85  O   UNL A   1      52.122  28.589  22.913  1.00  0.00    -0.237 OA
ATOM     86  O   UNL A   1      53.051  26.326  22.710  1.00  0.00    -0.744 OA
ENDBRANCH  80  83
ENDBRANCH  52  76
BRANCH  64  87
ATOM     87  C   UNL A   1      46.588  32.600  28.733  1.00  0.00     0.023 A 
ATOM     88  C   UNL A   1      46.475  33.601  27.749  1.00  0.00     0.012 A 
ATOM     89  C   UNL A   1      47.123  32.929  29.995  1.00  0.00     0.148 A 
ATOM     90  C   UNL A   1      46.920  34.899  28.004  1.00  0.00     0.002 A 
ATOM     91  C   UNL A   1      47.513  34.237  30.261  1.00  0.00     0.091 A 
ATOM     92  F   UNL A   1      47.237  31.959  30.914  1.00  0.00    -0.205 F 
ATOM     93  C   UNL A   1      47.427  35.219  29.262  1.00  0.00     0.022 A 
BRANCH  91  94
ATOM     94  S   UNL A   1      48.081  34.763  31.882  1.00  0.00     0.127 S 
ATOM     95  O   UNL A   1      48.277  36.197  31.677  1.00  0.00    -0.237 OA
ATOM     96  O   UNL A   1      46.943  34.418  32.735  1.00  0.00    -0.237 OA
ATOM     97  O   UNL A   1      49.293  34.001  32.151  1.00  0.00    -0.744 OA
ENDBRANCH  91  94
ENDBRANCH  64  87
ENDBRANCH  38  39
ENDBRANCH  31  33
ENDBRANCH  30  31
ENDBRANCH  29  30
ENDBRANCH  28  29
ENDBRANCH  27  28
ENDBRANCH  26  27
ENDBRANCH   1  26
TORSDOF 24
ENDMDL
MODEL 3
REMARK VINA RESULT:      -8.6      1.890      2.576
REMARK SMILES O=C(NC[C@@H]1CC[C@@H](C(=O)OCCOCCOCCOC(=O)c2ccc(-c3c4nc(c(-c5cccc(S(=O)(=O)[O-])c5F)c5ccc([nH]5)c(-c5cccc(S(=O)(=O)[O-])c5F)c5nc(c(-c6cccc(S(=O)(=O)[O-])c6F)c6ccc3[nH]6)C=C5)C=C4)cc2)O1)c1cccc(O)c1
REMARK SMILES IDX 15 1 14 2 13 3 12 4 11 5 9 6 10 7 8 8 5 9 6 10 86 11 7 12
REMARK SMILES IDX 4 13 3 14 1 15 2 16 87 18 88 19 93 20 89 21 91 22 90 23
REMARK SMILES IDX 92 24 16 26 17 27 18 28 19 29 20 30 21 31 22 32 23 33 24 34
REMARK SMILES IDX 85 35 25 36 84 37 26 38 27 39 28 40 78 41 29 42 83 43 77 44
REMARK SMILES IDX 79 45 30 46 82 47 76 48 75 49 31 51 63 52 43 53 62 54 44 55
REMARK SMILES IDX 47 56 61 57 80 58 45 59 46 60 60 62 81 63 48 64 32 65 33 66
REMARK SMILES IDX 41 67 34 68 36 69 42 70 35 71 37 72 38 73 39 74 40 75 64 76
REMARK SMILES IDX 65 77 73 78 66 79 68 80 74 81 67 82 69 83 70 84 71 85 72 86
REMARK SMILES IDX 49 87 50 88 58 89 51 90 53 91 59 92 52 93 54 94 55 95 56 96
REMARK SMILES IDX 57 97
REMARK H PARENT 3 17 92 25 79 50 47 61
REMARK Flexibility Score: inf
ROOT
ATOM      1  C   UNL A   1      35.519  21.547  25.321  1.00  0.00     0.188 C 
ENDROOT
BRANCH   1   2
ATOM      2  O   UNL A   1      34.437  22.450  25.184  1.00  0.00    -0.376 OA
BRANCH   2   3
ATOM      3  C   UNL A   1      33.725  22.499  23.957  1.00  0.00     0.202 C 
BRANCH   3   4
ATOM      4  C   UNL A   1      32.230  22.859  23.872  1.00  0.00     0.261 C 
BRANCH   4   5
ATOM      5  O   UNL A   1      31.815  23.488  22.650  1.00  0.00    -0.461 OA
BRANCH   5   6
ATOM      6  C   UNL A   1      32.728  24.310  22.062  1.00  0.00     0.335 C 
ATOM      7  O   UNL A   1      33.518  23.955  21.193  1.00  0.00    -0.249 OA
BRANCH   6   8
ATOM      8  C   UNL A   1      32.620  25.766  22.536  1.00  0.00     0.228 C 
ATOM      9  C   UNL A   1      33.352  27.968  22.243  1.00  0.00     0.138 C 
ATOM     10  C   UNL A   1      31.840  27.968  22.458  1.00  0.00     0.037 C 
ATOM     11  O   UNL A   1      33.745  26.577  22.164  1.00  0.00    -0.361 OA
ATOM     12  C   UNL A   1      31.419  26.563  22.067  1.00  0.00     0.047 C 
BRANCH   9  13
ATOM     13  C   UNL A   1      34.225  28.639  23.319  1.00  0.00     0.148 C 
BRANCH  13  14
ATOM     14  N   UNL A   1      33.535  29.538  24.228  1.00  0.00    -0.349 N 
ATOM     15  O   UNL A   1      32.092  30.112  25.869  1.00  0.00    -0.269 OA
ATOM     16  C   UNL A   1      32.730  29.231  25.300  1.00  0.00     0.251 C 
ATOM     17  H   UNL A   1      33.660  30.499  24.054  1.00  0.00     0.163 HD
BRANCH  16  18
ATOM     18  C   UNL A   1      32.559  27.824  25.723  1.00  0.00     0.043 A 
ATOM     19  C   UNL A   1      33.656  26.977  25.922  1.00  0.00     0.014 A 
ATOM     20  C   UNL A   1      31.258  27.352  25.924  1.00  0.00     0.060 A 
ATOM     21  C   UNL A   1      33.446  25.628  26.214  1.00  0.00     0.005 A 
ATOM     22  C   UNL A   1      31.067  26.012  26.240  1.00  0.00     0.116 A 
ATOM     23  C   UNL A   1      32.147  25.142  26.359  1.00  0.00     0.046 A 
BRANCH  22  24
ATOM     24  O   UNL A   1      29.815  25.504  26.433  1.00  0.00    -0.508 OA
ATOM     25  H   UNL A   1      29.604  24.645  26.121  1.00  0.00     0.293 HD
ENDBRANCH  22  24
ENDBRANCH  16  18
ENDBRANCH  13  14
ENDBRANCH   9  13
ENDBRANCH   6   8
ENDBRANCH   5   6
ENDBRANCH   4   5
ENDBRANCH   3   4
ENDBRANCH   2   3
ENDBRANCH   1   2
BRANCH   1  26
ATOM     26  C   UNL A   1      36.921  22.009  24.876  1.00  0.00     0.188 C 
BRANCH  26  27
ATOM     27  O   UNL A   1      38.042  21.520  25.572  1.00  0.00    -0.376 OA
BRANCH  27  28
ATOM     28  C   UNL A   1      38.751  20.397  25.081  1.00  0.00     0.202 C 
BRANCH  28  29
ATOM     29  C   UNL A   1      39.701  19.487  25.890  1.00  0.00     0.261 C 
BRANCH  29  30
ATOM     30  O   UNL A   1      41.111  19.695  25.785  1.00  0.00    -0.460 OA
BRANCH  30  31
ATOM     31  C   UNL A   1      41.785  19.771  26.958  1.00  0.00     0.338 C 
ATOM     32  O   UNL A   1      42.117  18.838  27.679  1.00  0.00    -0.246 OA
BRANCH  31  33
ATOM     33  C   UNL A   1      42.263  21.153  27.141  1.00  0.00     0.060 A 
ATOM     34  C   UNL A   1      42.579  21.591  28.436  1.00  0.00     0.016 A 
ATOM     35  C   UNL A   1      42.371  22.020  26.055  1.00  0.00     0.016 A 
ATOM     36  C   UNL A   1      42.995  22.902  28.652  1.00  0.00     0.010 A 
ATOM     37  C   UNL A   1      42.759  23.344  26.277  1.00  0.00     0.010 A 
ATOM     38  C   UNL A   1      43.045  23.798  27.579  1.00  0.00    -0.014 A 
BRANCH  38  39
ATOM     39  C   UNL A   1      43.207  25.249  27.839  1.00  0.00     0.031 A 
ATOM     40  C   UNL A   1      44.590  25.835  27.777  1.00  0.00     0.074 A 
ATOM     41  C   UNL A   1      42.151  26.031  28.125  1.00  0.00     0.049 A 
ATOM     42  N   UNL A   1      44.989  27.051  28.041  1.00  0.00    -0.248 NA
ATOM     43  C   UNL A   1      45.668  24.923  27.358  1.00  0.00     0.031 C 
ATOM     44  C   UNL A   1      40.759  25.591  28.182  1.00  0.00     0.029 A 
ATOM     45  N   UNL A   1      42.099  27.365  28.450  1.00  0.00    -0.354 N 
ATOM     46  C   UNL A   1      46.368  27.042  27.860  1.00  0.00     0.074 A 
ATOM     47  C   UNL A   1      46.736  25.699  27.469  1.00  0.00     0.031 C 
ATOM     48  C   UNL A   1      39.990  26.630  28.556  1.00  0.00     0.029 A 
ATOM     49  C   UNL A   1      40.839  27.795  28.797  1.00  0.00     0.049 A 
ATOM     50  H   UNL A   1      42.886  27.955  28.436  1.00  0.00     0.167 HD
ATOM     51  C   UNL A   1      47.248  28.061  27.998  1.00  0.00     0.034 A 
ATOM     52  C   UNL A   1      40.430  28.984  29.285  1.00  0.00     0.034 A 
ATOM     53  C   UNL A   1      46.880  29.397  28.381  1.00  0.00     0.049 A 
ATOM     54  C   UNL A   1      41.438  30.088  29.483  1.00  0.00     0.074 A 
ATOM     55  C   UNL A   1      47.693  30.507  28.521  1.00  0.00     0.029 A 
ATOM     56  N   UNL A   1      45.592  29.802  28.700  1.00  0.00    -0.354 N 
ATOM     57  N   UNL A   1      42.724  30.093  29.225  1.00  0.00    -0.248 NA
ATOM     58  C   UNL A   1      40.932  31.362  30.018  1.00  0.00     0.031 C 
ATOM     59  C   UNL A   1      46.903  31.574  28.961  1.00  0.00     0.029 A 
ATOM     60  C   UNL A   1      45.590  31.141  29.050  1.00  0.00     0.049 A 
ATOM     61  H   UNL A   1      44.797  29.221  28.681  1.00  0.00     0.167 HD
ATOM     62  C   UNL A   1      43.169  31.379  29.519  1.00  0.00     0.074 A 
ATOM     63  C   UNL A   1      42.013  32.129  29.963  1.00  0.00     0.031 C 
ATOM     64  C   UNL A   1      44.422  31.891  29.437  1.00  0.00     0.034 A 
BRANCH  51  65
ATOM     65  C   UNL A   1      48.700  27.766  27.729  1.00  0.00     0.023 A 
ATOM     66  C   UNL A   1      49.498  27.182  28.734  1.00  0.00     0.012 A 
ATOM     67  C   UNL A   1      49.267  28.035  26.467  1.00  0.00     0.148 A 
ATOM     68  C   UNL A   1      50.845  26.909  28.503  1.00  0.00     0.002 A 
ATOM     69  C   UNL A   1      50.598  27.715  26.228  1.00  0.00     0.091 A 
ATOM     70  F   UNL A   1      48.500  28.612  25.531  1.00  0.00    -0.205 F 
ATOM     71  C   UNL A   1      51.392  27.166  27.249  1.00  0.00     0.022 A 
BRANCH  69  72
ATOM     72  S   UNL A   1      51.373  27.933  24.623  1.00  0.00     0.127 S 
ATOM     73  O   UNL A   1      51.279  29.381  24.444  1.00  0.00    -0.237 OA
ATOM     74  O   UNL A   1      52.727  27.434  24.867  1.00  0.00    -0.237 OA
ATOM     75  O   UNL A   1      50.591  27.137  23.687  1.00  0.00    -0.744 OA
ENDBRANCH  69  72
ENDBRANCH  51  65
BRANCH  52  76
ATOM     76  C   UNL A   1      38.989  29.209  29.602  1.00  0.00     0.023 A 
ATOM     77  C   UNL A   1      38.521  28.973  30.909  1.00  0.00     0.012 A 
ATOM     78  C   UNL A   1      38.083  29.648  28.617  1.00  0.00     0.148 A 
ATOM     79  C   UNL A   1      37.171  29.134  31.222  1.00  0.00     0.002 A 
ATOM     80  C   UNL A   1      36.751  29.861  28.950  1.00  0.00     0.091 A 
ATOM     81  F   UNL A   1      38.545  29.853  27.376  1.00  0.00    -0.205 F 
ATOM     82  C   UNL A   1      36.289  29.587  30.246  1.00  0.00     0.022 A 
BRANCH  80  83
ATOM     83  S   UNL A   1      35.564  30.552  27.792  1.00  0.00     0.127 S 
ATOM     84  O   UNL A   1      35.881  29.823  26.567  1.00  0.00    -0.237 OA
ATOM     85  O   UNL A   1      34.292  30.188  28.416  1.00  0.00    -0.237 OA
ATOM     86  O   UNL A   1      35.831  31.985  27.760  1.00  0.00    -0.744 OA
ENDBRANCH  80  83
ENDBRANCH  52  76
BRANCH  64  87
ATOM     87  C   UNL A   1      44.612  33.350  29.773  1.00  0.00     0.023 A 
ATOM     88  C   UNL A   1      44.488  34.331  28.769  1.00  0.00     0.012 A 
ATOM     89  C   UNL A   1      44.840  33.750  31.104  1.00  0.00     0.148 A 
ATOM     90  C   UNL A   1      44.624  35.684  29.081  1.00  0.00     0.002 A 
ATOM     91  C   UNL A   1      44.920  35.102  31.417  1.00  0.00     0.091 A 
ATOM     92  F   UNL A   1      44.970  32.801  32.043  1.00  0.00    -0.205 F 
ATOM     93  C   UNL A   1      44.828  36.070  30.404  1.00  0.00     0.022 A 
BRANCH  91  94
ATOM     94  S   UNL A   1      45.078  35.695  33.105  1.00  0.00     0.127 S 
ATOM     95  O   UNL A   1      46.187  34.881  33.603  1.00  0.00    -0.237 OA
ATOM     96  O   UNL A   1      45.399  37.109  32.907  1.00  0.00    -0.237 OA
ATOM     97  O   UNL A   1      43.791  35.450  33.741  1.00  0.00    -0.744 OA
ENDBRANCH  91  94
ENDBRANCH  64  87
ENDBRANCH  38  39
ENDBRANCH  31  33
ENDBRANCH  30  31
ENDBRANCH  29  30
ENDBRANCH  28  29
ENDBRANCH  27  28
ENDBRANCH  26  27
ENDBRANCH   1  26
TORSDOF 24
ENDMDL
