MODEL 1
REMARK VINA RESULT:     -11.2      0.000      0.000
REMARK SMILES Cc1ccc(C(=O)NC2CC2)cc1NC(=O)[C@@H]1[C@@H](C(=O)OCCOCCOCCOC(=O)c2ccc(-c3c4nc(c(-c5cccc(S(=O)(=O)[O-])c5F)c5ccc([nH]5)c(-c5cccc(S(=O)(=O)[O-])c5F)c5nc(c(-c6cccc(S(=O)(=O)[O-])c6F)c6ccc3[nH]6)C=C5)C=C4)cc2)[C@H]2C=C[C@@H]1C2
REMARK SMILES IDX 25 1 24 2 23 3 22 4 21 5 19 6 20 7 18 8 17 9 99 10 96 11
REMARK SMILES IDX 98 12 100 13 97 14 15 15 14 16 16 18 13 19 1 20 2 21 3 22
REMARK SMILES IDX 4 23 12 24 5 25 6 26 7 27 8 28 9 30 10 31 11 32 26 33 27 34
REMARK SMILES IDX 28 35 29 36 30 37 31 38 32 39 33 40 34 41 95 42 35 43 94 44
REMARK SMILES IDX 36 45 37 46 38 47 88 48 39 49 93 50 87 51 89 52 40 53 92 54
REMARK SMILES IDX 86 55 85 56 41 58 73 59 53 60 72 61 54 62 57 63 71 64 90 65
REMARK SMILES IDX 55 66 56 67 70 69 91 70 58 71 42 72 43 73 51 74 44 75 46 76
REMARK SMILES IDX 52 77 45 78 47 79 48 80 49 81 50 82 74 83 75 84 83 85 76 86
REMARK SMILES IDX 78 87 84 88 77 89 79 90 80 91 81 92 82 93 59 94 60 95 68 96
REMARK SMILES IDX 61 97 63 98 69 99 62 100 64 101 65 102 66 103 67 104
REMARK H PARENT 14 17 8 29 89 57 57 68
REMARK Flexibility Score: inf
ROOT
ATOM      1  C   UNL A   1      41.135  20.186  26.343  1.00  0.00     0.188 C 
ENDROOT
BRANCH   1   2
ATOM      2  O   UNL A   1      40.215  20.984  27.069  1.00  0.00    -0.376 OA
BRANCH   2   3
ATOM      3  C   UNL A   1      39.740  22.039  26.231  1.00  0.00     0.202 C 
BRANCH   3   4
ATOM      4  C   UNL A   1      38.320  21.843  25.652  1.00  0.00     0.261 C 
BRANCH   4   5
ATOM      5  O   UNL A   1      37.351  22.799  24.935  1.00  0.00    -0.463 OA
BRANCH   5   6
ATOM      6  C   UNL A   1      36.279  22.597  24.089  1.00  0.00     0.310 C 
ATOM      7  O   UNL A   1      36.391  22.941  22.918  1.00  0.00    -0.252 OA
BRANCH   6   8
ATOM      8  C   UNL A   1      34.920  21.967  24.650  1.00  0.00     0.119 C 
ATOM      9  C   UNL A   1      33.696  22.954  24.765  1.00  0.00     0.100 C 
ATOM     10  C   UNL A   1      32.769  22.321  25.876  1.00  0.00     0.025 C 
ATOM     11  C   UNL A   1      34.722  21.297  26.100  1.00  0.00     0.027 C 
ATOM     12  C   UNL A   1      33.281  22.705  27.223  1.00  0.00    -0.027 C 
ATOM     13  C   UNL A   1      33.250  20.874  25.929  1.00  0.00     0.017 C 
ATOM     14  C   UNL A   1      34.499  22.167  27.314  1.00  0.00    -0.027 C 
BRANCH   9  15
ATOM     15  C   UNL A   1      32.803  23.111  23.577  1.00  0.00     0.228 C 
ATOM     16  N   UNL A   1      32.116  24.269  23.328  1.00  0.00    -0.326 N 
ATOM     17  H   UNL A   1      31.443  24.136  22.621  1.00  0.00     0.169 HD
ATOM     18  O   UNL A   1      32.504  22.115  22.901  1.00  0.00    -0.274 OA
BRANCH  16  19
ATOM     19  C   UNL A   1      32.103  25.613  23.803  1.00  0.00     0.044 A 
ATOM     20  C   UNL A   1      32.247  26.438  21.366  1.00  0.00     0.046 C 
ATOM     21  C   UNL A   1      32.097  26.654  22.850  1.00  0.00    -0.027 A 
ATOM     22  C   UNL A   1      31.988  27.994  23.273  1.00  0.00     0.006 A 
ATOM     23  C   UNL A   1      31.926  28.327  24.624  1.00  0.00     0.014 A 
ATOM     24  C   UNL A   1      32.146  26.002  25.154  1.00  0.00     0.040 A 
ATOM     25  C   UNL A   1      32.016  27.332  25.595  1.00  0.00     0.041 A 
BRANCH  25  26
ATOM     26  C   UNL A   1      31.985  27.795  27.028  1.00  0.00     0.251 C 
ATOM     27  O   UNL A   1      31.014  27.508  27.737  1.00  0.00    -0.269 OA
ATOM     28  N   UNL A   1      33.022  28.473  27.632  1.00  0.00    -0.349 N 
ATOM     29  H   UNL A   1      32.941  28.584  28.606  1.00  0.00     0.164 HD
BRANCH  28  30
ATOM     30  C   UNL A   1      34.185  29.032  27.053  1.00  0.00     0.082 C 
ATOM     31  C   UNL A   1      34.433  30.479  27.322  1.00  0.00     0.027 C 
ATOM     32  C   UNL A   1      35.367  29.471  27.863  1.00  0.00     0.027 C 
ENDBRANCH  28  30
ENDBRANCH  25  26
ENDBRANCH  16  19
ENDBRANCH   9  15
ENDBRANCH   6   8
ENDBRANCH   5   6
ENDBRANCH   4   5
ENDBRANCH   3   4
ENDBRANCH   2   3
ENDBRANCH   1   2
BRANCH   1  33
ATOM     33  C   UNL A   1      42.548  20.772  26.395  1.00  0.00     0.188 C 
BRANCH  33  34
ATOM     34  O   UNL A   1      42.965  21.478  25.235  1.00  0.00    -0.376 OA
BRANCH  34  35
ATOM     35  C   UNL A   1      44.356  21.453  24.917  1.00  0.00     0.202 C 
BRANCH  35  36
ATOM     36  C   UNL A   1      44.661  22.774  24.210  1.00  0.00     0.261 C 
BRANCH  36  37
ATOM     37  O   UNL A   1      43.796  23.810  24.728  1.00  0.00    -0.460 OA
BRANCH  37  38
ATOM     38  C   UNL A   1      44.438  24.774  25.438  1.00  0.00     0.338 C 
ATOM     39  O   UNL A   1      44.973  25.761  24.957  1.00  0.00    -0.246 OA
BRANCH  38  40
ATOM     40  C   UNL A   1      44.557  24.329  26.863  1.00  0.00     0.060 A 
ATOM     41  C   UNL A   1      43.397  24.024  27.526  1.00  0.00     0.016 A 
ATOM     42  C   UNL A   1      45.728  24.430  27.629  1.00  0.00     0.016 A 
ATOM     43  C   UNL A   1      43.398  24.023  28.932  1.00  0.00     0.010 A 
ATOM     44  C   UNL A   1      45.683  24.484  29.053  1.00  0.00     0.010 A 
ATOM     45  C   UNL A   1      44.473  24.421  29.760  1.00  0.00    -0.014 A 
BRANCH  45  46
ATOM     46  C   UNL A   1      44.462  24.877  31.270  1.00  0.00     0.031 A 
ATOM     47  C   UNL A   1      43.881  26.224  31.570  1.00  0.00     0.074 A 
ATOM     48  C   UNL A   1      44.748  24.250  32.494  1.00  0.00     0.049 A 
ATOM     49  N   UNL A   1      43.863  26.748  32.762  1.00  0.00    -0.248 NA
ATOM     50  C   UNL A   1      43.372  27.128  30.541  1.00  0.00     0.031 C 
ATOM     51  C   UNL A   1      43.758  24.254  33.589  1.00  0.00     0.029 A 
ATOM     52  N   UNL A   1      45.695  23.367  33.072  1.00  0.00    -0.354 N 
ATOM     53  C   UNL A   1      42.932  27.737  32.697  1.00  0.00     0.074 A 
ATOM     54  C   UNL A   1      42.920  28.129  31.307  1.00  0.00     0.031 C 
ATOM     55  C   UNL A   1      44.240  23.645  34.680  1.00  0.00     0.029 A 
ATOM     56  C   UNL A   1      45.594  23.192  34.450  1.00  0.00     0.049 A 
ATOM     57  H   UNL A   1      46.379  22.906  32.535  1.00  0.00     0.167 HD
ATOM     58  C   UNL A   1      42.036  27.890  33.711  1.00  0.00     0.034 A 
ATOM     59  C   UNL A   1      46.538  22.834  35.384  1.00  0.00     0.034 A 
ATOM     60  C   UNL A   1      42.351  27.171  34.964  1.00  0.00     0.049 A 
ATOM     61  C   UNL A   1      46.377  23.676  36.656  1.00  0.00     0.074 A 
ATOM     62  C   UNL A   1      41.688  26.196  35.691  1.00  0.00     0.029 A 
ATOM     63  N   UNL A   1      43.570  27.356  35.622  1.00  0.00    -0.354 N 
ATOM     64  N   UNL A   1      45.280  24.316  36.970  1.00  0.00    -0.248 NA
ATOM     65  C   UNL A   1      47.474  24.047  37.558  1.00  0.00     0.031 C 
ATOM     66  C   UNL A   1      42.520  25.785  36.775  1.00  0.00     0.029 A 
ATOM     67  C   UNL A   1      43.686  26.529  36.748  1.00  0.00     0.049 A 
ATOM     68  H   UNL A   1      44.265  27.989  35.329  1.00  0.00     0.167 HD
ATOM     69  C   UNL A   1      45.615  25.428  37.712  1.00  0.00     0.074 A 
ATOM     70  C   UNL A   1      46.941  25.096  38.218  1.00  0.00     0.031 C 
ATOM     71  C   UNL A   1      44.877  26.595  37.631  1.00  0.00     0.034 A 
BRANCH  58  72
ATOM     72  C   UNL A   1      40.709  28.580  33.463  1.00  0.00     0.023 A 
ATOM     73  C   UNL A   1      39.730  27.899  32.720  1.00  0.00     0.012 A 
ATOM     74  C   UNL A   1      40.375  29.895  33.884  1.00  0.00     0.148 A 
ATOM     75  C   UNL A   1      38.469  28.463  32.478  1.00  0.00     0.002 A 
ATOM     76  C   UNL A   1      39.080  30.392  33.769  1.00  0.00     0.091 A 
ATOM     77  F   UNL A   1      41.331  30.740  34.292  1.00  0.00    -0.205 F 
ATOM     78  C   UNL A   1      38.124  29.686  33.048  1.00  0.00     0.022 A 
BRANCH  76  79
ATOM     79  S   UNL A   1      38.595  31.879  34.663  1.00  0.00     0.127 S 
ATOM     80  O   UNL A   1      39.232  31.689  35.965  1.00  0.00    -0.237 OA
ATOM     81  O   UNL A   1      39.174  32.950  33.852  1.00  0.00    -0.237 OA
ATOM     82  O   UNL A   1      37.135  31.862  34.664  1.00  0.00    -0.744 OA
ENDBRANCH  76  79
ENDBRANCH  58  72
BRANCH  59  83
ATOM     83  C   UNL A   1      47.731  21.956  35.012  1.00  0.00     0.023 A 
ATOM     84  C   UNL A   1      47.400  20.628  34.649  1.00  0.00     0.012 A 
ATOM     85  C   UNL A   1      49.066  22.347  34.732  1.00  0.00     0.148 A 
ATOM     86  C   UNL A   1      48.278  19.794  33.932  1.00  0.00     0.002 A 
ATOM     87  C   UNL A   1      49.898  21.556  33.915  1.00  0.00     0.091 A 
ATOM     88  F   UNL A   1      49.548  23.482  35.243  1.00  0.00    -0.205 F 
ATOM     89  C   UNL A   1      49.507  20.279  33.515  1.00  0.00     0.022 A 
BRANCH  87  90
ATOM     90  S   UNL A   1      51.374  22.197  33.086  1.00  0.00     0.127 S 
ATOM     91  O   UNL A   1      52.289  22.431  34.203  1.00  0.00    -0.237 OA
ATOM     92  O   UNL A   1      51.753  21.080  32.217  1.00  0.00    -0.237 OA
ATOM     93  O   UNL A   1      50.940  23.390  32.383  1.00  0.00    -0.744 OA
ENDBRANCH  87  90
ENDBRANCH  59  83
BRANCH  71  94
ATOM     94  C   UNL A   1      45.263  27.971  38.205  1.00  0.00     0.023 A 
ATOM     95  C   UNL A   1      45.488  29.126  37.430  1.00  0.00     0.012 A 
ATOM     96  C   UNL A   1      45.294  28.167  39.615  1.00  0.00     0.148 A 
ATOM     97  C   UNL A   1      45.718  30.388  38.005  1.00  0.00     0.002 A 
ATOM     98  C   UNL A   1      45.431  29.435  40.182  1.00  0.00     0.091 A 
ATOM     99  F   UNL A   1      45.223  27.111  40.438  1.00  0.00    -0.205 F 
ATOM    100  C   UNL A   1      45.661  30.550  39.382  1.00  0.00     0.022 A 
BRANCH  98 101
ATOM    101  S   UNL A   1      45.175  29.663  41.948  1.00  0.00     0.127 S 
ATOM    102  O   UNL A   1      46.300  28.929  42.520  1.00  0.00    -0.237 OA
ATOM    103  O   UNL A   1      45.256  31.118  42.102  1.00  0.00    -0.237 OA
ATOM    104  O   UNL A   1      43.847  29.114  42.188  1.00  0.00    -0.744 OA
ENDBRANCH  98 101
ENDBRANCH  71  94
ENDBRANCH  45  46
ENDBRANCH  38  40
ENDBRANCH  37  38
ENDBRANCH  36  37
ENDBRANCH  35  36
ENDBRANCH  34  35
ENDBRANCH  33  34
ENDBRANCH   1  33
TORSDOF 24
ENDMDL
MODEL 2
REMARK VINA RESULT:     -10.9      4.155      9.598
REMARK SMILES Cc1ccc(C(=O)NC2CC2)cc1NC(=O)[C@@H]1[C@@H](C(=O)OCCOCCOCCOC(=O)c2ccc(-c3c4nc(c(-c5cccc(S(=O)(=O)[O-])c5F)c5ccc([nH]5)c(-c5cccc(S(=O)(=O)[O-])c5F)c5nc(c(-c6cccc(S(=O)(=O)[O-])c6F)c6ccc3[nH]6)C=C5)C=C4)cc2)[C@H]2C=C[C@@H]1C2
REMARK SMILES IDX 25 1 24 2 23 3 22 4 21 5 19 6 20 7 18 8 17 9 99 10 96 11
REMARK SMILES IDX 98 12 100 13 97 14 15 15 14 16 16 18 13 19 1 20 2 21 3 22
REMARK SMILES IDX 4 23 12 24 5 25 6 26 7 27 8 28 9 30 10 31 11 32 26 33 27 34
REMARK SMILES IDX 28 35 29 36 30 37 31 38 32 39 33 40 34 41 95 42 35 43 94 44
REMARK SMILES IDX 36 45 37 46 38 47 88 48 39 49 93 50 87 51 89 52 40 53 92 54
REMARK SMILES IDX 86 55 85 56 41 58 73 59 53 60 72 61 54 62 57 63 71 64 90 65
REMARK SMILES IDX 55 66 56 67 70 69 91 70 58 71 42 72 43 73 51 74 44 75 46 76
REMARK SMILES IDX 52 77 45 78 47 79 48 80 49 81 50 82 74 83 75 84 83 85 76 86
REMARK SMILES IDX 78 87 84 88 77 89 79 90 80 91 81 92 82 93 59 94 60 95 68 96
REMARK SMILES IDX 61 97 63 98 69 99 62 100 64 101 65 102 66 103 67 104
REMARK H PARENT 14 17 8 29 89 57 57 68
REMARK Flexibility Score: inf
ROOT
ATOM      1  C   UNL A   1      33.659  27.866  26.435  1.00  0.00     0.188 C 
ENDROOT
BRANCH   1   2
ATOM      2  O   UNL A   1      32.617  27.859  27.397  1.00  0.00    -0.376 OA
BRANCH   2   3
ATOM      3  C   UNL A   1      31.610  26.927  26.997  1.00  0.00     0.202 C 
BRANCH   3   4
ATOM      4  C   UNL A   1      32.128  25.625  26.344  1.00  0.00     0.261 C 
BRANCH   4   5
ATOM      5  O   UNL A   1      33.225  24.626  26.752  1.00  0.00    -0.463 OA
BRANCH   5   6
ATOM      6  C   UNL A   1      34.389  24.203  26.143  1.00  0.00     0.310 C 
ATOM      7  O   UNL A   1      35.428  24.802  26.399  1.00  0.00    -0.252 OA
BRANCH   6   8
ATOM      8  C   UNL A   1      34.357  22.989  25.103  1.00  0.00     0.119 C 
ATOM      9  C   UNL A   1      33.221  23.043  24.010  1.00  0.00     0.100 C 
ATOM     10  C   UNL A   1      33.002  21.540  23.579  1.00  0.00     0.025 C 
ATOM     11  C   UNL A   1      34.147  21.437  25.475  1.00  0.00     0.027 C 
ATOM     12  C   UNL A   1      32.105  20.870  24.564  1.00  0.00    -0.027 C 
ATOM     13  C   UNL A   1      34.288  20.866  24.050  1.00  0.00     0.017 C 
ATOM     14  C   UNL A   1      32.759  20.898  25.727  1.00  0.00    -0.027 C 
BRANCH   9  15
ATOM     15  C   UNL A   1      33.506  23.762  22.732  1.00  0.00     0.228 C 
ATOM     16  N   UNL A   1      32.733  24.801  22.290  1.00  0.00    -0.326 N 
ATOM     17  H   UNL A   1      32.947  25.030  21.356  1.00  0.00     0.169 HD
ATOM     18  O   UNL A   1      34.335  23.292  21.938  1.00  0.00    -0.274 OA
BRANCH  16  19
ATOM     19  C   UNL A   1      31.705  25.646  22.803  1.00  0.00     0.044 A 
ATOM     20  C   UNL A   1      30.170  23.588  23.020  1.00  0.00     0.046 C 
ATOM     21  C   UNL A   1      30.497  25.046  23.216  1.00  0.00    -0.027 A 
ATOM     22  C   UNL A   1      29.491  25.830  23.817  1.00  0.00     0.006 A 
ATOM     23  C   UNL A   1      29.642  27.205  23.979  1.00  0.00     0.014 A 
ATOM     24  C   UNL A   1      31.768  27.048  22.889  1.00  0.00     0.040 A 
ATOM     25  C   UNL A   1      30.784  27.845  23.504  1.00  0.00     0.041 A 
BRANCH  25  26
ATOM     26  C   UNL A   1      30.835  29.340  23.685  1.00  0.00     0.251 C 
ATOM     27  O   UNL A   1      31.479  29.815  24.627  1.00  0.00    -0.269 OA
ATOM     28  N   UNL A   1      30.255  30.232  22.811  1.00  0.00    -0.349 N 
ATOM     29  H   UNL A   1      30.488  31.177  22.958  1.00  0.00     0.164 HD
BRANCH  28  30
ATOM     30  C   UNL A   1      29.373  29.987  21.732  1.00  0.00     0.082 C 
ATOM     31  C   UNL A   1      27.926  29.853  22.072  1.00  0.00     0.027 C 
ATOM     32  C   UNL A   1      28.374  30.996  21.251  1.00  0.00     0.027 C 
ENDBRANCH  28  30
ENDBRANCH  25  26
ENDBRANCH  16  19
ENDBRANCH   9  15
ENDBRANCH   6   8
ENDBRANCH   5   6
ENDBRANCH   4   5
ENDBRANCH   3   4
ENDBRANCH   2   3
ENDBRANCH   1   2
BRANCH   1  33
ATOM     33  C   UNL A   1      34.651  29.003  26.691  1.00  0.00     0.188 C 
BRANCH  33  34
ATOM     34  O   UNL A   1      34.326  29.874  27.764  1.00  0.00    -0.376 OA
BRANCH  34  35
ATOM     35  C   UNL A   1      34.725  31.239  27.645  1.00  0.00     0.202 C 
BRANCH  35  36
ATOM     36  C   UNL A   1      33.440  32.067  27.664  1.00  0.00     0.261 C 
BRANCH  36  37
ATOM     37  O   UNL A   1      33.770  33.473  27.613  1.00  0.00    -0.460 OA
BRANCH  37  38
ATOM     38  C   UNL A   1      33.538  34.146  28.770  1.00  0.00     0.338 C 
ATOM     39  O   UNL A   1      32.551  34.827  29.000  1.00  0.00    -0.246 OA
BRANCH  38  40
ATOM     40  C   UNL A   1      34.767  34.081  29.623  1.00  0.00     0.060 A 
ATOM     41  C   UNL A   1      35.978  34.202  28.992  1.00  0.00     0.016 A 
ATOM     42  C   UNL A   1      34.779  33.673  30.965  1.00  0.00     0.016 A 
ATOM     43  C   UNL A   1      37.133  33.732  29.643  1.00  0.00     0.010 A 
ATOM     44  C   UNL A   1      35.957  33.147  31.573  1.00  0.00     0.010 A 
ATOM     45  C   UNL A   1      37.165  33.028  30.868  1.00  0.00    -0.014 A 
BRANCH  45  46
ATOM     46  C   UNL A   1      38.289  32.093  31.461  1.00  0.00     0.031 A 
ATOM     47  C   UNL A   1      38.365  30.697  30.926  1.00  0.00     0.074 A 
ATOM     48  C   UNL A   1      39.390  32.289  32.311  1.00  0.00     0.049 A 
ATOM     49  N   UNL A   1      39.204  29.804  31.368  1.00  0.00    -0.248 NA
ATOM     50  C   UNL A   1      37.437  30.165  29.931  1.00  0.00     0.031 C 
ATOM     51  C   UNL A   1      40.743  31.870  31.896  1.00  0.00     0.029 A 
ATOM     52  N   UNL A   1      39.739  32.973  33.503  1.00  0.00    -0.354 N 
ATOM     53  C   UNL A   1      39.243  28.849  30.401  1.00  0.00     0.074 A 
ATOM     54  C   UNL A   1      37.957  28.944  29.749  1.00  0.00     0.031 C 
ATOM     55  C   UNL A   1      41.640  32.102  32.863  1.00  0.00     0.029 A 
ATOM     56  C   UNL A   1      40.995  32.671  34.025  1.00  0.00     0.049 A 
ATOM     57  H   UNL A   1      39.135  33.620  33.934  1.00  0.00     0.167 HD
ATOM     58  C   UNL A   1      40.438  28.322  30.019  1.00  0.00     0.034 A 
ATOM     59  C   UNL A   1      41.476  32.742  35.312  1.00  0.00     0.034 A 
ATOM     60  C   UNL A   1      41.580  28.595  30.918  1.00  0.00     0.049 A 
ATOM     61  C   UNL A   1      42.343  31.517  35.627  1.00  0.00     0.074 A 
ATOM     62  C   UNL A   1      42.795  29.237  30.741  1.00  0.00     0.029 A 
ATOM     63  N   UNL A   1      41.535  28.261  32.274  1.00  0.00    -0.354 N 
ATOM     64  N   UNL A   1      42.885  30.756  34.711  1.00  0.00    -0.248 NA
ATOM     65  C   UNL A   1      42.496  30.920  36.959  1.00  0.00     0.031 C 
ATOM     66  C   UNL A   1      43.468  29.303  31.997  1.00  0.00     0.029 A 
ATOM     67  C   UNL A   1      42.693  28.669  32.951  1.00  0.00     0.049 A 
ATOM     68  H   UNL A   1      40.780  27.797  32.703  1.00  0.00     0.167 HD
ATOM     69  C   UNL A   1      43.003  29.478  35.212  1.00  0.00     0.074 A 
ATOM     70  C   UNL A   1      42.948  29.686  36.654  1.00  0.00     0.031 C 
ATOM     71  C   UNL A   1      42.886  28.370  34.392  1.00  0.00     0.034 A 
BRANCH  58  72
ATOM     72  C   UNL A   1      40.595  27.690  28.649  1.00  0.00     0.023 A 
ATOM     73  C   UNL A   1      41.032  28.499  27.587  1.00  0.00     0.012 A 
ATOM     74  C   UNL A   1      40.293  26.341  28.328  1.00  0.00     0.148 A 
ATOM     75  C   UNL A   1      41.228  27.976  26.300  1.00  0.00     0.002 A 
ATOM     76  C   UNL A   1      40.626  25.792  27.093  1.00  0.00     0.091 A 
ATOM     77  F   UNL A   1      39.563  25.590  29.165  1.00  0.00    -0.205 F 
ATOM     78  C   UNL A   1      41.078  26.611  26.065  1.00  0.00     0.022 A 
BRANCH  76  79
ATOM     79  S   UNL A   1      40.604  24.006  26.856  1.00  0.00     0.127 S 
ATOM     80  O   UNL A   1      39.198  23.743  26.559  1.00  0.00    -0.237 OA
ATOM     81  O   UNL A   1      41.512  23.816  25.725  1.00  0.00    -0.237 OA
ATOM     82  O   UNL A   1      41.100  23.450  28.112  1.00  0.00    -0.744 OA
ENDBRANCH  76  79
ENDBRANCH  58  72
BRANCH  59  83
ATOM     83  C   UNL A   1      40.920  33.752  36.314  1.00  0.00     0.023 A 
ATOM     84  C   UNL A   1      39.650  33.423  36.846  1.00  0.00     0.012 A 
ATOM     85  C   UNL A   1      41.596  34.814  36.969  1.00  0.00     0.148 A 
ATOM     86  C   UNL A   1      39.147  34.001  38.027  1.00  0.00     0.002 A 
ATOM     87  C   UNL A   1      41.145  35.306  38.210  1.00  0.00     0.091 A 
ATOM     88  F   UNL A   1      42.679  35.359  36.410  1.00  0.00    -0.205 F 
ATOM     89  C   UNL A   1      39.920  34.902  38.740  1.00  0.00     0.022 A 
BRANCH  87  90
ATOM     90  S   UNL A   1      42.194  36.249  39.344  1.00  0.00     0.127 S 
ATOM     91  O   UNL A   1      42.322  37.536  38.663  1.00  0.00    -0.237 OA
ATOM     92  O   UNL A   1      41.380  36.288  40.562  1.00  0.00    -0.237 OA
ATOM     93  O   UNL A   1      43.424  35.487  39.463  1.00  0.00    -0.744 OA
ENDBRANCH  87  90
ENDBRANCH  59  83
BRANCH  71  94
ATOM     94  C   UNL A   1      42.756  26.902  34.839  1.00  0.00     0.023 A 
ATOM     95  C   UNL A   1      41.643  26.370  35.519  1.00  0.00     0.012 A 
ATOM     96  C   UNL A   1      43.750  25.956  34.461  1.00  0.00     0.148 A 
ATOM     97  C   UNL A   1      41.514  24.998  35.799  1.00  0.00     0.002 A 
ATOM     98  C   UNL A   1      43.577  24.584  34.658  1.00  0.00     0.091 A 
ATOM     99  F   UNL A   1      44.905  26.377  33.928  1.00  0.00    -0.205 F 
ATOM    100  C   UNL A   1      42.467  24.099  35.344  1.00  0.00     0.022 A 
BRANCH  98 101
ATOM    101  S   UNL A   1      44.721  23.417  33.908  1.00  0.00     0.127 S 
ATOM    102  O   UNL A   1      45.985  23.767  34.550  1.00  0.00    -0.237 OA
ATOM    103  O   UNL A   1      44.172  22.120  34.311  1.00  0.00    -0.237 OA
ATOM    104  O   UNL A   1      44.617  23.686  32.479  1.00  0.00    -0.744 OA
ENDBRANCH  98 101
ENDBRANCH  71  94
ENDBRANCH  45  46
ENDBRANCH  38  40
ENDBRANCH  37  38
ENDBRANCH  36  37
ENDBRANCH  35  36
ENDBRANCH  34  35
ENDBRANCH  33  34
ENDBRANCH   1  33
TORSDOF 24
ENDMDL
MODEL 3
REMARK VINA RESULT:     -10.9      7.446     13.180
REMARK SMILES Cc1ccc(C(=O)NC2CC2)cc1NC(=O)[C@@H]1[C@@H](C(=O)OCCOCCOCCOC(=O)c2ccc(-c3c4nc(c(-c5cccc(S(=O)(=O)[O-])c5F)c5ccc([nH]5)c(-c5cccc(S(=O)(=O)[O-])c5F)c5nc(c(-c6cccc(S(=O)(=O)[O-])c6F)c6ccc3[nH]6)C=C5)C=C4)cc2)[C@H]2C=C[C@@H]1C2
REMARK SMILES IDX 25 1 24 2 23 3 22 4 21 5 19 6 20 7 18 8 17 9 99 10 96 11
REMARK SMILES IDX 98 12 100 13 97 14 15 15 14 16 16 18 13 19 1 20 2 21 3 22
REMARK SMILES IDX 4 23 12 24 5 25 6 26 7 27 8 28 9 30 10 31 11 32 26 33 27 34
REMARK SMILES IDX 28 35 29 36 30 37 31 38 32 39 33 40 34 41 95 42 35 43 94 44
REMARK SMILES IDX 36 45 37 46 38 47 88 48 39 49 93 50 87 51 89 52 40 53 92 54
REMARK SMILES IDX 86 55 85 56 41 58 73 59 53 60 72 61 54 62 57 63 71 64 90 65
REMARK SMILES IDX 55 66 56 67 70 69 91 70 58 71 42 72 43 73 51 74 44 75 46 76
REMARK SMILES IDX 52 77 45 78 47 79 48 80 49 81 50 82 74 83 75 84 83 85 76 86
REMARK SMILES IDX 78 87 84 88 77 89 79 90 80 91 81 92 82 93 59 94 60 95 68 96
REMARK SMILES IDX 61 97 63 98 69 99 62 100 64 101 65 102 66 103 67 104
REMARK H PARENT 14 17 8 29 89 57 57 68
REMARK Flexibility Score: inf
ROOT
ATOM      1  C   UNL A   1      34.122  32.737  28.291  1.00  0.00     0.188 C 
ENDROOT
BRANCH   1   2
ATOM      2  O   UNL A   1      33.771  31.910  27.195  1.00  0.00    -0.376 OA
BRANCH   2   3
ATOM      3  C   UNL A   1      32.349  31.876  27.063  1.00  0.00     0.202 C 
BRANCH   3   4
ATOM      4  C   UNL A   1      31.772  30.613  26.383  1.00  0.00     0.261 C 
BRANCH   4   5
ATOM      5  O   UNL A   1      31.750  29.132  26.797  1.00  0.00    -0.463 OA
BRANCH   5   6
ATOM      6  C   UNL A   1      32.286  27.988  26.240  1.00  0.00     0.310 C 
ATOM      7  O   UNL A   1      33.164  27.398  26.858  1.00  0.00    -0.252 OA
BRANCH   6   8
ATOM      8  C   UNL A   1      31.790  27.486  24.804  1.00  0.00     0.119 C 
ATOM      9  C   UNL A   1      32.240  28.360  23.571  1.00  0.00     0.100 C 
ATOM     10  C   UNL A   1      31.160  28.071  22.455  1.00  0.00     0.025 C 
ATOM     11  C   UNL A   1      30.258  27.330  24.340  1.00  0.00     0.027 C 
ATOM     12  C   UNL A   1      29.960  28.923  22.698  1.00  0.00    -0.027 C 
ATOM     13  C   UNL A   1      30.528  26.766  22.931  1.00  0.00     0.017 C 
ATOM     14  C   UNL A   1      29.477  28.538  23.881  1.00  0.00    -0.027 C 
BRANCH   9  15
ATOM     15  C   UNL A   1      33.546  28.042  22.920  1.00  0.00     0.228 C 
ATOM     16  N   UNL A   1      34.033  26.765  22.843  1.00  0.00    -0.326 N 
ATOM     17  H   UNL A   1      34.975  26.762  22.555  1.00  0.00     0.169 HD
ATOM     18  O   UNL A   1      34.319  28.964  22.616  1.00  0.00    -0.274 OA
BRANCH  16  19
ATOM     19  C   UNL A   1      33.558  25.438  23.061  1.00  0.00     0.044 A 
ATOM     20  C   UNL A   1      32.881  25.310  20.579  1.00  0.00     0.046 C 
ATOM     21  C   UNL A   1      33.067  24.718  21.952  1.00  0.00    -0.027 A 
ATOM     22  C   UNL A   1      32.677  23.372  22.104  1.00  0.00     0.006 A 
ATOM     23  C   UNL A   1      32.725  22.737  23.342  1.00  0.00     0.014 A 
ATOM     24  C   UNL A   1      33.488  24.791  24.308  1.00  0.00     0.040 A 
ATOM     25  C   UNL A   1      33.122  23.442  24.476  1.00  0.00     0.041 A 
BRANCH  25  26
ATOM     26  C   UNL A   1      33.097  22.682  25.776  1.00  0.00     0.251 C 
ATOM     27  O   UNL A   1      34.162  22.296  26.273  1.00  0.00    -0.269 OA
ATOM     28  N   UNL A   1      31.949  22.445  26.498  1.00  0.00    -0.349 N 
ATOM     29  H   UNL A   1      32.086  22.073  27.399  1.00  0.00     0.164 HD
BRANCH  28  30
ATOM     30  C   UNL A   1      30.599  22.659  26.131  1.00  0.00     0.082 C 
ATOM     31  C   UNL A   1      29.625  22.836  27.249  1.00  0.00     0.027 C 
ATOM     32  C   UNL A   1      29.896  23.967  26.337  1.00  0.00     0.027 C 
ENDBRANCH  28  30
ENDBRANCH  25  26
ENDBRANCH  16  19
ENDBRANCH   9  15
ENDBRANCH   6   8
ENDBRANCH   5   6
ENDBRANCH   4   5
ENDBRANCH   3   4
ENDBRANCH   2   3
ENDBRANCH   1   2
BRANCH   1  33
ATOM     33  C   UNL A   1      33.650  34.178  28.080  1.00  0.00     0.188 C 
BRANCH  33  34
ATOM     34  O   UNL A   1      34.085  35.117  29.052  1.00  0.00    -0.376 OA
BRANCH  34  35
ATOM     35  C   UNL A   1      33.145  35.506  30.054  1.00  0.00     0.202 C 
BRANCH  35  36
ATOM     36  C   UNL A   1      33.768  35.127  31.399  1.00  0.00     0.261 C 
BRANCH  36  37
ATOM     37  O   UNL A   1      35.038  34.474  31.176  1.00  0.00    -0.460 OA
BRANCH  37  38
ATOM     38  C   UNL A   1      35.971  34.724  32.131  1.00  0.00     0.338 C 
ATOM     39  O   UNL A   1      35.806  35.446  33.103  1.00  0.00    -0.246 OA
BRANCH  38  40
ATOM     40  C   UNL A   1      37.280  34.142  31.695  1.00  0.00     0.060 A 
ATOM     41  C   UNL A   1      38.358  34.327  32.521  1.00  0.00     0.016 A 
ATOM     42  C   UNL A   1      37.533  33.636  30.411  1.00  0.00     0.016 A 
ATOM     43  C   UNL A   1      39.653  34.194  31.988  1.00  0.00     0.010 A 
ATOM     44  C   UNL A   1      38.857  33.571  29.884  1.00  0.00     0.010 A 
ATOM     45  C   UNL A   1      39.971  33.990  30.626  1.00  0.00    -0.014 A 
BRANCH  45  46
ATOM     46  C   UNL A   1      41.324  34.259  29.860  1.00  0.00     0.031 A 
ATOM     47  C   UNL A   1      42.264  33.103  29.713  1.00  0.00     0.074 A 
ATOM     48  C   UNL A   1      41.842  35.332  29.117  1.00  0.00     0.049 A 
ATOM     49  N   UNL A   1      43.438  33.200  29.158  1.00  0.00    -0.248 NA
ATOM     50  C   UNL A   1      42.004  31.778  30.272  1.00  0.00     0.031 C 
ATOM     51  C   UNL A   1      42.337  35.124  27.742  1.00  0.00     0.029 A 
ATOM     52  N   UNL A   1      41.922  36.748  29.155  1.00  0.00    -0.354 N 
ATOM     53  C   UNL A   1      43.792  31.922  28.857  1.00  0.00     0.074 A 
ATOM     54  C   UNL A   1      43.076  31.116  29.820  1.00  0.00     0.031 C 
ATOM     55  C   UNL A   1      42.829  36.258  27.227  1.00  0.00     0.029 A 
ATOM     56  C   UNL A   1      42.741  37.331  28.192  1.00  0.00     0.049 A 
ATOM     57  H   UNL A   1      41.430  37.284  29.819  1.00  0.00     0.167 HD
ATOM     58  C   UNL A   1      44.354  31.641  27.650  1.00  0.00     0.034 A 
ATOM     59  C   UNL A   1      43.416  38.530  28.190  1.00  0.00     0.034 A 
ATOM     60  C   UNL A   1      44.840  32.806  26.879  1.00  0.00     0.049 A 
ATOM     61  C   UNL A   1      44.816  38.354  27.590  1.00  0.00     0.074 A 
ATOM     62  C   UNL A   1      44.521  33.319  25.633  1.00  0.00     0.029 A 
ATOM     63  N   UNL A   1      45.756  33.709  27.425  1.00  0.00    -0.354 N 
ATOM     64  N   UNL A   1      45.157  37.351  26.823  1.00  0.00    -0.248 NA
ATOM     65  C   UNL A   1      45.993  39.149  27.964  1.00  0.00     0.031 C 
ATOM     66  C   UNL A   1      45.234  34.539  25.441  1.00  0.00     0.029 A 
ATOM     67  C   UNL A   1      46.028  34.771  26.551  1.00  0.00     0.049 A 
ATOM     68  H   UNL A   1      46.161  33.612  28.317  1.00  0.00     0.167 HD
ATOM     69  C   UNL A   1      46.502  37.103  26.992  1.00  0.00     0.074 A 
ATOM     70  C   UNL A   1      47.000  38.362  27.533  1.00  0.00     0.031 C 
ATOM     71  C   UNL A   1      47.015  35.822  26.901  1.00  0.00     0.034 A 
BRANCH  58  72
ATOM     72  C   UNL A   1      44.273  30.242  27.073  1.00  0.00     0.023 A 
ATOM     73  C   UNL A   1      43.006  29.652  26.925  1.00  0.00     0.012 A 
ATOM     74  C   UNL A   1      45.384  29.440  26.702  1.00  0.00     0.148 A 
ATOM     75  C   UNL A   1      42.853  28.373  26.371  1.00  0.00     0.002 A 
ATOM     76  C   UNL A   1      45.223  28.237  26.021  1.00  0.00     0.091 A 
ATOM     77  F   UNL A   1      46.620  29.762  27.110  1.00  0.00    -0.205 F 
ATOM     78  C   UNL A   1      43.955  27.687  25.868  1.00  0.00     0.022 A 
BRANCH  76  79
ATOM     79  S   UNL A   1      46.631  27.452  25.216  1.00  0.00     0.127 S 
ATOM     80  O   UNL A   1      46.032  26.259  24.621  1.00  0.00    -0.237 OA
ATOM     81  O   UNL A   1      47.061  28.464  24.250  1.00  0.00    -0.237 OA
ATOM     82  O   UNL A   1      47.595  27.211  26.286  1.00  0.00    -0.744 OA
ENDBRANCH  76  79
ENDBRANCH  58  72
BRANCH  59  83
ATOM     83  C   UNL A   1      42.903  39.733  28.980  1.00  0.00     0.023 A 
ATOM     84  C   UNL A   1      41.656  40.242  28.544  1.00  0.00     0.012 A 
ATOM     85  C   UNL A   1      43.361  40.235  30.226  1.00  0.00     0.148 A 
ATOM     86  C   UNL A   1      40.852  41.075  29.345  1.00  0.00     0.002 A 
ATOM     87  C   UNL A   1      42.507  40.971  31.071  1.00  0.00     0.091 A 
ATOM     88  F   UNL A   1      44.618  40.008  30.613  1.00  0.00    -0.205 F 
ATOM     89  C   UNL A   1      41.253  41.394  30.632  1.00  0.00     0.022 A 
BRANCH  87  90
ATOM     90  S   UNL A   1      42.809  41.187  32.842  1.00  0.00     0.127 S 
ATOM     91  O   UNL A   1      43.966  42.081  32.861  1.00  0.00    -0.237 OA
ATOM     92  O   UNL A   1      41.561  41.805  33.297  1.00  0.00    -0.237 OA
ATOM     93  O   UNL A   1      43.048  39.854  33.363  1.00  0.00    -0.744 OA
ENDBRANCH  87  90
ENDBRANCH  59  83
BRANCH  71  94
ATOM     94  C   UNL A   1      48.432  35.366  27.297  1.00  0.00     0.023 A 
ATOM     95  C   UNL A   1      48.786  34.871  28.568  1.00  0.00     0.012 A 
ATOM     96  C   UNL A   1      49.460  35.314  26.314  1.00  0.00     0.148 A 
ATOM     97  C   UNL A   1      50.062  34.352  28.847  1.00  0.00     0.002 A 
ATOM     98  C   UNL A   1      50.695  34.715  26.568  1.00  0.00     0.091 A 
ATOM     99  F   UNL A   1      49.266  35.879  25.114  1.00  0.00    -0.205 F 
ATOM    100  C   UNL A   1      51.010  34.246  27.840  1.00  0.00     0.022 A 
BRANCH  98 101
ATOM    101  S   UNL A   1      51.845  34.417  25.217  1.00  0.00     0.127 S 
ATOM    102  O   UNL A   1      52.915  33.678  25.880  1.00  0.00    -0.237 OA
ATOM    103  O   UNL A   1      51.046  33.623  24.280  1.00  0.00    -0.237 OA
ATOM    104  O   UNL A   1      52.175  35.751  24.732  1.00  0.00    -0.744 OA
ENDBRANCH  98 101
ENDBRANCH  71  94
ENDBRANCH  45  46
ENDBRANCH  38  40
ENDBRANCH  37  38
ENDBRANCH  36  37
ENDBRANCH  35  36
ENDBRANCH  34  35
ENDBRANCH  33  34
ENDBRANCH   1  33
TORSDOF 24
ENDMDL
