MODEL 1
REMARK VINA RESULT:      -9.7      0.000      0.000
REMARK SMILES C[C@@H](C(=O)OCCOCCOCCOC(=O)c1ccc(-c2c3nc(c(-c4cccc(S(=O)(=O)[O-])c4F)c4ccc([nH]4)c(-c4cccc(S(=O)(=O)[O-])c4F)c4nc(c(-c5cccc(S(=O)(=O)[O-])c5F)c5ccc2[nH]5)C=C4)C=C3)cc1)c1ccc(C[C@@H]2CCC[C@@H]2O)cc1F
REMARK SMILES IDX 9 1 8 2 7 3 6 4 5 5 3 6 4 7 2 8 1 9 80 10 81 11 92 12 82 13
REMARK SMILES IDX 91 14 93 15 83 16 84 17 85 18 86 19 89 20 87 21 88 22 90 23
REMARK SMILES IDX 10 25 11 26 12 27 13 28 14 29 15 30 16 31 17 32 18 33 79 34
REMARK SMILES IDX 19 35 78 36 20 37 21 38 22 39 72 40 23 41 77 42 71 43 73 44
REMARK SMILES IDX 24 45 76 46 70 47 69 48 25 50 57 51 37 52 56 53 38 54 41 55
REMARK SMILES IDX 55 56 74 57 39 58 40 59 54 61 75 62 42 63 26 64 27 65 35 66
REMARK SMILES IDX 28 67 30 68 36 69 29 70 31 71 32 72 33 73 34 74 58 75 59 76
REMARK SMILES IDX 67 77 60 78 62 79 68 80 61 81 63 82 64 83 65 84 66 85 43 86
REMARK SMILES IDX 44 87 52 88 45 89 47 90 53 91 46 92 48 93 49 94 50 95 51 96
REMARK H PARENT 90 24 73 49 41 60
REMARK Flexibility Score: inf
ROOT
ATOM      1  C   UNL A   1      34.511  31.761  27.525  1.00  0.00     0.188 C 
ENDROOT
BRANCH   1   2
ATOM      2  O   UNL A   1      35.205  30.547  27.802  1.00  0.00    -0.376 OA
BRANCH   2   3
ATOM      3  C   UNL A   1      34.934  29.410  26.995  1.00  0.00     0.202 C 
BRANCH   3   4
ATOM      4  C   UNL A   1      33.536  28.780  27.074  1.00  0.00     0.261 C 
BRANCH   4   5
ATOM      5  O   UNL A   1      32.647  29.123  25.988  1.00  0.00    -0.463 OA
BRANCH   5   6
ATOM      6  C   UNL A   1      32.281  28.100  25.169  1.00  0.00     0.313 C 
ATOM      7  O   UNL A   1      31.208  27.509  25.259  1.00  0.00    -0.252 OA
BRANCH   6   8
ATOM      8  C   UNL A   1      33.348  27.679  24.148  1.00  0.00     0.129 C 
ATOM      9  C   UNL A   1      33.591  28.565  22.921  1.00  0.00     0.025 C 
BRANCH   8  10
ATOM     10  C   UNL A   1      33.203  26.210  23.781  1.00  0.00     0.002 A 
ATOM     11  C   UNL A   1      32.330  25.821  22.757  1.00  0.00     0.008 A 
ATOM     12  C   UNL A   1      33.962  25.210  24.398  1.00  0.00     0.127 A 
ATOM     13  C   UNL A   1      32.207  24.474  22.390  1.00  0.00     0.004 A 
ATOM     14  C   UNL A   1      33.850  23.873  24.032  1.00  0.00     0.043 A 
ATOM     15  F   UNL A   1      34.802  25.517  25.392  1.00  0.00    -0.207 F 
ATOM     16  C   UNL A   1      32.946  23.483  23.043  1.00  0.00    -0.045 A 
BRANCH  16  17
ATOM     17  C   UNL A   1      32.771  22.018  22.724  1.00  0.00     0.041 C 
BRANCH  17  18
ATOM     18  C   UNL A   1      32.041  21.137  23.761  1.00  0.00     0.022 C 
ATOM     19  C   UNL A   1      32.450  21.392  25.214  1.00  0.00     0.007 C 
ATOM     20  C   UNL A   1      32.200  19.617  23.639  1.00  0.00     0.117 C 
ATOM     21  C   UNL A   1      33.482  20.320  25.571  1.00  0.00     0.003 C 
ATOM     22  C   UNL A   1      33.449  19.287  24.448  1.00  0.00     0.032 C 
BRANCH  20  23
ATOM     23  O   UNL A   1      32.294  19.145  22.312  1.00  0.00    -0.393 OA
ATOM     24  H   UNL A   1      31.459  18.719  22.060  1.00  0.00     0.210 HD
ENDBRANCH  20  23
ENDBRANCH  17  18
ENDBRANCH  16  17
ENDBRANCH   8  10
ENDBRANCH   6   8
ENDBRANCH   5   6
ENDBRANCH   4   5
ENDBRANCH   3   4
ENDBRANCH   2   3
ENDBRANCH   1   2
BRANCH   1  25
ATOM     25  C   UNL A   1      33.995  32.588  28.716  1.00  0.00     0.188 C 
BRANCH  25  26
ATOM     26  O   UNL A   1      34.924  32.680  29.781  1.00  0.00    -0.376 OA
BRANCH  26  27
ATOM     27  C   UNL A   1      34.541  33.453  30.901  1.00  0.00     0.202 C 
BRANCH  27  28
ATOM     28  C   UNL A   1      34.655  32.753  32.260  1.00  0.00     0.261 C 
BRANCH  28  29
ATOM     29  O   UNL A   1      35.641  31.709  32.348  1.00  0.00    -0.460 OA
BRANCH  29  30
ATOM     30  C   UNL A   1      36.705  31.921  33.154  1.00  0.00     0.338 C 
ATOM     31  O   UNL A   1      36.675  32.141  34.355  1.00  0.00    -0.246 OA
BRANCH  30  32
ATOM     32  C   UNL A   1      37.936  31.656  32.370  1.00  0.00     0.060 A 
ATOM     33  C   UNL A   1      38.004  32.094  31.044  1.00  0.00     0.016 A 
ATOM     34  C   UNL A   1      39.023  30.984  32.940  1.00  0.00     0.016 A 
ATOM     35  C   UNL A   1      39.149  31.839  30.281  1.00  0.00     0.010 A 
ATOM     36  C   UNL A   1      40.165  30.725  32.172  1.00  0.00     0.010 A 
ATOM     37  C   UNL A   1      40.231  31.137  30.832  1.00  0.00    -0.014 A 
BRANCH  37  38
ATOM     38  C   UNL A   1      41.348  30.682  29.963  1.00  0.00     0.031 A 
ATOM     39  C   UNL A   1      41.219  29.354  29.269  1.00  0.00     0.074 A 
ATOM     40  C   UNL A   1      42.472  31.406  29.807  1.00  0.00     0.049 A 
ATOM     41  N   UNL A   1      42.066  28.745  28.480  1.00  0.00    -0.248 NA
ATOM     42  C   UNL A   1      39.969  28.614  29.503  1.00  0.00     0.031 C 
ATOM     43  C   UNL A   1      42.742  32.694  30.438  1.00  0.00     0.029 A 
ATOM     44  N   UNL A   1      43.610  31.142  29.081  1.00  0.00    -0.354 N 
ATOM     45  C   UNL A   1      41.466  27.535  28.148  1.00  0.00     0.074 A 
ATOM     46  C   UNL A   1      40.182  27.502  28.815  1.00  0.00     0.031 C 
ATOM     47  C   UNL A   1      43.973  33.104  30.083  1.00  0.00     0.029 A 
ATOM     48  C   UNL A   1      44.593  32.094  29.225  1.00  0.00     0.049 A 
ATOM     49  H   UNL A   1      43.712  30.345  28.510  1.00  0.00     0.167 HD
ATOM     50  C   UNL A   1      41.935  26.539  27.360  1.00  0.00     0.034 A 
ATOM     51  C   UNL A   1      45.854  32.134  28.744  1.00  0.00     0.034 A 
ATOM     52  C   UNL A   1      43.219  26.548  26.714  1.00  0.00     0.049 A 
ATOM     53  C   UNL A   1      46.363  31.000  27.886  1.00  0.00     0.074 A 
ATOM     54  C   UNL A   1      43.768  25.588  25.881  1.00  0.00     0.029 A 
ATOM     55  N   UNL A   1      44.168  27.548  26.849  1.00  0.00    -0.354 N 
ATOM     56  N   UNL A   1      45.733  29.927  27.472  1.00  0.00    -0.248 NA
ATOM     57  C   UNL A   1      47.754  31.094  27.411  1.00  0.00     0.031 C 
ATOM     58  C   UNL A   1      45.061  25.995  25.537  1.00  0.00     0.029 A 
ATOM     59  C   UNL A   1      45.302  27.227  26.123  1.00  0.00     0.049 A 
ATOM     60  H   UNL A   1      44.053  28.367  27.384  1.00  0.00     0.167 HD
ATOM     61  C   UNL A   1      46.639  29.234  26.671  1.00  0.00     0.074 A 
ATOM     62  C   UNL A   1      47.851  30.024  26.632  1.00  0.00     0.031 C 
ATOM     63  C   UNL A   1      46.486  28.044  26.041  1.00  0.00     0.034 A 
BRANCH  50  64
ATOM     64  C   UNL A   1      41.042  25.347  27.154  1.00  0.00     0.023 A 
ATOM     65  C   UNL A   1      39.686  25.541  26.817  1.00  0.00     0.012 A 
ATOM     66  C   UNL A   1      41.548  24.037  27.259  1.00  0.00     0.148 A 
ATOM     67  C   UNL A   1      38.840  24.451  26.624  1.00  0.00     0.002 A 
ATOM     68  C   UNL A   1      40.709  22.955  27.022  1.00  0.00     0.091 A 
ATOM     69  F   UNL A   1      42.834  23.874  27.603  1.00  0.00    -0.205 F 
ATOM     70  C   UNL A   1      39.353  23.160  26.717  1.00  0.00     0.022 A 
BRANCH  68  71
ATOM     71  S   UNL A   1      41.291  21.256  27.042  1.00  0.00     0.127 S 
ATOM     72  O   UNL A   1      42.140  21.251  28.232  1.00  0.00    -0.237 OA
ATOM     73  O   UNL A   1      40.042  20.506  27.180  1.00  0.00    -0.237 OA
ATOM     74  O   UNL A   1      41.985  21.054  25.779  1.00  0.00    -0.744 OA
ENDBRANCH  68  71
ENDBRANCH  50  64
BRANCH  51  75
ATOM     75  C   UNL A   1      46.739  33.299  29.043  1.00  0.00     0.023 A 
ATOM     76  C   UNL A   1      47.663  33.217  30.105  1.00  0.00     0.012 A 
ATOM     77  C   UNL A   1      46.659  34.490  28.296  1.00  0.00     0.148 A 
ATOM     78  C   UNL A   1      48.464  34.311  30.437  1.00  0.00     0.002 A 
ATOM     79  C   UNL A   1      47.500  35.554  28.595  1.00  0.00     0.091 A 
ATOM     80  F   UNL A   1      45.755  34.559  27.308  1.00  0.00    -0.205 F 
ATOM     81  C   UNL A   1      48.391  35.474  29.677  1.00  0.00     0.022 A 
BRANCH  79  82
ATOM     82  S   UNL A   1      47.559  37.047  27.600  1.00  0.00     0.127 S 
ATOM     83  O   UNL A   1      47.489  36.506  26.245  1.00  0.00    -0.237 OA
ATOM     84  O   UNL A   1      46.358  37.752  28.045  1.00  0.00    -0.237 OA
ATOM     85  O   UNL A   1      48.811  37.705  27.952  1.00  0.00    -0.744 OA
ENDBRANCH  79  82
ENDBRANCH  51  75
BRANCH  63  86
ATOM     86  C   UNL A   1      47.635  27.525  25.208  1.00  0.00     0.023 A 
ATOM     87  C   UNL A   1      48.529  26.579  25.746  1.00  0.00     0.012 A 
ATOM     88  C   UNL A   1      47.772  27.915  23.860  1.00  0.00     0.148 A 
ATOM     89  C   UNL A   1      49.559  26.052  24.967  1.00  0.00     0.002 A 
ATOM     90  C   UNL A   1      48.770  27.347  23.074  1.00  0.00     0.091 A 
ATOM     91  F   UNL A   1      46.924  28.829  23.369  1.00  0.00    -0.205 F 
ATOM     92  C   UNL A   1      49.671  26.426  23.630  1.00  0.00     0.022 A 
BRANCH  90  93
ATOM     93  S   UNL A   1      48.930  27.696  21.319  1.00  0.00     0.127 S 
ATOM     94  O   UNL A   1      49.846  26.642  20.888  1.00  0.00    -0.237 OA
ATOM     95  O   UNL A   1      47.554  27.540  20.846  1.00  0.00    -0.237 OA
ATOM     96  O   UNL A   1      49.451  29.052  21.224  1.00  0.00    -0.744 OA
ENDBRANCH  90  93
ENDBRANCH  63  86
ENDBRANCH  37  38
ENDBRANCH  30  32
ENDBRANCH  29  30
ENDBRANCH  28  29
ENDBRANCH  27  28
ENDBRANCH  26  27
ENDBRANCH  25  26
ENDBRANCH   1  25
TORSDOF 24
ENDMDL
MODEL 2
REMARK VINA RESULT:      -9.7      6.284     13.985
REMARK SMILES C[C@@H](C(=O)OCCOCCOCCOC(=O)c1ccc(-c2c3nc(c(-c4cccc(S(=O)(=O)[O-])c4F)c4ccc([nH]4)c(-c4cccc(S(=O)(=O)[O-])c4F)c4nc(c(-c5cccc(S(=O)(=O)[O-])c5F)c5ccc2[nH]5)C=C4)C=C3)cc1)c1ccc(C[C@@H]2CCC[C@@H]2O)cc1F
REMARK SMILES IDX 9 1 8 2 7 3 6 4 5 5 3 6 4 7 2 8 1 9 80 10 81 11 92 12 82 13
REMARK SMILES IDX 91 14 93 15 83 16 84 17 85 18 86 19 89 20 87 21 88 22 90 23
REMARK SMILES IDX 10 25 11 26 12 27 13 28 14 29 15 30 16 31 17 32 18 33 79 34
REMARK SMILES IDX 19 35 78 36 20 37 21 38 22 39 72 40 23 41 77 42 71 43 73 44
REMARK SMILES IDX 24 45 76 46 70 47 69 48 25 50 57 51 37 52 56 53 38 54 41 55
REMARK SMILES IDX 55 56 74 57 39 58 40 59 54 61 75 62 42 63 26 64 27 65 35 66
REMARK SMILES IDX 28 67 30 68 36 69 29 70 31 71 32 72 33 73 34 74 58 75 59 76
REMARK SMILES IDX 67 77 60 78 62 79 68 80 61 81 63 82 64 83 65 84 66 85 43 86
REMARK SMILES IDX 44 87 52 88 45 89 47 90 53 91 46 92 48 93 49 94 50 95 51 96
REMARK H PARENT 90 24 73 49 41 60
REMARK Flexibility Score: inf
ROOT
ATOM      1  C   UNL A   1      47.029  40.005  25.320  1.00  0.00     0.188 C 
ENDROOT
BRANCH   1   2
ATOM      2  O   UNL A   1      45.642  40.204  25.063  1.00  0.00    -0.376 OA
BRANCH   2   3
ATOM      3  C   UNL A   1      45.004  41.343  25.623  1.00  0.00     0.202 C 
BRANCH   3   4
ATOM      4  C   UNL A   1      43.671  41.801  25.013  1.00  0.00     0.261 C 
BRANCH   4   5
ATOM      5  O   UNL A   1      43.521  43.231  24.872  1.00  0.00    -0.463 OA
BRANCH   5   6
ATOM      6  C   UNL A   1      43.589  43.717  23.603  1.00  0.00     0.313 C 
ATOM      7  O   UNL A   1      42.613  43.824  22.865  1.00  0.00    -0.252 OA
BRANCH   6   8
ATOM      8  C   UNL A   1      45.004  44.065  23.120  1.00  0.00     0.129 C 
ATOM      9  C   UNL A   1      45.824  45.093  23.908  1.00  0.00     0.025 C 
BRANCH   8  10
ATOM     10  C   UNL A   1      45.020  44.337  21.624  1.00  0.00     0.002 A 
ATOM     11  C   UNL A   1      44.908  45.649  21.143  1.00  0.00     0.008 A 
ATOM     12  C   UNL A   1      45.200  43.318  20.684  1.00  0.00     0.127 A 
ATOM     13  C   UNL A   1      44.949  45.916  19.769  1.00  0.00     0.004 A 
ATOM     14  C   UNL A   1      45.250  43.579  19.319  1.00  0.00     0.043 A 
ATOM     15  F   UNL A   1      45.300  42.044  21.080  1.00  0.00    -0.207 F 
ATOM     16  C   UNL A   1      45.093  44.880  18.840  1.00  0.00    -0.045 A 
BRANCH  16  17
ATOM     17  C   UNL A   1      45.056  45.132  17.353  1.00  0.00     0.041 C 
BRANCH  17  18
ATOM     18  C   UNL A   1      43.677  45.140  16.657  1.00  0.00     0.022 C 
ATOM     19  C   UNL A   1      42.882  46.436  16.833  1.00  0.00     0.007 C 
ATOM     20  C   UNL A   1      42.662  44.072  17.082  1.00  0.00     0.117 C 
ATOM     21  C   UNL A   1      41.896  46.189  17.978  1.00  0.00     0.003 C 
ATOM     22  C   UNL A   1      41.913  44.689  18.258  1.00  0.00     0.032 C 
BRANCH  20  23
ATOM     23  O   UNL A   1      43.232  42.825  17.418  1.00  0.00    -0.393 OA
ATOM     24  H   UNL A   1      42.604  42.318  17.959  1.00  0.00     0.210 HD
ENDBRANCH  20  23
ENDBRANCH  17  18
ENDBRANCH  16  17
ENDBRANCH   8  10
ENDBRANCH   6   8
ENDBRANCH   5   6
ENDBRANCH   4   5
ENDBRANCH   3   4
ENDBRANCH   2   3
ENDBRANCH   1   2
BRANCH   1  25
ATOM     25  C   UNL A   1      47.430  39.329  26.644  1.00  0.00     0.188 C 
BRANCH  25  26
ATOM     26  O   UNL A   1      48.242  38.182  26.465  1.00  0.00    -0.376 OA
BRANCH  26  27
ATOM     27  C   UNL A   1      49.074  37.810  27.547  1.00  0.00     0.202 C 
BRANCH  27  28
ATOM     28  C   UNL A   1      48.620  36.579  28.339  1.00  0.00     0.261 C 
BRANCH  28  29
ATOM     29  O   UNL A   1      47.871  36.845  29.538  1.00  0.00    -0.460 OA
BRANCH  29  30
ATOM     30  C   UNL A   1      46.522  36.838  29.448  1.00  0.00     0.338 C 
ATOM     31  O   UNL A   1      45.791  37.816  29.419  1.00  0.00    -0.246 OA
BRANCH  30  32
ATOM     32  C   UNL A   1      46.085  35.443  29.199  1.00  0.00     0.060 A 
ATOM     33  C   UNL A   1      45.351  35.157  28.044  1.00  0.00     0.016 A 
ATOM     34  C   UNL A   1      46.404  34.417  30.096  1.00  0.00     0.016 A 
ATOM     35  C   UNL A   1      44.915  33.851  27.798  1.00  0.00     0.010 A 
ATOM     36  C   UNL A   1      45.960  33.112  29.850  1.00  0.00     0.010 A 
ATOM     37  C   UNL A   1      45.199  32.821  28.707  1.00  0.00    -0.014 A 
BRANCH  37  38
ATOM     38  C   UNL A   1      44.555  31.490  28.555  1.00  0.00     0.031 A 
ATOM     39  C   UNL A   1      45.285  30.428  27.779  1.00  0.00     0.074 A 
ATOM     40  C   UNL A   1      43.337  31.223  29.061  1.00  0.00     0.049 A 
ATOM     41  N   UNL A   1      44.917  29.204  27.500  1.00  0.00    -0.248 NA
ATOM     42  C   UNL A   1      46.603  30.802  27.242  1.00  0.00     0.031 C 
ATOM     43  C   UNL A   1      42.507  32.162  29.810  1.00  0.00     0.029 A 
ATOM     44  N   UNL A   1      42.576  30.078  28.998  1.00  0.00    -0.354 N 
ATOM     45  C   UNL A   1      45.943  28.670  26.729  1.00  0.00     0.074 A 
ATOM     46  C   UNL A   1      46.950  29.701  26.591  1.00  0.00     0.031 C 
ATOM     47  C   UNL A   1      41.346  31.563  30.126  1.00  0.00     0.029 A 
ATOM     48  C   UNL A   1      41.333  30.207  29.576  1.00  0.00     0.049 A 
ATOM     49  H   UNL A   1      42.890  29.245  28.578  1.00  0.00     0.167 HD
ATOM     50  C   UNL A   1      46.045  27.436  26.182  1.00  0.00     0.034 A 
ATOM     51  C   UNL A   1      40.298  29.342  29.633  1.00  0.00     0.034 A 
ATOM     52  C   UNL A   1      45.041  26.413  26.289  1.00  0.00     0.049 A 
ATOM     53  C   UNL A   1      40.427  27.979  28.997  1.00  0.00     0.074 A 
ATOM     54  C   UNL A   1      45.071  25.125  25.782  1.00  0.00     0.029 A 
ATOM     55  N   UNL A   1      43.817  26.566  26.919  1.00  0.00    -0.354 N 
ATOM     56  N   UNL A   1      41.457  27.443  28.387  1.00  0.00    -0.248 NA
ATOM     57  C   UNL A   1      39.254  27.092  29.074  1.00  0.00     0.031 C 
ATOM     58  C   UNL A   1      43.851  24.509  26.080  1.00  0.00     0.029 A 
ATOM     59  C   UNL A   1      43.078  25.400  26.808  1.00  0.00     0.049 A 
ATOM     60  H   UNL A   1      43.516  27.383  27.377  1.00  0.00     0.167 HD
ATOM     61  C   UNL A   1      41.066  26.153  28.032  1.00  0.00     0.074 A 
ATOM     62  C   UNL A   1      39.716  25.977  28.523  1.00  0.00     0.031 C 
ATOM     63  C   UNL A   1      41.756  25.209  27.347  1.00  0.00     0.034 A 
BRANCH  50  64
ATOM     64  C   UNL A   1      47.300  27.126  25.413  1.00  0.00     0.023 A 
ATOM     65  C   UNL A   1      48.323  26.371  26.023  1.00  0.00     0.012 A 
ATOM     66  C   UNL A   1      47.454  27.551  24.079  1.00  0.00     0.148 A 
ATOM     67  C   UNL A   1      49.495  26.074  25.329  1.00  0.00     0.002 A 
ATOM     68  C   UNL A   1      48.607  27.213  23.379  1.00  0.00     0.091 A 
ATOM     69  F   UNL A   1      46.480  28.287  23.526  1.00  0.00    -0.205 F 
ATOM     70  C   UNL A   1      49.633  26.486  24.007  1.00  0.00     0.022 A 
BRANCH  68  71
ATOM     71  S   UNL A   1      48.846  27.631  21.650  1.00  0.00     0.127 S 
ATOM     72  O   UNL A   1      50.290  27.454  21.502  1.00  0.00    -0.237 OA
ATOM     73  O   UNL A   1      48.034  26.618  20.974  1.00  0.00    -0.237 OA
ATOM     74  O   UNL A   1      48.366  28.996  21.496  1.00  0.00    -0.744 OA
ENDBRANCH  68  71
ENDBRANCH  50  64
BRANCH  51  75
ATOM     75  C   UNL A   1      39.036  29.721  30.335  1.00  0.00     0.023 A 
ATOM     76  C   UNL A   1      38.813  29.280  31.656  1.00  0.00     0.012 A 
ATOM     77  C   UNL A   1      38.049  30.499  29.698  1.00  0.00     0.148 A 
ATOM     78  C   UNL A   1      37.619  29.577  32.314  1.00  0.00     0.002 A 
ATOM     79  C   UNL A   1      36.888  30.841  30.380  1.00  0.00     0.091 A 
ATOM     80  F   UNL A   1      38.267  30.887  28.434  1.00  0.00    -0.205 F 
ATOM     81  C   UNL A   1      36.662  30.365  31.681  1.00  0.00     0.022 A 
BRANCH  79  82
ATOM     82  S   UNL A   1      35.654  31.947  29.691  1.00  0.00     0.127 S 
ATOM     83  O   UNL A   1      36.484  33.027  29.160  1.00  0.00    -0.237 OA
ATOM     84  O   UNL A   1      35.024  31.100  28.679  1.00  0.00    -0.237 OA
ATOM     85  O   UNL A   1      34.785  32.308  30.803  1.00  0.00    -0.744 OA
ENDBRANCH  79  82
ENDBRANCH  51  75
BRANCH  63  86
ATOM     86  C   UNL A   1      41.096  23.870  27.117  1.00  0.00     0.023 A 
ATOM     87  C   UNL A   1      41.645  22.703  27.681  1.00  0.00     0.012 A 
ATOM     88  C   UNL A   1      39.878  23.787  26.411  1.00  0.00     0.148 A 
ATOM     89  C   UNL A   1      41.012  21.470  27.521  1.00  0.00     0.002 A 
ATOM     90  C   UNL A   1      39.225  22.563  26.299  1.00  0.00     0.091 A 
ATOM     91  F   UNL A   1      39.377  24.904  25.865  1.00  0.00    -0.205 F 
ATOM     92  C   UNL A   1      39.797  21.403  26.843  1.00  0.00     0.022 A 
BRANCH  90  93
ATOM     93  S   UNL A   1      37.611  22.398  25.527  1.00  0.00     0.127 S 
ATOM     94  O   UNL A   1      37.753  23.258  24.354  1.00  0.00    -0.237 OA
ATOM     95  O   UNL A   1      37.555  20.966  25.231  1.00  0.00    -0.237 OA
ATOM     96  O   UNL A   1      36.644  22.849  26.517  1.00  0.00    -0.744 OA
ENDBRANCH  90  93
ENDBRANCH  63  86
ENDBRANCH  37  38
ENDBRANCH  30  32
ENDBRANCH  29  30
ENDBRANCH  28  29
ENDBRANCH  27  28
ENDBRANCH  26  27
ENDBRANCH  25  26
ENDBRANCH   1  25
TORSDOF 24
ENDMDL
MODEL 3
REMARK VINA RESULT:      -9.5      7.425     14.265
REMARK SMILES C[C@@H](C(=O)OCCOCCOCCOC(=O)c1ccc(-c2c3nc(c(-c4cccc(S(=O)(=O)[O-])c4F)c4ccc([nH]4)c(-c4cccc(S(=O)(=O)[O-])c4F)c4nc(c(-c5cccc(S(=O)(=O)[O-])c5F)c5ccc2[nH]5)C=C4)C=C3)cc1)c1ccc(C[C@@H]2CCC[C@@H]2O)cc1F
REMARK SMILES IDX 9 1 8 2 7 3 6 4 5 5 3 6 4 7 2 8 1 9 80 10 81 11 92 12 82 13
REMARK SMILES IDX 91 14 93 15 83 16 84 17 85 18 86 19 89 20 87 21 88 22 90 23
REMARK SMILES IDX 10 25 11 26 12 27 13 28 14 29 15 30 16 31 17 32 18 33 79 34
REMARK SMILES IDX 19 35 78 36 20 37 21 38 22 39 72 40 23 41 77 42 71 43 73 44
REMARK SMILES IDX 24 45 76 46 70 47 69 48 25 50 57 51 37 52 56 53 38 54 41 55
REMARK SMILES IDX 55 56 74 57 39 58 40 59 54 61 75 62 42 63 26 64 27 65 35 66
REMARK SMILES IDX 28 67 30 68 36 69 29 70 31 71 32 72 33 73 34 74 58 75 59 76
REMARK SMILES IDX 67 77 60 78 62 79 68 80 61 81 63 82 64 83 65 84 66 85 43 86
REMARK SMILES IDX 44 87 52 88 45 89 47 90 53 91 46 92 48 93 49 94 50 95 51 96
REMARK H PARENT 90 24 73 49 41 60
REMARK Flexibility Score: inf
ROOT
ATOM      1  C   UNL A   1      52.957  24.156  38.249  1.00  0.00     0.188 C 
ENDROOT
BRANCH   1   2
ATOM      2  O   UNL A   1      53.116  23.173  37.229  1.00  0.00    -0.376 OA
BRANCH   2   3
ATOM      3  C   UNL A   1      54.364  23.087  36.556  1.00  0.00     0.202 C 
BRANCH   3   4
ATOM      4  C   UNL A   1      54.663  21.821  35.741  1.00  0.00     0.261 C 
BRANCH   4   5
ATOM      5  O   UNL A   1      53.593  20.851  35.701  1.00  0.00    -0.463 OA
BRANCH   5   6
ATOM      6  C   UNL A   1      53.701  19.879  34.755  1.00  0.00     0.313 C 
ATOM      7  O   UNL A   1      54.423  18.893  34.875  1.00  0.00    -0.252 OA
BRANCH   6   8
ATOM      8  C   UNL A   1      52.898  20.136  33.471  1.00  0.00     0.129 C 
ATOM      9  C   UNL A   1      53.605  20.779  32.273  1.00  0.00     0.025 C 
BRANCH   8  10
ATOM     10  C   UNL A   1      51.567  20.804  33.784  1.00  0.00     0.002 A 
ATOM     11  C   UNL A   1      51.330  22.127  33.387  1.00  0.00     0.008 A 
ATOM     12  C   UNL A   1      50.524  20.121  34.416  1.00  0.00     0.127 A 
ATOM     13  C   UNL A   1      50.099  22.744  33.645  1.00  0.00     0.004 A 
ATOM     14  C   UNL A   1      49.297  20.727  34.666  1.00  0.00     0.043 A 
ATOM     15  F   UNL A   1      50.693  18.861  34.830  1.00  0.00    -0.207 F 
ATOM     16  C   UNL A   1      49.078  22.059  34.311  1.00  0.00    -0.045 A 
BRANCH  16  17
ATOM     17  C   UNL A   1      47.775  22.727  34.673  1.00  0.00     0.041 C 
BRANCH  17  18
ATOM     18  C   UNL A   1      46.564  21.820  34.987  1.00  0.00     0.022 C 
ATOM     19  C   UNL A   1      45.248  22.271  34.348  1.00  0.00     0.007 C 
ATOM     20  C   UNL A   1      46.170  21.646  36.459  1.00  0.00     0.117 C 
ATOM     21  C   UNL A   1      44.484  23.046  35.424  1.00  0.00     0.003 C 
ATOM     22  C   UNL A   1      45.206  22.792  36.745  1.00  0.00     0.032 C 
BRANCH  20  23
ATOM     23  O   UNL A   1      47.258  21.639  37.358  1.00  0.00    -0.393 OA
ATOM     24  H   UNL A   1      47.096  20.985  38.057  1.00  0.00     0.210 HD
ENDBRANCH  20  23
ENDBRANCH  17  18
ENDBRANCH  16  17
ENDBRANCH   8  10
ENDBRANCH   6   8
ENDBRANCH   5   6
ENDBRANCH   4   5
ENDBRANCH   3   4
ENDBRANCH   2   3
ENDBRANCH   1   2
BRANCH   1  25
ATOM     25  C   UNL A   1      51.645  24.961  38.281  1.00  0.00     0.188 C 
BRANCH  25  26
ATOM     26  O   UNL A   1      51.840  26.343  38.522  1.00  0.00    -0.376 OA
BRANCH  26  27
ATOM     27  C   UNL A   1      50.686  27.160  38.537  1.00  0.00     0.202 C 
BRANCH  27  28
ATOM     28  C   UNL A   1      49.409  26.512  37.990  1.00  0.00     0.261 C 
BRANCH  28  29
ATOM     29  O   UNL A   1      48.705  27.264  36.985  1.00  0.00    -0.460 OA
BRANCH  29  30
ATOM     30  C   UNL A   1      48.411  26.634  35.825  1.00  0.00     0.338 C 
ATOM     31  O   UNL A   1      49.005  25.682  35.345  1.00  0.00    -0.246 OA
BRANCH  30  32
ATOM     32  C   UNL A   1      47.126  27.176  35.321  1.00  0.00     0.060 A 
ATOM     33  C   UNL A   1      45.991  26.360  35.342  1.00  0.00     0.016 A 
ATOM     34  C   UNL A   1      47.036  28.485  34.837  1.00  0.00     0.016 A 
ATOM     35  C   UNL A   1      44.772  26.845  34.856  1.00  0.00     0.010 A 
ATOM     36  C   UNL A   1      45.816  28.966  34.346  1.00  0.00     0.010 A 
ATOM     37  C   UNL A   1      44.678  28.144  34.337  1.00  0.00    -0.014 A 
BRANCH  37  38
ATOM     38  C   UNL A   1      43.445  28.580  33.628  1.00  0.00     0.031 A 
ATOM     39  C   UNL A   1      43.284  28.210  32.180  1.00  0.00     0.074 A 
ATOM     40  C   UNL A   1      42.494  29.314  34.236  1.00  0.00     0.049 A 
ATOM     41  N   UNL A   1      42.309  28.493  31.355  1.00  0.00    -0.248 NA
ATOM     42  C   UNL A   1      44.374  27.423  31.582  1.00  0.00     0.031 C 
ATOM     43  C   UNL A   1      42.531  29.764  35.624  1.00  0.00     0.029 A 
ATOM     44  N   UNL A   1      41.316  29.830  33.746  1.00  0.00    -0.354 N 
ATOM     45  C   UNL A   1      42.681  27.944  30.132  1.00  0.00     0.074 A 
ATOM     46  C   UNL A   1      43.966  27.308  30.327  1.00  0.00     0.031 C 
ATOM     47  C   UNL A   1      41.433  30.501  35.873  1.00  0.00     0.029 A 
ATOM     48  C   UNL A   1      40.629  30.603  34.654  1.00  0.00     0.049 A 
ATOM     49  H   UNL A   1      40.994  29.662  32.831  1.00  0.00     0.167 HD
ATOM     50  C   UNL A   1      42.018  27.965  28.952  1.00  0.00     0.034 A 
ATOM     51  C   UNL A   1      39.500  31.328  34.512  1.00  0.00     0.034 A 
ATOM     52  C   UNL A   1      40.754  28.615  28.740  1.00  0.00     0.049 A 
ATOM     53  C   UNL A   1      38.790  31.354  33.180  1.00  0.00     0.074 A 
ATOM     54  C   UNL A   1      40.001  28.669  27.579  1.00  0.00     0.029 A 
ATOM     55  N   UNL A   1      40.070  29.351  29.694  1.00  0.00    -0.354 N 
ATOM     56  N   UNL A   1      39.086  30.719  32.071  1.00  0.00    -0.248 NA
ATOM     57  C   UNL A   1      37.576  32.182  33.086  1.00  0.00     0.031 C 
ATOM     58  C   UNL A   1      38.875  29.462  27.825  1.00  0.00     0.029 A 
ATOM     59  C   UNL A   1      38.907  29.869  29.149  1.00  0.00     0.049 A 
ATOM     60  H   UNL A   1      40.367  29.485  30.623  1.00  0.00     0.167 HD
ATOM     61  C   UNL A   1      38.085  31.051  31.160  1.00  0.00     0.074 A 
ATOM     62  C   UNL A   1      37.157  31.917  31.855  1.00  0.00     0.031 C 
ATOM     63  C   UNL A   1      37.957  30.685  29.861  1.00  0.00     0.034 A 
BRANCH  50  64
ATOM     64  C   UNL A   1      42.658  27.253  27.792  1.00  0.00     0.023 A 
ATOM     65  C   UNL A   1      43.403  27.990  26.847  1.00  0.00     0.012 A 
ATOM     66  C   UNL A   1      42.553  25.856  27.653  1.00  0.00     0.148 A 
ATOM     67  C   UNL A   1      44.002  27.352  25.763  1.00  0.00     0.002 A 
ATOM     68  C   UNL A   1      43.190  25.221  26.594  1.00  0.00     0.091 A 
ATOM     69  F   UNL A   1      41.821  25.178  28.548  1.00  0.00    -0.205 F 
ATOM     70  C   UNL A   1      43.904  25.968  25.642  1.00  0.00     0.022 A 
BRANCH  68  71
ATOM     71  S   UNL A   1      43.188  23.437  26.392  1.00  0.00     0.127 S 
ATOM     72  O   UNL A   1      44.274  23.248  25.431  1.00  0.00    -0.237 OA
ATOM     73  O   UNL A   1      43.485  22.975  27.749  1.00  0.00    -0.237 OA
ATOM     74  O   UNL A   1      41.860  23.089  25.909  1.00  0.00    -0.744 OA
ENDBRANCH  68  71
ENDBRANCH  50  64
BRANCH  51  75
ATOM     75  C   UNL A   1      38.943  32.090  35.669  1.00  0.00     0.023 A 
ATOM     76  C   UNL A   1      39.114  33.489  35.730  1.00  0.00     0.012 A 
ATOM     77  C   UNL A   1      38.263  31.438  36.717  1.00  0.00     0.148 A 
ATOM     78  C   UNL A   1      38.648  34.216  36.826  1.00  0.00     0.002 A 
ATOM     79  C   UNL A   1      37.751  32.177  37.777  1.00  0.00     0.091 A 
ATOM     80  F   UNL A   1      38.134  30.105  36.655  1.00  0.00    -0.205 F 
ATOM     81  C   UNL A   1      37.959  33.563  37.844  1.00  0.00     0.022 A 
BRANCH  79  82
ATOM     82  S   UNL A   1      36.750  31.439  39.072  1.00  0.00     0.127 S 
ATOM     83  O   UNL A   1      35.648  32.394  39.178  1.00  0.00    -0.237 OA
ATOM     84  O   UNL A   1      36.393  30.151  38.478  1.00  0.00    -0.237 OA
ATOM     85  O   UNL A   1      37.619  31.348  40.237  1.00  0.00    -0.744 OA
ENDBRANCH  79  82
ENDBRANCH  51  75
BRANCH  63  86
ATOM     86  C   UNL A   1      36.748  31.173  29.098  1.00  0.00     0.023 A 
ATOM     87  C   UNL A   1      36.590  32.546  28.827  1.00  0.00     0.012 A 
ATOM     88  C   UNL A   1      35.814  30.255  28.576  1.00  0.00     0.148 A 
ATOM     89  C   UNL A   1      35.506  33.002  28.075  1.00  0.00     0.002 A 
ATOM     90  C   UNL A   1      34.765  30.711  27.784  1.00  0.00     0.091 A 
ATOM     91  F   UNL A   1      35.970  28.954  28.857  1.00  0.00    -0.205 F 
ATOM     92  C   UNL A   1      34.603  32.084  27.544  1.00  0.00     0.022 A 
BRANCH  90  93
ATOM     93  S   UNL A   1      33.610  29.595  26.979  1.00  0.00     0.127 S 
ATOM     94  O   UNL A   1      33.150  28.781  28.102  1.00  0.00    -0.237 OA
ATOM     95  O   UNL A   1      32.608  30.519  26.445  1.00  0.00    -0.237 OA
ATOM     96  O   UNL A   1      34.377  28.884  25.966  1.00  0.00    -0.744 OA
ENDBRANCH  90  93
ENDBRANCH  63  86
ENDBRANCH  37  38
ENDBRANCH  30  32
ENDBRANCH  29  30
ENDBRANCH  28  29
ENDBRANCH  27  28
ENDBRANCH  26  27
ENDBRANCH  25  26
ENDBRANCH   1  25
TORSDOF 24
ENDMDL
