MODEL 1
REMARK VINA RESULT:      -7.7      0.000      0.000
REMARK SMILES CC(C)c1cc(OCC(=O)OCCOCCOCCOC(=O)c2ccc(-c3c4nc(c(-c5cccc(S(=O)(=O)[O-])c5F)c5ccc([nH]5)c(-c5cccc(S(=O)(=O)[O-])c5F)c5nc(c(-c6cccc(S(=O)(=O)[O-])c6F)c6ccc3[nH]6)C=C5)C=C4)cc2)nc(Nc2ccc(F)cc2F)n1
REMARK SMILES IDX 15 1 14 2 13 3 12 4 11 5 9 6 10 7 8 8 7 9 6 10 4 11 5 12
REMARK SMILES IDX 97 13 87 14 86 15 2 16 1 17 3 18 88 19 89 21 90 22 95 23
REMARK SMILES IDX 91 24 94 25 96 26 92 27 93 28 16 29 17 30 18 31 19 32 20 33
REMARK SMILES IDX 21 34 22 35 23 36 24 37 85 38 25 39 84 40 26 41 27 42 28 43
REMARK SMILES IDX 78 44 29 45 83 46 77 47 79 48 30 49 82 50 76 51 75 52 31 54
REMARK SMILES IDX 63 55 43 56 62 57 44 58 47 59 61 60 80 61 45 62 46 63 60 65
REMARK SMILES IDX 81 66 48 67 32 68 33 69 41 70 34 71 36 72 42 73 35 74 37 75
REMARK SMILES IDX 38 76 39 77 40 78 64 79 65 80 73 81 66 82 68 83 74 84 67 85
REMARK SMILES IDX 69 86 70 87 71 88 72 89 49 90 50 91 58 92 51 93 53 94 59 95
REMARK SMILES IDX 52 96 54 97 55 98 56 99 57 100
REMARK H PARENT 88 20 79 53 47 64
REMARK Flexibility Score: inf
ROOT
ATOM      1  C   UNL A   1      35.114  35.125  33.974  1.00  0.00     0.188 C 
ENDROOT
BRANCH   1   2
ATOM      2  O   UNL A   1      35.336  35.507  32.624  1.00  0.00    -0.376 OA
BRANCH   2   3
ATOM      3  C   UNL A   1      35.027  34.503  31.675  1.00  0.00     0.202 C 
BRANCH   3   4
ATOM      4  C   UNL A   1      33.630  34.672  31.042  1.00  0.00     0.261 C 
BRANCH   4   5
ATOM      5  O   UNL A   1      33.402  36.018  30.495  1.00  0.00    -0.461 OA
BRANCH   5   6
ATOM      6  C   UNL A   1      33.433  36.187  29.135  1.00  0.00     0.344 C 
ATOM      7  O   UNL A   1      33.183  37.264  28.600  1.00  0.00    -0.248 OA
BRANCH   6   8
ATOM      8  C   UNL A   1      34.016  34.943  28.309  1.00  0.00     0.353 C 
BRANCH   8   9
ATOM      9  O   UNL A   1      33.183  33.851  27.926  1.00  0.00    -0.466 OA
BRANCH   9  10
ATOM     10  C   UNL A   1      33.565  32.514  27.944  1.00  0.00     0.218 A 
ATOM     11  C   UNL A   1      33.666  30.336  26.889  1.00  0.00     0.052 A 
ATOM     12  C   UNL A   1      32.923  31.469  27.261  1.00  0.00     0.092 A 
ATOM     13  N   UNL A   1      34.917  30.280  27.313  1.00  0.00    -0.217 NA
ATOM     14  C   UNL A   1      35.445  31.224  28.094  1.00  0.00     0.230 A 
ATOM     15  N   UNL A   1      34.811  32.353  28.435  1.00  0.00    -0.177 NA
BRANCH  11  16
ATOM     16  C   UNL A   1      33.295  29.079  26.059  1.00  0.00     0.032 C 
ATOM     17  C   UNL A   1      33.173  27.697  26.754  1.00  0.00     0.014 C 
ATOM     18  C   UNL A   1      31.852  29.201  25.493  1.00  0.00     0.014 C 
ENDBRANCH  11  16
BRANCH  14  19
ATOM     19  N   UNL A   1      36.713  30.898  28.590  1.00  0.00    -0.322 N 
ATOM     20  H   UNL A   1      37.051  29.978  28.500  1.00  0.00     0.170 HD
BRANCH  19  21
ATOM     21  C   UNL A   1      37.512  31.883  29.218  1.00  0.00     0.077 A 
ATOM     22  C   UNL A   1      37.664  33.152  28.642  1.00  0.00     0.032 A 
ATOM     23  C   UNL A   1      37.900  31.722  30.571  1.00  0.00     0.149 A 
ATOM     24  C   UNL A   1      38.166  34.216  29.405  1.00  0.00     0.041 A 
ATOM     25  C   UNL A   1      38.397  32.774  31.331  1.00  0.00     0.080 A 
ATOM     26  F   UNL A   1      37.723  30.537  31.181  1.00  0.00    -0.205 F 
ATOM     27  C   UNL A   1      38.516  34.018  30.740  1.00  0.00     0.126 A 
ATOM     28  F   UNL A   1      38.945  35.053  31.472  1.00  0.00    -0.207 F 
ENDBRANCH  19  21
ENDBRANCH  14  19
ENDBRANCH   9  10
ENDBRANCH   8   9
ENDBRANCH   6   8
ENDBRANCH   5   6
ENDBRANCH   4   5
ENDBRANCH   3   4
ENDBRANCH   2   3
ENDBRANCH   1   2
BRANCH   1  29
ATOM     29  C   UNL A   1      34.943  33.617  34.238  1.00  0.00     0.188 C 
BRANCH  29  30
ATOM     30  O   UNL A   1      35.943  33.225  35.161  1.00  0.00    -0.376 OA
BRANCH  30  31
ATOM     31  C   UNL A   1      37.195  32.904  34.616  1.00  0.00     0.202 C 
BRANCH  31  32
ATOM     32  C   UNL A   1      38.001  31.658  35.085  1.00  0.00     0.261 C 
BRANCH  32  33
ATOM     33  O   UNL A   1      38.644  30.689  34.208  1.00  0.00    -0.460 OA
BRANCH  33  34
ATOM     34  C   UNL A   1      39.949  30.534  34.513  1.00  0.00     0.338 C 
ATOM     35  O   UNL A   1      40.313  30.534  35.682  1.00  0.00    -0.246 OA
BRANCH  34  36
ATOM     36  C   UNL A   1      41.061  30.393  33.529  1.00  0.00     0.060 A 
ATOM     37  C   UNL A   1      42.202  31.160  33.833  1.00  0.00     0.016 A 
ATOM     38  C   UNL A   1      40.771  30.155  32.185  1.00  0.00     0.016 A 
ATOM     39  C   UNL A   1      42.887  31.874  32.843  1.00  0.00     0.010 A 
ATOM     40  C   UNL A   1      41.555  30.759  31.176  1.00  0.00     0.010 A 
ATOM     41  C   UNL A   1      42.599  31.651  31.491  1.00  0.00    -0.014 A 
BRANCH  41  42
ATOM     42  C   UNL A   1      43.599  32.056  30.457  1.00  0.00     0.031 A 
ATOM     43  C   UNL A   1      44.786  31.229  30.027  1.00  0.00     0.074 A 
ATOM     44  C   UNL A   1      43.452  33.319  30.004  1.00  0.00     0.049 A 
ATOM     45  N   UNL A   1      45.831  31.602  29.329  1.00  0.00    -0.248 NA
ATOM     46  C   UNL A   1      44.809  29.809  30.405  1.00  0.00     0.031 C 
ATOM     47  C   UNL A   1      42.331  34.204  30.348  1.00  0.00     0.029 A 
ATOM     48  N   UNL A   1      44.261  34.103  29.227  1.00  0.00    -0.354 N 
ATOM     49  C   UNL A   1      46.666  30.490  29.228  1.00  0.00     0.074 A 
ATOM     50  C   UNL A   1      45.980  29.409  29.910  1.00  0.00     0.031 C 
ATOM     51  C   UNL A   1      42.549  35.417  29.841  1.00  0.00     0.029 A 
ATOM     52  C   UNL A   1      43.855  35.418  29.212  1.00  0.00     0.049 A 
ATOM     53  H   UNL A   1      45.044  33.765  28.733  1.00  0.00     0.167 HD
ATOM     54  C   UNL A   1      47.887  30.396  28.632  1.00  0.00     0.034 A 
ATOM     55  C   UNL A   1      44.483  36.537  28.818  1.00  0.00     0.034 A 
ATOM     56  C   UNL A   1      48.532  31.496  27.945  1.00  0.00     0.049 A 
ATOM     57  C   UNL A   1      45.831  36.412  28.198  1.00  0.00     0.074 A 
ATOM     58  C   UNL A   1      49.730  31.496  27.248  1.00  0.00     0.029 A 
ATOM     59  N   UNL A   1      48.047  32.796  27.886  1.00  0.00    -0.354 N 
ATOM     60  N   UNL A   1      46.559  35.336  28.035  1.00  0.00    -0.248 NA
ATOM     61  C   UNL A   1      46.421  37.642  27.665  1.00  0.00     0.031 C 
ATOM     62  C   UNL A   1      49.990  32.800  26.809  1.00  0.00     0.029 A 
ATOM     63  C   UNL A   1      48.932  33.608  27.191  1.00  0.00     0.049 A 
ATOM     64  H   UNL A   1      47.198  33.098  28.281  1.00  0.00     0.167 HD
ATOM     65  C   UNL A   1      47.684  35.749  27.342  1.00  0.00     0.074 A 
ATOM     66  C   UNL A   1      47.526  37.172  27.103  1.00  0.00     0.031 C 
ATOM     67  C   UNL A   1      48.752  35.018  26.943  1.00  0.00     0.034 A 
BRANCH  54  68
ATOM     68  C   UNL A   1      48.634  29.074  28.670  1.00  0.00     0.023 A 
ATOM     69  C   UNL A   1      48.476  28.141  27.626  1.00  0.00     0.012 A 
ATOM     70  C   UNL A   1      49.596  28.812  29.674  1.00  0.00     0.148 A 
ATOM     71  C   UNL A   1      49.232  26.965  27.593  1.00  0.00     0.002 A 
ATOM     72  C   UNL A   1      50.373  27.656  29.614  1.00  0.00     0.091 A 
ATOM     73  F   UNL A   1      49.744  29.704  30.663  1.00  0.00    -0.205 F 
ATOM     74  C   UNL A   1      50.184  26.728  28.581  1.00  0.00     0.022 A 
BRANCH  72  75
ATOM     75  S   UNL A   1      51.684  27.295  30.794  1.00  0.00     0.127 S 
ATOM     76  O   UNL A   1      50.920  27.005  32.006  1.00  0.00    -0.237 OA
ATOM     77  O   UNL A   1      52.332  26.129  30.191  1.00  0.00    -0.237 OA
ATOM     78  O   UNL A   1      52.515  28.490  30.850  1.00  0.00    -0.744 OA
ENDBRANCH  72  75
ENDBRANCH  54  68
BRANCH  55  79
ATOM     79  C   UNL A   1      43.785  37.839  28.980  1.00  0.00     0.023 A 
ATOM     80  C   UNL A   1      42.861  38.239  28.000  1.00  0.00     0.012 A 
ATOM     81  C   UNL A   1      43.917  38.598  30.162  1.00  0.00     0.148 A 
ATOM     82  C   UNL A   1      42.087  39.383  28.184  1.00  0.00     0.002 A 
ATOM     83  C   UNL A   1      43.099  39.701  30.366  1.00  0.00     0.091 A 
ATOM     84  F   UNL A   1      44.795  38.187  31.088  1.00  0.00    -0.205 F 
ATOM     85  C   UNL A   1      42.195  40.104  29.371  1.00  0.00     0.022 A 
BRANCH  83  86
ATOM     86  S   UNL A   1      43.046  40.586  31.929  1.00  0.00     0.127 S 
ATOM     87  O   UNL A   1      43.023  39.494  32.892  1.00  0.00    -0.237 OA
ATOM     88  O   UNL A   1      44.290  41.353  31.889  1.00  0.00    -0.237 OA
ATOM     89  O   UNL A   1      41.838  41.409  31.870  1.00  0.00    -0.744 OA
ENDBRANCH  83  86
ENDBRANCH  55  79
BRANCH  67  90
ATOM     90  C   UNL A   1      49.818  35.752  26.176  1.00  0.00     0.023 A 
ATOM     91  C   UNL A   1      49.844  35.684  24.768  1.00  0.00     0.012 A 
ATOM     92  C   UNL A   1      50.792  36.510  26.852  1.00  0.00     0.148 A 
ATOM     93  C   UNL A   1      50.852  36.322  24.048  1.00  0.00     0.002 A 
ATOM     94  C   UNL A   1      51.761  37.188  26.125  1.00  0.00     0.091 A 
ATOM     95  F   UNL A   1      50.764  36.538  28.193  1.00  0.00    -0.205 F 
ATOM     96  C   UNL A   1      51.803  37.082  24.725  1.00  0.00     0.022 A 
BRANCH  94  97
ATOM     97  S   UNL A   1      52.971  38.261  26.903  1.00  0.00     0.127 S 
ATOM     98  O   UNL A   1      53.525  37.387  27.935  1.00  0.00    -0.237 OA
ATOM     99  O   UNL A   1      53.883  38.552  25.795  1.00  0.00    -0.237 OA
ATOM    100  O   UNL A   1      52.229  39.415  27.394  1.00  0.00    -0.744 OA
ENDBRANCH  94  97
ENDBRANCH  67  90
ENDBRANCH  41  42
ENDBRANCH  34  36
ENDBRANCH  33  34
ENDBRANCH  32  33
ENDBRANCH  31  32
ENDBRANCH  30  31
ENDBRANCH  29  30
ENDBRANCH   1  29
TORSDOF 25
ENDMDL
MODEL 2
REMARK VINA RESULT:      -7.5      7.604     12.759
REMARK SMILES CC(C)c1cc(OCC(=O)OCCOCCOCCOC(=O)c2ccc(-c3c4nc(c(-c5cccc(S(=O)(=O)[O-])c5F)c5ccc([nH]5)c(-c5cccc(S(=O)(=O)[O-])c5F)c5nc(c(-c6cccc(S(=O)(=O)[O-])c6F)c6ccc3[nH]6)C=C5)C=C4)cc2)nc(Nc2ccc(F)cc2F)n1
REMARK SMILES IDX 15 1 14 2 13 3 12 4 11 5 9 6 10 7 8 8 7 9 6 10 4 11 5 12
REMARK SMILES IDX 97 13 87 14 86 15 2 16 1 17 3 18 88 19 89 21 90 22 95 23
REMARK SMILES IDX 91 24 94 25 96 26 92 27 93 28 16 29 17 30 18 31 19 32 20 33
REMARK SMILES IDX 21 34 22 35 23 36 24 37 85 38 25 39 84 40 26 41 27 42 28 43
REMARK SMILES IDX 78 44 29 45 83 46 77 47 79 48 30 49 82 50 76 51 75 52 31 54
REMARK SMILES IDX 63 55 43 56 62 57 44 58 47 59 61 60 80 61 45 62 46 63 60 65
REMARK SMILES IDX 81 66 48 67 32 68 33 69 41 70 34 71 36 72 42 73 35 74 37 75
REMARK SMILES IDX 38 76 39 77 40 78 64 79 65 80 73 81 66 82 68 83 74 84 67 85
REMARK SMILES IDX 69 86 70 87 71 88 72 89 49 90 50 91 58 92 51 93 53 94 59 95
REMARK SMILES IDX 52 96 54 97 55 98 56 99 57 100
REMARK H PARENT 88 20 79 53 47 64
REMARK Flexibility Score: inf
ROOT
ATOM      1  C   UNL A   1      40.132  26.804  28.646  1.00  0.00     0.188 C 
ENDROOT
BRANCH   1   2
ATOM      2  O   UNL A   1      39.308  26.196  27.662  1.00  0.00    -0.376 OA
BRANCH   2   3
ATOM      3  C   UNL A   1      39.097  24.809  27.852  1.00  0.00     0.202 C 
BRANCH   3   4
ATOM      4  C   UNL A   1      40.061  23.928  27.029  1.00  0.00     0.261 C 
BRANCH   4   5
ATOM      5  O   UNL A   1      39.886  22.490  27.280  1.00  0.00    -0.461 OA
BRANCH   5   6
ATOM      6  C   UNL A   1      39.655  21.661  26.213  1.00  0.00     0.344 C 
ATOM      7  O   UNL A   1      40.512  20.900  25.772  1.00  0.00    -0.248 OA
BRANCH   6   8
ATOM      8  C   UNL A   1      38.132  21.606  25.714  1.00  0.00     0.353 C 
BRANCH   8   9
ATOM      9  O   UNL A   1      37.530  22.710  25.043  1.00  0.00    -0.466 OA
BRANCH   9  10
ATOM     10  C   UNL A   1      36.230  22.729  24.548  1.00  0.00     0.218 A 
ATOM     11  C   UNL A   1      33.978  21.839  24.507  1.00  0.00     0.052 A 
ATOM     12  C   UNL A   1      35.366  21.624  24.474  1.00  0.00     0.092 A 
ATOM     13  N   UNL A   1      33.570  23.097  24.492  1.00  0.00    -0.217 NA
ATOM     14  C   UNL A   1      34.423  24.119  24.405  1.00  0.00     0.230 A 
ATOM     15  N   UNL A   1      35.755  23.985  24.429  1.00  0.00    -0.177 NA
BRANCH  11  16
ATOM     16  C   UNL A   1      32.777  20.858  24.544  1.00  0.00     0.032 C 
ATOM     17  C   UNL A   1      32.424  20.015  23.290  1.00  0.00     0.014 C 
ATOM     18  C   UNL A   1      33.043  19.704  25.553  1.00  0.00     0.014 C 
ENDBRANCH  11  16
BRANCH  14  19
ATOM     19  N   UNL A   1      33.798  25.357  24.215  1.00  0.00    -0.322 N 
ATOM     20  H   UNL A   1      33.770  25.758  23.317  1.00  0.00     0.170 HD
BRANCH  19  21
ATOM     21  C   UNL A   1      33.204  26.035  25.306  1.00  0.00     0.077 A 
ATOM     22  C   UNL A   1      33.918  27.012  26.013  1.00  0.00     0.032 A 
ATOM     23  C   UNL A   1      31.801  25.980  25.495  1.00  0.00     0.149 A 
ATOM     24  C   UNL A   1      33.244  27.905  26.858  1.00  0.00     0.041 A 
ATOM     25  C   UNL A   1      31.128  26.863  26.330  1.00  0.00     0.080 A 
ATOM     26  F   UNL A   1      31.067  25.095  24.797  1.00  0.00    -0.205 F 
ATOM     27  C   UNL A   1      31.860  27.828  26.998  1.00  0.00     0.126 A 
ATOM     28  F   UNL A   1      31.221  28.718  27.767  1.00  0.00    -0.207 F 
ENDBRANCH  19  21
ENDBRANCH  14  19
ENDBRANCH   9  10
ENDBRANCH   8   9
ENDBRANCH   6   8
ENDBRANCH   5   6
ENDBRANCH   4   5
ENDBRANCH   3   4
ENDBRANCH   2   3
ENDBRANCH   1   2
BRANCH   1  29
ATOM     29  C   UNL A   1      40.718  28.183  28.291  1.00  0.00     0.188 C 
BRANCH  29  30
ATOM     30  O   UNL A   1      39.690  29.144  28.452  1.00  0.00    -0.376 OA
BRANCH  30  31
ATOM     31  C   UNL A   1      39.111  29.220  29.727  1.00  0.00     0.202 C 
BRANCH  31  32
ATOM     32  C   UNL A   1      37.738  28.562  30.048  1.00  0.00     0.261 C 
BRANCH  32  33
ATOM     33  O   UNL A   1      36.763  29.066  31.007  1.00  0.00    -0.460 OA
BRANCH  33  34
ATOM     34  C   UNL A   1      37.319  29.269  32.219  1.00  0.00     0.338 C 
ATOM     35  O   UNL A   1      37.309  28.377  33.059  1.00  0.00    -0.246 OA
BRANCH  34  36
ATOM     36  C   UNL A   1      37.945  30.540  32.687  1.00  0.00     0.060 A 
ATOM     37  C   UNL A   1      39.138  30.362  33.415  1.00  0.00     0.016 A 
ATOM     38  C   UNL A   1      37.139  31.631  33.008  1.00  0.00     0.016 A 
ATOM     39  C   UNL A   1      39.396  31.092  34.580  1.00  0.00     0.010 A 
ATOM     40  C   UNL A   1      37.478  32.463  34.099  1.00  0.00     0.010 A 
ATOM     41  C   UNL A   1      38.589  32.185  34.918  1.00  0.00    -0.014 A 
BRANCH  41  42
ATOM     42  C   UNL A   1      39.109  33.206  35.876  1.00  0.00     0.031 A 
ATOM     43  C   UNL A   1      40.170  34.232  35.560  1.00  0.00     0.074 A 
ATOM     44  C   UNL A   1      38.654  33.069  37.139  1.00  0.00     0.049 A 
ATOM     45  N   UNL A   1      40.854  34.983  36.390  1.00  0.00    -0.248 NA
ATOM     46  C   UNL A   1      40.505  34.464  34.148  1.00  0.00     0.031 C 
ATOM     47  C   UNL A   1      37.617  32.114  37.554  1.00  0.00     0.029 A 
ATOM     48  N   UNL A   1      39.037  33.664  38.311  1.00  0.00    -0.354 N 
ATOM     49  C   UNL A   1      41.738  35.736  35.617  1.00  0.00     0.074 A 
ATOM     50  C   UNL A   1      41.474  35.374  34.237  1.00  0.00     0.031 C 
ATOM     51  C   UNL A   1      37.490  32.142  38.880  1.00  0.00     0.029 A 
ATOM     52  C   UNL A   1      38.487  33.050  39.413  1.00  0.00     0.049 A 
ATOM     53  H   UNL A   1      39.639  34.443  38.360  1.00  0.00     0.167 HD
ATOM     54  C   UNL A   1      42.679  36.628  36.032  1.00  0.00     0.034 A 
ATOM     55  C   UNL A   1      38.791  33.128  40.718  1.00  0.00     0.034 A 
ATOM     56  C   UNL A   1      42.901  36.975  37.420  1.00  0.00     0.049 A 
ATOM     57  C   UNL A   1      39.846  34.088  41.143  1.00  0.00     0.074 A 
ATOM     58  C   UNL A   1      43.774  37.914  37.948  1.00  0.00     0.029 A 
ATOM     59  N   UNL A   1      42.262  36.385  38.504  1.00  0.00    -0.354 N 
ATOM     60  N   UNL A   1      40.604  34.852  40.398  1.00  0.00    -0.248 NA
ATOM     61  C   UNL A   1      40.052  34.235  42.586  1.00  0.00     0.031 C 
ATOM     62  C   UNL A   1      43.696  37.858  39.345  1.00  0.00     0.029 A 
ATOM     63  C   UNL A   1      42.741  36.917  39.692  1.00  0.00     0.049 A 
ATOM     64  H   UNL A   1      41.571  35.688  38.437  1.00  0.00     0.167 HD
ATOM     65  C   UNL A   1      41.358  35.605  41.282  1.00  0.00     0.074 A 
ATOM     66  C   UNL A   1      40.946  35.213  42.617  1.00  0.00     0.031 C 
ATOM     67  C   UNL A   1      42.307  36.533  41.013  1.00  0.00     0.034 A 
BRANCH  54  68
ATOM     68  C   UNL A   1      43.556  37.316  35.000  1.00  0.00     0.023 A 
ATOM     69  C   UNL A   1      43.112  38.494  34.366  1.00  0.00     0.012 A 
ATOM     70  C   UNL A   1      44.877  36.872  34.757  1.00  0.00     0.148 A 
ATOM     71  C   UNL A   1      43.947  39.198  33.492  1.00  0.00     0.002 A 
ATOM     72  C   UNL A   1      45.716  37.598  33.913  1.00  0.00     0.091 A 
ATOM     73  F   UNL A   1      45.295  35.752  35.364  1.00  0.00    -0.205 F 
ATOM     74  C   UNL A   1      45.249  38.754  33.273  1.00  0.00     0.022 A 
BRANCH  72  75
ATOM     75  S   UNL A   1      47.438  37.157  33.627  1.00  0.00     0.127 S 
ATOM     76  O   UNL A   1      48.001  37.278  34.970  1.00  0.00    -0.237 OA
ATOM     77  O   UNL A   1      47.329  35.782  33.135  1.00  0.00    -0.237 OA
ATOM     78  O   UNL A   1      47.941  38.113  32.650  1.00  0.00    -0.744 OA
ENDBRANCH  72  75
ENDBRANCH  54  68
BRANCH  55  79
ATOM     79  C   UNL A   1      38.031  32.284  41.677  1.00  0.00     0.023 A 
ATOM     80  C   UNL A   1      38.665  31.166  42.246  1.00  0.00     0.012 A 
ATOM     81  C   UNL A   1      36.755  32.669  42.139  1.00  0.00     0.148 A 
ATOM     82  C   UNL A   1      38.036  30.433  43.250  1.00  0.00     0.002 A 
ATOM     83  C   UNL A   1      36.161  31.972  43.182  1.00  0.00     0.091 A 
ATOM     84  F   UNL A   1      36.178  33.749  41.591  1.00  0.00    -0.205 F 
ATOM     85  C   UNL A   1      36.794  30.844  43.728  1.00  0.00     0.022 A 
BRANCH  83  86
ATOM     86  S   UNL A   1      34.648  32.528  43.976  1.00  0.00     0.127 S 
ATOM     87  O   UNL A   1      34.442  31.498  44.985  1.00  0.00    -0.237 OA
ATOM     88  O   UNL A   1      35.038  33.838  44.496  1.00  0.00    -0.237 OA
ATOM     89  O   UNL A   1      33.647  32.585  42.910  1.00  0.00    -0.744 OA
ENDBRANCH  83  86
ENDBRANCH  55  79
BRANCH  67  90
ATOM     90  C   UNL A   1      42.939  37.209  42.199  1.00  0.00     0.023 A 
ATOM     91  C   UNL A   1      42.376  38.393  42.717  1.00  0.00     0.012 A 
ATOM     92  C   UNL A   1      44.090  36.668  42.801  1.00  0.00     0.148 A 
ATOM     93  C   UNL A   1      42.977  39.053  43.787  1.00  0.00     0.002 A 
ATOM     94  C   UNL A   1      44.652  37.301  43.901  1.00  0.00     0.091 A 
ATOM     95  F   UNL A   1      44.625  35.555  42.275  1.00  0.00    -0.205 F 
ATOM     96  C   UNL A   1      44.108  38.502  44.385  1.00  0.00     0.022 A 
BRANCH  94  97
ATOM     97  S   UNL A   1      46.054  36.619  44.791  1.00  0.00     0.127 S 
ATOM     98  O   UNL A   1      45.483  35.398  45.356  1.00  0.00    -0.237 OA
ATOM     99  O   UNL A   1      47.024  36.399  43.716  1.00  0.00    -0.237 OA
ATOM    100  O   UNL A   1      46.447  37.633  45.761  1.00  0.00    -0.744 OA
ENDBRANCH  94  97
ENDBRANCH  67  90
ENDBRANCH  41  42
ENDBRANCH  34  36
ENDBRANCH  33  34
ENDBRANCH  32  33
ENDBRANCH  31  32
ENDBRANCH  30  31
ENDBRANCH  29  30
ENDBRANCH   1  29
TORSDOF 25
ENDMDL
MODEL 3
REMARK VINA RESULT:      -7.5      3.586      5.328
REMARK SMILES CC(C)c1cc(OCC(=O)OCCOCCOCCOC(=O)c2ccc(-c3c4nc(c(-c5cccc(S(=O)(=O)[O-])c5F)c5ccc([nH]5)c(-c5cccc(S(=O)(=O)[O-])c5F)c5nc(c(-c6cccc(S(=O)(=O)[O-])c6F)c6ccc3[nH]6)C=C5)C=C4)cc2)nc(Nc2ccc(F)cc2F)n1
REMARK SMILES IDX 15 1 14 2 13 3 12 4 11 5 9 6 10 7 8 8 7 9 6 10 4 11 5 12
REMARK SMILES IDX 97 13 87 14 86 15 2 16 1 17 3 18 88 19 89 21 90 22 95 23
REMARK SMILES IDX 91 24 94 25 96 26 92 27 93 28 16 29 17 30 18 31 19 32 20 33
REMARK SMILES IDX 21 34 22 35 23 36 24 37 85 38 25 39 84 40 26 41 27 42 28 43
REMARK SMILES IDX 78 44 29 45 83 46 77 47 79 48 30 49 82 50 76 51 75 52 31 54
REMARK SMILES IDX 63 55 43 56 62 57 44 58 47 59 61 60 80 61 45 62 46 63 60 65
REMARK SMILES IDX 81 66 48 67 32 68 33 69 41 70 34 71 36 72 42 73 35 74 37 75
REMARK SMILES IDX 38 76 39 77 40 78 64 79 65 80 73 81 66 82 68 83 74 84 67 85
REMARK SMILES IDX 69 86 70 87 71 88 72 89 49 90 50 91 58 92 51 93 53 94 59 95
REMARK SMILES IDX 52 96 54 97 55 98 56 99 57 100
REMARK H PARENT 88 20 79 53 47 64
REMARK Flexibility Score: inf
ROOT
ATOM      1  C   UNL A   1      36.162  29.697  29.222  1.00  0.00     0.188 C 
ENDROOT
BRANCH   1   2
ATOM      2  O   UNL A   1      35.858  30.364  28.006  1.00  0.00    -0.376 OA
BRANCH   2   3
ATOM      3  C   UNL A   1      34.789  29.790  27.277  1.00  0.00     0.202 C 
BRANCH   3   4
ATOM      4  C   UNL A   1      33.685  30.805  26.912  1.00  0.00     0.261 C 
BRANCH   4   5
ATOM      5  O   UNL A   1      32.329  30.309  27.188  1.00  0.00    -0.461 OA
BRANCH   5   6
ATOM      6  C   UNL A   1      31.753  29.443  26.295  1.00  0.00     0.344 C 
ATOM      7  O   UNL A   1      31.624  29.715  25.104  1.00  0.00    -0.248 OA
BRANCH   6   8
ATOM      8  C   UNL A   1      31.448  27.978  26.870  1.00  0.00     0.353 C 
BRANCH   8   9
ATOM      9  O   UNL A   1      32.417  26.935  26.796  1.00  0.00    -0.466 OA
BRANCH   9  10
ATOM     10  C   UNL A   1      32.306  25.799  26.002  1.00  0.00     0.218 A 
ATOM     11  C   UNL A   1      32.422  24.722  23.836  1.00  0.00     0.052 A 
ATOM     12  C   UNL A   1      31.969  25.783  24.639  1.00  0.00     0.092 A 
ATOM     13  N   UNL A   1      33.050  23.736  24.452  1.00  0.00    -0.217 NA
ATOM     14  C   UNL A   1      33.213  23.715  25.776  1.00  0.00     0.230 A 
ATOM     15  N   UNL A   1      32.859  24.718  26.589  1.00  0.00    -0.177 NA
BRANCH  11  16
ATOM     16  C   UNL A   1      32.316  24.457  22.311  1.00  0.00     0.032 C 
ATOM     17  C   UNL A   1      32.825  25.519  21.301  1.00  0.00     0.014 C 
ATOM     18  C   UNL A   1      33.223  23.264  21.897  1.00  0.00     0.014 C 
ENDBRANCH  11  16
BRANCH  14  19
ATOM     19  N   UNL A   1      33.733  22.508  26.259  1.00  0.00    -0.322 N 
ATOM     20  H   UNL A   1      33.318  22.075  27.039  1.00  0.00     0.170 HD
BRANCH  19  21
ATOM     21  C   UNL A   1      34.849  21.906  25.631  1.00  0.00     0.077 A 
ATOM     22  C   UNL A   1      36.129  22.462  25.767  1.00  0.00     0.032 A 
ATOM     23  C   UNL A   1      34.755  20.581  25.139  1.00  0.00     0.149 A 
ATOM     24  C   UNL A   1      37.264  21.706  25.438  1.00  0.00     0.041 A 
ATOM     25  C   UNL A   1      35.877  19.828  24.813  1.00  0.00     0.080 A 
ATOM     26  F   UNL A   1      33.552  19.987  25.043  1.00  0.00    -0.205 F 
ATOM     27  C   UNL A   1      37.126  20.399  24.977  1.00  0.00     0.126 A 
ATOM     28  F   UNL A   1      38.218  19.670  24.715  1.00  0.00    -0.207 F 
ENDBRANCH  19  21
ENDBRANCH  14  19
ENDBRANCH   9  10
ENDBRANCH   8   9
ENDBRANCH   6   8
ENDBRANCH   5   6
ENDBRANCH   4   5
ENDBRANCH   3   4
ENDBRANCH   2   3
ENDBRANCH   1   2
BRANCH   1  29
ATOM     29  C   UNL A   1      37.332  30.271  30.044  1.00  0.00     0.188 C 
BRANCH  29  30
ATOM     30  O   UNL A   1      37.319  29.640  31.311  1.00  0.00    -0.376 OA
BRANCH  30  31
ATOM     31  C   UNL A   1      36.928  30.440  32.395  1.00  0.00     0.202 C 
BRANCH  31  32
ATOM     32  C   UNL A   1      37.440  30.175  33.841  1.00  0.00     0.261 C 
BRANCH  32  33
ATOM     33  O   UNL A   1      38.777  29.713  34.191  1.00  0.00    -0.460 OA
BRANCH  33  34
ATOM     34  C   UNL A   1      39.712  30.643  33.909  1.00  0.00     0.338 C 
ATOM     35  O   UNL A   1      39.650  31.755  34.420  1.00  0.00    -0.246 OA
BRANCH  34  36
ATOM     36  C   UNL A   1      40.853  30.470  32.964  1.00  0.00     0.060 A 
ATOM     37  C   UNL A   1      42.024  31.154  33.341  1.00  0.00     0.016 A 
ATOM     38  C   UNL A   1      40.604  30.299  31.602  1.00  0.00     0.016 A 
ATOM     39  C   UNL A   1      42.790  31.860  32.406  1.00  0.00     0.010 A 
ATOM     40  C   UNL A   1      41.463  30.890  30.648  1.00  0.00     0.010 A 
ATOM     41  C   UNL A   1      42.545  31.704  31.036  1.00  0.00    -0.014 A 
BRANCH  41  42
ATOM     42  C   UNL A   1      43.607  32.085  30.058  1.00  0.00     0.031 A 
ATOM     43  C   UNL A   1      44.849  31.277  29.767  1.00  0.00     0.074 A 
ATOM     44  C   UNL A   1      43.457  33.313  29.520  1.00  0.00     0.049 A 
ATOM     45  N   UNL A   1      45.933  31.646  29.129  1.00  0.00    -0.248 NA
ATOM     46  C   UNL A   1      44.886  29.882  30.230  1.00  0.00     0.031 C 
ATOM     47  C   UNL A   1      42.286  34.177  29.726  1.00  0.00     0.029 A 
ATOM     48  N   UNL A   1      44.299  34.080  28.761  1.00  0.00    -0.354 N 
ATOM     49  C   UNL A   1      46.807  30.559  29.157  1.00  0.00     0.074 A 
ATOM     50  C   UNL A   1      46.104  29.495  29.849  1.00  0.00     0.031 C 
ATOM     51  C   UNL A   1      42.506  35.366  29.167  1.00  0.00     0.029 A 
ATOM     52  C   UNL A   1      43.856  35.377  28.638  1.00  0.00     0.049 A 
ATOM     53  H   UNL A   1      45.128  33.742  28.349  1.00  0.00     0.167 HD
ATOM     54  C   UNL A   1      48.071  30.475  28.660  1.00  0.00     0.034 A 
ATOM     55  C   UNL A   1      44.477  36.493  28.226  1.00  0.00     0.034 A 
ATOM     56  C   UNL A   1      48.734  31.556  27.960  1.00  0.00     0.049 A 
ATOM     57  C   UNL A   1      45.871  36.380  27.717  1.00  0.00     0.074 A 
ATOM     58  C   UNL A   1      49.981  31.558  27.355  1.00  0.00     0.029 A 
ATOM     59  N   UNL A   1      48.215  32.833  27.787  1.00  0.00    -0.354 N 
ATOM     60  N   UNL A   1      46.643  35.323  27.673  1.00  0.00    -0.248 NA
ATOM     61  C   UNL A   1      46.462  37.597  27.157  1.00  0.00     0.031 C 
ATOM     62  C   UNL A   1      50.233  32.843  26.860  1.00  0.00     0.029 A 
ATOM     63  C   UNL A   1      49.125  33.634  27.114  1.00  0.00     0.049 A 
ATOM     64  H   UNL A   1      47.329  33.127  28.099  1.00  0.00     0.167 HD
ATOM     65  C   UNL A   1      47.804  35.735  27.043  1.00  0.00     0.074 A 
ATOM     66  C   UNL A   1      47.622  37.135  26.709  1.00  0.00     0.031 C 
ATOM     67  C   UNL A   1      48.922  35.020  26.769  1.00  0.00     0.034 A 
BRANCH  54  68
ATOM     68  C   UNL A   1      48.854  29.184  28.833  1.00  0.00     0.023 A 
ATOM     69  C   UNL A   1      49.709  29.018  29.941  1.00  0.00     0.012 A 
ATOM     70  C   UNL A   1      48.639  28.084  27.971  1.00  0.00     0.148 A 
ATOM     71  C   UNL A   1      50.357  27.800  30.172  1.00  0.00     0.002 A 
ATOM     72  C   UNL A   1      49.259  26.861  28.227  1.00  0.00     0.091 A 
ATOM     73  F   UNL A   1      47.823  28.246  26.920  1.00  0.00    -0.205 F 
ATOM     74  C   UNL A   1      50.125  26.722  29.321  1.00  0.00     0.022 A 
BRANCH  72  75
ATOM     75  S   UNL A   1      48.964  25.386  27.238  1.00  0.00     0.127 S 
ATOM     76  O   UNL A   1      49.067  25.916  25.880  1.00  0.00    -0.237 OA
ATOM     77  O   UNL A   1      50.073  24.518  27.638  1.00  0.00    -0.237 OA
ATOM     78  O   UNL A   1      47.646  24.902  27.621  1.00  0.00    -0.744 OA
ENDBRANCH  72  75
ENDBRANCH  54  68
BRANCH  55  79
ATOM     79  C   UNL A   1      43.729  37.777  28.258  1.00  0.00     0.023 A 
ATOM     80  C   UNL A   1      42.796  38.043  27.240  1.00  0.00     0.012 A 
ATOM     81  C   UNL A   1      43.824  38.652  29.359  1.00  0.00     0.148 A 
ATOM     82  C   UNL A   1      41.979  39.169  27.310  1.00  0.00     0.002 A 
ATOM     83  C   UNL A   1      42.964  39.738  29.453  1.00  0.00     0.091 A 
ATOM     84  F   UNL A   1      44.711  38.368  30.324  1.00  0.00    -0.205 F 
ATOM     85  C   UNL A   1      42.051  40.006  28.420  1.00  0.00     0.022 A 
BRANCH  83  86
ATOM     86  S   UNL A   1      42.867  40.769  30.921  1.00  0.00     0.127 S 
ATOM     87  O   UNL A   1      43.978  41.687  30.718  1.00  0.00    -0.237 OA
ATOM     88  O   UNL A   1      41.537  41.363  30.790  1.00  0.00    -0.237 OA
ATOM     89  O   UNL A   1      42.999  39.850  32.052  1.00  0.00    -0.744 OA
ENDBRANCH  83  86
ENDBRANCH  55  79
BRANCH  67  90
ATOM     90  C   UNL A   1      50.020  35.746  26.041  1.00  0.00     0.023 A 
ATOM     91  C   UNL A   1      50.178  35.572  24.652  1.00  0.00     0.012 A 
ATOM     92  C   UNL A   1      50.894  36.603  26.737  1.00  0.00     0.148 A 
ATOM     93  C   UNL A   1      51.219  36.203  23.973  1.00  0.00     0.002 A 
ATOM     94  C   UNL A   1      51.895  37.272  26.045  1.00  0.00     0.091 A 
ATOM     95  F   UNL A   1      50.742  36.733  28.064  1.00  0.00    -0.205 F 
ATOM     96  C   UNL A   1      52.070  37.060  24.668  1.00  0.00     0.022 A 
BRANCH  94  97
ATOM     97  S   UNL A   1      52.981  38.462  26.837  1.00  0.00     0.127 S 
ATOM     98  O   UNL A   1      52.030  39.274  27.595  1.00  0.00    -0.237 OA
ATOM     99  O   UNL A   1      53.837  37.601  27.655  1.00  0.00    -0.237 OA
ATOM    100  O   UNL A   1      53.674  39.154  25.759  1.00  0.00    -0.744 OA
ENDBRANCH  94  97
ENDBRANCH  67  90
ENDBRANCH  41  42
ENDBRANCH  34  36
ENDBRANCH  33  34
ENDBRANCH  32  33
ENDBRANCH  31  32
ENDBRANCH  30  31
ENDBRANCH  29  30
ENDBRANCH   1  29
TORSDOF 25
ENDMDL
