MODEL 1
REMARK VINA RESULT:     -11.9      0.000      0.000
REMARK SMILES O=C(OCCOCCOCCOC(=O)c1ccc(-c2c3nc(c(-c4cccc(S(=O)(=O)[O-])c4F)c4ccc([nH]4)c(-c4cccc(S(=O)(=O)[O-])c4F)c4nc(c(-c5cccc(S(=O)(=O)[O-])c5F)c5ccc2[nH]5)C=C4)C=C3)cc1)C1=Cc2cc(S(F)(F)(F)(F)F)cc(Br)c2O[C@@H]1C(F)(F)F
REMARK SMILES IDX 8 1 7 2 6 3 5 4 4 5 3 6 2 7 1 8 78 9 79 10 94 11 80 12 93 13
REMARK SMILES IDX 81 14 92 15 82 16 90 17 89 18 91 19 95 20 96 21 97 22 98 23
REMARK SMILES IDX 83 24 84 25 85 26 86 27 87 28 88 29 9 30 10 31 11 32 12 33
REMARK SMILES IDX 13 34 14 35 15 36 16 37 77 38 17 39 76 40 18 41 19 42 20 43
REMARK SMILES IDX 70 44 21 45 75 46 69 47 71 48 22 49 74 50 68 51 67 52 23 54
REMARK SMILES IDX 55 55 35 56 54 57 36 58 39 59 53 60 72 61 37 62 38 63 52 65
REMARK SMILES IDX 73 66 40 67 24 68 25 69 33 70 26 71 28 72 34 73 27 74 29 75
REMARK SMILES IDX 30 76 31 77 32 78 56 79 57 80 65 81 58 82 60 83 66 84 59 85
REMARK SMILES IDX 61 86 62 87 63 88 64 89 41 90 42 91 50 92 43 93 45 94 51 95
REMARK SMILES IDX 44 96 46 97 47 98 48 99 49 100
REMARK H PARENT 71 53 39 64
REMARK Flexibility Score: inf
ROOT
ATOM      1  C   UNL A   1      32.782  30.126  26.410  1.00  0.00     0.188 C 
ENDROOT
BRANCH   1   2
ATOM      2  C   UNL A   1      33.234  28.944  25.568  1.00  0.00     0.188 C 
BRANCH   2   3
ATOM      3  O   UNL A   1      33.298  29.332  24.203  1.00  0.00    -0.376 OA
BRANCH   3   4
ATOM      4  C   UNL A   1      34.150  28.442  23.497  1.00  0.00     0.202 C 
BRANCH   4   5
ATOM      5  C   UNL A   1      33.307  27.477  22.679  1.00  0.00     0.261 C 
BRANCH   5   6
ATOM      6  O   UNL A   1      33.743  26.147  22.919  1.00  0.00    -0.460 OA
BRANCH   6   7
ATOM      7  C   UNL A   1      32.909  25.053  22.568  1.00  0.00     0.338 C 
ATOM      8  O   UNL A   1      33.275  24.240  21.662  1.00  0.00    -0.246 OA
BRANCH   7   9
ATOM      9  C   UNL A   1      31.579  24.853  23.276  1.00  0.00     0.087 C 
ATOM     10  C   UNL A   1      31.364  23.732  24.016  1.00  0.00     0.027 C 
ATOM     11  C   UNL A   1      30.488  25.905  23.156  1.00  0.00     0.316 C 
ATOM     12  C   UNL A   1      32.454  22.680  24.135  1.00  0.00     0.020 A 
ATOM     13  O   UNL A   1      34.016  24.454  24.386  1.00  0.00    -0.474 OA
ATOM     14  C   UNL A   1      32.140  21.342  23.960  1.00  0.00     0.036 A 
ATOM     15  C   UNL A   1      33.701  23.069  24.371  1.00  0.00     0.142 A 
ATOM     16  C   UNL A   1      33.175  20.455  24.341  1.00  0.00     0.109 A 
ATOM     17  C   UNL A   1      34.691  22.144  24.601  1.00  0.00     0.062 A 
ATOM     18  C   UNL A   1      34.438  20.803  24.503  1.00  0.00     0.044 A 
ATOM     19  Br  UNL A   1      36.492  22.755  25.077  1.00  0.00    -0.047 Br
BRANCH  11  20
ATOM     20  C   UNL A   1      30.145  26.438  24.538  1.00  0.00     0.430 C 
ATOM     21  F   UNL A   1      28.967  25.953  24.919  1.00  0.00    -0.167 F 
ATOM     22  F   UNL A   1      31.081  26.062  25.404  1.00  0.00    -0.167 F 
ATOM     23  F   UNL A   1      30.085  27.767  24.498  1.00  0.00    -0.167 F 
ENDBRANCH  11  20
BRANCH  16  24
ATOM     24  S   UNL A   1      32.736  18.723  24.628  1.00  0.00     0.310 S 
ATOM     25  F   UNL A   1      34.257  18.271  24.632  1.00  0.00    -0.094 F 
ATOM     26  F   UNL A   1      32.742  18.487  23.071  1.00  0.00    -0.094 F 
ATOM     27  F   UNL A   1      32.357  17.236  24.881  1.00  0.00    -0.094 F 
ATOM     28  F   UNL A   1      32.873  18.944  26.186  1.00  0.00    -0.094 F 
ATOM     29  F   UNL A   1      33.232  20.205  24.389  1.00  0.00    -0.094 F 
ENDBRANCH  16  24
ENDBRANCH   7   9
ENDBRANCH   6   7
ENDBRANCH   5   6
ENDBRANCH   4   5
ENDBRANCH   3   4
ENDBRANCH   2   3
ENDBRANCH   1   2
BRANCH   1  30
ATOM     30  O   UNL A   1      31.716  30.796  25.752  1.00  0.00    -0.376 OA
BRANCH  30  31
ATOM     31  C   UNL A   1      31.300  31.906  26.534  1.00  0.00     0.202 C 
BRANCH  31  32
ATOM     32  C   UNL A   1      32.513  32.550  27.185  1.00  0.00     0.261 C 
BRANCH  32  33
ATOM     33  O   UNL A   1      32.182  33.865  27.605  1.00  0.00    -0.460 OA
BRANCH  33  34
ATOM     34  C   UNL A   1      33.041  34.565  28.493  1.00  0.00     0.338 C 
ATOM     35  O   UNL A   1      32.815  35.787  28.764  1.00  0.00    -0.246 OA
BRANCH  34  36
ATOM     36  C   UNL A   1      34.228  33.855  29.120  1.00  0.00     0.060 A 
ATOM     37  C   UNL A   1      34.016  32.862  30.064  1.00  0.00     0.016 A 
ATOM     38  C   UNL A   1      35.456  34.243  28.794  1.00  0.00     0.016 A 
ATOM     39  C   UNL A   1      35.164  32.539  30.825  1.00  0.00     0.010 A 
ATOM     40  C   UNL A   1      36.545  33.781  29.493  1.00  0.00     0.010 A 
ATOM     41  C   UNL A   1      36.402  32.844  30.480  1.00  0.00    -0.014 A 
BRANCH  41  42
ATOM     42  C   UNL A   1      37.603  32.189  31.142  1.00  0.00     0.031 A 
ATOM     43  C   UNL A   1      37.972  32.643  32.410  1.00  0.00     0.074 A 
ATOM     44  C   UNL A   1      38.235  31.154  30.475  1.00  0.00     0.049 A 
ATOM     45  N   UNL A   1      38.939  32.164  33.195  1.00  0.00    -0.248 NA
ATOM     46  C   UNL A   1      37.324  33.764  33.106  1.00  0.00     0.031 C 
ATOM     47  C   UNL A   1      37.862  30.685  29.200  1.00  0.00     0.029 A 
ATOM     48  N   UNL A   1      39.309  30.405  30.901  1.00  0.00    -0.354 N 
ATOM     49  C   UNL A   1      38.980  32.846  34.341  1.00  0.00     0.074 A 
ATOM     50  C   UNL A   1      37.946  33.889  34.298  1.00  0.00     0.031 C 
ATOM     51  C   UNL A   1      38.708  29.677  28.858  1.00  0.00     0.029 A 
ATOM     52  C   UNL A   1      39.622  29.498  29.914  1.00  0.00     0.049 A 
ATOM     53  H   UNL A   1      39.775  30.504  31.764  1.00  0.00     0.167 HD
ATOM     54  C   UNL A   1      39.838  32.636  35.423  1.00  0.00     0.034 A 
ATOM     55  C   UNL A   1      40.642  28.562  29.913  1.00  0.00     0.034 A 
ATOM     56  C   UNL A   1      40.831  31.670  35.440  1.00  0.00     0.049 A 
ATOM     57  C   UNL A   1      41.539  28.391  30.972  1.00  0.00     0.074 A 
ATOM     58  C   UNL A   1      41.699  31.441  36.525  1.00  0.00     0.029 A 
ATOM     59  N   UNL A   1      41.158  30.779  34.442  1.00  0.00    -0.354 N 
ATOM     60  N   UNL A   1      41.555  29.045  32.134  1.00  0.00    -0.248 NA
ATOM     61  C   UNL A   1      42.644  27.424  30.969  1.00  0.00     0.031 C 
ATOM     62  C   UNL A   1      42.544  30.433  36.182  1.00  0.00     0.029 A 
ATOM     63  C   UNL A   1      42.218  30.016  34.878  1.00  0.00     0.049 A 
ATOM     64  H   UNL A   1      40.711  30.701  33.568  1.00  0.00     0.167 HD
ATOM     65  C   UNL A   1      42.547  28.593  32.902  1.00  0.00     0.074 A 
ATOM     66  C   UNL A   1      43.268  27.548  32.161  1.00  0.00     0.031 C 
ATOM     67  C   UNL A   1      42.880  29.008  34.193  1.00  0.00     0.034 A 
BRANCH  54  68
ATOM     68  C   UNL A   1      39.673  33.518  36.650  1.00  0.00     0.023 A 
ATOM     69  C   UNL A   1      40.326  34.738  36.697  1.00  0.00     0.012 A 
ATOM     70  C   UNL A   1      38.921  33.099  37.662  1.00  0.00     0.148 A 
ATOM     71  C   UNL A   1      40.357  35.323  37.986  1.00  0.00     0.002 A 
ATOM     72  C   UNL A   1      38.894  33.793  38.846  1.00  0.00     0.091 A 
ATOM     73  F   UNL A   1      38.189  31.998  37.526  1.00  0.00    -0.205 F 
ATOM     74  C   UNL A   1      39.564  34.977  38.984  1.00  0.00     0.022 A 
BRANCH  72  75
ATOM     75  S   UNL A   1      37.957  33.131  40.246  1.00  0.00     0.127 S 
ATOM     76  O   UNL A   1      38.012  34.123  41.412  1.00  0.00    -0.237 OA
ATOM     77  O   UNL A   1      36.501  32.915  39.829  1.00  0.00    -0.237 OA
ATOM     78  O   UNL A   1      38.637  31.641  40.733  1.00  0.00    -0.744 OA
ENDBRANCH  72  75
ENDBRANCH  54  68
BRANCH  55  79
ATOM     79  C   UNL A   1      40.796  27.668  28.693  1.00  0.00     0.023 A 
ATOM     80  C   UNL A   1      39.976  26.558  28.580  1.00  0.00     0.012 A 
ATOM     81  C   UNL A   1      41.698  27.957  27.761  1.00  0.00     0.148 A 
ATOM     82  C   UNL A   1      40.384  25.644  27.579  1.00  0.00     0.002 A 
ATOM     83  C   UNL A   1      41.948  27.078  26.735  1.00  0.00     0.091 A 
ATOM     84  F   UNL A   1      42.363  29.107  27.822  1.00  0.00    -0.205 F 
ATOM     85  C   UNL A   1      41.216  25.932  26.596  1.00  0.00     0.022 A 
BRANCH  83  86
ATOM     86  S   UNL A   1      43.267  27.444  25.550  1.00  0.00     0.127 S 
ATOM     87  O   UNL A   1      42.653  27.968  24.249  1.00  0.00    -0.237 OA
ATOM     88  O   UNL A   1      44.202  28.503  26.137  1.00  0.00    -0.237 OA
ATOM     89  O   UNL A   1      44.152  26.017  25.226  1.00  0.00    -0.744 OA
ENDBRANCH  83  86
ENDBRANCH  55  79
BRANCH  67  90
ATOM     90  C   UNL A   1      44.038  28.313  34.890  1.00  0.00     0.023 A 
ATOM     91  C   UNL A   1      45.316  28.839  34.784  1.00  0.00     0.012 A 
ATOM     92  C   UNL A   1      43.809  27.189  35.558  1.00  0.00     0.148 A 
ATOM     93  C   UNL A   1      46.339  27.944  35.179  1.00  0.00     0.002 A 
ATOM     94  C   UNL A   1      44.854  26.433  36.034  1.00  0.00     0.091 A 
ATOM     95  F   UNL A   1      42.558  26.791  35.769  1.00  0.00    -0.205 F 
ATOM     96  C   UNL A   1      46.146  26.863  35.912  1.00  0.00     0.022 A 
BRANCH  94  97
ATOM     97  S   UNL A   1      44.514  24.846  36.834  1.00  0.00     0.127 S 
ATOM     98  O   UNL A   1      43.669  25.077  38.089  1.00  0.00    -0.237 OA
ATOM     99  O   UNL A   1      43.751  23.939  35.866  1.00  0.00    -0.237 OA
ATOM    100  O   UNL A   1      45.990  24.100  37.271  1.00  0.00    -0.744 OA
ENDBRANCH  94  97
ENDBRANCH  67  90
ENDBRANCH  41  42
ENDBRANCH  34  36
ENDBRANCH  33  34
ENDBRANCH  32  33
ENDBRANCH  31  32
ENDBRANCH  30  31
ENDBRANCH   1  30
TORSDOF 22
ENDMDL
MODEL 2
REMARK VINA RESULT:     -11.0      2.159      2.783
REMARK SMILES O=C(OCCOCCOCCOC(=O)c1ccc(-c2c3nc(c(-c4cccc(S(=O)(=O)[O-])c4F)c4ccc([nH]4)c(-c4cccc(S(=O)(=O)[O-])c4F)c4nc(c(-c5cccc(S(=O)(=O)[O-])c5F)c5ccc2[nH]5)C=C4)C=C3)cc1)C1=Cc2cc(S(F)(F)(F)(F)F)cc(Br)c2O[C@@H]1C(F)(F)F
REMARK SMILES IDX 8 1 7 2 6 3 5 4 4 5 3 6 2 7 1 8 78 9 79 10 94 11 80 12 93 13
REMARK SMILES IDX 81 14 92 15 82 16 90 17 89 18 91 19 95 20 96 21 97 22 98 23
REMARK SMILES IDX 83 24 84 25 85 26 86 27 87 28 88 29 9 30 10 31 11 32 12 33
REMARK SMILES IDX 13 34 14 35 15 36 16 37 77 38 17 39 76 40 18 41 19 42 20 43
REMARK SMILES IDX 70 44 21 45 75 46 69 47 71 48 22 49 74 50 68 51 67 52 23 54
REMARK SMILES IDX 55 55 35 56 54 57 36 58 39 59 53 60 72 61 37 62 38 63 52 65
REMARK SMILES IDX 73 66 40 67 24 68 25 69 33 70 26 71 28 72 34 73 27 74 29 75
REMARK SMILES IDX 30 76 31 77 32 78 56 79 57 80 65 81 58 82 60 83 66 84 59 85
REMARK SMILES IDX 61 86 62 87 63 88 64 89 41 90 42 91 50 92 43 93 45 94 51 95
REMARK SMILES IDX 44 96 46 97 47 98 48 99 49 100
REMARK H PARENT 71 53 39 64
REMARK Flexibility Score: inf
ROOT
ATOM      1  C   UNL A   1      33.509  28.443  25.165  1.00  0.00     0.188 C 
ENDROOT
BRANCH   1   2
ATOM      2  C   UNL A   1      33.346  26.939  25.316  1.00  0.00     0.188 C 
BRANCH   2   3
ATOM      3  O   UNL A   1      32.652  26.424  24.189  1.00  0.00    -0.376 OA
BRANCH   3   4
ATOM      4  C   UNL A   1      33.512  25.563  23.455  1.00  0.00     0.202 C 
BRANCH   4   5
ATOM      5  C   UNL A   1      34.511  24.920  24.402  1.00  0.00     0.261 C 
BRANCH   5   6
ATOM      6  O   UNL A   1      34.487  23.510  24.230  1.00  0.00    -0.460 OA
BRANCH   6   7
ATOM      7  C   UNL A   1      33.307  22.872  23.765  1.00  0.00     0.338 C 
ATOM      8  O   UNL A   1      33.186  22.577  22.535  1.00  0.00    -0.246 OA
BRANCH   7   9
ATOM      9  C   UNL A   1      32.188  22.540  24.740  1.00  0.00     0.087 C 
ATOM     10  C   UNL A   1      32.138  21.314  25.326  1.00  0.00     0.027 C 
ATOM     11  C   UNL A   1      31.125  23.579  25.059  1.00  0.00     0.316 C 
ATOM     12  C   UNL A   1      33.201  20.275  25.007  1.00  0.00     0.020 A 
ATOM     13  O   UNL A   1      34.814  22.016  25.138  1.00  0.00    -0.474 OA
ATOM     14  C   UNL A   1      32.824  18.976  24.708  1.00  0.00     0.036 A 
ATOM     15  C   UNL A   1      34.476  20.644  24.985  1.00  0.00     0.142 A 
ATOM     16  C   UNL A   1      33.901  18.059  24.678  1.00  0.00     0.109 A 
ATOM     17  C   UNL A   1      35.471  19.712  24.816  1.00  0.00     0.062 A 
ATOM     18  C   UNL A   1      35.172  18.399  24.576  1.00  0.00     0.044 A 
ATOM     19  Br  UNL A   1      37.347  20.272  24.922  1.00  0.00    -0.047 Br
BRANCH  11  20
ATOM     20  C   UNL A   1      31.145  23.883  26.548  1.00  0.00     0.430 C 
ATOM     21  F   UNL A   1      32.354  23.625  27.037  1.00  0.00    -0.167 F 
ATOM     22  F   UNL A   1      30.852  25.166  26.743  1.00  0.00    -0.167 F 
ATOM     23  F   UNL A   1      30.245  23.124  27.167  1.00  0.00    -0.167 F 
ENDBRANCH  11  20
BRANCH  16  24
ATOM     24  S   UNL A   1      33.509  16.295  24.791  1.00  0.00     0.310 S 
ATOM     25  F   UNL A   1      31.960  16.559  24.569  1.00  0.00    -0.094 F 
ATOM     26  F   UNL A   1      33.249  16.474  26.334  1.00  0.00    -0.094 F 
ATOM     27  F   UNL A   1      33.176  14.779  24.881  1.00  0.00    -0.094 F 
ATOM     28  F   UNL A   1      33.637  16.165  23.221  1.00  0.00    -0.094 F 
ATOM     29  F   UNL A   1      33.739  17.855  24.665  1.00  0.00    -0.094 F 
ENDBRANCH  16  24
ENDBRANCH   7   9
ENDBRANCH   6   7
ENDBRANCH   5   6
ENDBRANCH   4   5
ENDBRANCH   3   4
ENDBRANCH   2   3
ENDBRANCH   1   2
BRANCH   1  30
ATOM     30  O   UNL A   1      32.464  28.954  24.350  1.00  0.00    -0.376 OA
BRANCH  30  31
ATOM     31  C   UNL A   1      31.756  29.957  25.063  1.00  0.00     0.202 C 
BRANCH  31  32
ATOM     32  C   UNL A   1      32.622  30.479  26.199  1.00  0.00     0.261 C 
BRANCH  32  33
ATOM     33  O   UNL A   1      32.093  31.709  26.670  1.00  0.00    -0.460 OA
BRANCH  33  34
ATOM     34  C   UNL A   1      32.910  32.592  27.424  1.00  0.00     0.338 C 
ATOM     35  O   UNL A   1      32.567  33.808  27.570  1.00  0.00    -0.246 OA
BRANCH  34  36
ATOM     36  C   UNL A   1      34.195  32.085  28.056  1.00  0.00     0.060 A 
ATOM     37  C   UNL A   1      34.266  30.780  28.517  1.00  0.00     0.016 A 
ATOM     38  C   UNL A   1      35.212  32.925  28.211  1.00  0.00     0.016 A 
ATOM     39  C   UNL A   1      35.351  30.539  29.392  1.00  0.00     0.010 A 
ATOM     40  C   UNL A   1      36.303  32.572  28.967  1.00  0.00     0.010 A 
ATOM     41  C   UNL A   1      36.411  31.318  29.504  1.00  0.00    -0.014 A 
BRANCH  41  42
ATOM     42  C   UNL A   1      37.683  30.848  30.190  1.00  0.00     0.031 A 
ATOM     43  C   UNL A   1      37.944  31.332  31.474  1.00  0.00     0.074 A 
ATOM     44  C   UNL A   1      38.488  29.938  29.527  1.00  0.00     0.049 A 
ATOM     45  N   UNL A   1      38.954  30.996  32.279  1.00  0.00    -0.248 NA
ATOM     46  C   UNL A   1      37.110  32.325  32.167  1.00  0.00     0.031 C 
ATOM     47  C   UNL A   1      38.226  29.439  28.236  1.00  0.00     0.029 A 
ATOM     48  N   UNL A   1      39.655  29.360  29.973  1.00  0.00    -0.354 N 
ATOM     49  C   UNL A   1      38.858  31.656  33.436  1.00  0.00     0.074 A 
ATOM     50  C   UNL A   1      37.673  32.524  33.378  1.00  0.00     0.031 C 
ATOM     51  C   UNL A   1      39.228  28.583  27.904  1.00  0.00     0.029 A 
ATOM     52  C   UNL A   1      40.132  28.531  28.982  1.00  0.00     0.049 A 
ATOM     53  H   UNL A   1      40.077  29.515  30.850  1.00  0.00     0.167 HD
ATOM     54  C   UNL A   1      39.710  31.564  34.537  1.00  0.00     0.034 A 
ATOM     55  C   UNL A   1      41.287  27.766  28.997  1.00  0.00     0.034 A 
ATOM     56  C   UNL A   1      40.843  30.766  34.569  1.00  0.00     0.049 A 
ATOM     57  C   UNL A   1      42.172  27.720  30.078  1.00  0.00     0.074 A 
ATOM     58  C   UNL A   1      41.708  30.657  35.675  1.00  0.00     0.029 A 
ATOM     59  N   UNL A   1      41.331  29.956  33.569  1.00  0.00    -0.354 N 
ATOM     60  N   UNL A   1      42.055  28.347  31.249  1.00  0.00    -0.248 NA
ATOM     61  C   UNL A   1      43.415  26.938  30.093  1.00  0.00     0.031 C 
ATOM     62  C   UNL A   1      42.710  29.800  35.342  1.00  0.00     0.029 A 
ATOM     63  C   UNL A   1      42.487  29.361  34.024  1.00  0.00     0.049 A 
ATOM     64  H   UNL A   1      40.925  29.824  32.682  1.00  0.00     0.167 HD
ATOM     65  C   UNL A   1      43.086  28.043  32.038  1.00  0.00     0.074 A 
ATOM     66  C   UNL A   1      43.981  27.138  31.304  1.00  0.00     0.031 C 
ATOM     67  C   UNL A   1      43.316  28.482  33.344  1.00  0.00     0.034 A 
BRANCH  54  68
ATOM     68  C   UNL A   1      39.377  32.387  35.772  1.00  0.00     0.023 A 
ATOM     69  C   UNL A   1      38.518  31.862  36.722  1.00  0.00     0.012 A 
ATOM     70  C   UNL A   1      39.899  33.601  35.910  1.00  0.00     0.148 A 
ATOM     71  C   UNL A   1      38.039  32.815  37.652  1.00  0.00     0.002 A 
ATOM     72  C   UNL A   1      39.482  34.430  36.923  1.00  0.00     0.091 A 
ATOM     73  F   UNL A   1      40.834  34.017  35.061  1.00  0.00    -0.205 F 
ATOM     74  C   UNL A   1      38.590  33.997  37.864  1.00  0.00     0.022 A 
BRANCH  72  75
ATOM     75  S   UNL A   1      40.122  36.120  37.013  1.00  0.00     0.127 S 
ATOM     76  O   UNL A   1      39.839  36.844  35.694  1.00  0.00    -0.237 OA
ATOM     77  O   UNL A   1      39.437  36.865  38.161  1.00  0.00    -0.237 OA
ATOM     78  O   UNL A   1      41.809  36.077  37.288  1.00  0.00    -0.744 OA
ENDBRANCH  72  75
ENDBRANCH  54  68
BRANCH  55  79
ATOM     79  C   UNL A   1      41.611  26.930  27.770  1.00  0.00     0.023 A 
ATOM     80  C   UNL A   1      42.107  27.571  26.647  1.00  0.00     0.012 A 
ATOM     81  C   UNL A   1      41.421  25.615  27.786  1.00  0.00     0.148 A 
ATOM     82  C   UNL A   1      42.103  26.768  25.481  1.00  0.00     0.002 A 
ATOM     83  C   UNL A   1      41.567  24.874  26.639  1.00  0.00     0.091 A 
ATOM     84  F   UNL A   1      41.087  25.012  28.924  1.00  0.00    -0.205 F 
ATOM     85  C   UNL A   1      41.997  25.453  25.477  1.00  0.00     0.022 A 
BRANCH  83  86
ATOM     86  S   UNL A   1      41.183  23.105  26.666  1.00  0.00     0.127 S 
ATOM     87  O   UNL A   1      39.664  22.913  26.699  1.00  0.00    -0.237 OA
ATOM     88  O   UNL A   1      41.754  22.440  25.412  1.00  0.00    -0.237 OA
ATOM     89  O   UNL A   1      41.877  22.393  28.057  1.00  0.00    -0.744 OA
ENDBRANCH  83  86
ENDBRANCH  55  79
BRANCH  67  90
ATOM     90  C   UNL A   1      44.552  27.965  34.063  1.00  0.00     0.023 A 
ATOM     91  C   UNL A   1      45.734  28.685  33.997  1.00  0.00     0.012 A 
ATOM     92  C   UNL A   1      44.485  26.809  34.712  1.00  0.00     0.148 A 
ATOM     93  C   UNL A   1      46.874  27.955  34.409  1.00  0.00     0.002 A 
ATOM     94  C   UNL A   1      45.622  26.217  35.208  1.00  0.00     0.091 A 
ATOM     95  F   UNL A   1      43.306  26.218  34.885  1.00  0.00    -0.205 F 
ATOM     96  C   UNL A   1      46.834  26.846  35.125  1.00  0.00     0.022 A 
BRANCH  94  97
ATOM     97  S   UNL A   1      45.515  24.585  35.979  1.00  0.00     0.127 S 
ATOM     98  O   UNL A   1      45.383  24.745  37.496  1.00  0.00    -0.237 OA
ATOM     99  O   UNL A   1      44.292  23.843  35.437  1.00  0.00    -0.237 OA
ATOM    100  O   UNL A   1      46.929  23.691  35.622  1.00  0.00    -0.744 OA
ENDBRANCH  94  97
ENDBRANCH  67  90
ENDBRANCH  41  42
ENDBRANCH  34  36
ENDBRANCH  33  34
ENDBRANCH  32  33
ENDBRANCH  31  32
ENDBRANCH  30  31
ENDBRANCH   1  30
TORSDOF 22
ENDMDL
MODEL 3
REMARK VINA RESULT:     -10.9      1.661      2.240
REMARK SMILES O=C(OCCOCCOCCOC(=O)c1ccc(-c2c3nc(c(-c4cccc(S(=O)(=O)[O-])c4F)c4ccc([nH]4)c(-c4cccc(S(=O)(=O)[O-])c4F)c4nc(c(-c5cccc(S(=O)(=O)[O-])c5F)c5ccc2[nH]5)C=C4)C=C3)cc1)C1=Cc2cc(S(F)(F)(F)(F)F)cc(Br)c2O[C@@H]1C(F)(F)F
REMARK SMILES IDX 8 1 7 2 6 3 5 4 4 5 3 6 2 7 1 8 78 9 79 10 94 11 80 12 93 13
REMARK SMILES IDX 81 14 92 15 82 16 90 17 89 18 91 19 95 20 96 21 97 22 98 23
REMARK SMILES IDX 83 24 84 25 85 26 86 27 87 28 88 29 9 30 10 31 11 32 12 33
REMARK SMILES IDX 13 34 14 35 15 36 16 37 77 38 17 39 76 40 18 41 19 42 20 43
REMARK SMILES IDX 70 44 21 45 75 46 69 47 71 48 22 49 74 50 68 51 67 52 23 54
REMARK SMILES IDX 55 55 35 56 54 57 36 58 39 59 53 60 72 61 37 62 38 63 52 65
REMARK SMILES IDX 73 66 40 67 24 68 25 69 33 70 26 71 28 72 34 73 27 74 29 75
REMARK SMILES IDX 30 76 31 77 32 78 56 79 57 80 65 81 58 82 60 83 66 84 59 85
REMARK SMILES IDX 61 86 62 87 63 88 64 89 41 90 42 91 50 92 43 93 45 94 51 95
REMARK SMILES IDX 44 96 46 97 47 98 48 99 49 100
REMARK H PARENT 71 53 39 64
REMARK Flexibility Score: inf
ROOT
ATOM      1  C   UNL A   1      33.543  28.636  25.340  1.00  0.00     0.188 C 
ENDROOT
BRANCH   1   2
ATOM      2  C   UNL A   1      33.156  27.167  25.299  1.00  0.00     0.188 C 
BRANCH   2   3
ATOM      3  O   UNL A   1      32.675  26.840  24.004  1.00  0.00    -0.376 OA
BRANCH   3   4
ATOM      4  C   UNL A   1      33.529  25.871  23.412  1.00  0.00     0.202 C 
BRANCH   4   5
ATOM      5  C   UNL A   1      34.313  25.155  24.500  1.00  0.00     0.261 C 
BRANCH   5   6
ATOM      6  O   UNL A   1      34.430  23.779  24.172  1.00  0.00    -0.460 OA
BRANCH   6   7
ATOM      7  C   UNL A   1      33.302  23.067  23.685  1.00  0.00     0.338 C 
ATOM      8  O   UNL A   1      33.271  22.676  22.476  1.00  0.00    -0.246 OA
BRANCH   7   9
ATOM      9  C   UNL A   1      32.132  22.771  24.610  1.00  0.00     0.087 C 
ATOM     10  C   UNL A   1      32.015  21.545  25.187  1.00  0.00     0.027 C 
ATOM     11  C   UNL A   1      31.094  23.845  24.889  1.00  0.00     0.316 C 
ATOM     12  C   UNL A   1      33.053  20.471  24.907  1.00  0.00     0.020 A 
ATOM     13  O   UNL A   1      34.719  22.153  25.115  1.00  0.00    -0.474 OA
ATOM     14  C   UNL A   1      32.644  19.186  24.587  1.00  0.00     0.036 A 
ATOM     15  C   UNL A   1      34.340  20.795  24.941  1.00  0.00     0.142 A 
ATOM     16  C   UNL A   1      33.689  18.233  24.597  1.00  0.00     0.109 A 
ATOM     17  C   UNL A   1      35.308  19.829  24.809  1.00  0.00     0.062 A 
ATOM     18  C   UNL A   1      34.974  18.529  24.550  1.00  0.00     0.044 A 
ATOM     19  Br  UNL A   1      37.196  20.323  24.996  1.00  0.00    -0.047 Br
BRANCH  11  20
ATOM     20  C   UNL A   1      31.061  24.143  26.380  1.00  0.00     0.430 C 
ATOM     21  F   UNL A   1      32.281  23.995  26.888  1.00  0.00    -0.167 F 
ATOM     22  F   UNL A   1      30.649  25.392  26.573  1.00  0.00    -0.167 F 
ATOM     23  F   UNL A   1      30.225  23.301  26.981  1.00  0.00    -0.167 F 
ENDBRANCH  11  20
BRANCH  16  24
ATOM     24  S   UNL A   1      33.231  16.483  24.684  1.00  0.00     0.310 S 
ATOM     25  F   UNL A   1      34.695  16.055  25.120  1.00  0.00    -0.094 F 
ATOM     26  F   UNL A   1      33.699  16.310  23.190  1.00  0.00    -0.094 F 
ATOM     27  F   UNL A   1      32.833  14.982  24.764  1.00  0.00    -0.094 F 
ATOM     28  F   UNL A   1      32.899  16.644  26.220  1.00  0.00    -0.094 F 
ATOM     29  F   UNL A   1      33.736  17.981  24.652  1.00  0.00    -0.094 F 
ENDBRANCH  16  24
ENDBRANCH   7   9
ENDBRANCH   6   7
ENDBRANCH   5   6
ENDBRANCH   4   5
ENDBRANCH   3   4
ENDBRANCH   2   3
ENDBRANCH   1   2
BRANCH   1  30
ATOM     30  O   UNL A   1      32.500  29.417  24.774  1.00  0.00    -0.376 OA
BRANCH  30  31
ATOM     31  C   UNL A   1      31.962  30.278  25.767  1.00  0.00     0.202 C 
BRANCH  31  32
ATOM     32  C   UNL A   1      33.084  30.789  26.657  1.00  0.00     0.261 C 
BRANCH  32  33
ATOM     33  O   UNL A   1      32.649  31.952  27.345  1.00  0.00    -0.460 OA
BRANCH  33  34
ATOM     34  C   UNL A   1      33.598  32.905  27.800  1.00  0.00     0.338 C 
ATOM     35  O   UNL A   1      33.416  34.142  27.572  1.00  0.00    -0.246 OA
BRANCH  34  36
ATOM     36  C   UNL A   1      34.832  32.446  28.559  1.00  0.00     0.060 A 
ATOM     37  C   UNL A   1      34.696  31.577  29.631  1.00  0.00     0.016 A 
ATOM     38  C   UNL A   1      36.017  32.937  28.218  1.00  0.00     0.016 A 
ATOM     39  C   UNL A   1      35.837  31.513  30.464  1.00  0.00     0.010 A 
ATOM     40  C   UNL A   1      37.119  32.721  29.009  1.00  0.00     0.010 A 
ATOM     41  C   UNL A   1      37.044  31.921  30.117  1.00  0.00    -0.014 A 
BRANCH  41  42
ATOM     42  C   UNL A   1      38.282  31.524  30.903  1.00  0.00     0.031 A 
ATOM     43  C   UNL A   1      38.377  31.959  32.227  1.00  0.00     0.074 A 
ATOM     44  C   UNL A   1      39.223  30.720  30.283  1.00  0.00     0.049 A 
ATOM     45  N   UNL A   1      39.332  31.667  33.111  1.00  0.00    -0.248 NA
ATOM     46  C   UNL A   1      37.397  32.840  32.878  1.00  0.00     0.031 C 
ATOM     47  C   UNL A   1      39.129  30.270  28.951  1.00  0.00     0.029 A 
ATOM     48  N   UNL A   1      40.390  30.219  30.815  1.00  0.00    -0.354 N 
ATOM     49  C   UNL A   1      39.070  32.253  34.281  1.00  0.00     0.074 A 
ATOM     50  C   UNL A   1      37.824  33.021  34.146  1.00  0.00     0.031 C 
ATOM     51  C   UNL A   1      40.229  29.520  28.681  1.00  0.00     0.029 A 
ATOM     52  C   UNL A   1      41.029  29.487  29.839  1.00  0.00     0.049 A 
ATOM     53  H   UNL A   1      40.712  30.362  31.735  1.00  0.00     0.167 HD
ATOM     54  C   UNL A   1      39.820  32.175  35.456  1.00  0.00     0.034 A 
ATOM     55  C   UNL A   1      42.240  28.822  29.934  1.00  0.00     0.034 A 
ATOM     56  C   UNL A   1      41.010  31.474  35.564  1.00  0.00     0.049 A 
ATOM     57  C   UNL A   1      43.021  28.792  31.093  1.00  0.00     0.074 A 
ATOM     58  C   UNL A   1      41.774  31.379  36.743  1.00  0.00     0.029 A 
ATOM     59  N   UNL A   1      41.661  30.762  34.581  1.00  0.00    -0.354 N 
ATOM     60  N   UNL A   1      42.739  29.344  32.274  1.00  0.00    -0.248 NA
ATOM     61  C   UNL A   1      44.321  28.118  31.195  1.00  0.00     0.031 C 
ATOM     62  C   UNL A   1      42.874  30.629  36.473  1.00  0.00     0.029 A 
ATOM     63  C   UNL A   1      42.816  30.242  35.121  1.00  0.00     0.049 A 
ATOM     64  H   UNL A   1      41.353  30.644  33.653  1.00  0.00     0.167 HD
ATOM     65  C   UNL A   1      43.714  29.087  33.146  1.00  0.00     0.074 A 
ATOM     66  C   UNL A   1      44.750  28.300  32.464  1.00  0.00     0.031 C 
ATOM     67  C   UNL A   1      43.781  29.474  34.486  1.00  0.00     0.034 A 
BRANCH  54  68
ATOM     68  C   UNL A   1      39.300  32.901  36.687  1.00  0.00     0.023 A 
ATOM     69  C   UNL A   1      39.772  34.171  36.971  1.00  0.00     0.012 A 
ATOM     70  C   UNL A   1      38.418  32.300  37.478  1.00  0.00     0.148 A 
ATOM     71  C   UNL A   1      39.468  34.617  38.280  1.00  0.00     0.002 A 
ATOM     72  C   UNL A   1      38.064  32.859  38.682  1.00  0.00     0.091 A 
ATOM     73  F   UNL A   1      37.872  31.148  37.100  1.00  0.00    -0.205 F 
ATOM     74  C   UNL A   1      38.539  34.086  39.055  1.00  0.00     0.022 A 
BRANCH  72  75
ATOM     75  S   UNL A   1      36.954  31.958  39.792  1.00  0.00     0.127 S 
ATOM     76  O   UNL A   1      35.595  31.770  39.112  1.00  0.00    -0.237 OA
ATOM     77  O   UNL A   1      37.557  30.589  40.115  1.00  0.00    -0.237 OA
ATOM     78  O   UNL A   1      36.750  32.847  41.238  1.00  0.00    -0.744 OA
ENDBRANCH  72  75
ENDBRANCH  54  68
BRANCH  55  79
ATOM     79  C   UNL A   1      42.751  28.082  28.708  1.00  0.00     0.023 A 
ATOM     80  C   UNL A   1      43.574  28.759  27.824  1.00  0.00     0.012 A 
ATOM     81  C   UNL A   1      42.413  26.814  28.502  1.00  0.00     0.148 A 
ATOM     82  C   UNL A   1      43.757  28.094  26.588  1.00  0.00     0.002 A 
ATOM     83  C   UNL A   1      42.743  26.185  27.327  1.00  0.00     0.091 A 
ATOM     84  F   UNL A   1      41.748  26.148  29.443  1.00  0.00    -0.205 F 
ATOM     85  C   UNL A   1      43.504  26.815  26.381  1.00  0.00     0.022 A 
BRANCH  83  86
ATOM     86  S   UNL A   1      42.162  24.497  27.025  1.00  0.00     0.127 S 
ATOM     87  O   UNL A   1      42.561  24.066  25.611  1.00  0.00    -0.237 OA
ATOM     88  O   UNL A   1      42.795  23.549  28.045  1.00  0.00    -0.237 OA
ATOM     89  O   UNL A   1      40.460  24.445  27.177  1.00  0.00    -0.744 OA
ENDBRANCH  83  86
ENDBRANCH  55  79
BRANCH  67  90
ATOM     90  C   UNL A   1      44.984  29.025  35.300  1.00  0.00     0.023 A 
ATOM     91  C   UNL A   1      46.117  29.820  35.342  1.00  0.00     0.012 A 
ATOM     92  C   UNL A   1      44.939  27.855  35.927  1.00  0.00     0.148 A 
ATOM     93  C   UNL A   1      47.265  29.158  35.838  1.00  0.00     0.002 A 
ATOM     94  C   UNL A   1      46.069  27.329  36.508  1.00  0.00     0.091 A 
ATOM     95  F   UNL A   1      43.792  27.186  35.993  1.00  0.00    -0.205 F 
ATOM     96  C   UNL A   1      47.239  28.036  36.534  1.00  0.00     0.022 A 
BRANCH  94  97
ATOM     97  S   UNL A   1      46.006  25.679  37.247  1.00  0.00     0.127 S 
ATOM     98  O   UNL A   1      47.362  25.349  37.875  1.00  0.00    -0.237 OA
ATOM     99  O   UNL A   1      44.923  25.645  38.327  1.00  0.00    -0.237 OA
ATOM    100  O   UNL A   1      45.642  24.526  36.037  1.00  0.00    -0.744 OA
ENDBRANCH  94  97
ENDBRANCH  67  90
ENDBRANCH  41  42
ENDBRANCH  34  36
ENDBRANCH  33  34
ENDBRANCH  32  33
ENDBRANCH  31  32
ENDBRANCH  30  31
ENDBRANCH   1  30
TORSDOF 22
ENDMDL
