MODEL 1
REMARK VINA RESULT:      -9.7      0.000      0.000
REMARK SMILES CCCn1cc(S(=O)(=O)N[C@H]2C=C[C@@H](C(=O)OCCOCCOCCOC(=O)c3ccc(-c4c5nc(c(-c6cccc(S(=O)(=O)[O-])c6F)c6ccc([nH]6)c(-c6cccc(S(=O)(=O)[O-])c6F)c6nc(c(-c7cccc(S(=O)(=O)[O-])c7F)c7ccc4[nH]7)C=C6)C=C5)cc3)C2)nc1C
REMARK SMILES IDX 21 1 20 2 19 3 18 4 17 5 15 6 16 7 14 8 11 9 12 10 92 11
REMARK SMILES IDX 13 12 10 13 7 15 8 16 9 17 6 18 4 19 5 20 94 21 93 22 95 23
REMARK SMILES IDX 3 24 2 25 1 26 22 27 23 28 24 29 25 30 26 31 27 32 28 33
REMARK SMILES IDX 29 34 30 35 91 36 31 37 90 38 32 39 33 40 34 41 84 42 35 43
REMARK SMILES IDX 89 44 83 45 85 46 36 47 88 48 82 49 81 50 37 52 69 53 49 54
REMARK SMILES IDX 68 55 50 56 53 57 67 58 86 59 51 60 52 61 66 63 87 64 54 65
REMARK SMILES IDX 38 66 39 67 47 68 40 69 42 70 48 71 41 72 43 73 44 74 45 75
REMARK SMILES IDX 46 76 70 77 71 78 79 79 72 80 74 81 80 82 73 83 75 84 76 85
REMARK SMILES IDX 77 86 78 87 55 88 56 89 64 90 57 91 59 92 65 93 58 94 60 95
REMARK SMILES IDX 61 96 62 97 63 98
REMARK H PARENT 10 14 85 51 53 62
REMARK Flexibility Score: inf
ROOT
ATOM      1  C   UNL A   1      31.935  29.601  24.967  1.00  0.00     0.188 C 
ENDROOT
BRANCH   1   2
ATOM      2  O   UNL A   1      30.808  28.957  24.420  1.00  0.00    -0.376 OA
BRANCH   2   3
ATOM      3  C   UNL A   1      30.960  28.156  23.263  1.00  0.00     0.202 C 
BRANCH   3   4
ATOM      4  C   UNL A   1      32.298  27.471  22.908  1.00  0.00     0.261 C 
BRANCH   4   5
ATOM      5  O   UNL A   1      32.485  26.144  23.437  1.00  0.00    -0.463 OA
BRANCH   5   6
ATOM      6  C   UNL A   1      33.502  25.415  22.919  1.00  0.00     0.312 C 
ATOM      7  O   UNL A   1      33.561  25.068  21.741  1.00  0.00    -0.252 OA
BRANCH   6   8
ATOM      8  C   UNL A   1      34.650  25.134  23.898  1.00  0.00     0.123 C 
ATOM      9  C   UNL A   1      35.266  23.916  25.952  1.00  0.00     0.093 C 
ATOM     10  C   UNL A   1      35.442  23.074  24.741  1.00  0.00    -0.011 C 
ATOM     11  C   UNL A   1      34.402  25.066  25.412  1.00  0.00     0.043 C 
ATOM     12  C   UNL A   1      35.161  23.748  23.622  1.00  0.00    -0.015 C 
BRANCH   9  13
ATOM     13  N   UNL A   1      34.552  23.259  27.038  1.00  0.00    -0.203 NA
ATOM     14  H   UNL A   1      35.048  22.389  27.235  1.00  0.00     0.142 HD
BRANCH  13  15
ATOM     15  S   UNL A   1      32.926  22.860  26.847  1.00  0.00     0.260 S 
ATOM     16  O   UNL A   1      32.243  24.054  26.392  1.00  0.00    -0.205 OA
ATOM     17  O   UNL A   1      32.526  22.185  28.063  1.00  0.00    -0.205 OA
BRANCH  15  18
ATOM     18  C   UNL A   1      32.699  21.682  25.578  1.00  0.00     0.188 A 
ATOM     19  N   UNL A   1      32.698  19.848  24.370  1.00  0.00    -0.334 N 
ATOM     20  C   UNL A   1      32.965  20.327  25.633  1.00  0.00     0.129 A 
ATOM     21  C   UNL A   1      32.274  20.914  23.604  1.00  0.00     0.107 A 
ATOM     22  N   UNL A   1      32.248  22.020  24.318  1.00  0.00    -0.221 NA
ATOM     23  C   UNL A   1      31.908  20.861  22.166  1.00  0.00     0.088 C 
BRANCH  19  24
ATOM     24  C   UNL A   1      33.021  18.506  23.914  1.00  0.00     0.123 C 
BRANCH  24  25
ATOM     25  C   UNL A   1      33.309  17.470  25.003  1.00  0.00     0.018 C 
ATOM     26  C   UNL A   1      33.545  16.059  24.487  1.00  0.00     0.006 C 
ENDBRANCH  24  25
ENDBRANCH  19  24
ENDBRANCH  15  18
ENDBRANCH  13  15
ENDBRANCH   9  13
ENDBRANCH   6   8
ENDBRANCH   5   6
ENDBRANCH   4   5
ENDBRANCH   3   4
ENDBRANCH   2   3
ENDBRANCH   1   2
BRANCH   1  27
ATOM     27  C   UNL A   1      31.819  30.427  26.256  1.00  0.00     0.188 C 
BRANCH  27  28
ATOM     28  O   UNL A   1      32.831  30.444  27.239  1.00  0.00    -0.376 OA
BRANCH  28  29
ATOM     29  C   UNL A   1      33.698  31.532  27.527  1.00  0.00     0.202 C 
BRANCH  29  30
ATOM     30  C   UNL A   1      34.871  31.510  28.503  1.00  0.00     0.261 C 
BRANCH  30  31
ATOM     31  O   UNL A   1      35.730  30.412  28.363  1.00  0.00    -0.460 OA
BRANCH  31  32
ATOM     32  C   UNL A   1      36.601  30.290  29.388  1.00  0.00     0.338 C 
ATOM     33  O   UNL A   1      36.589  30.879  30.449  1.00  0.00    -0.246 OA
BRANCH  32  34
ATOM     34  C   UNL A   1      37.577  29.271  29.000  1.00  0.00     0.060 A 
ATOM     35  C   UNL A   1      37.966  28.375  29.996  1.00  0.00     0.016 A 
ATOM     36  C   UNL A   1      38.298  29.467  27.816  1.00  0.00     0.016 A 
ATOM     37  C   UNL A   1      39.255  27.917  29.953  1.00  0.00     0.010 A 
ATOM     38  C   UNL A   1      39.591  29.041  27.792  1.00  0.00     0.010 A 
ATOM     39  C   UNL A   1      40.072  28.377  28.917  1.00  0.00    -0.014 A 
BRANCH  39  40
ATOM     40  C   UNL A   1      41.484  28.112  28.988  1.00  0.00     0.031 A 
ATOM     41  C   UNL A   1      41.845  26.955  28.157  1.00  0.00     0.074 A 
ATOM     42  C   UNL A   1      42.312  28.926  29.669  1.00  0.00     0.049 A 
ATOM     43  N   UNL A   1      42.097  25.758  28.569  1.00  0.00    -0.248 NA
ATOM     44  C   UNL A   1      41.638  27.066  26.705  1.00  0.00     0.031 C 
ATOM     45  C   UNL A   1      41.991  30.219  30.291  1.00  0.00     0.029 A 
ATOM     46  N   UNL A   1      43.655  28.830  29.836  1.00  0.00    -0.354 N 
ATOM     47  C   UNL A   1      42.396  25.059  27.406  1.00  0.00     0.074 A 
ATOM     48  C   UNL A   1      41.804  25.798  26.327  1.00  0.00     0.031 C 
ATOM     49  C   UNL A   1      43.140  30.885  30.551  1.00  0.00     0.029 A 
ATOM     50  C   UNL A   1      44.262  30.014  30.247  1.00  0.00     0.049 A 
ATOM     51  H   UNL A   1      44.157  27.997  29.682  1.00  0.00     0.167 HD
ATOM     52  C   UNL A   1      43.438  24.187  27.393  1.00  0.00     0.034 A 
ATOM     53  C   UNL A   1      45.594  30.255  30.277  1.00  0.00     0.034 A 
ATOM     54  C   UNL A   1      43.860  23.873  28.736  1.00  0.00     0.049 A 
ATOM     55  C   UNL A   1      46.269  28.940  30.314  1.00  0.00     0.074 A 
ATOM     56  C   UNL A   1      43.348  23.173  29.805  1.00  0.00     0.029 A 
ATOM     57  N   UNL A   1      44.832  24.715  29.217  1.00  0.00    -0.354 N 
ATOM     58  N   UNL A   1      46.191  28.133  31.334  1.00  0.00    -0.248 NA
ATOM     59  C   UNL A   1      46.737  28.334  29.072  1.00  0.00     0.031 C 
ATOM     60  C   UNL A   1      43.912  23.770  30.970  1.00  0.00     0.029 A 
ATOM     61  C   UNL A   1      44.779  24.791  30.582  1.00  0.00     0.049 A 
ATOM     62  H   UNL A   1      45.479  25.199  28.655  1.00  0.00     0.167 HD
ATOM     63  C   UNL A   1      46.139  26.876  30.761  1.00  0.00     0.074 A 
ATOM     64  C   UNL A   1      46.675  27.044  29.415  1.00  0.00     0.031 C 
ATOM     65  C   UNL A   1      45.365  25.897  31.310  1.00  0.00     0.034 A 
BRANCH  52  66
ATOM     66  C   UNL A   1      44.398  24.013  26.232  1.00  0.00     0.023 A 
ATOM     67  C   UNL A   1      44.511  22.713  25.695  1.00  0.00     0.012 A 
ATOM     68  C   UNL A   1      45.384  24.950  25.839  1.00  0.00     0.148 A 
ATOM     69  C   UNL A   1      45.570  22.353  24.854  1.00  0.00     0.002 A 
ATOM     70  C   UNL A   1      46.389  24.612  24.942  1.00  0.00     0.091 A 
ATOM     71  F   UNL A   1      45.461  26.142  26.429  1.00  0.00    -0.205 F 
ATOM     72  C   UNL A   1      46.506  23.306  24.470  1.00  0.00     0.022 A 
BRANCH  70  73
ATOM     73  S   UNL A   1      47.604  25.821  24.394  1.00  0.00     0.127 S 
ATOM     74  O   UNL A   1      48.474  25.909  25.563  1.00  0.00    -0.237 OA
ATOM     75  O   UNL A   1      48.186  25.150  23.233  1.00  0.00    -0.237 OA
ATOM     76  O   UNL A   1      46.846  27.023  24.071  1.00  0.00    -0.744 OA
ENDBRANCH  70  73
ENDBRANCH  52  66
BRANCH  53  77
ATOM     77  C   UNL A   1      46.367  31.505  30.120  1.00  0.00     0.023 A 
ATOM     78  C   UNL A   1      47.329  31.853  31.090  1.00  0.00     0.012 A 
ATOM     79  C   UNL A   1      46.387  32.181  28.882  1.00  0.00     0.148 A 
ATOM     80  C   UNL A   1      48.313  32.811  30.817  1.00  0.00     0.002 A 
ATOM     81  C   UNL A   1      47.372  33.127  28.613  1.00  0.00     0.091 A 
ATOM     82  F   UNL A   1      45.497  31.826  27.945  1.00  0.00    -0.205 F 
ATOM     83  C   UNL A   1      48.344  33.435  29.575  1.00  0.00     0.022 A 
BRANCH  81  84
ATOM     84  S   UNL A   1      47.523  33.943  27.016  1.00  0.00     0.127 S 
ATOM     85  O   UNL A   1      48.780  34.676  27.171  1.00  0.00    -0.237 OA
ATOM     86  O   UNL A   1      47.587  32.804  26.103  1.00  0.00    -0.237 OA
ATOM     87  O   UNL A   1      46.342  34.787  26.886  1.00  0.00    -0.744 OA
ENDBRANCH  81  84
ENDBRANCH  53  77
BRANCH  65  88
ATOM     88  C   UNL A   1      44.938  26.082  32.739  1.00  0.00     0.023 A 
ATOM     89  C   UNL A   1      45.749  25.720  33.833  1.00  0.00     0.012 A 
ATOM     90  C   UNL A   1      43.726  26.748  32.976  1.00  0.00     0.148 A 
ATOM     91  C   UNL A   1      45.346  26.002  35.141  1.00  0.00     0.002 A 
ATOM     92  C   UNL A   1      43.353  27.071  34.272  1.00  0.00     0.091 A 
ATOM     93  F   UNL A   1      42.971  27.080  31.918  1.00  0.00    -0.205 F 
ATOM     94  C   UNL A   1      44.154  26.690  35.360  1.00  0.00     0.022 A 
BRANCH  92  95
ATOM     95  S   UNL A   1      41.899  28.065  34.607  1.00  0.00     0.127 S 
ATOM     96  O   UNL A   1      41.867  28.079  36.068  1.00  0.00    -0.237 OA
ATOM     97  O   UNL A   1      42.248  29.345  33.989  1.00  0.00    -0.237 OA
ATOM     98  O   UNL A   1      40.786  27.378  33.964  1.00  0.00    -0.744 OA
ENDBRANCH  92  95
ENDBRANCH  65  88
ENDBRANCH  39  40
ENDBRANCH  32  34
ENDBRANCH  31  32
ENDBRANCH  30  31
ENDBRANCH  29  30
ENDBRANCH  28  29
ENDBRANCH  27  28
ENDBRANCH   1  27
TORSDOF 25
ENDMDL
MODEL 2
REMARK VINA RESULT:      -9.5      3.048      5.059
REMARK SMILES CCCn1cc(S(=O)(=O)N[C@H]2C=C[C@@H](C(=O)OCCOCCOCCOC(=O)c3ccc(-c4c5nc(c(-c6cccc(S(=O)(=O)[O-])c6F)c6ccc([nH]6)c(-c6cccc(S(=O)(=O)[O-])c6F)c6nc(c(-c7cccc(S(=O)(=O)[O-])c7F)c7ccc4[nH]7)C=C6)C=C5)cc3)C2)nc1C
REMARK SMILES IDX 21 1 20 2 19 3 18 4 17 5 15 6 16 7 14 8 11 9 12 10 92 11
REMARK SMILES IDX 13 12 10 13 7 15 8 16 9 17 6 18 4 19 5 20 94 21 93 22 95 23
REMARK SMILES IDX 3 24 2 25 1 26 22 27 23 28 24 29 25 30 26 31 27 32 28 33
REMARK SMILES IDX 29 34 30 35 91 36 31 37 90 38 32 39 33 40 34 41 84 42 35 43
REMARK SMILES IDX 89 44 83 45 85 46 36 47 88 48 82 49 81 50 37 52 69 53 49 54
REMARK SMILES IDX 68 55 50 56 53 57 67 58 86 59 51 60 52 61 66 63 87 64 54 65
REMARK SMILES IDX 38 66 39 67 47 68 40 69 42 70 48 71 41 72 43 73 44 74 45 75
REMARK SMILES IDX 46 76 70 77 71 78 79 79 72 80 74 81 80 82 73 83 75 84 76 85
REMARK SMILES IDX 77 86 78 87 55 88 56 89 64 90 57 91 59 92 65 93 58 94 60 95
REMARK SMILES IDX 61 96 62 97 63 98
REMARK H PARENT 10 14 85 51 53 62
REMARK Flexibility Score: inf
ROOT
ATOM      1  C   UNL A   1      33.200  25.986  25.827  1.00  0.00     0.188 C 
ENDROOT
BRANCH   1   2
ATOM      2  O   UNL A   1      32.136  25.796  26.730  1.00  0.00    -0.376 OA
BRANCH   2   3
ATOM      3  C   UNL A   1      30.931  25.212  26.270  1.00  0.00     0.202 C 
BRANCH   3   4
ATOM      4  C   UNL A   1      30.638  23.704  26.423  1.00  0.00     0.261 C 
BRANCH   4   5
ATOM      5  O   UNL A   1      31.167  23.078  27.608  1.00  0.00    -0.463 OA
BRANCH   5   6
ATOM      6  C   UNL A   1      32.456  22.665  27.560  1.00  0.00     0.312 C 
ATOM      7  O   UNL A   1      33.285  22.919  28.431  1.00  0.00    -0.252 OA
BRANCH   6   8
ATOM      8  C   UNL A   1      32.791  21.755  26.371  1.00  0.00     0.123 C 
ATOM      9  C   UNL A   1      33.827  21.696  24.134  1.00  0.00     0.093 C 
ATOM     10  C   UNL A   1      34.830  21.481  25.209  1.00  0.00    -0.011 C 
ATOM     11  C   UNL A   1      32.631  22.246  24.926  1.00  0.00     0.043 C 
ATOM     12  C   UNL A   1      34.264  21.458  26.419  1.00  0.00    -0.015 C 
BRANCH   9  13
ATOM     13  N   UNL A   1      34.225  22.677  23.134  1.00  0.00    -0.203 NA
ATOM     14  H   UNL A   1      34.577  23.490  23.640  1.00  0.00     0.142 HD
BRANCH  13  15
ATOM     15  S   UNL A   1      33.089  23.246  22.026  1.00  0.00     0.260 S 
ATOM     16  O   UNL A   1      31.824  22.619  22.350  1.00  0.00    -0.205 OA
ATOM     17  O   UNL A   1      33.687  23.096  20.716  1.00  0.00    -0.205 OA
BRANCH  15  18
ATOM     18  C   UNL A   1      32.821  24.962  22.208  1.00  0.00     0.188 A 
ATOM     19  N   UNL A   1      31.913  26.948  22.442  1.00  0.00    -0.334 N 
ATOM     20  C   UNL A   1      31.624  25.601  22.466  1.00  0.00     0.129 A 
ATOM     21  C   UNL A   1      33.263  27.076  22.184  1.00  0.00     0.107 A 
ATOM     22  N   UNL A   1      33.828  25.894  22.062  1.00  0.00    -0.221 NA
ATOM     23  C   UNL A   1      34.002  28.356  22.040  1.00  0.00     0.088 C 
BRANCH  19  24
ATOM     24  C   UNL A   1      30.915  28.004  22.473  1.00  0.00     0.123 C 
BRANCH  24  25
ATOM     25  C   UNL A   1      30.014  28.050  23.709  1.00  0.00     0.018 C 
ATOM     26  C   UNL A   1      28.904  27.010  23.722  1.00  0.00     0.006 C 
ENDBRANCH  24  25
ENDBRANCH  19  24
ENDBRANCH  15  18
ENDBRANCH  13  15
ENDBRANCH   9  13
ENDBRANCH   6   8
ENDBRANCH   5   6
ENDBRANCH   4   5
ENDBRANCH   3   4
ENDBRANCH   2   3
ENDBRANCH   1   2
BRANCH   1  27
ATOM     27  C   UNL A   1      33.924  27.337  25.739  1.00  0.00     0.188 C 
BRANCH  27  28
ATOM     28  O   UNL A   1      33.945  28.257  26.809  1.00  0.00    -0.376 OA
BRANCH  28  29
ATOM     29  C   UNL A   1      34.798  29.388  26.922  1.00  0.00     0.202 C 
BRANCH  29  30
ATOM     30  C   UNL A   1      35.749  29.680  28.080  1.00  0.00     0.261 C 
BRANCH  30  31
ATOM     31  O   UNL A   1      37.087  29.860  27.708  1.00  0.00    -0.460 OA
BRANCH  31  32
ATOM     32  C   UNL A   1      37.936  29.826  28.759  1.00  0.00     0.338 C 
ATOM     33  O   UNL A   1      37.657  29.825  29.940  1.00  0.00    -0.246 OA
BRANCH  32  34
ATOM     34  C   UNL A   1      39.291  29.760  28.212  1.00  0.00     0.060 A 
ATOM     35  C   UNL A   1      39.427  29.140  26.970  1.00  0.00     0.016 A 
ATOM     36  C   UNL A   1      40.364  29.985  29.082  1.00  0.00     0.016 A 
ATOM     37  C   UNL A   1      40.587  28.448  26.743  1.00  0.00     0.010 A 
ATOM     38  C   UNL A   1      41.502  29.267  28.872  1.00  0.00     0.010 A 
ATOM     39  C   UNL A   1      41.538  28.424  27.766  1.00  0.00    -0.014 A 
BRANCH  39  40
ATOM     40  C   UNL A   1      42.643  27.510  27.654  1.00  0.00     0.031 A 
ATOM     41  C   UNL A   1      42.174  26.118  27.626  1.00  0.00     0.074 A 
ATOM     42  C   UNL A   1      43.903  27.956  27.498  1.00  0.00     0.049 A 
ATOM     43  N   UNL A   1      42.209  25.271  28.601  1.00  0.00    -0.248 NA
ATOM     44  C   UNL A   1      41.332  25.703  26.494  1.00  0.00     0.031 C 
ATOM     45  C   UNL A   1      44.346  29.340  27.275  1.00  0.00     0.029 A 
ATOM     46  N   UNL A   1      45.051  27.244  27.374  1.00  0.00    -0.354 N 
ATOM     47  C   UNL A   1      41.669  24.112  28.058  1.00  0.00     0.074 A 
ATOM     48  C   UNL A   1      40.889  24.521  26.925  1.00  0.00     0.031 C 
ATOM     49  C   UNL A   1      45.617  29.332  26.812  1.00  0.00     0.029 A 
ATOM     50  C   UNL A   1      46.114  27.968  26.841  1.00  0.00     0.049 A 
ATOM     51  H   UNL A   1      45.128  26.298  27.639  1.00  0.00     0.167 HD
ATOM     52  C   UNL A   1      42.242  22.910  28.330  1.00  0.00     0.034 A 
ATOM     53  C   UNL A   1      47.291  27.452  26.412  1.00  0.00     0.034 A 
ATOM     54  C   UNL A   1      43.144  23.016  29.451  1.00  0.00     0.049 A 
ATOM     55  C   UNL A   1      47.451  26.139  27.073  1.00  0.00     0.074 A 
ATOM     56  C   UNL A   1      43.030  23.216  30.808  1.00  0.00     0.029 A 
ATOM     57  N   UNL A   1      44.433  23.323  29.092  1.00  0.00    -0.354 N 
ATOM     58  N   UNL A   1      47.635  26.010  28.356  1.00  0.00    -0.248 NA
ATOM     59  C   UNL A   1      47.041  24.925  26.375  1.00  0.00     0.031 C 
ATOM     60  C   UNL A   1      44.244  23.843  31.215  1.00  0.00     0.029 A 
ATOM     61  C   UNL A   1      45.079  23.976  30.106  1.00  0.00     0.049 A 
ATOM     62  H   UNL A   1      44.838  23.103  28.222  1.00  0.00     0.167 HD
ATOM     63  C   UNL A   1      46.923  24.870  28.681  1.00  0.00     0.074 A 
ATOM     64  C   UNL A   1      46.756  24.149  27.425  1.00  0.00     0.031 C 
ATOM     65  C   UNL A   1      46.255  24.786  29.867  1.00  0.00     0.034 A 
BRANCH  52  66
ATOM     66  C   UNL A   1      42.406  21.790  27.322  1.00  0.00     0.023 A 
ATOM     67  C   UNL A   1      41.741  20.579  27.612  1.00  0.00     0.012 A 
ATOM     68  C   UNL A   1      43.378  21.750  26.293  1.00  0.00     0.148 A 
ATOM     69  C   UNL A   1      42.059  19.388  26.948  1.00  0.00     0.002 A 
ATOM     70  C   UNL A   1      43.634  20.585  25.582  1.00  0.00     0.091 A 
ATOM     71  F   UNL A   1      44.176  22.794  26.074  1.00  0.00    -0.205 F 
ATOM     72  C   UNL A   1      43.000  19.393  25.926  1.00  0.00     0.022 A 
BRANCH  70  73
ATOM     73  S   UNL A   1      44.823  20.553  24.233  1.00  0.00     0.127 S 
ATOM     74  O   UNL A   1      44.529  19.262  23.616  1.00  0.00    -0.237 OA
ATOM     75  O   UNL A   1      44.419  21.723  23.454  1.00  0.00    -0.237 OA
ATOM     76  O   UNL A   1      46.134  20.677  24.858  1.00  0.00    -0.744 OA
ENDBRANCH  70  73
ENDBRANCH  52  66
BRANCH  53  77
ATOM     77  C   UNL A   1      48.233  27.900  25.365  1.00  0.00     0.023 A 
ATOM     78  C   UNL A   1      49.506  28.381  25.735  1.00  0.00     0.012 A 
ATOM     79  C   UNL A   1      48.009  27.565  24.014  1.00  0.00     0.148 A 
ATOM     80  C   UNL A   1      50.540  28.478  24.797  1.00  0.00     0.002 A 
ATOM     81  C   UNL A   1      49.043  27.657  23.086  1.00  0.00     0.091 A 
ATOM     82  F   UNL A   1      46.812  27.073  23.666  1.00  0.00    -0.205 F 
ATOM     83  C   UNL A   1      50.313  28.101  23.478  1.00  0.00     0.022 A 
BRANCH  81  84
ATOM     84  S   UNL A   1      48.857  27.139  21.373  1.00  0.00     0.127 S 
ATOM     85  O   UNL A   1      48.516  25.723  21.523  1.00  0.00    -0.237 OA
ATOM     86  O   UNL A   1      47.758  27.988  20.921  1.00  0.00    -0.237 OA
ATOM     87  O   UNL A   1      50.145  27.386  20.739  1.00  0.00    -0.744 OA
ENDBRANCH  81  84
ENDBRANCH  53  77
BRANCH  65  88
ATOM     88  C   UNL A   1      46.660  25.745  30.951  1.00  0.00     0.023 A 
ATOM     89  C   UNL A   1      47.835  25.587  31.713  1.00  0.00     0.012 A 
ATOM     90  C   UNL A   1      45.884  26.902  31.122  1.00  0.00     0.148 A 
ATOM     91  C   UNL A   1      48.217  26.558  32.641  1.00  0.00     0.002 A 
ATOM     92  C   UNL A   1      46.292  27.887  32.008  1.00  0.00     0.091 A 
ATOM     93  F   UNL A   1      44.769  27.028  30.386  1.00  0.00    -0.205 F 
ATOM     94  C   UNL A   1      47.453  27.716  32.780  1.00  0.00     0.022 A 
BRANCH  92  95
ATOM     95  S   UNL A   1      45.422  29.449  32.136  1.00  0.00     0.127 S 
ATOM     96  O   UNL A   1      46.296  30.216  33.022  1.00  0.00    -0.237 OA
ATOM     97  O   UNL A   1      45.403  29.908  30.746  1.00  0.00    -0.237 OA
ATOM     98  O   UNL A   1      44.106  29.133  32.676  1.00  0.00    -0.744 OA
ENDBRANCH  92  95
ENDBRANCH  65  88
ENDBRANCH  39  40
ENDBRANCH  32  34
ENDBRANCH  31  32
ENDBRANCH  30  31
ENDBRANCH  29  30
ENDBRANCH  28  29
ENDBRANCH  27  28
ENDBRANCH   1  27
TORSDOF 25
ENDMDL
MODEL 3
REMARK VINA RESULT:      -8.5      6.226     13.823
REMARK SMILES CCCn1cc(S(=O)(=O)N[C@H]2C=C[C@@H](C(=O)OCCOCCOCCOC(=O)c3ccc(-c4c5nc(c(-c6cccc(S(=O)(=O)[O-])c6F)c6ccc([nH]6)c(-c6cccc(S(=O)(=O)[O-])c6F)c6nc(c(-c7cccc(S(=O)(=O)[O-])c7F)c7ccc4[nH]7)C=C6)C=C5)cc3)C2)nc1C
REMARK SMILES IDX 21 1 20 2 19 3 18 4 17 5 15 6 16 7 14 8 11 9 12 10 92 11
REMARK SMILES IDX 13 12 10 13 7 15 8 16 9 17 6 18 4 19 5 20 94 21 93 22 95 23
REMARK SMILES IDX 3 24 2 25 1 26 22 27 23 28 24 29 25 30 26 31 27 32 28 33
REMARK SMILES IDX 29 34 30 35 91 36 31 37 90 38 32 39 33 40 34 41 84 42 35 43
REMARK SMILES IDX 89 44 83 45 85 46 36 47 88 48 82 49 81 50 37 52 69 53 49 54
REMARK SMILES IDX 68 55 50 56 53 57 67 58 86 59 51 60 52 61 66 63 87 64 54 65
REMARK SMILES IDX 38 66 39 67 47 68 40 69 42 70 48 71 41 72 43 73 44 74 45 75
REMARK SMILES IDX 46 76 70 77 71 78 79 79 72 80 74 81 80 82 73 83 75 84 76 85
REMARK SMILES IDX 77 86 78 87 55 88 56 89 64 90 57 91 59 92 65 93 58 94 60 95
REMARK SMILES IDX 61 96 62 97 63 98
REMARK H PARENT 10 14 85 51 53 62
REMARK Flexibility Score: inf
ROOT
ATOM      1  C   UNL A   1      49.691  22.952  39.864  1.00  0.00     0.188 C 
ENDROOT
BRANCH   1   2
ATOM      2  O   UNL A   1      49.600  21.877  40.770  1.00  0.00    -0.376 OA
BRANCH   2   3
ATOM      3  C   UNL A   1      50.684  21.610  41.640  1.00  0.00     0.202 C 
BRANCH   3   4
ATOM      4  C   UNL A   1      50.748  20.332  42.505  1.00  0.00     0.261 C 
BRANCH   4   5
ATOM      5  O   UNL A   1      49.963  20.351  43.714  1.00  0.00    -0.463 OA
BRANCH   5   6
ATOM      6  C   UNL A   1      49.619  19.151  44.239  1.00  0.00     0.312 C 
ATOM      7  O   UNL A   1      50.385  18.449  44.897  1.00  0.00    -0.252 OA
BRANCH   6   8
ATOM      8  C   UNL A   1      48.146  18.766  44.041  1.00  0.00     0.123 C 
ATOM      9  C   UNL A   1      46.589  17.514  42.596  1.00  0.00     0.093 C 
ATOM     10  C   UNL A   1      47.182  16.646  43.646  1.00  0.00    -0.011 C 
ATOM     11  C   UNL A   1      47.515  18.739  42.642  1.00  0.00     0.043 C 
ATOM     12  C   UNL A   1      47.984  17.333  44.464  1.00  0.00    -0.015 C 
BRANCH   9  13
ATOM     13  N   UNL A   1      46.627  16.942  41.257  1.00  0.00    -0.203 NA
ATOM     14  H   UNL A   1      47.511  17.230  40.837  1.00  0.00     0.142 HD
BRANCH  13  15
ATOM     15  S   UNL A   1      45.414  17.325  40.152  1.00  0.00     0.260 S 
ATOM     16  O   UNL A   1      44.242  17.702  40.916  1.00  0.00    -0.205 OA
ATOM     17  O   UNL A   1      45.370  16.235  39.201  1.00  0.00    -0.205 OA
BRANCH  15  18
ATOM     18  C   UNL A   1      45.829  18.734  39.207  1.00  0.00     0.188 A 
ATOM     19  N   UNL A   1      46.521  20.093  37.627  1.00  0.00    -0.334 N 
ATOM     20  C   UNL A   1      46.243  18.770  37.890  1.00  0.00     0.129 A 
ATOM     21  C   UNL A   1      46.256  20.808  38.778  1.00  0.00     0.107 A 
ATOM     22  N   UNL A   1      45.819  20.012  39.731  1.00  0.00    -0.221 NA
ATOM     23  C   UNL A   1      46.445  22.270  38.956  1.00  0.00     0.088 C 
BRANCH  19  24
ATOM     24  C   UNL A   1      47.171  20.573  36.419  1.00  0.00     0.123 C 
BRANCH  24  25
ATOM     25  C   UNL A   1      46.401  20.380  35.111  1.00  0.00     0.018 C 
ATOM     26  C   UNL A   1      45.197  21.294  34.945  1.00  0.00     0.006 C 
ENDBRANCH  24  25
ENDBRANCH  19  24
ENDBRANCH  15  18
ENDBRANCH  13  15
ENDBRANCH   9  13
ENDBRANCH   6   8
ENDBRANCH   5   6
ENDBRANCH   4   5
ENDBRANCH   3   4
ENDBRANCH   2   3
ENDBRANCH   1   2
BRANCH   1  27
ATOM     27  C   UNL A   1      50.003  24.372  40.358  1.00  0.00     0.188 C 
BRANCH  27  28
ATOM     28  O   UNL A   1      49.246  25.495  39.964  1.00  0.00    -0.376 OA
BRANCH  28  29
ATOM     29  C   UNL A   1      48.074  25.472  39.159  1.00  0.00     0.202 C 
BRANCH  29  30
ATOM     30  C   UNL A   1      47.973  25.943  37.711  1.00  0.00     0.261 C 
BRANCH  30  31
ATOM     31  O   UNL A   1      46.716  25.757  37.120  1.00  0.00    -0.460 OA
BRANCH  31  32
ATOM     32  C   UNL A   1      46.403  26.723  36.230  1.00  0.00     0.338 C 
ATOM     33  O   UNL A   1      46.384  27.923  36.412  1.00  0.00    -0.246 OA
BRANCH  32  34
ATOM     34  C   UNL A   1      46.109  26.057  34.962  1.00  0.00     0.060 A 
ATOM     35  C   UNL A   1      46.853  26.472  33.858  1.00  0.00     0.016 A 
ATOM     36  C   UNL A   1      44.913  25.336  34.858  1.00  0.00     0.016 A 
ATOM     37  C   UNL A   1      46.226  26.452  32.641  1.00  0.00     0.010 A 
ATOM     38  C   UNL A   1      44.276  25.351  33.654  1.00  0.00     0.010 A 
ATOM     39  C   UNL A   1      44.900  26.014  32.602  1.00  0.00    -0.014 A 
BRANCH  39  40
ATOM     40  C   UNL A   1      44.146  26.216  31.394  1.00  0.00     0.031 A 
ATOM     41  C   UNL A   1      44.434  25.163  30.411  1.00  0.00     0.074 A 
ATOM     42  C   UNL A   1      43.241  27.208  31.295  1.00  0.00     0.049 A 
ATOM     43  N   UNL A   1      45.194  25.263  29.372  1.00  0.00    -0.248 NA
ATOM     44  C   UNL A   1      44.065  23.783  30.762  1.00  0.00     0.031 C 
ATOM     45  C   UNL A   1      42.772  28.107  32.360  1.00  0.00     0.029 A 
ATOM     46  N   UNL A   1      42.449  27.538  30.244  1.00  0.00    -0.354 N 
ATOM     47  C   UNL A   1      45.116  24.010  28.777  1.00  0.00     0.074 A 
ATOM     48  C   UNL A   1      44.695  23.100  29.804  1.00  0.00     0.031 C 
ATOM     49  C   UNL A   1      41.625  28.705  31.963  1.00  0.00     0.029 A 
ATOM     50  C   UNL A   1      41.364  28.342  30.582  1.00  0.00     0.049 A 
ATOM     51  H   UNL A   1      42.625  27.237  29.323  1.00  0.00     0.167 HD
ATOM     52  C   UNL A   1      44.996  23.911  27.427  1.00  0.00     0.034 A 
ATOM     53  C   UNL A   1      40.310  28.632  29.782  1.00  0.00     0.034 A 
ATOM     54  C   UNL A   1      45.325  25.164  26.792  1.00  0.00     0.049 A 
ATOM     55  C   UNL A   1      40.752  28.405  28.389  1.00  0.00     0.074 A 
ATOM     56  C   UNL A   1      46.462  25.913  26.590  1.00  0.00     0.029 A 
ATOM     57  N   UNL A   1      44.244  25.994  26.625  1.00  0.00    -0.354 N 
ATOM     58  N   UNL A   1      41.654  29.143  27.804  1.00  0.00    -0.248 NA
ATOM     59  C   UNL A   1      40.473  27.128  27.742  1.00  0.00     0.031 C 
ATOM     60  C   UNL A   1      46.026  27.266  26.490  1.00  0.00     0.029 A 
ATOM     61  C   UNL A   1      44.636  27.305  26.597  1.00  0.00     0.049 A 
ATOM     62  H   UNL A   1      43.312  25.688  26.538  1.00  0.00     0.167 HD
ATOM     63  C   UNL A   1      42.365  28.246  27.029  1.00  0.00     0.074 A 
ATOM     64  C   UNL A   1      41.488  27.092  26.873  1.00  0.00     0.031 C 
ATOM     65  C   UNL A   1      43.712  28.385  26.870  1.00  0.00     0.034 A 
BRANCH  52  66
ATOM     66  C   UNL A   1      44.118  22.901  26.715  1.00  0.00     0.023 A 
ATOM     67  C   UNL A   1      42.736  22.961  26.992  1.00  0.00     0.012 A 
ATOM     68  C   UNL A   1      44.582  21.746  26.040  1.00  0.00     0.148 A 
ATOM     69  C   UNL A   1      41.873  21.910  26.660  1.00  0.00     0.002 A 
ATOM     70  C   UNL A   1      43.710  20.740  25.642  1.00  0.00     0.091 A 
ATOM     71  F   UNL A   1      45.888  21.522  25.896  1.00  0.00    -0.205 F 
ATOM     72  C   UNL A   1      42.359  20.802  25.976  1.00  0.00     0.022 A 
BRANCH  70  73
ATOM     73  S   UNL A   1      44.291  19.303  24.729  1.00  0.00     0.127 S 
ATOM     74  O   UNL A   1      43.173  18.379  24.897  1.00  0.00    -0.237 OA
ATOM     75  O   UNL A   1      44.451  19.851  23.383  1.00  0.00    -0.237 OA
ATOM     76  O   UNL A   1      45.543  18.911  25.365  1.00  0.00    -0.744 OA
ENDBRANCH  70  73
ENDBRANCH  52  66
BRANCH  53  77
ATOM     77  C   UNL A   1      38.898  28.939  30.093  1.00  0.00     0.023 A 
ATOM     78  C   UNL A   1      38.343  28.495  31.311  1.00  0.00     0.012 A 
ATOM     79  C   UNL A   1      38.201  29.918  29.356  1.00  0.00     0.148 A 
ATOM     80  C   UNL A   1      37.155  29.046  31.805  1.00  0.00     0.002 A 
ATOM     81  C   UNL A   1      37.023  30.468  29.854  1.00  0.00     0.091 A 
ATOM     82  F   UNL A   1      38.744  30.368  28.217  1.00  0.00    -0.205 F 
ATOM     83  C   UNL A   1      36.505  30.043  31.085  1.00  0.00     0.022 A 
BRANCH  81  84
ATOM     84  S   UNL A   1      36.146  31.799  29.020  1.00  0.00     0.127 S 
ATOM     85  O   UNL A   1      34.951  31.940  29.854  1.00  0.00    -0.237 OA
ATOM     86  O   UNL A   1      37.100  32.900  29.127  1.00  0.00    -0.237 OA
ATOM     87  O   UNL A   1      35.887  31.321  27.669  1.00  0.00    -0.744 OA
ENDBRANCH  81  84
ENDBRANCH  53  77
BRANCH  65  88
ATOM     88  C   UNL A   1      44.302  29.732  27.182  1.00  0.00     0.023 A 
ATOM     89  C   UNL A   1      44.168  30.844  26.327  1.00  0.00     0.012 A 
ATOM     90  C   UNL A   1      44.913  29.901  28.434  1.00  0.00     0.148 A 
ATOM     91  C   UNL A   1      44.651  32.098  26.709  1.00  0.00     0.002 A 
ATOM     92  C   UNL A   1      45.347  31.157  28.830  1.00  0.00     0.091 A 
ATOM     93  F   UNL A   1      45.031  28.827  29.229  1.00  0.00    -0.205 F 
ATOM     94  C   UNL A   1      45.230  32.258  27.967  1.00  0.00     0.022 A 
BRANCH  92  95
ATOM     95  S   UNL A   1      45.981  31.450  30.482  1.00  0.00     0.127 S 
ATOM     96  O   UNL A   1      44.855  31.041  31.319  1.00  0.00    -0.237 OA
ATOM     97  O   UNL A   1      47.139  30.555  30.533  1.00  0.00    -0.237 OA
ATOM     98  O   UNL A   1      46.321  32.866  30.537  1.00  0.00    -0.744 OA
ENDBRANCH  92  95
ENDBRANCH  65  88
ENDBRANCH  39  40
ENDBRANCH  32  34
ENDBRANCH  31  32
ENDBRANCH  30  31
ENDBRANCH  29  30
ENDBRANCH  28  29
ENDBRANCH  27  28
ENDBRANCH   1  27
TORSDOF 25
ENDMDL
