MODEL 1
REMARK VINA RESULT:      -9.6      0.000      0.000
REMARK SMILES C[C@H](CNS(=O)(=O)c1ccc(C(=O)OCCOCCOCCOC(=O)c2ccc(-c3c4nc(c(-c5cccc(S(=O)(=O)[O-])c5F)c5ccc([nH]5)c(-c5cccc(S(=O)(=O)[O-])c5F)c5nc(c(-c6cccc(S(=O)(=O)[O-])c6F)c6ccc3[nH]6)C=C5)C=C4)cc2)cc1F)[NH+](C)C
REMARK SMILES IDX 18 1 17 2 16 3 15 4 14 5 12 6 13 7 11 8 8 9 9 10 90 11 10 12
REMARK SMILES IDX 89 13 91 14 5 15 6 16 7 17 4 18 3 20 2 21 1 22 92 23 93 24
REMARK SMILES IDX 94 25 19 27 20 28 21 29 22 30 23 31 24 32 25 33 26 34 27 35
REMARK SMILES IDX 88 36 28 37 87 38 29 39 30 40 31 41 81 42 32 43 86 44 80 45
REMARK SMILES IDX 82 46 33 47 85 48 79 49 78 50 34 52 66 53 46 54 65 55 47 56
REMARK SMILES IDX 50 57 64 58 83 59 48 60 49 61 63 63 84 64 51 65 35 66 36 67
REMARK SMILES IDX 44 68 37 69 39 70 45 71 38 72 40 73 41 74 42 75 43 76 67 77
REMARK SMILES IDX 68 78 76 79 69 80 71 81 77 82 70 83 72 84 73 85 74 86 75 87
REMARK SMILES IDX 52 88 53 89 61 90 54 91 56 92 62 93 55 94 57 95 58 96 59 97
REMARK SMILES IDX 60 98
REMARK H PARENT 4 19 92 26 82 51 50 62
REMARK Flexibility Score: inf
ROOT
ATOM      1  C   UNL A   1      46.490  19.962  35.089  1.00  0.00     0.188 C 
ENDROOT
BRANCH   1   2
ATOM      2  O   UNL A   1      45.651  18.870  35.425  1.00  0.00    -0.376 OA
BRANCH   2   3
ATOM      3  C   UNL A   1      45.342  18.576  36.779  1.00  0.00     0.202 C 
BRANCH   3   4
ATOM      4  C   UNL A   1      46.350  18.897  37.880  1.00  0.00     0.261 C 
BRANCH   4   5
ATOM      5  O   UNL A   1      46.256  18.012  39.004  1.00  0.00    -0.460 OA
BRANCH   5   6
ATOM      6  C   UNL A   1      47.176  18.245  39.969  1.00  0.00     0.338 C 
ATOM      7  O   UNL A   1      48.224  18.858  39.866  1.00  0.00    -0.246 OA
BRANCH   6   8
ATOM      8  C   UNL A   1      46.687  17.753  41.266  1.00  0.00     0.063 A 
ATOM      9  C   UNL A   1      45.782  16.483  43.563  1.00  0.00     0.118 A 
ATOM     10  C   UNL A   1      47.141  16.440  43.246  1.00  0.00     0.026 A 
ATOM     11  C   UNL A   1      44.902  17.230  42.780  1.00  0.00     0.144 A 
ATOM     12  C   UNL A   1      47.590  17.057  42.079  1.00  0.00     0.017 A 
ATOM     13  C   UNL A   1      45.349  17.886  41.635  1.00  0.00     0.056 A 
ATOM     14  F   UNL A   1      43.596  17.290  43.070  1.00  0.00    -0.205 F 
BRANCH   9  15
ATOM     15  S   UNL A   1      45.103  15.507  44.859  1.00  0.00     0.243 S 
ATOM     16  O   UNL A   1      44.095  16.315  45.532  1.00  0.00    -0.207 OA
ATOM     17  O   UNL A   1      46.195  14.891  45.574  1.00  0.00    -0.207 OA
BRANCH  15  18
ATOM     18  N   UNL A   1      44.325  14.221  44.103  1.00  0.00    -0.205 NA
ATOM     19  H   UNL A   1      44.846  14.014  43.251  1.00  0.00     0.141 HD
BRANCH  18  20
ATOM     20  C   UNL A   1      42.905  14.368  43.718  1.00  0.00     0.163 C 
BRANCH  20  21
ATOM     21  C   UNL A   1      42.461  13.279  42.694  1.00  0.00     0.195 C 
ATOM     22  C   UNL A   1      42.292  11.902  43.352  1.00  0.00     0.076 C 
BRANCH  21  23
ATOM     23  N   UNL A   1      41.315  13.743  41.866  1.00  0.00    -0.337 N 
ATOM     24  C   UNL A   1      41.679  14.964  41.129  1.00  0.00     0.332 C 
ATOM     25  C   UNL A   1      40.790  12.769  40.904  1.00  0.00     0.332 C 
ATOM     26  H   UNL A   1      40.570  13.908  42.543  1.00  0.00     0.347 HD
ENDBRANCH  21  23
ENDBRANCH  20  21
ENDBRANCH  18  20
ENDBRANCH  15  18
ENDBRANCH   9  15
ENDBRANCH   6   8
ENDBRANCH   5   6
ENDBRANCH   4   5
ENDBRANCH   3   4
ENDBRANCH   2   3
ENDBRANCH   1   2
BRANCH   1  27
ATOM     27  C   UNL A   1      45.927  21.217  34.390  1.00  0.00     0.188 C 
BRANCH  27  28
ATOM     28  O   UNL A   1      45.730  22.424  35.106  1.00  0.00    -0.376 OA
BRANCH  28  29
ATOM     29  C   UNL A   1      46.358  22.587  36.370  1.00  0.00     0.202 C 
BRANCH  29  30
ATOM     30  C   UNL A   1      47.565  23.517  36.477  1.00  0.00     0.261 C 
BRANCH  30  31
ATOM     31  O   UNL A   1      47.189  24.872  36.755  1.00  0.00    -0.460 OA
BRANCH  31  32
ATOM     32  C   UNL A   1      47.609  25.777  35.840  1.00  0.00     0.338 C 
ATOM     33  O   UNL A   1      48.733  25.900  35.384  1.00  0.00    -0.246 OA
BRANCH  32  34
ATOM     34  C   UNL A   1      46.454  26.527  35.316  1.00  0.00     0.060 A 
ATOM     35  C   UNL A   1      45.180  25.976  35.504  1.00  0.00     0.016 A 
ATOM     36  C   UNL A   1      46.624  27.704  34.584  1.00  0.00     0.016 A 
ATOM     37  C   UNL A   1      44.070  26.577  34.915  1.00  0.00     0.010 A 
ATOM     38  C   UNL A   1      45.511  28.294  33.981  1.00  0.00     0.010 A 
ATOM     39  C   UNL A   1      44.239  27.712  34.113  1.00  0.00    -0.014 A 
BRANCH  39  40
ATOM     40  C   UNL A   1      43.117  28.198  33.279  1.00  0.00     0.031 A 
ATOM     41  C   UNL A   1      42.090  29.100  33.905  1.00  0.00     0.074 A 
ATOM     42  C   UNL A   1      43.005  27.830  31.992  1.00  0.00     0.049 A 
ATOM     43  N   UNL A   1      41.005  29.605  33.381  1.00  0.00    -0.248 NA
ATOM     44  C   UNL A   1      42.319  29.485  35.310  1.00  0.00     0.031 C 
ATOM     45  C   UNL A   1      43.942  26.968  31.276  1.00  0.00     0.029 A 
ATOM     46  N   UNL A   1      42.032  28.116  31.068  1.00  0.00    -0.354 N 
ATOM     47  C   UNL A   1      40.410  30.350  34.392  1.00  0.00     0.074 A 
ATOM     48  C   UNL A   1      41.250  30.228  35.562  1.00  0.00     0.031 C 
ATOM     49  C   UNL A   1      43.481  26.767  30.029  1.00  0.00     0.029 A 
ATOM     50  C   UNL A   1      42.207  27.467  29.869  1.00  0.00     0.049 A 
ATOM     51  H   UNL A   1      41.280  28.727  31.245  1.00  0.00     0.167 HD
ATOM     52  C   UNL A   1      39.273  31.081  34.344  1.00  0.00     0.034 A 
ATOM     53  C   UNL A   1      41.416  27.424  28.778  1.00  0.00     0.034 A 
ATOM     54  C   UNL A   1      38.443  31.209  33.178  1.00  0.00     0.049 A 
ATOM     55  C   UNL A   1      40.131  28.212  28.765  1.00  0.00     0.074 A 
ATOM     56  C   UNL A   1      37.292  31.960  33.022  1.00  0.00     0.029 A 
ATOM     57  N   UNL A   1      38.667  30.561  31.974  1.00  0.00    -0.354 N 
ATOM     58  N   UNL A   1      39.642  29.007  29.686  1.00  0.00    -0.248 NA
ATOM     59  C   UNL A   1      39.302  28.118  27.553  1.00  0.00     0.031 C 
ATOM     60  C   UNL A   1      36.810  31.753  31.727  1.00  0.00     0.029 A 
ATOM     61  C   UNL A   1      37.671  30.887  31.071  1.00  0.00     0.049 A 
ATOM     62  H   UNL A   1      39.424  29.960  31.787  1.00  0.00     0.167 HD
ATOM     63  C   UNL A   1      38.464  29.526  29.157  1.00  0.00     0.074 A 
ATOM     64  C   UNL A   1      38.324  28.973  27.827  1.00  0.00     0.031 C 
ATOM     65  C   UNL A   1      37.570  30.371  29.730  1.00  0.00     0.034 A 
BRANCH  52  66
ATOM     66  C   UNL A   1      38.877  31.837  35.581  1.00  0.00     0.023 A 
ATOM     67  C   UNL A   1      38.036  31.218  36.527  1.00  0.00     0.012 A 
ATOM     68  C   UNL A   1      39.390  33.122  35.843  1.00  0.00     0.148 A 
ATOM     69  C   UNL A   1      37.696  31.873  37.708  1.00  0.00     0.002 A 
ATOM     70  C   UNL A   1      39.076  33.754  37.040  1.00  0.00     0.091 A 
ATOM     71  F   UNL A   1      40.166  33.701  34.916  1.00  0.00    -0.205 F 
ATOM     72  C   UNL A   1      38.224  33.135  37.970  1.00  0.00     0.022 A 
BRANCH  70  73
ATOM     73  S   UNL A   1      39.760  35.350  37.500  1.00  0.00     0.127 S 
ATOM     74  O   UNL A   1      39.064  35.616  38.758  1.00  0.00    -0.237 OA
ATOM     75  O   UNL A   1      41.184  35.047  37.643  1.00  0.00    -0.237 OA
ATOM     76  O   UNL A   1      39.439  36.254  36.404  1.00  0.00    -0.744 OA
ENDBRANCH  70  73
ENDBRANCH  52  66
BRANCH  53  77
ATOM     77  C   UNL A   1      41.841  26.633  27.590  1.00  0.00     0.023 A 
ATOM     78  C   UNL A   1      42.470  27.288  26.514  1.00  0.00     0.012 A 
ATOM     79  C   UNL A   1      41.666  25.236  27.537  1.00  0.00     0.148 A 
ATOM     80  C   UNL A   1      42.906  26.568  25.400  1.00  0.00     0.002 A 
ATOM     81  C   UNL A   1      42.148  24.519  26.448  1.00  0.00     0.091 A 
ATOM     82  F   UNL A   1      41.044  24.636  28.562  1.00  0.00    -0.205 F 
ATOM     83  C   UNL A   1      42.756  25.185  25.373  1.00  0.00     0.022 A 
BRANCH  81  84
ATOM     84  S   UNL A   1      42.113  22.725  26.385  1.00  0.00     0.127 S 
ATOM     85  O   UNL A   1      43.055  22.370  27.444  1.00  0.00    -0.237 OA
ATOM     86  O   UNL A   1      40.709  22.440  26.686  1.00  0.00    -0.237 OA
ATOM     87  O   UNL A   1      42.521  22.372  25.032  1.00  0.00    -0.744 OA
ENDBRANCH  81  84
ENDBRANCH  53  77
BRANCH  65  88
ATOM     88  C   UNL A   1      36.360  30.773  28.930  1.00  0.00     0.023 A 
ATOM     89  C   UNL A   1      35.550  29.775  28.351  1.00  0.00     0.012 A 
ATOM     90  C   UNL A   1      35.958  32.121  28.854  1.00  0.00     0.148 A 
ATOM     91  C   UNL A   1      34.366  30.116  27.697  1.00  0.00     0.002 A 
ATOM     92  C   UNL A   1      34.755  32.449  28.240  1.00  0.00     0.091 A 
ATOM     93  F   UNL A   1      36.753  33.057  29.394  1.00  0.00    -0.205 F 
ATOM     94  C   UNL A   1      33.962  31.448  27.654  1.00  0.00     0.022 A 
BRANCH  92  95
ATOM     95  S   UNL A   1      34.111  34.127  28.228  1.00  0.00     0.127 S 
ATOM     96  O   UNL A   1      34.406  34.569  29.589  1.00  0.00    -0.237 OA
ATOM     97  O   UNL A   1      34.920  34.766  27.190  1.00  0.00    -0.237 OA
ATOM     98  O   UNL A   1      32.696  34.006  27.899  1.00  0.00    -0.744 OA
ENDBRANCH  92  95
ENDBRANCH  65  88
ENDBRANCH  39  40
ENDBRANCH  32  34
ENDBRANCH  31  32
ENDBRANCH  30  31
ENDBRANCH  29  30
ENDBRANCH  28  29
ENDBRANCH  27  28
ENDBRANCH   1  27
TORSDOF 25
ENDMDL
MODEL 2
REMARK VINA RESULT:      -9.5      6.459     15.355
REMARK SMILES C[C@H](CNS(=O)(=O)c1ccc(C(=O)OCCOCCOCCOC(=O)c2ccc(-c3c4nc(c(-c5cccc(S(=O)(=O)[O-])c5F)c5ccc([nH]5)c(-c5cccc(S(=O)(=O)[O-])c5F)c5nc(c(-c6cccc(S(=O)(=O)[O-])c6F)c6ccc3[nH]6)C=C5)C=C4)cc2)cc1F)[NH+](C)C
REMARK SMILES IDX 18 1 17 2 16 3 15 4 14 5 12 6 13 7 11 8 8 9 9 10 90 11 10 12
REMARK SMILES IDX 89 13 91 14 5 15 6 16 7 17 4 18 3 20 2 21 1 22 92 23 93 24
REMARK SMILES IDX 94 25 19 27 20 28 21 29 22 30 23 31 24 32 25 33 26 34 27 35
REMARK SMILES IDX 88 36 28 37 87 38 29 39 30 40 31 41 81 42 32 43 86 44 80 45
REMARK SMILES IDX 82 46 33 47 85 48 79 49 78 50 34 52 66 53 46 54 65 55 47 56
REMARK SMILES IDX 50 57 64 58 83 59 48 60 49 61 63 63 84 64 51 65 35 66 36 67
REMARK SMILES IDX 44 68 37 69 39 70 45 71 38 72 40 73 41 74 42 75 43 76 67 77
REMARK SMILES IDX 68 78 76 79 69 80 71 81 77 82 70 83 72 84 73 85 74 86 75 87
REMARK SMILES IDX 52 88 53 89 61 90 54 91 56 92 62 93 55 94 57 95 58 96 59 97
REMARK SMILES IDX 60 98
REMARK H PARENT 4 19 92 26 82 51 50 62
REMARK Flexibility Score: inf
ROOT
ATOM      1  C   UNL A   1      34.000  34.446  30.053  1.00  0.00     0.188 C 
ENDROOT
BRANCH   1   2
ATOM      2  O   UNL A   1      33.548  34.202  28.733  1.00  0.00    -0.376 OA
BRANCH   2   3
ATOM      3  C   UNL A   1      34.148  33.200  27.929  1.00  0.00     0.202 C 
BRANCH   3   4
ATOM      4  C   UNL A   1      34.058  31.732  28.341  1.00  0.00     0.261 C 
BRANCH   4   5
ATOM      5  O   UNL A   1      33.859  30.847  27.231  1.00  0.00    -0.460 OA
BRANCH   5   6
ATOM      6  C   UNL A   1      34.501  29.662  27.347  1.00  0.00     0.338 C 
ATOM      7  O   UNL A   1      35.596  29.454  27.840  1.00  0.00    -0.246 OA
BRANCH   6   8
ATOM      8  C   UNL A   1      33.630  28.566  26.897  1.00  0.00     0.063 A 
ATOM      9  C   UNL A   1      31.936  26.420  26.410  1.00  0.00     0.118 A 
ATOM     10  C   UNL A   1      31.398  27.635  26.841  1.00  0.00     0.026 A 
ATOM     11  C   UNL A   1      33.301  26.313  26.144  1.00  0.00     0.144 A 
ATOM     12  C   UNL A   1      32.252  28.703  27.108  1.00  0.00     0.017 A 
ATOM     13  C   UNL A   1      34.157  27.389  26.368  1.00  0.00     0.056 A 
ATOM     14  F   UNL A   1      33.837  25.159  25.724  1.00  0.00    -0.205 F 
BRANCH   9  15
ATOM     15  S   UNL A   1      30.963  24.958  26.316  1.00  0.00     0.243 S 
ATOM     16  O   UNL A   1      29.567  25.367  26.226  1.00  0.00    -0.207 OA
ATOM     17  O   UNL A   1      31.429  24.045  27.332  1.00  0.00    -0.207 OA
BRANCH  15  18
ATOM     18  N   UNL A   1      31.387  24.218  24.866  1.00  0.00    -0.205 NA
ATOM     19  H   UNL A   1      32.378  23.982  24.929  1.00  0.00     0.141 HD
BRANCH  18  20
ATOM     20  C   UNL A   1      31.199  24.960  23.600  1.00  0.00     0.163 C 
BRANCH  20  21
ATOM     21  C   UNL A   1      32.533  25.111  22.807  1.00  0.00     0.195 C 
ATOM     22  C   UNL A   1      33.114  23.753  22.390  1.00  0.00     0.076 C 
BRANCH  21  23
ATOM     23  N   UNL A   1      32.412  26.121  21.721  1.00  0.00    -0.337 N 
ATOM     24  C   UNL A   1      33.506  27.102  21.812  1.00  0.00     0.332 C 
ATOM     25  C   UNL A   1      32.390  25.588  20.357  1.00  0.00     0.332 C 
ATOM     26  H   UNL A   1      31.498  26.546  21.878  1.00  0.00     0.347 HD
ENDBRANCH  21  23
ENDBRANCH  20  21
ENDBRANCH  18  20
ENDBRANCH  15  18
ENDBRANCH   9  15
ENDBRANCH   6   8
ENDBRANCH   5   6
ENDBRANCH   4   5
ENDBRANCH   3   4
ENDBRANCH   2   3
ENDBRANCH   1   2
BRANCH   1  27
ATOM     27  C   UNL A   1      33.344  35.529  30.937  1.00  0.00     0.188 C 
BRANCH  27  28
ATOM     28  O   UNL A   1      34.026  36.068  32.056  1.00  0.00    -0.376 OA
BRANCH  28  29
ATOM     29  C   UNL A   1      34.444  35.195  33.096  1.00  0.00     0.202 C 
BRANCH  29  30
ATOM     30  C   UNL A   1      35.881  34.679  33.090  1.00  0.00     0.261 C 
BRANCH  30  31
ATOM     31  O   UNL A   1      36.023  33.443  33.802  1.00  0.00    -0.460 OA
BRANCH  31  32
ATOM     32  C   UNL A   1      35.877  32.331  33.044  1.00  0.00     0.338 C 
ATOM     33  O   UNL A   1      34.887  31.984  32.424  1.00  0.00    -0.246 OA
BRANCH  32  34
ATOM     34  C   UNL A   1      37.172  31.641  32.921  1.00  0.00     0.060 A 
ATOM     35  C   UNL A   1      38.220  32.068  33.746  1.00  0.00     0.016 A 
ATOM     36  C   UNL A   1      37.378  30.650  31.958  1.00  0.00     0.016 A 
ATOM     37  C   UNL A   1      39.497  31.539  33.578  1.00  0.00     0.010 A 
ATOM     38  C   UNL A   1      38.664  30.134  31.780  1.00  0.00     0.010 A 
ATOM     39  C   UNL A   1      39.732  30.603  32.564  1.00  0.00    -0.014 A 
BRANCH  39  40
ATOM     40  C   UNL A   1      41.122  30.235  32.208  1.00  0.00     0.031 A 
ATOM     41  C   UNL A   1      41.846  31.061  31.182  1.00  0.00     0.074 A 
ATOM     42  C   UNL A   1      41.722  29.176  32.777  1.00  0.00     0.049 A 
ATOM     43  N   UNL A   1      43.044  30.897  30.686  1.00  0.00    -0.248 NA
ATOM     44  C   UNL A   1      41.125  32.229  30.645  1.00  0.00     0.031 C 
ATOM     45  C   UNL A   1      41.122  28.309  33.787  1.00  0.00     0.029 A 
ATOM     46  N   UNL A   1      42.964  28.636  32.558  1.00  0.00    -0.354 N 
ATOM     47  C   UNL A   1      43.214  31.924  29.766  1.00  0.00     0.074 A 
ATOM     48  C   UNL A   1      41.997  32.705  29.767  1.00  0.00     0.031 C 
ATOM     49  C   UNL A   1      41.987  27.322  34.080  1.00  0.00     0.029 A 
ATOM     50  C   UNL A   1      43.189  27.476  33.260  1.00  0.00     0.049 A 
ATOM     51  H   UNL A   1      43.631  29.040  31.956  1.00  0.00     0.167 HD
ATOM     52  C   UNL A   1      44.294  32.200  29.000  1.00  0.00     0.034 A 
ATOM     53  C   UNL A   1      44.234  26.625  33.225  1.00  0.00     0.034 A 
ATOM     54  C   UNL A   1      45.507  31.430  29.005  1.00  0.00     0.049 A 
ATOM     55  C   UNL A   1      45.406  26.931  32.330  1.00  0.00     0.074 A 
ATOM     56  C   UNL A   1      46.670  31.656  28.291  1.00  0.00     0.029 A 
ATOM     57  N   UNL A   1      45.709  30.280  29.750  1.00  0.00    -0.354 N 
ATOM     58  N   UNL A   1      45.603  27.970  31.554  1.00  0.00    -0.248 NA
ATOM     59  C   UNL A   1      46.513  25.961  32.323  1.00  0.00     0.031 C 
ATOM     60  C   UNL A   1      47.571  30.631  28.593  1.00  0.00     0.029 A 
ATOM     61  C   UNL A   1      46.975  29.777  29.507  1.00  0.00     0.049 A 
ATOM     62  H   UNL A   1      45.051  29.880  30.363  1.00  0.00     0.167 HD
ATOM     63  C   UNL A   1      46.861  27.792  30.987  1.00  0.00     0.074 A 
ATOM     64  C   UNL A   1      47.391  26.558  31.526  1.00  0.00     0.031 C 
ATOM     65  C   UNL A   1      47.512  28.574  30.089  1.00  0.00     0.034 A 
BRANCH  52  66
ATOM     66  C   UNL A   1      44.230  33.414  28.116  1.00  0.00     0.023 A 
ATOM     67  C   UNL A   1      43.862  33.262  26.763  1.00  0.00     0.012 A 
ATOM     68  C   UNL A   1      44.461  34.703  28.633  1.00  0.00     0.148 A 
ATOM     69  C   UNL A   1      43.741  34.375  25.934  1.00  0.00     0.002 A 
ATOM     70  C   UNL A   1      44.303  35.811  27.808  1.00  0.00     0.091 A 
ATOM     71  F   UNL A   1      44.837  34.820  29.914  1.00  0.00    -0.205 F 
ATOM     72  C   UNL A   1      43.951  35.649  26.458  1.00  0.00     0.022 A 
BRANCH  70  73
ATOM     73  S   UNL A   1      44.484  37.495  28.406  1.00  0.00     0.127 S 
ATOM     74  O   UNL A   1      45.864  37.489  28.890  1.00  0.00    -0.237 OA
ATOM     75  O   UNL A   1      44.268  38.279  27.190  1.00  0.00    -0.237 OA
ATOM     76  O   UNL A   1      43.463  37.668  29.429  1.00  0.00    -0.744 OA
ENDBRANCH  70  73
ENDBRANCH  52  66
BRANCH  53  77
ATOM     77  C   UNL A   1      44.231  25.420  34.100  1.00  0.00     0.023 A 
ATOM     78  C   UNL A   1      43.768  24.194  33.584  1.00  0.00     0.012 A 
ATOM     79  C   UNL A   1      44.721  25.470  35.419  1.00  0.00     0.148 A 
ATOM     80  C   UNL A   1      43.781  23.042  34.372  1.00  0.00     0.002 A 
ATOM     81  C   UNL A   1      44.780  24.308  36.181  1.00  0.00     0.091 A 
ATOM     82  F   UNL A   1      45.136  26.652  35.897  1.00  0.00    -0.205 F 
ATOM     83  C   UNL A   1      44.298  23.096  35.663  1.00  0.00     0.022 A 
BRANCH  81  84
ATOM     84  S   UNL A   1      45.545  24.257  37.805  1.00  0.00     0.127 S 
ATOM     85  O   UNL A   1      45.540  22.825  38.093  1.00  0.00    -0.237 OA
ATOM     86  O   UNL A   1      46.865  24.828  37.533  1.00  0.00    -0.237 OA
ATOM     87  O   UNL A   1      44.700  25.078  38.662  1.00  0.00    -0.744 OA
ENDBRANCH  81  84
ENDBRANCH  53  77
BRANCH  65  88
ATOM     88  C   UNL A   1      48.878  28.140  29.629  1.00  0.00     0.023 A 
ATOM     89  C   UNL A   1      50.018  28.588  30.325  1.00  0.00     0.012 A 
ATOM     90  C   UNL A   1      49.025  27.198  28.591  1.00  0.00     0.148 A 
ATOM     91  C   UNL A   1      51.286  28.117  29.985  1.00  0.00     0.002 A 
ATOM     92  C   UNL A   1      50.287  26.699  28.288  1.00  0.00     0.091 A 
ATOM     93  F   UNL A   1      47.930  26.799  27.928  1.00  0.00    -0.205 F 
ATOM     94  C   UNL A   1      51.419  27.163  28.978  1.00  0.00     0.022 A 
BRANCH  92  95
ATOM     95  S   UNL A   1      50.536  25.395  27.076  1.00  0.00     0.127 S 
ATOM     96  O   UNL A   1      50.100  26.048  25.843  1.00  0.00    -0.237 OA
ATOM     97  O   UNL A   1      51.977  25.157  27.162  1.00  0.00    -0.237 OA
ATOM     98  O   UNL A   1      49.713  24.278  27.520  1.00  0.00    -0.744 OA
ENDBRANCH  92  95
ENDBRANCH  65  88
ENDBRANCH  39  40
ENDBRANCH  32  34
ENDBRANCH  31  32
ENDBRANCH  30  31
ENDBRANCH  29  30
ENDBRANCH  28  29
ENDBRANCH  27  28
ENDBRANCH   1  27
TORSDOF 25
ENDMDL
MODEL 3
REMARK VINA RESULT:      -9.4      1.778      2.151
REMARK SMILES C[C@H](CNS(=O)(=O)c1ccc(C(=O)OCCOCCOCCOC(=O)c2ccc(-c3c4nc(c(-c5cccc(S(=O)(=O)[O-])c5F)c5ccc([nH]5)c(-c5cccc(S(=O)(=O)[O-])c5F)c5nc(c(-c6cccc(S(=O)(=O)[O-])c6F)c6ccc3[nH]6)C=C5)C=C4)cc2)cc1F)[NH+](C)C
REMARK SMILES IDX 18 1 17 2 16 3 15 4 14 5 12 6 13 7 11 8 8 9 9 10 90 11 10 12
REMARK SMILES IDX 89 13 91 14 5 15 6 16 7 17 4 18 3 20 2 21 1 22 92 23 93 24
REMARK SMILES IDX 94 25 19 27 20 28 21 29 22 30 23 31 24 32 25 33 26 34 27 35
REMARK SMILES IDX 88 36 28 37 87 38 29 39 30 40 31 41 81 42 32 43 86 44 80 45
REMARK SMILES IDX 82 46 33 47 85 48 79 49 78 50 34 52 66 53 46 54 65 55 47 56
REMARK SMILES IDX 50 57 64 58 83 59 48 60 49 61 63 63 84 64 51 65 35 66 36 67
REMARK SMILES IDX 44 68 37 69 39 70 45 71 38 72 40 73 41 74 42 75 43 76 67 77
REMARK SMILES IDX 68 78 76 79 69 80 71 81 77 82 70 83 72 84 73 85 74 86 75 87
REMARK SMILES IDX 52 88 53 89 61 90 54 91 56 92 62 93 55 94 57 95 58 96 59 97
REMARK SMILES IDX 60 98
REMARK H PARENT 4 19 92 26 82 51 50 62
REMARK Flexibility Score: inf
ROOT
ATOM      1  C   UNL A   1      46.689  20.604  35.064  1.00  0.00     0.188 C 
ENDROOT
BRANCH   1   2
ATOM      2  O   UNL A   1      45.858  19.479  35.290  1.00  0.00    -0.376 OA
BRANCH   2   3
ATOM      3  C   UNL A   1      45.514  19.078  36.607  1.00  0.00     0.202 C 
BRANCH   3   4
ATOM      4  C   UNL A   1      46.529  19.218  37.739  1.00  0.00     0.261 C 
BRANCH   4   5
ATOM      5  O   UNL A   1      46.393  18.206  38.745  1.00  0.00    -0.460 OA
BRANCH   5   6
ATOM      6  C   UNL A   1      47.392  18.197  39.658  1.00  0.00     0.338 C 
ATOM      7  O   UNL A   1      48.547  18.550  39.501  1.00  0.00    -0.246 OA
BRANCH   6   8
ATOM      8  C   UNL A   1      46.871  17.806  40.977  1.00  0.00     0.063 A 
ATOM      9  C   UNL A   1      45.729  16.776  43.289  1.00  0.00     0.118 A 
ATOM     10  C   UNL A   1      46.871  16.171  42.760  1.00  0.00     0.026 A 
ATOM     11  C   UNL A   1      45.218  17.938  42.710  1.00  0.00     0.144 A 
ATOM     12  C   UNL A   1      47.428  16.674  41.586  1.00  0.00     0.017 A 
ATOM     13  C   UNL A   1      45.794  18.473  41.559  1.00  0.00     0.056 A 
ATOM     14  F   UNL A   1      44.127  18.538  43.204  1.00  0.00    -0.205 F 
BRANCH   9  15
ATOM     15  S   UNL A   1      44.815  16.042  44.601  1.00  0.00     0.243 S 
ATOM     16  O   UNL A   1      44.560  17.081  45.590  1.00  0.00    -0.207 OA
ATOM     17  O   UNL A   1      45.454  14.795  44.947  1.00  0.00    -0.207 OA
BRANCH  15  18
ATOM     18  N   UNL A   1      43.342  15.582  43.931  1.00  0.00    -0.205 NA
ATOM     19  H   UNL A   1      42.661  15.563  44.690  1.00  0.00     0.141 HD
BRANCH  18  20
ATOM     20  C   UNL A   1      43.248  14.282  43.232  1.00  0.00     0.163 C 
BRANCH  20  21
ATOM     21  C   UNL A   1      42.220  14.323  42.060  1.00  0.00     0.195 C 
ATOM     22  C   UNL A   1      42.645  15.297  40.952  1.00  0.00     0.076 C 
BRANCH  21  23
ATOM     23  N   UNL A   1      41.853  12.953  41.607  1.00  0.00    -0.337 N 
ATOM     24  C   UNL A   1      41.105  12.250  42.662  1.00  0.00     0.332 C 
ATOM     25  C   UNL A   1      41.074  12.880  40.368  1.00  0.00     0.332 C 
ATOM     26  H   UNL A   1      42.750  12.509  41.408  1.00  0.00     0.347 HD
ENDBRANCH  21  23
ENDBRANCH  20  21
ENDBRANCH  18  20
ENDBRANCH  15  18
ENDBRANCH   9  15
ENDBRANCH   6   8
ENDBRANCH   5   6
ENDBRANCH   4   5
ENDBRANCH   3   4
ENDBRANCH   2   3
ENDBRANCH   1   2
BRANCH   1  27
ATOM     27  C   UNL A   1      46.212  21.790  34.199  1.00  0.00     0.188 C 
BRANCH  27  28
ATOM     28  O   UNL A   1      46.015  23.073  34.767  1.00  0.00    -0.376 OA
BRANCH  28  29
ATOM     29  C   UNL A   1      46.686  23.404  35.975  1.00  0.00     0.202 C 
BRANCH  29  30
ATOM     30  C   UNL A   1      47.889  24.341  35.915  1.00  0.00     0.261 C 
BRANCH  30  31
ATOM     31  O   UNL A   1      47.587  25.653  36.409  1.00  0.00    -0.460 OA
BRANCH  31  32
ATOM     32  C   UNL A   1      47.960  26.667  35.594  1.00  0.00     0.338 C 
ATOM     33  O   UNL A   1      49.081  26.904  35.176  1.00  0.00    -0.246 OA
BRANCH  32  34
ATOM     34  C   UNL A   1      46.767  27.388  35.119  1.00  0.00     0.060 A 
ATOM     35  C   UNL A   1      45.520  26.782  35.313  1.00  0.00     0.016 A 
ATOM     36  C   UNL A   1      46.877  28.595  34.425  1.00  0.00     0.016 A 
ATOM     37  C   UNL A   1      44.375  27.359  34.768  1.00  0.00     0.010 A 
ATOM     38  C   UNL A   1      45.730  29.162  33.864  1.00  0.00     0.010 A 
ATOM     39  C   UNL A   1      44.484  28.527  34.002  1.00  0.00    -0.014 A 
BRANCH  39  40
ATOM     40  C   UNL A   1      43.327  28.997  33.207  1.00  0.00     0.031 A 
ATOM     41  C   UNL A   1      42.279  29.835  33.886  1.00  0.00     0.074 A 
ATOM     42  C   UNL A   1      43.202  28.670  31.910  1.00  0.00     0.049 A 
ATOM     43  N   UNL A   1      41.164  30.315  33.401  1.00  0.00    -0.248 NA
ATOM     44  C   UNL A   1      42.520  30.179  35.299  1.00  0.00     0.031 C 
ATOM     45  C   UNL A   1      44.158  27.872  31.146  1.00  0.00     0.029 A 
ATOM     46  N   UNL A   1      42.200  28.950  31.016  1.00  0.00    -0.354 N 
ATOM     47  C   UNL A   1      40.561  30.998  34.449  1.00  0.00     0.074 A 
ATOM     48  C   UNL A   1      41.429  30.869  35.598  1.00  0.00     0.031 C 
ATOM     49  C   UNL A   1      43.679  27.697  29.902  1.00  0.00     0.029 A 
ATOM     50  C   UNL A   1      42.375  28.351  29.791  1.00  0.00     0.049 A 
ATOM     51  H   UNL A   1      41.429  29.524  31.230  1.00  0.00     0.167 HD
ATOM     52  C   UNL A   1      39.396  31.685  34.450  1.00  0.00     0.034 A 
ATOM     53  C   UNL A   1      41.565  28.315  28.715  1.00  0.00     0.034 A 
ATOM     54  C   UNL A   1      38.538  31.821  33.305  1.00  0.00     0.049 A 
ATOM     55  C   UNL A   1      40.250  29.051  28.755  1.00  0.00     0.074 A 
ATOM     56  C   UNL A   1      37.355  32.531  33.199  1.00  0.00     0.029 A 
ATOM     57  N   UNL A   1      38.762  31.226  32.074  1.00  0.00    -0.354 N 
ATOM     58  N   UNL A   1      39.749  29.793  29.713  1.00  0.00    -0.248 NA
ATOM     59  C   UNL A   1      39.400  28.967  27.557  1.00  0.00     0.031 C 
ATOM     60  C   UNL A   1      36.855  32.351  31.906  1.00  0.00     0.029 A 
ATOM     61  C   UNL A   1      37.735  31.543  31.203  1.00  0.00     0.049 A 
ATOM     62  H   UNL A   1      39.537  30.662  31.852  1.00  0.00     0.167 HD
ATOM     63  C   UNL A   1      38.541  30.283  29.227  1.00  0.00     0.074 A 
ATOM     64  C   UNL A   1      38.396  29.772  27.880  1.00  0.00     0.031 C 
ATOM     65  C   UNL A   1      37.627  31.071  29.846  1.00  0.00     0.034 A 
BRANCH  52  66
ATOM     66  C   UNL A   1      38.996  32.381  35.720  1.00  0.00     0.023 A 
ATOM     67  C   UNL A   1      39.279  33.754  35.871  1.00  0.00     0.012 A 
ATOM     68  C   UNL A   1      38.282  31.703  36.726  1.00  0.00     0.148 A 
ATOM     69  C   UNL A   1      38.871  34.438  37.015  1.00  0.00     0.002 A 
ATOM     70  C   UNL A   1      37.847  32.401  37.847  1.00  0.00     0.091 A 
ATOM     71  F   UNL A   1      38.048  30.392  36.572  1.00  0.00    -0.205 F 
ATOM     72  C   UNL A   1      38.147  33.766  37.996  1.00  0.00     0.022 A 
BRANCH  70  73
ATOM     73  S   UNL A   1      36.850  31.642  39.133  1.00  0.00     0.127 S 
ATOM     74  O   UNL A   1      37.696  31.830  40.311  1.00  0.00    -0.237 OA
ATOM     75  O   UNL A   1      35.641  32.466  39.114  1.00  0.00    -0.237 OA
ATOM     76  O   UNL A   1      36.650  30.260  38.721  1.00  0.00    -0.744 OA
ENDBRANCH  70  73
ENDBRANCH  52  66
BRANCH  53  77
ATOM     77  C   UNL A   1      41.996  27.584  27.491  1.00  0.00     0.023 A 
ATOM     78  C   UNL A   1      42.500  28.310  26.395  1.00  0.00     0.012 A 
ATOM     79  C   UNL A   1      41.950  26.178  27.422  1.00  0.00     0.148 A 
ATOM     80  C   UNL A   1      42.938  27.650  25.247  1.00  0.00     0.002 A 
ATOM     81  C   UNL A   1      42.437  25.524  26.296  1.00  0.00     0.091 A 
ATOM     82  F   UNL A   1      41.446  25.508  28.468  1.00  0.00    -0.205 F 
ATOM     83  C   UNL A   1      42.918  26.259  25.202  1.00  0.00     0.022 A 
BRANCH  81  84
ATOM     84  S   UNL A   1      42.569  23.736  26.201  1.00  0.00     0.127 S 
ATOM     85  O   UNL A   1      41.173  23.325  26.340  1.00  0.00    -0.237 OA
ATOM     86  O   UNL A   1      43.138  23.547  24.866  1.00  0.00    -0.237 OA
ATOM     87  O   UNL A   1      43.453  23.349  27.292  1.00  0.00    -0.744 OA
ENDBRANCH  81  84
ENDBRANCH  53  77
BRANCH  65  88
ATOM     88  C   UNL A   1      36.386  31.452  29.085  1.00  0.00     0.023 A 
ATOM     89  C   UNL A   1      36.127  32.811  28.818  1.00  0.00     0.012 A 
ATOM     90  C   UNL A   1      35.545  30.465  28.532  1.00  0.00     0.148 A 
ATOM     91  C   UNL A   1      35.042  33.183  28.024  1.00  0.00     0.002 A 
ATOM     92  C   UNL A   1      34.492  30.841  27.705  1.00  0.00     0.091 A 
ATOM     93  F   UNL A   1      35.797  29.179  28.814  1.00  0.00    -0.205 F 
ATOM     94  C   UNL A   1      34.235  32.200  27.456  1.00  0.00     0.022 A 
BRANCH  92  95
ATOM     95  S   UNL A   1      33.466  29.637  26.853  1.00  0.00     0.127 S 
ATOM     96  O   UNL A   1      32.518  30.498  26.149  1.00  0.00    -0.237 OA
ATOM     97  O   UNL A   1      34.431  28.957  25.988  1.00  0.00    -0.237 OA
ATOM     98  O   UNL A   1      32.895  28.794  27.896  1.00  0.00    -0.744 OA
ENDBRANCH  92  95
ENDBRANCH  65  88
ENDBRANCH  39  40
ENDBRANCH  32  34
ENDBRANCH  31  32
ENDBRANCH  30  31
ENDBRANCH  29  30
ENDBRANCH  28  29
ENDBRANCH  27  28
ENDBRANCH   1  27
TORSDOF 25
ENDMDL
