MODEL 1
REMARK VINA RESULT:     -10.4      0.000      0.000
REMARK SMILES O=C(OCCOCCOCCOC(=O)[C@@H]1CCCN1S(=O)(=O)c1ccc2c3c(cccc13)C(=O)N2)c1ccc(-c2c3nc(c(-c4cccc(S(=O)(=O)[O-])c4F)c4ccc([nH]4)c(-c4cccc(S(=O)(=O)[O-])c4F)c4nc(c(-c5cccc(S(=O)(=O)[O-])c5F)c5ccc2[nH]5)C=C4)C=C3)cc1
REMARK SMILES IDX 7 1 6 2 5 3 4 4 3 5 2 6 1 7 36 8 37 9 98 10 38 11 97 12
REMARK SMILES IDX 39 13 40 14 41 15 91 16 42 17 96 18 90 19 92 20 43 21 95 22
REMARK SMILES IDX 89 23 88 24 44 26 76 27 56 28 75 29 57 30 60 31 74 32 93 33
REMARK SMILES IDX 58 34 59 35 73 37 94 38 61 39 45 40 46 41 54 42 47 43 49 44
REMARK SMILES IDX 55 45 48 46 50 47 51 48 52 49 53 50 77 51 78 52 86 53 79 54
REMARK SMILES IDX 81 55 87 56 80 57 82 58 83 59 84 60 85 61 62 62 63 63 71 64
REMARK SMILES IDX 64 65 66 66 72 67 65 68 67 69 68 70 69 71 70 72 8 73 9 74
REMARK SMILES IDX 10 75 11 76 12 77 13 78 14 79 15 80 16 81 19 82 17 83 18 84
REMARK SMILES IDX 20 85 21 86 22 87 23 88 24 89 32 90 25 91 27 92 31 93 26 94
REMARK SMILES IDX 28 95 30 96 35 97 29 98 33 99 34 101
REMARK H PARENT 92 25 60 36 35 100
REMARK Flexibility Score: inf
ROOT
ATOM      1  C   UNL A   1      33.269  34.177  28.263  1.00  0.00     0.188 C 
ENDROOT
BRANCH   1   2
ATOM      2  O   UNL A   1      32.639  35.293  28.891  1.00  0.00    -0.376 OA
BRANCH   2   3
ATOM      3  C   UNL A   1      33.564  36.257  29.401  1.00  0.00     0.202 C 
BRANCH   3   4
ATOM      4  C   UNL A   1      32.910  37.223  30.389  1.00  0.00     0.261 C 
BRANCH   4   5
ATOM      5  O   UNL A   1      33.117  36.757  31.737  1.00  0.00    -0.460 OA
BRANCH   5   6
ATOM      6  C   UNL A   1      33.100  35.506  32.253  1.00  0.00     0.338 C 
ATOM      7  O   UNL A   1      32.000  35.004  32.484  1.00  0.00    -0.246 OA
BRANCH   6   8
ATOM      8  C   UNL A   1      34.312  34.683  32.579  1.00  0.00     0.060 A 
ATOM      9  C   UNL A   1      34.302  33.359  33.003  1.00  0.00     0.016 A 
ATOM     10  C   UNL A   1      35.573  35.270  32.342  1.00  0.00     0.016 A 
ATOM     11  C   UNL A   1      35.490  32.659  33.213  1.00  0.00     0.010 A 
ATOM     12  C   UNL A   1      36.774  34.578  32.581  1.00  0.00     0.010 A 
ATOM     13  C   UNL A   1      36.733  33.267  33.049  1.00  0.00    -0.014 A 
BRANCH  13  14
ATOM     14  C   UNL A   1      37.913  32.536  33.567  1.00  0.00     0.031 A 
ATOM     15  C   UNL A   1      38.631  31.613  32.627  1.00  0.00     0.074 A 
ATOM     16  C   UNL A   1      38.437  32.810  34.775  1.00  0.00     0.049 A 
ATOM     17  N   UNL A   1      39.726  30.934  32.826  1.00  0.00    -0.248 NA
ATOM     18  C   UNL A   1      38.035  31.419  31.292  1.00  0.00     0.031 C 
ATOM     19  C   UNL A   1      37.841  33.704  35.761  1.00  0.00     0.029 A 
ATOM     20  N   UNL A   1      39.623  32.425  35.352  1.00  0.00    -0.354 N 
ATOM     21  C   UNL A   1      39.890  30.154  31.692  1.00  0.00     0.074 A 
ATOM     22  C   UNL A   1      38.849  30.518  30.759  1.00  0.00     0.031 C 
ATOM     23  C   UNL A   1      38.723  33.913  36.752  1.00  0.00     0.029 A 
ATOM     24  C   UNL A   1      39.907  33.083  36.530  1.00  0.00     0.049 A 
ATOM     25  H   UNL A   1      40.216  31.744  34.961  1.00  0.00     0.167 HD
ATOM     26  C   UNL A   1      40.788  29.169  31.486  1.00  0.00     0.034 A 
ATOM     27  C   UNL A   1      40.987  33.009  37.338  1.00  0.00     0.034 A 
ATOM     28  C   UNL A   1      41.810  28.803  32.422  1.00  0.00     0.049 A 
ATOM     29  C   UNL A   1      42.021  31.952  37.047  1.00  0.00     0.074 A 
ATOM     30  C   UNL A   1      42.708  27.755  32.340  1.00  0.00     0.029 A 
ATOM     31  N   UNL A   1      42.063  29.466  33.611  1.00  0.00    -0.354 N 
ATOM     32  N   UNL A   1      42.141  31.185  35.991  1.00  0.00    -0.248 NA
ATOM     33  C   UNL A   1      43.024  31.692  38.092  1.00  0.00     0.031 C 
ATOM     34  C   UNL A   1      43.492  27.770  33.495  1.00  0.00     0.029 A 
ATOM     35  C   UNL A   1      43.100  28.844  34.277  1.00  0.00     0.049 A 
ATOM     36  H   UNL A   1      41.577  30.259  33.932  1.00  0.00     0.167 HD
ATOM     37  C   UNL A   1      43.191  30.319  36.267  1.00  0.00     0.074 A 
ATOM     38  C   UNL A   1      43.725  30.700  37.557  1.00  0.00     0.031 C 
ATOM     39  C   UNL A   1      43.633  29.262  35.546  1.00  0.00     0.034 A 
BRANCH  26  40
ATOM     40  C   UNL A   1      40.645  28.338  30.249  1.00  0.00     0.023 A 
ATOM     41  C   UNL A   1      39.612  27.393  30.142  1.00  0.00     0.012 A 
ATOM     42  C   UNL A   1      41.492  28.586  29.151  1.00  0.00     0.148 A 
ATOM     43  C   UNL A   1      39.416  26.708  28.944  1.00  0.00     0.002 A 
ATOM     44  C   UNL A   1      41.273  27.922  27.954  1.00  0.00     0.091 A 
ATOM     45  F   UNL A   1      42.480  29.481  29.299  1.00  0.00    -0.205 F 
ATOM     46  C   UNL A   1      40.236  26.981  27.849  1.00  0.00     0.022 A 
BRANCH  44  47
ATOM     47  S   UNL A   1      42.246  28.240  26.479  1.00  0.00     0.127 S 
ATOM     48  O   UNL A   1      43.527  27.630  26.834  1.00  0.00    -0.237 OA
ATOM     49  O   UNL A   1      41.487  27.519  25.458  1.00  0.00    -0.237 OA
ATOM     50  O   UNL A   1      42.283  29.686  26.320  1.00  0.00    -0.744 OA
ENDBRANCH  44  47
ENDBRANCH  26  40
BRANCH  27  51
ATOM     51  C   UNL A   1      41.132  33.901  38.527  1.00  0.00     0.023 A 
ATOM     52  C   UNL A   1      40.539  33.539  39.755  1.00  0.00     0.012 A 
ATOM     53  C   UNL A   1      41.857  35.105  38.458  1.00  0.00     0.148 A 
ATOM     54  C   UNL A   1      40.665  34.359  40.881  1.00  0.00     0.002 A 
ATOM     55  C   UNL A   1      42.049  35.872  39.601  1.00  0.00     0.091 A 
ATOM     56  F   UNL A   1      42.357  35.479  37.272  1.00  0.00    -0.205 F 
ATOM     57  C   UNL A   1      41.439  35.514  40.810  1.00  0.00     0.022 A 
BRANCH  55  58
ATOM     58  S   UNL A   1      43.181  37.267  39.617  1.00  0.00     0.127 S 
ATOM     59  O   UNL A   1      42.837  37.920  40.877  1.00  0.00    -0.237 OA
ATOM     60  O   UNL A   1      44.484  36.601  39.600  1.00  0.00    -0.237 OA
ATOM     61  O   UNL A   1      42.883  38.017  38.404  1.00  0.00    -0.744 OA
ENDBRANCH  55  58
ENDBRANCH  27  51
BRANCH  39  62
ATOM     62  C   UNL A   1      44.719  28.405  36.129  1.00  0.00     0.023 A 
ATOM     63  C   UNL A   1      46.061  28.708  35.829  1.00  0.00     0.012 A 
ATOM     64  C   UNL A   1      44.420  27.431  37.100  1.00  0.00     0.148 A 
ATOM     65  C   UNL A   1      47.096  28.052  36.493  1.00  0.00     0.002 A 
ATOM     66  C   UNL A   1      45.455  26.805  37.781  1.00  0.00     0.091 A 
ATOM     67  F   UNL A   1      43.132  27.169  37.362  1.00  0.00    -0.205 F 
ATOM     68  C   UNL A   1      46.793  27.113  37.478  1.00  0.00     0.022 A 
BRANCH  66  69
ATOM     69  S   UNL A   1      45.169  25.640  39.116  1.00  0.00     0.127 S 
ATOM     70  O   UNL A   1      44.726  24.454  38.385  1.00  0.00    -0.237 OA
ATOM     71  O   UNL A   1      46.498  25.529  39.716  1.00  0.00    -0.237 OA
ATOM     72  O   UNL A   1      44.161  26.247  39.974  1.00  0.00    -0.744 OA
ENDBRANCH  66  69
ENDBRANCH  39  62
ENDBRANCH  13  14
ENDBRANCH   6   8
ENDBRANCH   5   6
ENDBRANCH   4   5
ENDBRANCH   3   4
ENDBRANCH   2   3
ENDBRANCH   1   2
BRANCH   1  73
ATOM     73  C   UNL A   1      34.475  33.679  29.063  1.00  0.00     0.188 C 
BRANCH  73  74
ATOM     74  O   UNL A   1      34.390  32.326  29.516  1.00  0.00    -0.376 OA
BRANCH  74  75
ATOM     75  C   UNL A   1      35.306  31.394  28.926  1.00  0.00     0.202 C 
BRANCH  75  76
ATOM     76  C   UNL A   1      34.919  30.912  27.528  1.00  0.00     0.261 C 
BRANCH  76  77
ATOM     77  O   UNL A   1      33.711  30.145  27.673  1.00  0.00    -0.462 OA
BRANCH  77  78
ATOM     78  C   UNL A   1      32.647  30.524  26.935  1.00  0.00     0.324 C 
ATOM     79  O   UNL A   1      32.496  31.656  26.486  1.00  0.00    -0.250 OA
BRANCH  78  80
ATOM     80  C   UNL A   1      31.852  29.333  26.497  1.00  0.00     0.183 C 
ATOM     81  C   UNL A   1      32.023  28.186  27.487  1.00  0.00     0.034 C 
ATOM     82  N   UNL A   1      31.786  28.659  25.154  1.00  0.00    -0.184 NA
ATOM     83  C   UNL A   1      31.033  27.175  26.969  1.00  0.00     0.019 C 
ATOM     84  C   UNL A   1      31.009  27.398  25.458  1.00  0.00     0.103 C 
BRANCH  82  85
ATOM     85  S   UNL A   1      33.195  28.370  24.210  1.00  0.00     0.244 S 
ATOM     86  O   UNL A   1      33.140  29.283  23.087  1.00  0.00    -0.207 OA
ATOM     87  O   UNL A   1      34.337  28.367  25.098  1.00  0.00    -0.207 OA
BRANCH  85  88
ATOM     88  C   UNL A   1      33.107  26.694  23.550  1.00  0.00     0.090 A 
ATOM     89  C   UNL A   1      32.897  26.591  22.152  1.00  0.00     0.024 A 
ATOM     90  C   UNL A   1      33.398  25.503  24.318  1.00  0.00     0.005 A 
ATOM     91  C   UNL A   1      32.749  25.358  21.497  1.00  0.00     0.028 A 
ATOM     92  C   UNL A   1      33.193  24.335  23.633  1.00  0.00     0.019 A 
ATOM     93  C   UNL A   1      33.892  25.267  25.638  1.00  0.00     0.010 A 
ATOM     94  C   UNL A   1      32.857  24.245  22.300  1.00  0.00     0.050 A 
ATOM     95  C   UNL A   1      33.299  23.037  24.124  1.00  0.00     0.050 A 
ATOM     96  C   UNL A   1      34.047  23.961  26.170  1.00  0.00     0.002 A 
ATOM     97  N   UNL A   1      32.699  22.908  21.990  1.00  0.00    -0.321 N 
ATOM     98  C   UNL A   1      33.724  22.819  25.428  1.00  0.00     0.014 A 
ATOM     99  C   UNL A   1      32.939  22.082  23.093  1.00  0.00     0.256 C 
ATOM    100  H   UNL A   1      32.448  22.576  21.099  1.00  0.00     0.170 HD
ATOM    101  O   UNL A   1      32.815  20.867  23.088  1.00  0.00    -0.269 OA
ENDBRANCH  85  88
ENDBRANCH  82  85
ENDBRANCH  78  80
ENDBRANCH  77  78
ENDBRANCH  76  77
ENDBRANCH  75  76
ENDBRANCH  74  75
ENDBRANCH  73  74
ENDBRANCH   1  73
TORSDOF 22
ENDMDL
MODEL 2
REMARK VINA RESULT:     -10.3      3.385      9.922
REMARK SMILES O=C(OCCOCCOCCOC(=O)[C@@H]1CCCN1S(=O)(=O)c1ccc2c3c(cccc13)C(=O)N2)c1ccc(-c2c3nc(c(-c4cccc(S(=O)(=O)[O-])c4F)c4ccc([nH]4)c(-c4cccc(S(=O)(=O)[O-])c4F)c4nc(c(-c5cccc(S(=O)(=O)[O-])c5F)c5ccc2[nH]5)C=C4)C=C3)cc1
REMARK SMILES IDX 7 1 6 2 5 3 4 4 3 5 2 6 1 7 36 8 37 9 98 10 38 11 97 12
REMARK SMILES IDX 39 13 40 14 41 15 91 16 42 17 96 18 90 19 92 20 43 21 95 22
REMARK SMILES IDX 89 23 88 24 44 26 76 27 56 28 75 29 57 30 60 31 74 32 93 33
REMARK SMILES IDX 58 34 59 35 73 37 94 38 61 39 45 40 46 41 54 42 47 43 49 44
REMARK SMILES IDX 55 45 48 46 50 47 51 48 52 49 53 50 77 51 78 52 86 53 79 54
REMARK SMILES IDX 81 55 87 56 80 57 82 58 83 59 84 60 85 61 62 62 63 63 71 64
REMARK SMILES IDX 64 65 66 66 72 67 65 68 67 69 68 70 69 71 70 72 8 73 9 74
REMARK SMILES IDX 10 75 11 76 12 77 13 78 14 79 15 80 16 81 19 82 17 83 18 84
REMARK SMILES IDX 20 85 21 86 22 87 23 88 24 89 32 90 25 91 27 92 31 93 26 94
REMARK SMILES IDX 28 95 30 96 35 97 29 98 33 99 34 101
REMARK H PARENT 92 25 60 36 35 100
REMARK Flexibility Score: inf
ROOT
ATOM      1  C   UNL A   1      39.553  20.796  25.814  1.00  0.00     0.188 C 
ENDROOT
BRANCH   1   2
ATOM      2  O   UNL A   1      40.815  20.194  25.529  1.00  0.00    -0.376 OA
BRANCH   2   3
ATOM      3  C   UNL A   1      41.814  20.472  26.513  1.00  0.00     0.202 C 
BRANCH   3   4
ATOM      4  C   UNL A   1      43.139  20.911  25.888  1.00  0.00     0.261 C 
BRANCH   4   5
ATOM      5  O   UNL A   1      42.928  22.076  25.065  1.00  0.00    -0.460 OA
BRANCH   5   6
ATOM      6  C   UNL A   1      43.351  23.352  25.215  1.00  0.00     0.338 C 
ATOM      7  O   UNL A   1      44.093  23.808  24.345  1.00  0.00    -0.246 OA
BRANCH   6   8
ATOM      8  C   UNL A   1      43.002  24.256  26.362  1.00  0.00     0.060 A 
ATOM      9  C   UNL A   1      42.533  23.842  27.603  1.00  0.00     0.016 A 
ATOM     10  C   UNL A   1      43.262  25.633  26.200  1.00  0.00     0.016 A 
ATOM     11  C   UNL A   1      42.303  24.759  28.630  1.00  0.00     0.010 A 
ATOM     12  C   UNL A   1      43.003  26.564  27.222  1.00  0.00     0.010 A 
ATOM     13  C   UNL A   1      42.491  26.127  28.441  1.00  0.00    -0.014 A 
BRANCH  13  14
ATOM     14  C   UNL A   1      41.953  27.030  29.484  1.00  0.00     0.031 A 
ATOM     15  C   UNL A   1      42.891  27.497  30.557  1.00  0.00     0.074 A 
ATOM     16  C   UNL A   1      40.720  27.560  29.389  1.00  0.00     0.049 A 
ATOM     17  N   UNL A   1      42.673  28.347  31.522  1.00  0.00    -0.248 NA
ATOM     18  C   UNL A   1      44.251  26.925  30.553  1.00  0.00     0.031 C 
ATOM     19  C   UNL A   1      39.732  27.200  28.379  1.00  0.00     0.029 A 
ATOM     20  N   UNL A   1      40.113  28.564  30.103  1.00  0.00    -0.354 N 
ATOM     21  C   UNL A   1      43.821  28.330  32.297  1.00  0.00     0.074 A 
ATOM     22  C   UNL A   1      44.780  27.473  31.638  1.00  0.00     0.031 C 
ATOM     23  C   UNL A   1      38.704  28.064  28.445  1.00  0.00     0.029 A 
ATOM     24  C   UNL A   1      38.908  28.973  29.572  1.00  0.00     0.049 A 
ATOM     25  H   UNL A   1      40.501  28.956  30.919  1.00  0.00     0.167 HD
ATOM     26  C   UNL A   1      44.023  28.922  33.493  1.00  0.00     0.034 A 
ATOM     27  C   UNL A   1      38.065  29.955  29.962  1.00  0.00     0.034 A 
ATOM     28  C   UNL A   1      43.062  29.759  34.149  1.00  0.00     0.049 A 
ATOM     29  C   UNL A   1      38.348  30.660  31.264  1.00  0.00     0.074 A 
ATOM     30  C   UNL A   1      43.142  30.328  35.406  1.00  0.00     0.029 A 
ATOM     31  N   UNL A   1      41.848  30.139  33.604  1.00  0.00    -0.354 N 
ATOM     32  N   UNL A   1      39.420  30.602  32.016  1.00  0.00    -0.248 NA
ATOM     33  C   UNL A   1      37.276  31.504  31.813  1.00  0.00     0.031 C 
ATOM     34  C   UNL A   1      41.960  31.036  35.633  1.00  0.00     0.029 A 
ATOM     35  C   UNL A   1      41.162  30.930  34.504  1.00  0.00     0.049 A 
ATOM     36  H   UNL A   1      41.522  29.884  32.711  1.00  0.00     0.167 HD
ATOM     37  C   UNL A   1      39.131  31.352  33.148  1.00  0.00     0.074 A 
ATOM     38  C   UNL A   1      37.814  31.919  32.954  1.00  0.00     0.031 C 
ATOM     39  C   UNL A   1      39.865  31.507  34.275  1.00  0.00     0.034 A 
BRANCH  26  40
ATOM     40  C   UNL A   1      45.286  28.601  34.229  1.00  0.00     0.023 A 
ATOM     41  C   UNL A   1      46.397  29.457  34.142  1.00  0.00     0.012 A 
ATOM     42  C   UNL A   1      45.317  27.490  35.095  1.00  0.00     0.148 A 
ATOM     43  C   UNL A   1      47.527  29.212  34.922  1.00  0.00     0.002 A 
ATOM     44  C   UNL A   1      46.432  27.270  35.887  1.00  0.00     0.091 A 
ATOM     45  F   UNL A   1      44.244  26.686  35.135  1.00  0.00    -0.205 F 
ATOM     46  C   UNL A   1      47.539  28.129  35.801  1.00  0.00     0.022 A 
BRANCH  44  47
ATOM     47  S   UNL A   1      46.522  25.932  37.080  1.00  0.00     0.127 S 
ATOM     48  O   UNL A   1      47.879  26.094  37.603  1.00  0.00    -0.237 OA
ATOM     49  O   UNL A   1      45.459  26.291  38.017  1.00  0.00    -0.237 OA
ATOM     50  O   UNL A   1      46.301  24.704  36.331  1.00  0.00    -0.744 OA
ENDBRANCH  44  47
ENDBRANCH  26  40
BRANCH  27  51
ATOM     51  C   UNL A   1      36.847  30.296  29.167  1.00  0.00     0.023 A 
ATOM     52  C   UNL A   1      36.040  29.266  28.640  1.00  0.00     0.012 A 
ATOM     53  C   UNL A   1      36.475  31.632  28.931  1.00  0.00     0.148 A 
ATOM     54  C   UNL A   1      34.894  29.565  27.894  1.00  0.00     0.002 A 
ATOM     55  C   UNL A   1      35.291  31.921  28.262  1.00  0.00     0.091 A 
ATOM     56  F   UNL A   1      37.285  32.605  29.372  1.00  0.00    -0.205 F 
ATOM     57  C   UNL A   1      34.508  30.891  27.725  1.00  0.00     0.022 A 
BRANCH  55  58
ATOM     58  S   UNL A   1      34.648  33.595  28.171  1.00  0.00     0.127 S 
ATOM     59  O   UNL A   1      33.287  33.369  27.691  1.00  0.00    -0.237 OA
ATOM     60  O   UNL A   1      34.749  34.036  29.563  1.00  0.00    -0.237 OA
ATOM     61  O   UNL A   1      35.540  34.300  27.260  1.00  0.00    -0.744 OA
ENDBRANCH  55  58
ENDBRANCH  27  51
BRANCH  39  62
ATOM     62  C   UNL A   1      39.268  32.282  35.414  1.00  0.00     0.023 A 
ATOM     63  C   UNL A   1      39.143  33.679  35.296  1.00  0.00     0.012 A 
ATOM     64  C   UNL A   1      38.676  31.615  36.503  1.00  0.00     0.148 A 
ATOM     65  C   UNL A   1      38.432  34.406  36.250  1.00  0.00     0.002 A 
ATOM     66  C   UNL A   1      37.942  32.340  37.431  1.00  0.00     0.091 A 
ATOM     67  F   UNL A   1      38.813  30.284  36.583  1.00  0.00    -0.205 F 
ATOM     68  C   UNL A   1      37.821  33.735  37.307  1.00  0.00     0.022 A 
BRANCH  66  69
ATOM     69  S   UNL A   1      37.054  31.562  38.783  1.00  0.00     0.127 S 
ATOM     70  O   UNL A   1      38.023  31.668  39.874  1.00  0.00    -0.237 OA
ATOM     71  O   UNL A   1      35.882  32.426  38.918  1.00  0.00    -0.237 OA
ATOM     72  O   UNL A   1      36.764  30.202  38.347  1.00  0.00    -0.744 OA
ENDBRANCH  66  69
ENDBRANCH  39  62
ENDBRANCH  13  14
ENDBRANCH   6   8
ENDBRANCH   5   6
ENDBRANCH   4   5
ENDBRANCH   3   4
ENDBRANCH   2   3
ENDBRANCH   1   2
BRANCH   1  73
ATOM     73  C   UNL A   1      39.709  22.116  26.571  1.00  0.00     0.188 C 
BRANCH  73  74
ATOM     74  O   UNL A   1      38.684  23.082  26.330  1.00  0.00    -0.376 OA
BRANCH  74  75
ATOM     75  C   UNL A   1      37.423  22.577  25.872  1.00  0.00     0.202 C 
BRANCH  75  76
ATOM     76  C   UNL A   1      36.278  23.590  25.901  1.00  0.00     0.261 C 
BRANCH  76  77
ATOM     77  O   UNL A   1      35.109  22.884  26.355  1.00  0.00    -0.462 OA
BRANCH  77  78
ATOM     78  C   UNL A   1      33.908  23.395  26.013  1.00  0.00     0.324 C 
ATOM     79  O   UNL A   1      33.550  24.537  26.284  1.00  0.00    -0.250 OA
BRANCH  78  80
ATOM     80  C   UNL A   1      33.215  22.508  25.026  1.00  0.00     0.183 C 
ATOM     81  C   UNL A   1      33.992  21.209  24.840  1.00  0.00     0.034 C 
ATOM     82  N   UNL A   1      32.681  22.823  23.655  1.00  0.00    -0.184 NA
ATOM     83  C   UNL A   1      33.062  20.410  23.965  1.00  0.00     0.019 C 
ATOM     84  C   UNL A   1      32.341  21.453  23.113  1.00  0.00     0.103 C 
BRANCH  82  85
ATOM     85  S   UNL A   1      33.561  23.790  22.537  1.00  0.00     0.244 S 
ATOM     86  O   UNL A   1      34.947  23.755  22.954  1.00  0.00    -0.207 OA
ATOM     87  O   UNL A   1      33.187  23.383  21.200  1.00  0.00    -0.207 OA
BRANCH  85  88
ATOM     88  C   UNL A   1      32.993  25.495  22.686  1.00  0.00     0.090 A 
ATOM     89  C   UNL A   1      33.897  26.489  22.237  1.00  0.00     0.024 A 
ATOM     90  C   UNL A   1      31.649  25.872  23.066  1.00  0.00     0.005 A 
ATOM     91  C   UNL A   1      33.626  27.863  22.339  1.00  0.00     0.028 A 
ATOM     92  C   UNL A   1      31.463  27.224  23.188  1.00  0.00     0.019 A 
ATOM     93  C   UNL A   1      30.443  25.145  23.313  1.00  0.00     0.010 A 
ATOM     94  C   UNL A   1      32.399  28.185  22.874  1.00  0.00     0.050 A 
ATOM     95  C   UNL A   1      30.318  27.884  23.622  1.00  0.00     0.050 A 
ATOM     96  C   UNL A   1      29.243  25.778  23.726  1.00  0.00     0.002 A 
ATOM     97  N   UNL A   1      31.855  29.420  23.170  1.00  0.00    -0.321 N 
ATOM     98  C   UNL A   1      29.168  27.163  23.916  1.00  0.00     0.014 A 
ATOM     99  C   UNL A   1      30.552  29.316  23.667  1.00  0.00     0.256 C 
ATOM    100  H   UNL A   1      32.329  30.273  23.044  1.00  0.00     0.170 HD
ATOM    101  O   UNL A   1      29.878  30.260  24.046  1.00  0.00    -0.269 OA
ENDBRANCH  85  88
ENDBRANCH  82  85
ENDBRANCH  78  80
ENDBRANCH  77  78
ENDBRANCH  76  77
ENDBRANCH  75  76
ENDBRANCH  74  75
ENDBRANCH  73  74
ENDBRANCH   1  73
TORSDOF 22
ENDMDL
MODEL 3
REMARK VINA RESULT:      -9.6      6.799      8.954
REMARK SMILES O=C(OCCOCCOCCOC(=O)[C@@H]1CCCN1S(=O)(=O)c1ccc2c3c(cccc13)C(=O)N2)c1ccc(-c2c3nc(c(-c4cccc(S(=O)(=O)[O-])c4F)c4ccc([nH]4)c(-c4cccc(S(=O)(=O)[O-])c4F)c4nc(c(-c5cccc(S(=O)(=O)[O-])c5F)c5ccc2[nH]5)C=C4)C=C3)cc1
REMARK SMILES IDX 7 1 6 2 5 3 4 4 3 5 2 6 1 7 36 8 37 9 98 10 38 11 97 12
REMARK SMILES IDX 39 13 40 14 41 15 91 16 42 17 96 18 90 19 92 20 43 21 95 22
REMARK SMILES IDX 89 23 88 24 44 26 76 27 56 28 75 29 57 30 60 31 74 32 93 33
REMARK SMILES IDX 58 34 59 35 73 37 94 38 61 39 45 40 46 41 54 42 47 43 49 44
REMARK SMILES IDX 55 45 48 46 50 47 51 48 52 49 53 50 77 51 78 52 86 53 79 54
REMARK SMILES IDX 81 55 87 56 80 57 82 58 83 59 84 60 85 61 62 62 63 63 71 64
REMARK SMILES IDX 64 65 66 66 72 67 65 68 67 69 68 70 69 71 70 72 8 73 9 74
REMARK SMILES IDX 10 75 11 76 12 77 13 78 14 79 15 80 16 81 19 82 17 83 18 84
REMARK SMILES IDX 20 85 21 86 22 87 23 88 24 89 32 90 25 91 27 92 31 93 26 94
REMARK SMILES IDX 28 95 30 96 35 97 29 98 33 99 34 101
REMARK H PARENT 92 25 60 36 35 100
REMARK Flexibility Score: inf
ROOT
ATOM      1  C   UNL A   1      35.180  32.024  29.531  1.00  0.00     0.188 C 
ENDROOT
BRANCH   1   2
ATOM      2  O   UNL A   1      36.332  31.782  30.337  1.00  0.00    -0.376 OA
BRANCH   2   3
ATOM      3  C   UNL A   1      36.156  30.720  31.278  1.00  0.00     0.202 C 
BRANCH   3   4
ATOM      4  C   UNL A   1      36.535  29.359  30.695  1.00  0.00     0.261 C 
BRANCH   4   5
ATOM      5  O   UNL A   1      37.314  28.617  31.655  1.00  0.00    -0.460 OA
BRANCH   5   6
ATOM      6  C   UNL A   1      38.518  28.883  32.212  1.00  0.00     0.338 C 
ATOM      7  O   UNL A   1      38.748  28.401  33.321  1.00  0.00    -0.246 OA
BRANCH   6   8
ATOM      8  C   UNL A   1      39.594  29.728  31.595  1.00  0.00     0.060 A 
ATOM      9  C   UNL A   1      39.657  30.111  30.260  1.00  0.00     0.016 A 
ATOM     10  C   UNL A   1      40.573  30.260  32.461  1.00  0.00     0.016 A 
ATOM     11  C   UNL A   1      40.664  30.959  29.798  1.00  0.00     0.010 A 
ATOM     12  C   UNL A   1      41.607  31.090  31.994  1.00  0.00     0.010 A 
ATOM     13  C   UNL A   1      41.671  31.421  30.643  1.00  0.00    -0.014 A 
BRANCH  13  14
ATOM     14  C   UNL A   1      42.838  32.073  30.004  1.00  0.00     0.031 A 
ATOM     15  C   UNL A   1      43.910  31.190  29.439  1.00  0.00     0.074 A 
ATOM     16  C   UNL A   1      42.866  33.399  29.776  1.00  0.00     0.049 A 
ATOM     17  N   UNL A   1      44.977  31.525  28.768  1.00  0.00    -0.248 NA
ATOM     18  C   UNL A   1      43.772  29.739  29.667  1.00  0.00     0.031 C 
ATOM     19  C   UNL A   1      41.871  34.350  30.257  1.00  0.00     0.029 A 
ATOM     20  N   UNL A   1      43.722  34.166  29.023  1.00  0.00    -0.354 N 
ATOM     21  C   UNL A   1      45.687  30.349  28.589  1.00  0.00     0.074 A 
ATOM     22  C   UNL A   1      44.886  29.271  29.122  1.00  0.00     0.031 C 
ATOM     23  C   UNL A   1      42.088  35.542  29.674  1.00  0.00     0.029 A 
ATOM     24  C   UNL A   1      43.302  35.469  28.861  1.00  0.00     0.049 A 
ATOM     25  H   UNL A   1      44.556  33.818  28.635  1.00  0.00     0.167 HD
ATOM     26  C   UNL A   1      46.932  30.200  28.091  1.00  0.00     0.034 A 
ATOM     27  C   UNL A   1      43.845  36.484  28.154  1.00  0.00     0.034 A 
ATOM     28  C   UNL A   1      47.727  31.276  27.578  1.00  0.00     0.049 A 
ATOM     29  C   UNL A   1      45.204  36.274  27.538  1.00  0.00     0.074 A 
ATOM     30  C   UNL A   1      49.037  31.235  27.137  1.00  0.00     0.029 A 
ATOM     31  N   UNL A   1      47.291  32.583  27.444  1.00  0.00    -0.354 N 
ATOM     32  N   UNL A   1      45.890  35.164  27.415  1.00  0.00    -0.248 NA
ATOM     33  C   UNL A   1      45.901  37.468  27.033  1.00  0.00     0.031 C 
ATOM     34  C   UNL A   1      49.403  32.528  26.758  1.00  0.00     0.029 A 
ATOM     35  C   UNL A   1      48.311  33.363  26.935  1.00  0.00     0.049 A 
ATOM     36  H   UNL A   1      46.392  32.907  27.678  1.00  0.00     0.167 HD
ATOM     37  C   UNL A   1      47.115  35.533  26.874  1.00  0.00     0.074 A 
ATOM     38  C   UNL A   1      47.054  36.956  26.620  1.00  0.00     0.031 C 
ATOM     39  C   UNL A   1      48.214  34.772  26.664  1.00  0.00     0.034 A 
BRANCH  26  40
ATOM     40  C   UNL A   1      47.563  28.845  28.174  1.00  0.00     0.023 A 
ATOM     41  C   UNL A   1      48.366  28.500  29.274  1.00  0.00     0.012 A 
ATOM     42  C   UNL A   1      47.258  27.881  27.192  1.00  0.00     0.148 A 
ATOM     43  C   UNL A   1      48.852  27.199  29.400  1.00  0.00     0.002 A 
ATOM     44  C   UNL A   1      47.721  26.584  27.340  1.00  0.00     0.091 A 
ATOM     45  F   UNL A   1      46.504  28.255  26.148  1.00  0.00    -0.205 F 
ATOM     46  C   UNL A   1      48.520  26.241  28.443  1.00  0.00     0.022 A 
BRANCH  44  47
ATOM     47  S   UNL A   1      47.309  25.272  26.186  1.00  0.00     0.127 S 
ATOM     48  O   UNL A   1      48.112  25.642  25.020  1.00  0.00    -0.237 OA
ATOM     49  O   UNL A   1      47.777  24.085  26.899  1.00  0.00    -0.237 OA
ATOM     50  O   UNL A   1      45.870  25.347  25.983  1.00  0.00    -0.744 OA
ENDBRANCH  44  47
ENDBRANCH  26  40
BRANCH  27  51
ATOM     51  C   UNL A   1      43.156  37.804  28.033  1.00  0.00     0.023 A 
ATOM     52  C   UNL A   1      42.362  38.082  26.901  1.00  0.00     0.012 A 
ATOM     53  C   UNL A   1      43.272  38.788  29.033  1.00  0.00     0.148 A 
ATOM     54  C   UNL A   1      41.706  39.311  26.770  1.00  0.00     0.002 A 
ATOM     55  C   UNL A   1      42.550  39.972  28.937  1.00  0.00     0.091 A 
ATOM     56  F   UNL A   1      44.084  38.545  30.071  1.00  0.00    -0.205 F 
ATOM     57  C   UNL A   1      41.782  40.246  27.798  1.00  0.00     0.022 A 
BRANCH  55  58
ATOM     58  S   UNL A   1      42.462  41.132  30.304  1.00  0.00     0.127 S 
ATOM     59  O   UNL A   1      41.048  41.496  30.299  1.00  0.00    -0.237 OA
ATOM     60  O   UNL A   1      42.884  40.303  31.434  1.00  0.00    -0.237 OA
ATOM     61  O   UNL A   1      43.399  42.195  29.967  1.00  0.00    -0.744 OA
ENDBRANCH  55  58
ENDBRANCH  27  51
BRANCH  39  62
ATOM     62  C   UNL A   1      49.464  35.444  26.173  1.00  0.00     0.023 A 
ATOM     63  C   UNL A   1      49.674  35.563  24.786  1.00  0.00     0.012 A 
ATOM     64  C   UNL A   1      50.322  36.105  27.071  1.00  0.00     0.148 A 
ATOM     65  C   UNL A   1      50.725  36.336  24.296  1.00  0.00     0.002 A 
ATOM     66  C   UNL A   1      51.347  36.900  26.576  1.00  0.00     0.091 A 
ATOM     67  F   UNL A   1      50.093  35.972  28.384  1.00  0.00    -0.205 F 
ATOM     68  C   UNL A   1      51.551  37.015  25.190  1.00  0.00     0.022 A 
BRANCH  66  69
ATOM     69  S   UNL A   1      52.415  37.874  27.641  1.00  0.00     0.127 S 
ATOM     70  O   UNL A   1      52.045  37.378  28.966  1.00  0.00    -0.237 OA
ATOM     71  O   UNL A   1      53.747  37.475  27.187  1.00  0.00    -0.237 OA
ATOM     72  O   UNL A   1      52.076  39.268  27.388  1.00  0.00    -0.744 OA
ENDBRANCH  66  69
ENDBRANCH  39  62
ENDBRANCH  13  14
ENDBRANCH   6   8
ENDBRANCH   5   6
ENDBRANCH   4   5
ENDBRANCH   3   4
ENDBRANCH   2   3
ENDBRANCH   1   2
BRANCH   1  73
ATOM     73  C   UNL A   1      35.522  32.044  28.040  1.00  0.00     0.188 C 
BRANCH  73  74
ATOM     74  O   UNL A   1      34.930  30.999  27.264  1.00  0.00    -0.376 OA
BRANCH  74  75
ATOM     75  C   UNL A   1      33.609  30.590  27.642  1.00  0.00     0.202 C 
BRANCH  75  76
ATOM     76  C   UNL A   1      32.645  30.378  26.476  1.00  0.00     0.261 C 
BRANCH  76  77
ATOM     77  O   UNL A   1      32.642  28.967  26.190  1.00  0.00    -0.462 OA
BRANCH  77  78
ATOM     78  C   UNL A   1      32.469  28.599  24.904  1.00  0.00     0.324 C 
ATOM     79  O   UNL A   1      33.090  29.087  23.964  1.00  0.00    -0.250 OA
BRANCH  78  80
ATOM     80  C   UNL A   1      31.661  27.341  24.816  1.00  0.00     0.183 C 
ATOM     81  C   UNL A   1      31.191  26.913  26.201  1.00  0.00     0.034 C 
ATOM     82  N   UNL A   1      31.963  26.049  24.108  1.00  0.00    -0.184 NA
ATOM     83  C   UNL A   1      30.277  25.759  25.879  1.00  0.00     0.019 C 
ATOM     84  C   UNL A   1      30.876  25.132  24.621  1.00  0.00     0.103 C 
BRANCH  82  85
ATOM     85  S   UNL A   1      33.525  25.331  24.153  1.00  0.00     0.244 S 
ATOM     86  O   UNL A   1      33.960  25.187  22.779  1.00  0.00    -0.207 OA
ATOM     87  O   UNL A   1      34.330  26.065  25.104  1.00  0.00    -0.207 OA
BRANCH  85  88
ATOM     88  C   UNL A   1      33.372  23.673  24.848  1.00  0.00     0.090 A 
ATOM     89  C   UNL A   1      33.564  23.570  26.249  1.00  0.00     0.024 A 
ATOM     90  C   UNL A   1      32.912  22.521  24.104  1.00  0.00     0.005 A 
ATOM     91  C   UNL A   1      33.533  22.343  26.929  1.00  0.00     0.028 A 
ATOM     92  C   UNL A   1      32.946  21.349  24.814  1.00  0.00     0.019 A 
ATOM     93  C   UNL A   1      32.389  22.330  22.788  1.00  0.00     0.010 A 
ATOM     94  C   UNL A   1      33.266  21.241  26.150  1.00  0.00     0.050 A 
ATOM     95  C   UNL A   1      32.655  20.071  24.350  1.00  0.00     0.050 A 
ATOM     96  C   UNL A   1      32.048  21.049  22.282  1.00  0.00     0.002 A 
ATOM     97  N   UNL A   1      33.230  19.901  26.487  1.00  0.00    -0.321 N 
ATOM     98  C   UNL A   1      32.203  19.889  23.049  1.00  0.00     0.014 A 
ATOM     99  C   UNL A   1      32.874  19.095  25.401  1.00  0.00     0.256 C 
ATOM    100  H   UNL A   1      33.431  19.555  27.386  1.00  0.00     0.170 HD
ATOM    101  O   UNL A   1      32.821  17.876  25.432  1.00  0.00    -0.269 OA
ENDBRANCH  85  88
ENDBRANCH  82  85
ENDBRANCH  78  80
ENDBRANCH  77  78
ENDBRANCH  76  77
ENDBRANCH  75  76
ENDBRANCH  74  75
ENDBRANCH  73  74
ENDBRANCH   1  73
TORSDOF 22
ENDMDL
