MODEL 1
REMARK VINA RESULT:      -9.5      0.000      0.000
REMARK SMILES O=C(OCCOCCOCCOC(=O)c1ccc2c(=O)n(CCC[NH+]3CCOCC3)c(=O)[nH]c2c1)c1ccc(-c2c3nc(c(-c4cccc(S(=O)(=O)[O-])c4F)c4ccc([nH]4)c(-c4cccc(S(=O)(=O)[O-])c4F)c4nc(c(-c5cccc(S(=O)(=O)[O-])c5F)c5ccc2[nH]5)C=C4)C=C3)cc1
REMARK SMILES IDX 8 1 7 2 6 3 5 4 4 5 3 6 2 7 1 8 36 9 37 10 98 11 38 12 97 13
REMARK SMILES IDX 39 14 40 15 41 16 91 17 42 18 96 19 90 20 92 21 43 22 95 23
REMARK SMILES IDX 89 24 88 25 44 27 76 28 56 29 75 30 57 31 60 32 74 33 93 34
REMARK SMILES IDX 58 35 59 36 73 38 94 39 61 40 45 41 46 42 54 43 47 44 49 45
REMARK SMILES IDX 55 46 48 47 50 48 51 49 52 50 53 51 77 52 78 53 86 54 79 55
REMARK SMILES IDX 81 56 87 57 80 58 82 59 83 60 84 61 85 62 62 63 63 64 71 65
REMARK SMILES IDX 64 66 66 67 72 68 65 69 67 70 68 71 69 72 70 73 9 74 10 75
REMARK SMILES IDX 11 76 12 77 13 78 14 79 15 80 16 81 35 82 17 83 34 84 18 85
REMARK SMILES IDX 33 86 19 87 31 88 20 90 21 91 32 92 22 93 23 94 24 95 25 96
REMARK SMILES IDX 26 97 30 98 27 100 29 101 28 102
REMARK H PARENT 92 26 60 37 33 89 25 99
REMARK Flexibility Score: inf
ROOT
ATOM      1  C   UNL A   1      32.879  35.870  30.982  1.00  0.00     0.188 C 
ENDROOT
BRANCH   1   2
ATOM      2  C   UNL A   1      34.080  35.425  31.802  1.00  0.00     0.188 C 
BRANCH   2   3
ATOM      3  O   UNL A   1      33.768  34.614  32.928  1.00  0.00    -0.376 OA
BRANCH   3   4
ATOM      4  C   UNL A   1      34.284  33.291  32.875  1.00  0.00     0.202 C 
BRANCH   4   5
ATOM      5  C   UNL A   1      34.848  32.828  31.521  1.00  0.00     0.261 C 
BRANCH   5   6
ATOM      6  O   UNL A   1      35.702  31.659  31.424  1.00  0.00    -0.460 OA
BRANCH   6   7
ATOM      7  C   UNL A   1      36.800  31.162  32.022  1.00  0.00     0.338 C 
ATOM      8  O   UNL A   1      36.631  30.436  33.004  1.00  0.00    -0.246 OA
BRANCH   7   9
ATOM      9  C   UNL A   1      38.208  31.455  31.628  1.00  0.00     0.060 A 
ATOM     10  C   UNL A   1      38.452  31.688  30.260  1.00  0.00     0.016 A 
ATOM     11  C   UNL A   1      39.290  31.496  32.501  1.00  0.00     0.016 A 
ATOM     12  C   UNL A   1      39.750  31.895  29.783  1.00  0.00     0.010 A 
ATOM     13  C   UNL A   1      40.592  31.637  32.022  1.00  0.00     0.010 A 
ATOM     14  C   UNL A   1      40.837  31.830  30.660  1.00  0.00    -0.014 A 
BRANCH  14  15
ATOM     15  C   UNL A   1      42.201  32.223  30.245  1.00  0.00     0.031 A 
ATOM     16  C   UNL A   1      42.555  33.632  29.855  1.00  0.00     0.074 A 
ATOM     17  C   UNL A   1      43.038  31.204  29.974  1.00  0.00     0.049 A 
ATOM     18  N   UNL A   1      43.713  34.140  29.519  1.00  0.00    -0.248 NA
ATOM     19  C   UNL A   1      41.449  34.597  29.792  1.00  0.00     0.031 C 
ATOM     20  C   UNL A   1      42.681  29.783  30.073  1.00  0.00     0.029 A 
ATOM     21  N   UNL A   1      44.304  31.195  29.466  1.00  0.00    -0.354 N 
ATOM     22  C   UNL A   1      43.489  35.491  29.250  1.00  0.00     0.074 A 
ATOM     23  C   UNL A   1      42.062  35.697  29.372  1.00  0.00     0.031 C 
ATOM     24  C   UNL A   1      43.674  29.045  29.563  1.00  0.00     0.029 A 
ATOM     25  C   UNL A   1      44.745  29.937  29.144  1.00  0.00     0.049 A 
ATOM     26  H   UNL A   1      44.844  32.009  29.344  1.00  0.00     0.167 HD
ATOM     27  C   UNL A   1      44.405  36.466  28.992  1.00  0.00     0.034 A 
ATOM     28  C   UNL A   1      45.894  29.546  28.568  1.00  0.00     0.034 A 
ATOM     29  C   UNL A   1      45.804  36.146  28.810  1.00  0.00     0.049 A 
ATOM     30  C   UNL A   1      46.925  30.598  28.309  1.00  0.00     0.074 A 
ATOM     31  C   UNL A   1      46.897  36.986  28.695  1.00  0.00     0.029 A 
ATOM     32  N   UNL A   1      46.295  34.848  28.684  1.00  0.00    -0.354 N 
ATOM     33  N   UNL A   1      46.821  31.896  28.473  1.00  0.00    -0.248 NA
ATOM     34  C   UNL A   1      48.240  30.141  27.859  1.00  0.00     0.031 C 
ATOM     35  C   UNL A   1      48.040  36.198  28.498  1.00  0.00     0.029 A 
ATOM     36  C   UNL A   1      47.659  34.866  28.455  1.00  0.00     0.049 A 
ATOM     37  H   UNL A   1      45.748  34.033  28.749  1.00  0.00     0.167 HD
ATOM     38  C   UNL A   1      48.069  32.417  28.177  1.00  0.00     0.074 A 
ATOM     39  C   UNL A   1      48.914  31.285  27.832  1.00  0.00     0.031 C 
ATOM     40  C   UNL A   1      48.477  33.711  28.174  1.00  0.00     0.034 A 
BRANCH  27  41
ATOM     41  C   UNL A   1      43.963  37.932  29.086  1.00  0.00     0.023 A 
ATOM     42  C   UNL A   1      43.439  38.517  27.915  1.00  0.00     0.012 A 
ATOM     43  C   UNL A   1      43.898  38.702  30.266  1.00  0.00     0.148 A 
ATOM     44  C   UNL A   1      42.865  39.788  27.888  1.00  0.00     0.002 A 
ATOM     45  C   UNL A   1      43.316  39.981  30.242  1.00  0.00     0.091 A 
ATOM     46  F   UNL A   1      44.366  38.177  31.406  1.00  0.00    -0.205 F 
ATOM     47  C   UNL A   1      42.789  40.516  29.058  1.00  0.00     0.022 A 
BRANCH  45  48
ATOM     48  S   UNL A   1      43.231  41.063  31.677  1.00  0.00     0.127 S 
ATOM     49  O   UNL A   1      44.650  41.300  31.962  1.00  0.00    -0.237 OA
ATOM     50  O   UNL A   1      42.518  42.223  31.150  1.00  0.00    -0.237 OA
ATOM     51  O   UNL A   1      42.540  40.296  32.703  1.00  0.00    -0.744 OA
ENDBRANCH  45  48
ENDBRANCH  27  41
BRANCH  28  52
ATOM     52  C   UNL A   1      46.110  28.095  28.347  1.00  0.00     0.023 A 
ATOM     53  C   UNL A   1      46.437  27.280  29.446  1.00  0.00     0.012 A 
ATOM     54  C   UNL A   1      45.791  27.498  27.110  1.00  0.00     0.148 A 
ATOM     55  C   UNL A   1      46.434  25.890  29.321  1.00  0.00     0.002 A 
ATOM     56  C   UNL A   1      45.763  26.113  27.000  1.00  0.00     0.091 A 
ATOM     57  F   UNL A   1      45.455  28.300  26.090  1.00  0.00    -0.205 F 
ATOM     58  C   UNL A   1      46.087  25.308  28.104  1.00  0.00     0.022 A 
BRANCH  56  59
ATOM     59  S   UNL A   1      45.228  25.263  25.510  1.00  0.00     0.127 S 
ATOM     60  O   UNL A   1      45.095  23.886  25.983  1.00  0.00    -0.237 OA
ATOM     61  O   UNL A   1      43.964  25.939  25.218  1.00  0.00    -0.237 OA
ATOM     62  O   UNL A   1      46.279  25.484  24.526  1.00  0.00    -0.744 OA
ENDBRANCH  56  59
ENDBRANCH  28  52
BRANCH  40  63
ATOM     63  C   UNL A   1      49.900  33.964  27.770  1.00  0.00     0.023 A 
ATOM     64  C   UNL A   1      50.884  34.053  28.774  1.00  0.00     0.012 A 
ATOM     65  C   UNL A   1      50.272  34.041  26.415  1.00  0.00     0.148 A 
ATOM     66  C   UNL A   1      52.222  34.232  28.435  1.00  0.00     0.002 A 
ATOM     67  C   UNL A   1      51.612  34.190  26.084  1.00  0.00     0.091 A 
ATOM     68  F   UNL A   1      49.311  33.960  25.484  1.00  0.00    -0.205 F 
ATOM     69  C   UNL A   1      52.587  34.291  27.092  1.00  0.00     0.022 A 
BRANCH  67  70
ATOM     70  S   UNL A   1      52.195  34.224  24.386  1.00  0.00     0.127 S 
ATOM     71  O   UNL A   1      51.735  35.539  23.942  1.00  0.00    -0.237 OA
ATOM     72  O   UNL A   1      53.642  34.106  24.555  1.00  0.00    -0.237 OA
ATOM     73  O   UNL A   1      51.564  33.091  23.721  1.00  0.00    -0.744 OA
ENDBRANCH  67  70
ENDBRANCH  40  63
ENDBRANCH  14  15
ENDBRANCH   7   9
ENDBRANCH   6   7
ENDBRANCH   5   6
ENDBRANCH   4   5
ENDBRANCH   3   4
ENDBRANCH   2   3
ENDBRANCH   1   2
BRANCH   1  74
ATOM     74  O   UNL A   1      32.603  34.938  29.946  1.00  0.00    -0.376 OA
BRANCH  74  75
ATOM     75  C   UNL A   1      33.296  35.209  28.723  1.00  0.00     0.202 C 
BRANCH  75  76
ATOM     76  C   UNL A   1      34.187  34.075  28.181  1.00  0.00     0.261 C 
BRANCH  76  77
ATOM     77  O   UNL A   1      33.510  32.834  27.890  1.00  0.00    -0.460 OA
BRANCH  77  78
ATOM     78  C   UNL A   1      34.282  31.729  27.840  1.00  0.00     0.338 C 
ATOM     79  O   UNL A   1      35.446  31.632  28.180  1.00  0.00    -0.246 OA
BRANCH  78  80
ATOM     80  C   UNL A   1      33.530  30.647  27.176  1.00  0.00     0.062 A 
ATOM     81  C   UNL A   1      33.892  29.360  27.565  1.00  0.00     0.016 A 
ATOM     82  C   UNL A   1      32.525  30.852  26.205  1.00  0.00     0.042 A 
ATOM     83  C   UNL A   1      33.295  28.279  26.945  1.00  0.00     0.017 A 
ATOM     84  C   UNL A   1      31.954  29.746  25.565  1.00  0.00     0.056 A 
ATOM     85  C   UNL A   1      32.377  28.481  25.913  1.00  0.00     0.064 A 
ATOM     86  N   UNL A   1      30.962  29.856  24.588  1.00  0.00    -0.307 N 
ATOM     87  C   UNL A   1      31.858  27.333  25.179  1.00  0.00     0.264 A 
ATOM     88  C   UNL A   1      30.472  28.793  23.853  1.00  0.00     0.328 A 
ATOM     89  H   UNL A   1      30.587  30.749  24.412  1.00  0.00     0.171 HD
ATOM     90  O   UNL A   1      32.160  26.244  25.623  1.00  0.00    -0.268 OA
ATOM     91  N   UNL A   1      31.036  27.549  24.091  1.00  0.00    -0.260 N 
ATOM     92  O   UNL A   1      29.558  29.008  23.057  1.00  0.00    -0.248 OA
BRANCH  91  93
ATOM     93  C   UNL A   1      30.553  26.357  23.363  1.00  0.00     0.137 C 
BRANCH  93  94
ATOM     94  C   UNL A   1      31.404  25.859  22.176  1.00  0.00     0.083 C 
BRANCH  94  95
ATOM     95  C   UNL A   1      32.752  25.114  22.383  1.00  0.00     0.264 C 
BRANCH  95  96
ATOM     96  N   UNL A   1      32.748  23.634  22.242  1.00  0.00    -0.331 N 
ATOM     97  C   UNL A   1      31.692  22.947  23.023  1.00  0.00     0.291 C 
ATOM     98  C   UNL A   1      34.046  23.056  22.725  1.00  0.00     0.291 C 
ATOM     99  H   UNL A   1      32.586  23.481  21.247  1.00  0.00     0.348 HD
ATOM    100  C   UNL A   1      31.919  22.947  24.545  1.00  0.00     0.221 C 
ATOM    101  C   UNL A   1      34.223  23.021  24.259  1.00  0.00     0.221 C 
ATOM    102  O   UNL A   1      33.146  22.297  24.877  1.00  0.00    -0.370 OA
ENDBRANCH  95  96
ENDBRANCH  94  95
ENDBRANCH  93  94
ENDBRANCH  91  93
ENDBRANCH  78  80
ENDBRANCH  77  78
ENDBRANCH  76  77
ENDBRANCH  75  76
ENDBRANCH  74  75
ENDBRANCH   1  74
TORSDOF 24
ENDMDL
MODEL 2
REMARK VINA RESULT:      -9.1      3.300      9.464
REMARK SMILES O=C(OCCOCCOCCOC(=O)c1ccc2c(=O)n(CCC[NH+]3CCOCC3)c(=O)[nH]c2c1)c1ccc(-c2c3nc(c(-c4cccc(S(=O)(=O)[O-])c4F)c4ccc([nH]4)c(-c4cccc(S(=O)(=O)[O-])c4F)c4nc(c(-c5cccc(S(=O)(=O)[O-])c5F)c5ccc2[nH]5)C=C4)C=C3)cc1
REMARK SMILES IDX 8 1 7 2 6 3 5 4 4 5 3 6 2 7 1 8 36 9 37 10 98 11 38 12 97 13
REMARK SMILES IDX 39 14 40 15 41 16 91 17 42 18 96 19 90 20 92 21 43 22 95 23
REMARK SMILES IDX 89 24 88 25 44 27 76 28 56 29 75 30 57 31 60 32 74 33 93 34
REMARK SMILES IDX 58 35 59 36 73 38 94 39 61 40 45 41 46 42 54 43 47 44 49 45
REMARK SMILES IDX 55 46 48 47 50 48 51 49 52 50 53 51 77 52 78 53 86 54 79 55
REMARK SMILES IDX 81 56 87 57 80 58 82 59 83 60 84 61 85 62 62 63 63 64 71 65
REMARK SMILES IDX 64 66 66 67 72 68 65 69 67 70 68 71 69 72 70 73 9 74 10 75
REMARK SMILES IDX 11 76 12 77 13 78 14 79 15 80 16 81 35 82 17 83 34 84 18 85
REMARK SMILES IDX 33 86 19 87 31 88 20 90 21 91 32 92 22 93 23 94 24 95 25 96
REMARK SMILES IDX 26 97 30 98 27 100 29 101 28 102
REMARK H PARENT 92 26 60 37 33 89 25 99
REMARK Flexibility Score: inf
ROOT
ATOM      1  C   UNL A   1      40.506  21.789  27.086  1.00  0.00     0.188 C 
ENDROOT
BRANCH   1   2
ATOM      2  C   UNL A   1      40.076  23.197  27.469  1.00  0.00     0.188 C 
BRANCH   2   3
ATOM      3  O   UNL A   1      41.144  24.120  27.651  1.00  0.00    -0.376 OA
BRANCH   3   4
ATOM      4  C   UNL A   1      41.720  24.613  26.449  1.00  0.00     0.202 C 
BRANCH   4   5
ATOM      5  C   UNL A   1      43.247  24.490  26.318  1.00  0.00     0.261 C 
BRANCH   5   6
ATOM      6  O   UNL A   1      44.124  25.582  26.695  1.00  0.00    -0.460 OA
BRANCH   6   7
ATOM      7  C   UNL A   1      44.384  26.844  26.307  1.00  0.00     0.338 C 
ATOM      8  O   UNL A   1      44.794  27.011  25.157  1.00  0.00    -0.246 OA
BRANCH   7   9
ATOM      9  C   UNL A   1      44.265  28.055  27.169  1.00  0.00     0.060 A 
ATOM     10  C   UNL A   1      44.854  27.991  28.446  1.00  0.00     0.016 A 
ATOM     11  C   UNL A   1      43.605  29.226  26.813  1.00  0.00     0.016 A 
ATOM     12  C   UNL A   1      44.729  29.046  29.355  1.00  0.00     0.010 A 
ATOM     13  C   UNL A   1      43.422  30.255  27.736  1.00  0.00     0.010 A 
ATOM     14  C   UNL A   1      43.974  30.174  29.017  1.00  0.00    -0.014 A 
BRANCH  14  15
ATOM     15  C   UNL A   1      43.965  31.389  29.861  1.00  0.00     0.031 A 
ATOM     16  C   UNL A   1      42.727  31.878  30.561  1.00  0.00     0.074 A 
ATOM     17  C   UNL A   1      45.048  32.177  29.749  1.00  0.00     0.049 A 
ATOM     18  N   UNL A   1      42.573  32.892  31.374  1.00  0.00    -0.248 NA
ATOM     19  C   UNL A   1      41.479  31.155  30.280  1.00  0.00     0.031 C 
ATOM     20  C   UNL A   1      46.195  31.901  28.873  1.00  0.00     0.029 A 
ATOM     21  N   UNL A   1      45.321  33.405  30.278  1.00  0.00    -0.354 N 
ATOM     22  C   UNL A   1      41.226  32.905  31.739  1.00  0.00     0.074 A 
ATOM     23  C   UNL A   1      40.591  31.849  30.980  1.00  0.00     0.031 C 
ATOM     24  C   UNL A   1      47.006  32.967  28.864  1.00  0.00     0.029 A 
ATOM     25  C   UNL A   1      46.458  33.973  29.760  1.00  0.00     0.049 A 
ATOM     26  H   UNL A   1      44.760  33.838  30.961  1.00  0.00     0.167 HD
ATOM     27  C   UNL A   1      40.608  33.686  32.669  1.00  0.00     0.034 A 
ATOM     28  C   UNL A   1      46.998  35.182  29.986  1.00  0.00     0.034 A 
ATOM     29  C   UNL A   1      41.311  34.770  33.319  1.00  0.00     0.049 A 
ATOM     30  C   UNL A   1      46.354  36.039  31.028  1.00  0.00     0.074 A 
ATOM     31  C   UNL A   1      40.923  35.568  34.380  1.00  0.00     0.029 A 
ATOM     32  N   UNL A   1      42.567  35.228  32.927  1.00  0.00    -0.354 N 
ATOM     33  N   UNL A   1      45.246  35.814  31.694  1.00  0.00    -0.248 NA
ATOM     34  C   UNL A   1      47.054  37.269  31.401  1.00  0.00     0.031 C 
ATOM     35  C   UNL A   1      41.938  36.503  34.624  1.00  0.00     0.029 A 
ATOM     36  C   UNL A   1      42.949  36.314  33.694  1.00  0.00     0.049 A 
ATOM     37  H   UNL A   1      43.108  34.833  32.206  1.00  0.00     0.167 HD
ATOM     38  C   UNL A   1      45.125  36.859  32.594  1.00  0.00     0.074 A 
ATOM     39  C   UNL A   1      46.285  37.712  32.390  1.00  0.00     0.031 C 
ATOM     40  C   UNL A   1      44.142  37.102  33.496  1.00  0.00     0.034 A 
BRANCH  27  41
ATOM     41  C   UNL A   1      39.211  33.282  33.157  1.00  0.00     0.023 A 
ATOM     42  C   UNL A   1      39.146  32.487  34.319  1.00  0.00     0.012 A 
ATOM     43  C   UNL A   1      37.985  33.749  32.637  1.00  0.00     0.148 A 
ATOM     44  C   UNL A   1      37.949  32.166  34.959  1.00  0.00     0.002 A 
ATOM     45  C   UNL A   1      36.779  33.432  33.282  1.00  0.00     0.091 A 
ATOM     46  F   UNL A   1      38.002  34.525  31.545  1.00  0.00    -0.205 F 
ATOM     47  C   UNL A   1      36.762  32.653  34.448  1.00  0.00     0.022 A 
BRANCH  45  48
ATOM     48  S   UNL A   1      35.162  33.933  32.671  1.00  0.00     0.127 S 
ATOM     49  O   UNL A   1      35.318  35.386  32.557  1.00  0.00    -0.237 OA
ATOM     50  O   UNL A   1      35.080  33.230  31.394  1.00  0.00    -0.237 OA
ATOM     51  O   UNL A   1      34.213  33.516  33.694  1.00  0.00    -0.744 OA
ENDBRANCH  45  48
ENDBRANCH  27  41
BRANCH  28  52
ATOM     52  C   UNL A   1      48.259  35.528  29.285  1.00  0.00     0.023 A 
ATOM     53  C   UNL A   1      49.485  35.132  29.850  1.00  0.00     0.012 A 
ATOM     54  C   UNL A   1      48.236  36.056  27.977  1.00  0.00     0.148 A 
ATOM     55  C   UNL A   1      50.669  35.246  29.122  1.00  0.00     0.002 A 
ATOM     56  C   UNL A   1      49.416  36.140  27.247  1.00  0.00     0.091 A 
ATOM     57  F   UNL A   1      47.050  36.396  27.454  1.00  0.00    -0.205 F 
ATOM     58  C   UNL A   1      50.634  35.738  27.819  1.00  0.00     0.022 A 
BRANCH  56  59
ATOM     59  S   UNL A   1      49.464  36.659  25.527  1.00  0.00     0.127 S 
ATOM     60  O   UNL A   1      48.595  37.834  25.546  1.00  0.00    -0.237 OA
ATOM     61  O   UNL A   1      50.886  36.946  25.341  1.00  0.00    -0.237 OA
ATOM     62  O   UNL A   1      48.964  35.529  24.756  1.00  0.00    -0.744 OA
ENDBRANCH  56  59
ENDBRANCH  28  52
BRANCH  40  63
ATOM     63  C   UNL A   1      44.278  38.351  34.317  1.00  0.00     0.023 A 
ATOM     64  C   UNL A   1      45.038  38.304  35.502  1.00  0.00     0.012 A 
ATOM     65  C   UNL A   1      43.724  39.571  33.888  1.00  0.00     0.148 A 
ATOM     66  C   UNL A   1      45.233  39.454  36.260  1.00  0.00     0.002 A 
ATOM     67  C   UNL A   1      43.947  40.721  34.633  1.00  0.00     0.091 A 
ATOM     68  F   UNL A   1      42.999  39.581  32.759  1.00  0.00    -0.205 F 
ATOM     69  C   UNL A   1      44.696  40.663  35.822  1.00  0.00     0.022 A 
BRANCH  67  70
ATOM     70  S   UNL A   1      43.346  42.336  34.130  1.00  0.00     0.127 S 
ATOM     71  O   UNL A   1      44.044  42.529  32.860  1.00  0.00    -0.237 OA
ATOM     72  O   UNL A   1      41.908  42.105  34.009  1.00  0.00    -0.237 OA
ATOM     73  O   UNL A   1      43.730  43.257  35.192  1.00  0.00    -0.744 OA
ENDBRANCH  67  70
ENDBRANCH  40  63
ENDBRANCH  14  15
ENDBRANCH   7   9
ENDBRANCH   6   7
ENDBRANCH   5   6
ENDBRANCH   4   5
ENDBRANCH   3   4
ENDBRANCH   2   3
ENDBRANCH   1   2
BRANCH   1  74
ATOM     74  O   UNL A   1      39.486  21.134  26.347  1.00  0.00    -0.376 OA
BRANCH  74  75
ATOM     75  C   UNL A   1      38.527  22.024  25.766  1.00  0.00     0.202 C 
BRANCH  75  76
ATOM     76  C   UNL A   1      37.305  21.365  25.098  1.00  0.00     0.261 C 
BRANCH  76  77
ATOM     77  O   UNL A   1      36.172  21.132  25.961  1.00  0.00    -0.460 OA
BRANCH  77  78
ATOM     78  C   UNL A   1      34.959  21.142  25.372  1.00  0.00     0.338 C 
ATOM     79  O   UNL A   1      34.322  20.178  24.989  1.00  0.00    -0.246 OA
BRANCH  78  80
ATOM     80  C   UNL A   1      34.551  22.540  25.135  1.00  0.00     0.062 A 
ATOM     81  C   UNL A   1      34.138  23.228  26.273  1.00  0.00     0.016 A 
ATOM     82  C   UNL A   1      34.547  23.168  23.870  1.00  0.00     0.042 A 
ATOM     83  C   UNL A   1      33.668  24.521  26.141  1.00  0.00     0.017 A 
ATOM     84  C   UNL A   1      34.038  24.466  23.750  1.00  0.00     0.056 A 
ATOM     85  C   UNL A   1      33.567  25.105  24.877  1.00  0.00     0.064 A 
ATOM     86  N   UNL A   1      33.988  25.158  22.539  1.00  0.00    -0.307 N 
ATOM     87  C   UNL A   1      32.945  26.417  24.739  1.00  0.00     0.264 A 
ATOM     88  C   UNL A   1      33.378  26.387  22.369  1.00  0.00     0.328 A 
ATOM     89  H   UNL A   1      34.416  24.745  21.755  1.00  0.00     0.171 HD
ATOM     90  O   UNL A   1      32.679  26.984  25.779  1.00  0.00    -0.268 OA
ATOM     91  N   UNL A   1      32.752  26.938  23.476  1.00  0.00    -0.260 N 
ATOM     92  O   UNL A   1      33.447  26.923  21.263  1.00  0.00    -0.248 OA
BRANCH  91  93
ATOM     93  C   UNL A   1      32.095  28.259  23.384  1.00  0.00     0.137 C 
BRANCH  93  94
ATOM     94  C   UNL A   1      30.734  28.325  22.659  1.00  0.00     0.083 C 
BRANCH  94  95
ATOM     95  C   UNL A   1      30.118  29.670  22.185  1.00  0.00     0.264 C 
BRANCH  95  96
ATOM     96  N   UNL A   1      28.808  30.068  22.764  1.00  0.00    -0.331 N 
ATOM     97  C   UNL A   1      27.753  30.346  21.760  1.00  0.00     0.291 C 
ATOM     98  C   UNL A   1      28.948  31.333  23.561  1.00  0.00     0.291 C 
ATOM     99  H   UNL A   1      28.533  29.265  23.329  1.00  0.00     0.348 HD
ATOM    100  C   UNL A   1      27.958  31.644  20.959  1.00  0.00     0.221 C 
ATOM    101  C   UNL A   1      29.099  32.625  22.729  1.00  0.00     0.221 C 
ATOM    102  O   UNL A   1      27.992  32.778  21.825  1.00  0.00    -0.370 OA
ENDBRANCH  95  96
ENDBRANCH  94  95
ENDBRANCH  93  94
ENDBRANCH  91  93
ENDBRANCH  78  80
ENDBRANCH  77  78
ENDBRANCH  76  77
ENDBRANCH  75  76
ENDBRANCH  74  75
ENDBRANCH   1  74
TORSDOF 24
ENDMDL
MODEL 3
REMARK VINA RESULT:      -9.1      6.604     10.919
REMARK SMILES O=C(OCCOCCOCCOC(=O)c1ccc2c(=O)n(CCC[NH+]3CCOCC3)c(=O)[nH]c2c1)c1ccc(-c2c3nc(c(-c4cccc(S(=O)(=O)[O-])c4F)c4ccc([nH]4)c(-c4cccc(S(=O)(=O)[O-])c4F)c4nc(c(-c5cccc(S(=O)(=O)[O-])c5F)c5ccc2[nH]5)C=C4)C=C3)cc1
REMARK SMILES IDX 8 1 7 2 6 3 5 4 4 5 3 6 2 7 1 8 36 9 37 10 98 11 38 12 97 13
REMARK SMILES IDX 39 14 40 15 41 16 91 17 42 18 96 19 90 20 92 21 43 22 95 23
REMARK SMILES IDX 89 24 88 25 44 27 76 28 56 29 75 30 57 31 60 32 74 33 93 34
REMARK SMILES IDX 58 35 59 36 73 38 94 39 61 40 45 41 46 42 54 43 47 44 49 45
REMARK SMILES IDX 55 46 48 47 50 48 51 49 52 50 53 51 77 52 78 53 86 54 79 55
REMARK SMILES IDX 81 56 87 57 80 58 82 59 83 60 84 61 85 62 62 63 63 64 71 65
REMARK SMILES IDX 64 66 66 67 72 68 65 69 67 70 68 71 69 72 70 73 9 74 10 75
REMARK SMILES IDX 11 76 12 77 13 78 14 79 15 80 16 81 35 82 17 83 34 84 18 85
REMARK SMILES IDX 33 86 19 87 31 88 20 90 21 91 32 92 22 93 23 94 24 95 25 96
REMARK SMILES IDX 26 97 30 98 27 100 29 101 28 102
REMARK H PARENT 92 26 60 37 33 89 25 99
REMARK Flexibility Score: inf
ROOT
ATOM      1  C   UNL A   1      32.899  35.741  30.920  1.00  0.00     0.188 C 
ENDROOT
BRANCH   1   2
ATOM      2  C   UNL A   1      33.992  35.176  31.814  1.00  0.00     0.188 C 
BRANCH   2   3
ATOM      3  O   UNL A   1      33.531  34.316  32.850  1.00  0.00    -0.376 OA
BRANCH   3   4
ATOM      4  C   UNL A   1      34.048  32.993  32.803  1.00  0.00     0.202 C 
BRANCH   4   5
ATOM      5  C   UNL A   1      34.704  32.557  31.482  1.00  0.00     0.261 C 
BRANCH   5   6
ATOM      6  O   UNL A   1      35.655  31.462  31.442  1.00  0.00    -0.460 OA
BRANCH   6   7
ATOM      7  C   UNL A   1      36.538  30.865  32.263  1.00  0.00     0.338 C 
ATOM      8  O   UNL A   1      36.536  29.633  32.296  1.00  0.00    -0.246 OA
BRANCH   7   9
ATOM      9  C   UNL A   1      37.487  31.568  33.172  1.00  0.00     0.060 A 
ATOM     10  C   UNL A   1      37.349  32.966  33.282  1.00  0.00     0.016 A 
ATOM     11  C   UNL A   1      38.502  30.953  33.898  1.00  0.00     0.016 A 
ATOM     12  C   UNL A   1      38.240  33.722  34.050  1.00  0.00     0.010 A 
ATOM     13  C   UNL A   1      39.431  31.709  34.612  1.00  0.00     0.010 A 
ATOM     14  C   UNL A   1      39.316  33.099  34.690  1.00  0.00    -0.014 A 
BRANCH  14  15
ATOM     15  C   UNL A   1      40.172  33.819  35.658  1.00  0.00     0.031 A 
ATOM     16  C   UNL A   1      39.845  33.900  37.124  1.00  0.00     0.074 A 
ATOM     17  C   UNL A   1      41.107  34.620  35.117  1.00  0.00     0.049 A 
ATOM     18  N   UNL A   1      40.522  34.447  38.101  1.00  0.00    -0.248 NA
ATOM     19  C   UNL A   1      38.562  33.324  37.547  1.00  0.00     0.031 C 
ATOM     20  C   UNL A   1      41.315  34.804  33.674  1.00  0.00     0.029 A 
ATOM     21  N   UNL A   1      41.974  35.501  35.693  1.00  0.00    -0.354 N 
ATOM     22  C   UNL A   1      39.774  34.243  39.262  1.00  0.00     0.074 A 
ATOM     23  C   UNL A   1      38.546  33.603  38.845  1.00  0.00     0.031 C 
ATOM     24  C   UNL A   1      42.191  35.797  33.480  1.00  0.00     0.029 A 
ATOM     25  C   UNL A   1      42.632  36.285  34.778  1.00  0.00     0.049 A 
ATOM     26  H   UNL A   1      42.114  35.567  36.665  1.00  0.00     0.167 HD
ATOM     27  C   UNL A   1      40.123  34.511  40.552  1.00  0.00     0.034 A 
ATOM     28  C   UNL A   1      43.498  37.293  34.971  1.00  0.00     0.034 A 
ATOM     29  C   UNL A   1      41.341  35.228  40.862  1.00  0.00     0.049 A 
ATOM     30  C   UNL A   1      43.919  37.579  36.376  1.00  0.00     0.074 A 
ATOM     31  C   UNL A   1      41.944  35.463  42.084  1.00  0.00     0.029 A 
ATOM     32  N   UNL A   1      42.134  35.862  39.908  1.00  0.00    -0.354 N 
ATOM     33  N   UNL A   1      43.469  37.040  37.485  1.00  0.00    -0.248 NA
ATOM     34  C   UNL A   1      45.000  38.548  36.562  1.00  0.00     0.031 C 
ATOM     35  C   UNL A   1      43.092  36.236  41.868  1.00  0.00     0.029 A 
ATOM     36  C   UNL A   1      43.191  36.516  40.514  1.00  0.00     0.049 A 
ATOM     37  H   UNL A   1      41.966  35.846  38.938  1.00  0.00     0.167 HD
ATOM     38  C   UNL A   1      44.234  37.577  38.507  1.00  0.00     0.074 A 
ATOM     39  C   UNL A   1      45.183  38.480  37.876  1.00  0.00     0.031 C 
ATOM     40  C   UNL A   1      44.152  37.359  39.843  1.00  0.00     0.034 A 
BRANCH  27  41
ATOM     41  C   UNL A   1      39.302  33.877  41.681  1.00  0.00     0.023 A 
ATOM     42  C   UNL A   1      38.332  34.691  42.301  1.00  0.00     0.012 A 
ATOM     43  C   UNL A   1      39.326  32.517  42.058  1.00  0.00     0.148 A 
ATOM     44  C   UNL A   1      37.417  34.210  43.238  1.00  0.00     0.002 A 
ATOM     45  C   UNL A   1      38.402  32.030  42.997  1.00  0.00     0.091 A 
ATOM     46  F   UNL A   1      40.217  31.703  41.478  1.00  0.00    -0.205 F 
ATOM     47  C   UNL A   1      37.442  32.872  43.576  1.00  0.00     0.022 A 
BRANCH  45  48
ATOM     48  S   UNL A   1      38.383  30.328  43.584  1.00  0.00     0.127 S 
ATOM     49  O   UNL A   1      39.645  30.249  44.325  1.00  0.00    -0.237 OA
ATOM     50  O   UNL A   1      37.186  30.302  44.420  1.00  0.00    -0.237 OA
ATOM     51  O   UNL A   1      38.345  29.504  42.385  1.00  0.00    -0.744 OA
ENDBRANCH  45  48
ENDBRANCH  27  41
BRANCH  28  52
ATOM     52  C   UNL A   1      44.070  37.964  33.777  1.00  0.00     0.023 A 
ATOM     53  C   UNL A   1      44.953  37.246  32.950  1.00  0.00     0.012 A 
ATOM     54  C   UNL A   1      43.585  39.218  33.352  1.00  0.00     0.148 A 
ATOM     55  C   UNL A   1      45.338  37.761  31.712  1.00  0.00     0.002 A 
ATOM     56  C   UNL A   1      43.951  39.712  32.106  1.00  0.00     0.091 A 
ATOM     57  F   UNL A   1      42.722  39.864  34.149  1.00  0.00    -0.205 F 
ATOM     58  C   UNL A   1      44.830  38.986  31.286  1.00  0.00     0.022 A 
BRANCH  56  59
ATOM     59  S   UNL A   1      43.271  41.227  31.419  1.00  0.00     0.127 S 
ATOM     60  O   UNL A   1      43.780  41.189  30.049  1.00  0.00    -0.237 OA
ATOM     61  O   UNL A   1      41.833  40.995  31.549  1.00  0.00    -0.237 OA
ATOM     62  O   UNL A   1      43.791  42.308  32.246  1.00  0.00    -0.744 OA
ENDBRANCH  56  59
ENDBRANCH  28  52
BRANCH  40  63
ATOM     63  C   UNL A   1      45.109  38.126  40.708  1.00  0.00     0.023 A 
ATOM     64  C   UNL A   1      46.372  37.566  40.982  1.00  0.00     0.012 A 
ATOM     65  C   UNL A   1      44.794  39.412  41.184  1.00  0.00     0.148 A 
ATOM     66  C   UNL A   1      47.307  38.271  41.734  1.00  0.00     0.002 A 
ATOM     67  C   UNL A   1      45.742  40.122  41.908  1.00  0.00     0.091 A 
ATOM     68  F   UNL A   1      43.580  39.914  40.912  1.00  0.00    -0.205 F 
ATOM     69  C   UNL A   1      46.996  39.551  42.189  1.00  0.00     0.022 A 
BRANCH  67  70
ATOM     70  S   UNL A   1      45.463  41.796  42.493  1.00  0.00     0.127 S 
ATOM     71  O   UNL A   1      44.443  41.584  43.520  1.00  0.00    -0.237 OA
ATOM     72  O   UNL A   1      46.781  42.165  43.008  1.00  0.00    -0.237 OA
ATOM     73  O   UNL A   1      45.025  42.560  41.333  1.00  0.00    -0.744 OA
ENDBRANCH  67  70
ENDBRANCH  40  63
ENDBRANCH  14  15
ENDBRANCH   7   9
ENDBRANCH   6   7
ENDBRANCH   5   6
ENDBRANCH   4   5
ENDBRANCH   3   4
ENDBRANCH   2   3
ENDBRANCH   1   2
BRANCH   1  74
ATOM     74  O   UNL A   1      32.696  34.910  29.786  1.00  0.00    -0.376 OA
BRANCH  74  75
ATOM     75  C   UNL A   1      33.562  35.207  28.686  1.00  0.00     0.202 C 
BRANCH  75  76
ATOM     76  C   UNL A   1      34.443  34.049  28.182  1.00  0.00     0.261 C 
BRANCH  76  77
ATOM     77  O   UNL A   1      33.753  32.811  27.910  1.00  0.00    -0.460 OA
BRANCH  77  78
ATOM     78  C   UNL A   1      34.523  31.711  27.787  1.00  0.00     0.338 C 
ATOM     79  O   UNL A   1      35.707  31.611  28.053  1.00  0.00    -0.246 OA
BRANCH  78  80
ATOM     80  C   UNL A   1      33.735  30.641  27.147  1.00  0.00     0.062 A 
ATOM     81  C   UNL A   1      34.087  29.348  27.527  1.00  0.00     0.016 A 
ATOM     82  C   UNL A   1      32.706  30.861  26.205  1.00  0.00     0.042 A 
ATOM     83  C   UNL A   1      33.455  28.277  26.926  1.00  0.00     0.017 A 
ATOM     84  C   UNL A   1      32.098  29.764  25.583  1.00  0.00     0.056 A 
ATOM     85  C   UNL A   1      32.511  28.493  25.921  1.00  0.00     0.064 A 
ATOM     86  N   UNL A   1      31.081  29.890  24.636  1.00  0.00    -0.307 N 
ATOM     87  C   UNL A   1      31.952  27.353  25.204  1.00  0.00     0.264 A 
ATOM     88  C   UNL A   1      30.553  28.834  23.916  1.00  0.00     0.328 A 
ATOM     89  H   UNL A   1      30.715  30.789  24.470  1.00  0.00     0.171 HD
ATOM     90  O   UNL A   1      32.249  26.260  25.640  1.00  0.00    -0.268 OA
ATOM     91  N   UNL A   1      31.102  27.581  24.140  1.00  0.00    -0.260 N 
ATOM     92  O   UNL A   1      29.619  29.064  23.147  1.00  0.00    -0.248 OA
BRANCH  91  93
ATOM     93  C   UNL A   1      30.580  26.397  23.428  1.00  0.00     0.137 C 
BRANCH  93  94
ATOM     94  C   UNL A   1      31.386  25.885  22.216  1.00  0.00     0.083 C 
BRANCH  94  95
ATOM     95  C   UNL A   1      32.700  25.071  22.384  1.00  0.00     0.264 C 
BRANCH  95  96
ATOM     96  N   UNL A   1      32.606  23.591  22.299  1.00  0.00    -0.331 N 
ATOM     97  C   UNL A   1      31.598  22.987  23.204  1.00  0.00     0.291 C 
ATOM     98  C   UNL A   1      33.915  22.959  22.676  1.00  0.00     0.291 C 
ATOM     99  H   UNL A   1      32.339  23.415  21.331  1.00  0.00     0.348 HD
ATOM    100  C   UNL A   1      31.974  23.023  24.695  1.00  0.00     0.221 C 
ATOM    101  C   UNL A   1      34.240  22.963  24.185  1.00  0.00     0.221 C 
ATOM    102  O   UNL A   1      33.194  22.319  24.931  1.00  0.00    -0.370 OA
ENDBRANCH  95  96
ENDBRANCH  94  95
ENDBRANCH  93  94
ENDBRANCH  91  93
ENDBRANCH  78  80
ENDBRANCH  77  78
ENDBRANCH  76  77
ENDBRANCH  75  76
ENDBRANCH  74  75
ENDBRANCH   1  74
TORSDOF 24
ENDMDL
