MODEL 1
REMARK VINA RESULT:     -10.8      0.000      0.000
REMARK SMILES CCc1nc(COC)cc(N2CCCC[C@H]2C(=O)OCCOCCOCCOC(=O)c2ccc(-c3c4nc(c(-c5cccc(S(=O)(=O)[O-])c5F)c5ccc([nH]5)c(-c5cccc(S(=O)(=O)[O-])c5F)c5nc(c(-c6cccc(S(=O)(=O)[O-])c6F)c6ccc3[nH]6)C=C5)C=C4)cc2)n1
REMARK SMILES IDX 23 1 22 2 21 3 20 4 19 5 17 6 18 7 16 8 11 9 12 10 13 11
REMARK SMILES IDX 15 12 14 13 10 14 3 15 4 16 94 17 5 18 9 19 2 20 1 21 6 22
REMARK SMILES IDX 7 23 8 24 24 25 25 26 26 27 27 28 28 29 29 30 30 31 31 32
REMARK SMILES IDX 32 33 93 34 33 35 92 36 34 37 35 38 36 39 86 40 37 41 91 42
REMARK SMILES IDX 85 43 87 44 38 45 90 46 84 47 83 48 39 50 71 51 51 52 70 53
REMARK SMILES IDX 52 54 55 55 69 56 88 57 53 58 54 59 68 61 89 62 56 63 40 64
REMARK SMILES IDX 41 65 49 66 42 67 44 68 50 69 43 70 45 71 46 72 47 73 48 74
REMARK SMILES IDX 72 75 73 76 81 77 74 78 76 79 82 80 75 81 77 82 78 83 79 84
REMARK SMILES IDX 80 85 57 86 58 87 66 88 59 89 61 90 67 91 60 92 62 93 63 94
REMARK SMILES IDX 64 95 65 96
REMARK H PARENT 87 49 55 60
REMARK Flexibility Score: inf
ROOT
ATOM      1  C   UNL A   1      31.792  28.845  24.294  1.00  0.00     0.188 C 
ENDROOT
BRANCH   1   2
ATOM      2  O   UNL A   1      31.099  27.614  24.172  1.00  0.00    -0.376 OA
BRANCH   2   3
ATOM      3  C   UNL A   1      30.737  26.971  25.385  1.00  0.00     0.202 C 
BRANCH   3   4
ATOM      4  C   UNL A   1      30.217  25.523  25.316  1.00  0.00     0.261 C 
BRANCH   4   5
ATOM      5  O   UNL A   1      31.223  24.512  25.165  1.00  0.00    -0.462 OA
BRANCH   5   6
ATOM      6  C   UNL A   1      31.860  24.070  26.288  1.00  0.00     0.328 C 
ATOM      7  O   UNL A   1      31.321  23.941  27.377  1.00  0.00    -0.250 OA
BRANCH   6   8
ATOM      8  C   UNL A   1      33.328  23.732  25.944  1.00  0.00     0.193 C 
ATOM      9  N   UNL A   1      33.431  22.969  24.694  1.00  0.00    -0.343 N 
ATOM     10  C   UNL A   1      33.191  23.700  23.452  1.00  0.00     0.119 C 
ATOM     11  C   UNL A   1      34.005  24.993  23.375  1.00  0.00     0.022 C 
ATOM     12  C   UNL A   1      34.233  24.968  25.881  1.00  0.00     0.037 C 
ATOM     13  C   UNL A   1      33.958  25.825  24.653  1.00  0.00     0.005 C 
BRANCH   9  14
ATOM     14  C   UNL A   1      34.170  21.796  24.705  1.00  0.00     0.133 A 
ATOM     15  C   UNL A   1      36.189  20.691  24.783  1.00  0.00     0.130 A 
ATOM     16  N   UNL A   1      35.633  19.468  24.743  1.00  0.00    -0.235 NA
ATOM     17  N   UNL A   1      35.510  21.856  24.742  1.00  0.00    -0.216 NA
ATOM     18  C   UNL A   1      34.293  19.421  24.651  1.00  0.00     0.072 A 
ATOM     19  C   UNL A   1      33.525  20.569  24.652  1.00  0.00     0.073 A 
BRANCH  15  20
ATOM     20  C   UNL A   1      37.689  20.756  24.847  1.00  0.00     0.074 C 
ATOM     21  C   UNL A   1      38.279  19.412  25.246  1.00  0.00     0.012 C 
ENDBRANCH  15  20
BRANCH  18  22
ATOM     22  C   UNL A   1      33.642  18.072  24.437  1.00  0.00     0.216 C 
BRANCH  22  23
ATOM     23  O   UNL A   1      34.587  17.018  24.204  1.00  0.00    -0.378 OA
ATOM     24  C   UNL A   1      34.766  16.163  25.325  1.00  0.00     0.195 C 
ENDBRANCH  22  23
ENDBRANCH  18  22
ENDBRANCH   9  14
ENDBRANCH   6   8
ENDBRANCH   5   6
ENDBRANCH   4   5
ENDBRANCH   3   4
ENDBRANCH   2   3
ENDBRANCH   1   2
BRANCH   1  25
ATOM     25  C   UNL A   1      31.580  29.515  25.668  1.00  0.00     0.188 C 
BRANCH  25  26
ATOM     26  O   UNL A   1      32.311  30.683  26.010  1.00  0.00    -0.376 OA
BRANCH  26  27
ATOM     27  C   UNL A   1      31.655  31.670  26.801  1.00  0.00     0.202 C 
BRANCH  27  28
ATOM     28  C   UNL A   1      32.208  33.110  26.904  1.00  0.00     0.261 C 
BRANCH  28  29
ATOM     29  O   UNL A   1      32.498  33.607  28.223  1.00  0.00    -0.460 OA
BRANCH  29  30
ATOM     30  C   UNL A   1      33.650  34.307  28.347  1.00  0.00     0.338 C 
ATOM     31  O   UNL A   1      33.756  35.525  28.483  1.00  0.00    -0.246 OA
BRANCH  30  32
ATOM     32  C   UNL A   1      34.793  33.390  28.540  1.00  0.00     0.060 A 
ATOM     33  C   UNL A   1      34.555  32.149  29.155  1.00  0.00     0.016 A 
ATOM     34  C   UNL A   1      36.090  33.760  28.185  1.00  0.00     0.016 A 
ATOM     35  C   UNL A   1      35.612  31.294  29.456  1.00  0.00     0.010 A 
ATOM     36  C   UNL A   1      37.156  32.916  28.519  1.00  0.00     0.010 A 
ATOM     37  C   UNL A   1      36.924  31.703  29.197  1.00  0.00    -0.014 A 
BRANCH  37  38
ATOM     38  C   UNL A   1      38.042  30.990  29.863  1.00  0.00     0.031 A 
ATOM     39  C   UNL A   1      38.375  31.362  31.282  1.00  0.00     0.074 A 
ATOM     40  C   UNL A   1      38.740  30.026  29.240  1.00  0.00     0.049 A 
ATOM     41  N   UNL A   1      39.316  30.902  32.064  1.00  0.00    -0.248 NA
ATOM     42  C   UNL A   1      37.534  32.403  31.898  1.00  0.00     0.031 C 
ATOM     43  C   UNL A   1      38.512  29.566  27.873  1.00  0.00     0.029 A 
ATOM     44  N   UNL A   1      39.807  29.281  29.678  1.00  0.00    -0.354 N 
ATOM     45  C   UNL A   1      39.205  31.621  33.249  1.00  0.00     0.074 A 
ATOM     46  C   UNL A   1      38.116  32.558  33.077  1.00  0.00     0.031 C 
ATOM     47  C   UNL A   1      39.444  28.646  27.566  1.00  0.00     0.029 A 
ATOM     48  C   UNL A   1      40.342  28.470  28.708  1.00  0.00     0.049 A 
ATOM     49  H   UNL A   1      40.156  29.326  30.598  1.00  0.00     0.167 HD
ATOM     50  C   UNL A   1      39.934  31.510  34.384  1.00  0.00     0.034 A 
ATOM     51  C   UNL A   1      41.446  27.694  28.729  1.00  0.00     0.034 A 
ATOM     52  C   UNL A   1      41.013  30.575  34.559  1.00  0.00     0.049 A 
ATOM     53  C   UNL A   1      42.255  27.589  29.996  1.00  0.00     0.074 A 
ATOM     54  C   UNL A   1      41.780  30.347  35.687  1.00  0.00     0.029 A 
ATOM     55  N   UNL A   1      41.493  29.729  33.572  1.00  0.00    -0.354 N 
ATOM     56  N   UNL A   1      42.068  28.187  31.149  1.00  0.00    -0.248 NA
ATOM     57  C   UNL A   1      43.403  26.671  29.978  1.00  0.00     0.031 C 
ATOM     58  C   UNL A   1      42.749  29.390  35.370  1.00  0.00     0.029 A 
ATOM     59  C   UNL A   1      42.557  28.987  34.058  1.00  0.00     0.049 A 
ATOM     60  H   UNL A   1      41.130  29.664  32.659  1.00  0.00     0.167 HD
ATOM     61  C   UNL A   1      43.049  27.691  32.002  1.00  0.00     0.074 A 
ATOM     62  C   UNL A   1      43.820  26.733  31.237  1.00  0.00     0.031 C 
ATOM     63  C   UNL A   1      43.292  28.004  33.301  1.00  0.00     0.034 A 
BRANCH  50  64
ATOM     64  C   UNL A   1      39.580  32.433  35.522  1.00  0.00     0.023 A 
ATOM     65  C   UNL A   1      40.150  33.721  35.588  1.00  0.00     0.012 A 
ATOM     66  C   UNL A   1      38.686  32.022  36.529  1.00  0.00     0.148 A 
ATOM     67  C   UNL A   1      39.877  34.565  36.664  1.00  0.00     0.002 A 
ATOM     68  C   UNL A   1      38.378  32.888  37.571  1.00  0.00     0.091 A 
ATOM     69  F   UNL A   1      38.175  30.785  36.466  1.00  0.00    -0.205 F 
ATOM     70  C   UNL A   1      38.986  34.151  37.650  1.00  0.00     0.022 A 
BRANCH  68  71
ATOM     71  S   UNL A   1      37.178  32.474  38.841  1.00  0.00     0.127 S 
ATOM     72  O   UNL A   1      37.425  31.045  39.026  1.00  0.00    -0.237 OA
ATOM     73  O   UNL A   1      37.607  33.316  39.958  1.00  0.00    -0.237 OA
ATOM     74  O   UNL A   1      35.877  32.823  38.288  1.00  0.00    -0.744 OA
ENDBRANCH  68  71
ENDBRANCH  50  64
BRANCH  51  75
ATOM     75  C   UNL A   1      41.830  26.938  27.506  1.00  0.00     0.023 A 
ATOM     76  C   UNL A   1      42.408  27.615  26.416  1.00  0.00     0.012 A 
ATOM     77  C   UNL A   1      41.668  25.540  27.442  1.00  0.00     0.148 A 
ATOM     78  C   UNL A   1      42.803  26.915  25.275  1.00  0.00     0.002 A 
ATOM     79  C   UNL A   1      42.115  24.842  26.328  1.00  0.00     0.091 A 
ATOM     80  F   UNL A   1      41.104  24.920  28.488  1.00  0.00    -0.205 F 
ATOM     81  C   UNL A   1      42.669  25.529  25.236  1.00  0.00     0.022 A 
BRANCH  79  82
ATOM     82  S   UNL A   1      42.104  23.049  26.241  1.00  0.00     0.127 S 
ATOM     83  O   UNL A   1      42.915  22.688  27.403  1.00  0.00    -0.237 OA
ATOM     84  O   UNL A   1      40.678  22.755  26.368  1.00  0.00    -0.237 OA
ATOM     85  O   UNL A   1      42.679  22.710  24.947  1.00  0.00    -0.744 OA
ENDBRANCH  79  82
ENDBRANCH  51  75
BRANCH  63  86
ATOM     86  C   UNL A   1      44.408  27.274  34.006  1.00  0.00     0.023 A 
ATOM     87  C   UNL A   1      45.695  27.841  34.076  1.00  0.00     0.012 A 
ATOM     88  C   UNL A   1      44.157  26.053  34.666  1.00  0.00     0.148 A 
ATOM     89  C   UNL A   1      46.723  27.188  34.758  1.00  0.00     0.002 A 
ATOM     90  C   UNL A   1      45.170  25.433  35.387  1.00  0.00     0.091 A 
ATOM     91  F   UNL A   1      42.930  25.518  34.575  1.00  0.00    -0.205 F 
ATOM     92  C   UNL A   1      46.458  25.992  35.422  1.00  0.00     0.022 A 
BRANCH  90  93
ATOM     93  S   UNL A   1      44.892  23.946  36.356  1.00  0.00     0.127 S 
ATOM     94  O   UNL A   1      44.588  24.502  37.673  1.00  0.00    -0.237 OA
ATOM     95  O   UNL A   1      43.751  23.338  35.672  1.00  0.00    -0.237 OA
ATOM     96  O   UNL A   1      46.126  23.177  36.270  1.00  0.00    -0.744 OA
ENDBRANCH  90  93
ENDBRANCH  63  86
ENDBRANCH  37  38
ENDBRANCH  30  32
ENDBRANCH  29  30
ENDBRANCH  28  29
ENDBRANCH  27  28
ENDBRANCH  26  27
ENDBRANCH  25  26
ENDBRANCH   1  25
TORSDOF 24
ENDMDL
MODEL 2
REMARK VINA RESULT:     -10.1      4.830     10.346
REMARK SMILES CCc1nc(COC)cc(N2CCCC[C@H]2C(=O)OCCOCCOCCOC(=O)c2ccc(-c3c4nc(c(-c5cccc(S(=O)(=O)[O-])c5F)c5ccc([nH]5)c(-c5cccc(S(=O)(=O)[O-])c5F)c5nc(c(-c6cccc(S(=O)(=O)[O-])c6F)c6ccc3[nH]6)C=C5)C=C4)cc2)n1
REMARK SMILES IDX 23 1 22 2 21 3 20 4 19 5 17 6 18 7 16 8 11 9 12 10 13 11
REMARK SMILES IDX 15 12 14 13 10 14 3 15 4 16 94 17 5 18 9 19 2 20 1 21 6 22
REMARK SMILES IDX 7 23 8 24 24 25 25 26 26 27 27 28 28 29 29 30 30 31 31 32
REMARK SMILES IDX 32 33 93 34 33 35 92 36 34 37 35 38 36 39 86 40 37 41 91 42
REMARK SMILES IDX 85 43 87 44 38 45 90 46 84 47 83 48 39 50 71 51 51 52 70 53
REMARK SMILES IDX 52 54 55 55 69 56 88 57 53 58 54 59 68 61 89 62 56 63 40 64
REMARK SMILES IDX 41 65 49 66 42 67 44 68 50 69 43 70 45 71 46 72 47 73 48 74
REMARK SMILES IDX 72 75 73 76 81 77 74 78 76 79 82 80 75 81 77 82 78 83 79 84
REMARK SMILES IDX 80 85 57 86 58 87 66 88 59 89 61 90 67 91 60 92 62 93 63 94
REMARK SMILES IDX 64 95 65 96
REMARK H PARENT 87 49 55 60
REMARK Flexibility Score: inf
ROOT
ATOM      1  C   UNL A   1      33.770  21.524  26.267  1.00  0.00     0.188 C 
ENDROOT
BRANCH   1   2
ATOM      2  O   UNL A   1      32.490  22.052  25.959  1.00  0.00    -0.376 OA
BRANCH   2   3
ATOM      3  C   UNL A   1      32.404  23.464  25.830  1.00  0.00     0.202 C 
BRANCH   3   4
ATOM      4  C   UNL A   1      31.145  24.169  26.366  1.00  0.00     0.261 C 
BRANCH   4   5
ATOM      5  O   UNL A   1      30.397  24.919  25.398  1.00  0.00    -0.462 OA
BRANCH   5   6
ATOM      6  C   UNL A   1      30.633  24.673  24.077  1.00  0.00     0.328 C 
ATOM      7  O   UNL A   1      30.614  23.560  23.572  1.00  0.00    -0.250 OA
BRANCH   6   8
ATOM      8  C   UNL A   1      30.878  26.010  23.343  1.00  0.00     0.193 C 
ATOM      9  N   UNL A   1      31.719  26.917  24.133  1.00  0.00    -0.343 N 
ATOM     10  C   UNL A   1      33.138  26.583  24.233  1.00  0.00     0.119 C 
ATOM     11  C   UNL A   1      33.765  26.304  22.867  1.00  0.00     0.022 C 
ATOM     12  C   UNL A   1      31.474  25.829  21.942  1.00  0.00     0.037 C 
ATOM     13  C   UNL A   1      32.928  25.381  21.985  1.00  0.00     0.005 C 
BRANCH   9  14
ATOM     14  C   UNL A   1      31.271  28.215  24.332  1.00  0.00     0.133 A 
ATOM     15  C   UNL A   1      31.337  30.213  25.474  1.00  0.00     0.130 A 
ATOM     16  N   UNL A   1      30.391  30.791  24.715  1.00  0.00    -0.235 NA
ATOM     17  N   UNL A   1      31.779  28.946  25.335  1.00  0.00    -0.216 NA
ATOM     18  C   UNL A   1      29.850  30.031  23.747  1.00  0.00     0.072 A 
ATOM     19  C   UNL A   1      30.284  28.740  23.512  1.00  0.00     0.073 A 
BRANCH  15  20
ATOM     20  C   UNL A   1      31.921  31.041  26.583  1.00  0.00     0.074 C 
ATOM     21  C   UNL A   1      33.110  30.342  27.223  1.00  0.00     0.012 C 
ENDBRANCH  15  20
BRANCH  18  22
ATOM     22  C   UNL A   1      28.671  30.587  22.981  1.00  0.00     0.216 C 
BRANCH  22  23
ATOM     23  O   UNL A   1      27.405  30.153  23.497  1.00  0.00    -0.378 OA
ATOM     24  C   UNL A   1      27.012  28.872  23.022  1.00  0.00     0.195 C 
ENDBRANCH  22  23
ENDBRANCH  18  22
ENDBRANCH   9  14
ENDBRANCH   6   8
ENDBRANCH   5   6
ENDBRANCH   4   5
ENDBRANCH   3   4
ENDBRANCH   2   3
ENDBRANCH   1   2
BRANCH   1  25
ATOM     25  C   UNL A   1      34.441  20.842  25.056  1.00  0.00     0.188 C 
BRANCH  25  26
ATOM     26  O   UNL A   1      35.755  21.213  24.670  1.00  0.00    -0.376 OA
BRANCH  26  27
ATOM     27  C   UNL A   1      36.654  21.636  25.692  1.00  0.00     0.202 C 
BRANCH  27  28
ATOM     28  C   UNL A   1      38.163  21.309  25.616  1.00  0.00     0.261 C 
BRANCH  28  29
ATOM     29  O   UNL A   1      39.073  22.423  25.568  1.00  0.00    -0.460 OA
BRANCH  29  30
ATOM     30  C   UNL A   1      39.816  22.624  26.682  1.00  0.00     0.338 C 
ATOM     31  O   UNL A   1      40.591  21.821  27.200  1.00  0.00    -0.246 OA
BRANCH  30  32
ATOM     32  C   UNL A   1      39.763  24.044  27.087  1.00  0.00     0.060 A 
ATOM     33  C   UNL A   1      40.334  25.002  26.232  1.00  0.00     0.016 A 
ATOM     34  C   UNL A   1      39.224  24.430  28.314  1.00  0.00     0.016 A 
ATOM     35  C   UNL A   1      40.406  26.339  26.616  1.00  0.00     0.010 A 
ATOM     36  C   UNL A   1      39.329  25.768  28.714  1.00  0.00     0.010 A 
ATOM     37  C   UNL A   1      39.962  26.716  27.887  1.00  0.00    -0.014 A 
BRANCH  37  38
ATOM     38  C   UNL A   1      40.392  28.025  28.438  1.00  0.00     0.031 A 
ATOM     39  C   UNL A   1      41.866  28.269  28.615  1.00  0.00     0.074 A 
ATOM     40  C   UNL A   1      39.508  28.984  28.760  1.00  0.00     0.049 A 
ATOM     41  N   UNL A   1      42.484  29.316  29.096  1.00  0.00    -0.248 NA
ATOM     42  C   UNL A   1      42.762  27.177  28.201  1.00  0.00     0.031 C 
ATOM     43  C   UNL A   1      38.059  28.878  28.628  1.00  0.00     0.029 A 
ATOM     44  N   UNL A   1      39.712  30.231  29.297  1.00  0.00    -0.354 N 
ATOM     45  C   UNL A   1      43.836  28.995  29.077  1.00  0.00     0.074 A 
ATOM     46  C   UNL A   1      43.947  27.652  28.552  1.00  0.00     0.031 C 
ATOM     47  C   UNL A   1      37.497  29.998  29.115  1.00  0.00     0.029 A 
ATOM     48  C   UNL A   1      38.547  30.888  29.609  1.00  0.00     0.049 A 
ATOM     49  H   UNL A   1      40.606  30.616  29.445  1.00  0.00     0.167 HD
ATOM     50  C   UNL A   1      44.896  29.750  29.452  1.00  0.00     0.034 A 
ATOM     51  C   UNL A   1      38.350  32.062  30.246  1.00  0.00     0.034 A 
ATOM     52  C   UNL A   1      44.788  31.088  29.968  1.00  0.00     0.049 A 
ATOM     53  C   UNL A   1      39.539  32.886  30.669  1.00  0.00     0.074 A 
ATOM     54  C   UNL A   1      45.803  31.956  30.329  1.00  0.00     0.029 A 
ATOM     55  N   UNL A   1      43.594  31.744  30.221  1.00  0.00    -0.354 N 
ATOM     56  N   UNL A   1      40.817  32.622  30.537  1.00  0.00    -0.248 NA
ATOM     57  C   UNL A   1      39.259  34.188  31.291  1.00  0.00     0.031 C 
ATOM     58  C   UNL A   1      45.221  33.122  30.835  1.00  0.00     0.029 A 
ATOM     59  C   UNL A   1      43.843  33.000  30.747  1.00  0.00     0.049 A 
ATOM     60  H   UNL A   1      42.698  31.371  30.050  1.00  0.00     0.167 HD
ATOM     61  C   UNL A   1      41.492  33.737  31.024  1.00  0.00     0.074 A 
ATOM     62  C   UNL A   1      40.479  34.686  31.441  1.00  0.00     0.031 C 
ATOM     63  C   UNL A   1      42.828  33.955  31.120  1.00  0.00     0.034 A 
BRANCH  50  64
ATOM     64  C   UNL A   1      46.264  29.132  29.315  1.00  0.00     0.023 A 
ATOM     65  C   UNL A   1      46.773  28.311  30.343  1.00  0.00     0.012 A 
ATOM     66  C   UNL A   1      47.047  29.367  28.169  1.00  0.00     0.148 A 
ATOM     67  C   UNL A   1      48.059  27.779  30.256  1.00  0.00     0.002 A 
ATOM     68  C   UNL A   1      48.308  28.790  28.067  1.00  0.00     0.091 A 
ATOM     69  F   UNL A   1      46.560  30.171  27.214  1.00  0.00    -0.205 F 
ATOM     70  C   UNL A   1      48.822  28.012  29.116  1.00  0.00     0.022 A 
BRANCH  68  71
ATOM     71  S   UNL A   1      49.328  28.966  26.600  1.00  0.00     0.127 S 
ATOM     72  O   UNL A   1      50.485  28.141  26.945  1.00  0.00    -0.237 OA
ATOM     73  O   UNL A   1      48.469  28.406  25.557  1.00  0.00    -0.237 OA
ATOM     74  O   UNL A   1      49.589  30.392  26.465  1.00  0.00    -0.744 OA
ENDBRANCH  68  71
ENDBRANCH  50  64
BRANCH  51  75
ATOM     75  C   UNL A   1      36.960  32.530  30.498  1.00  0.00     0.023 A 
ATOM     76  C   UNL A   1      36.398  32.399  31.782  1.00  0.00     0.012 A 
ATOM     77  C   UNL A   1      36.213  33.151  29.478  1.00  0.00     0.148 A 
ATOM     78  C   UNL A   1      35.107  32.864  32.041  1.00  0.00     0.002 A 
ATOM     79  C   UNL A   1      34.952  33.661  29.757  1.00  0.00     0.091 A 
ATOM     80  F   UNL A   1      36.766  33.253  28.261  1.00  0.00    -0.205 F 
ATOM     81  C   UNL A   1      34.390  33.506  31.034  1.00  0.00     0.022 A 
BRANCH  79  82
ATOM     82  S   UNL A   1      34.009  34.616  28.564  1.00  0.00     0.127 S 
ATOM     83  O   UNL A   1      32.686  34.649  29.184  1.00  0.00    -0.237 OA
ATOM     84  O   UNL A   1      34.726  35.891  28.572  1.00  0.00    -0.237 OA
ATOM     85  O   UNL A   1      34.095  33.882  27.309  1.00  0.00    -0.744 OA
ENDBRANCH  79  82
ENDBRANCH  51  75
BRANCH  63  86
ATOM     86  C   UNL A   1      43.290  35.288  31.654  1.00  0.00     0.023 A 
ATOM     87  C   UNL A   1      43.515  35.461  33.034  1.00  0.00     0.012 A 
ATOM     88  C   UNL A   1      43.572  36.352  30.772  1.00  0.00     0.148 A 
ATOM     89  C   UNL A   1      43.977  36.681  33.530  1.00  0.00     0.002 A 
ATOM     90  C   UNL A   1      44.081  37.546  31.267  1.00  0.00     0.091 A 
ATOM     91  F   UNL A   1      43.335  36.176  29.464  1.00  0.00    -0.205 F 
ATOM     92  C   UNL A   1      44.270  37.718  32.647  1.00  0.00     0.022 A 
BRANCH  90  93
ATOM     93  S   UNL A   1      44.582  38.897  30.193  1.00  0.00     0.127 S 
ATOM     94  O   UNL A   1      45.055  39.886  31.160  1.00  0.00    -0.237 OA
ATOM     95  O   UNL A   1      45.635  38.280  29.387  1.00  0.00    -0.237 OA
ATOM     96  O   UNL A   1      43.392  39.274  29.443  1.00  0.00    -0.744 OA
ENDBRANCH  90  93
ENDBRANCH  63  86
ENDBRANCH  37  38
ENDBRANCH  30  32
ENDBRANCH  29  30
ENDBRANCH  28  29
ENDBRANCH  27  28
ENDBRANCH  26  27
ENDBRANCH  25  26
ENDBRANCH   1  25
TORSDOF 24
ENDMDL
MODEL 3
REMARK VINA RESULT:     -10.0      2.012      7.689
REMARK SMILES CCc1nc(COC)cc(N2CCCC[C@H]2C(=O)OCCOCCOCCOC(=O)c2ccc(-c3c4nc(c(-c5cccc(S(=O)(=O)[O-])c5F)c5ccc([nH]5)c(-c5cccc(S(=O)(=O)[O-])c5F)c5nc(c(-c6cccc(S(=O)(=O)[O-])c6F)c6ccc3[nH]6)C=C5)C=C4)cc2)n1
REMARK SMILES IDX 23 1 22 2 21 3 20 4 19 5 17 6 18 7 16 8 11 9 12 10 13 11
REMARK SMILES IDX 15 12 14 13 10 14 3 15 4 16 94 17 5 18 9 19 2 20 1 21 6 22
REMARK SMILES IDX 7 23 8 24 24 25 25 26 26 27 27 28 28 29 29 30 30 31 31 32
REMARK SMILES IDX 32 33 93 34 33 35 92 36 34 37 35 38 36 39 86 40 37 41 91 42
REMARK SMILES IDX 85 43 87 44 38 45 90 46 84 47 83 48 39 50 71 51 51 52 70 53
REMARK SMILES IDX 52 54 55 55 69 56 88 57 53 58 54 59 68 61 89 62 56 63 40 64
REMARK SMILES IDX 41 65 49 66 42 67 44 68 50 69 43 70 45 71 46 72 47 73 48 74
REMARK SMILES IDX 72 75 73 76 81 77 74 78 76 79 82 80 75 81 77 82 78 83 79 84
REMARK SMILES IDX 80 85 57 86 58 87 66 88 59 89 61 90 67 91 60 92 62 93 63 94
REMARK SMILES IDX 64 95 65 96
REMARK H PARENT 87 49 55 60
REMARK Flexibility Score: inf
ROOT
ATOM      1  C   UNL A   1      31.994  29.063  24.656  1.00  0.00     0.188 C 
ENDROOT
BRANCH   1   2
ATOM      2  O   UNL A   1      31.044  28.031  24.449  1.00  0.00    -0.376 OA
BRANCH   2   3
ATOM      3  C   UNL A   1      30.709  27.245  25.584  1.00  0.00     0.202 C 
BRANCH   3   4
ATOM      4  C   UNL A   1      30.070  25.863  25.351  1.00  0.00     0.261 C 
BRANCH   4   5
ATOM      5  O   UNL A   1      30.985  24.804  25.039  1.00  0.00    -0.462 OA
BRANCH   5   6
ATOM      6  C   UNL A   1      31.794  24.343  26.037  1.00  0.00     0.328 C 
ATOM      7  O   UNL A   1      31.463  24.272  27.212  1.00  0.00    -0.250 OA
BRANCH   6   8
ATOM      8  C   UNL A   1      33.146  23.899  25.436  1.00  0.00     0.193 C 
ATOM      9  N   UNL A   1      32.974  22.839  24.434  1.00  0.00    -0.343 N 
ATOM     10  C   UNL A   1      32.404  23.233  23.148  1.00  0.00     0.119 C 
ATOM     11  C   UNL A   1      33.113  24.446  22.546  1.00  0.00     0.022 C 
ATOM     12  C   UNL A   1      33.951  25.060  24.838  1.00  0.00     0.037 C 
ATOM     13  C   UNL A   1      33.343  25.579  23.543  1.00  0.00     0.005 C 
BRANCH   9  14
ATOM     14  C   UNL A   1      33.746  21.694  24.558  1.00  0.00     0.133 A 
ATOM     15  C   UNL A   1      35.789  20.664  24.812  1.00  0.00     0.130 A 
ATOM     16  N   UNL A   1      35.273  19.423  24.817  1.00  0.00    -0.235 NA
ATOM     17  N   UNL A   1      35.079  21.801  24.663  1.00  0.00    -0.216 NA
ATOM     18  C   UNL A   1      33.942  19.325  24.656  1.00  0.00     0.072 A 
ATOM     19  C   UNL A   1      33.141  20.446  24.545  1.00  0.00     0.073 A 
BRANCH  15  20
ATOM     20  C   UNL A   1      37.281  20.782  24.953  1.00  0.00     0.074 C 
ATOM     21  C   UNL A   1      37.669  22.115  25.575  1.00  0.00     0.012 C 
ENDBRANCH  15  20
BRANCH  18  22
ATOM     22  C   UNL A   1      33.345  17.946  24.490  1.00  0.00     0.216 C 
BRANCH  22  23
ATOM     23  O   UNL A   1      32.731  17.447  25.688  1.00  0.00    -0.378 OA
ATOM     24  C   UNL A   1      32.761  16.029  25.788  1.00  0.00     0.195 C 
ENDBRANCH  22  23
ENDBRANCH  18  22
ENDBRANCH   9  14
ENDBRANCH   6   8
ENDBRANCH   5   6
ENDBRANCH   4   5
ENDBRANCH   3   4
ENDBRANCH   2   3
ENDBRANCH   1   2
BRANCH   1  25
ATOM     25  C   UNL A   1      31.710  29.888  25.929  1.00  0.00     0.188 C 
BRANCH  25  26
ATOM     26  O   UNL A   1      32.588  30.938  26.306  1.00  0.00    -0.376 OA
BRANCH  26  27
ATOM     27  C   UNL A   1      32.027  32.070  26.964  1.00  0.00     0.202 C 
BRANCH  27  28
ATOM     28  C   UNL A   1      32.920  33.227  27.469  1.00  0.00     0.261 C 
BRANCH  28  29
ATOM     29  O   UNL A   1      32.420  34.007  28.570  1.00  0.00    -0.460 OA
BRANCH  29  30
ATOM     30  C   UNL A   1      33.340  34.743  29.235  1.00  0.00     0.338 C 
ATOM     31  O   UNL A   1      33.187  35.880  29.679  1.00  0.00    -0.246 OA
BRANCH  30  32
ATOM     32  C   UNL A   1      34.514  33.913  29.580  1.00  0.00     0.060 A 
ATOM     33  C   UNL A   1      34.316  32.792  30.404  1.00  0.00     0.016 A 
ATOM     34  C   UNL A   1      35.798  34.259  29.161  1.00  0.00     0.016 A 
ATOM     35  C   UNL A   1      35.401  32.039  30.846  1.00  0.00     0.010 A 
ATOM     36  C   UNL A   1      36.891  33.523  29.634  1.00  0.00     0.010 A 
ATOM     37  C   UNL A   1      36.699  32.440  30.515  1.00  0.00    -0.014 A 
BRANCH  37  38
ATOM     38  C   UNL A   1      37.839  31.893  31.291  1.00  0.00     0.031 A 
ATOM     39  C   UNL A   1      38.657  30.794  30.668  1.00  0.00     0.074 A 
ATOM     40  C   UNL A   1      38.159  32.361  32.509  1.00  0.00     0.049 A 
ATOM     41  N   UNL A   1      39.681  30.142  31.154  1.00  0.00    -0.248 NA
ATOM     42  C   UNL A   1      38.258  30.370  29.316  1.00  0.00     0.031 C 
ATOM     43  C   UNL A   1      37.455  33.425  33.217  1.00  0.00     0.029 A 
ATOM     44  N   UNL A   1      39.149  31.970  33.376  1.00  0.00    -0.354 N 
ATOM     45  C   UNL A   1      40.024  29.206  30.185  1.00  0.00     0.074 A 
ATOM     46  C   UNL A   1      39.091  29.366  29.091  1.00  0.00     0.031 C 
ATOM     47  C   UNL A   1      38.007  33.574  34.434  1.00  0.00     0.029 A 
ATOM     48  C   UNL A   1      39.089  32.602  34.594  1.00  0.00     0.049 A 
ATOM     49  H   UNL A   1      39.833  31.300  33.148  1.00  0.00     0.167 HD
ATOM     50  C   UNL A   1      41.030  28.300  30.194  1.00  0.00     0.034 A 
ATOM     51  C   UNL A   1      39.807  32.400  35.718  1.00  0.00     0.034 A 
ATOM     52  C   UNL A   1      41.962  28.145  31.278  1.00  0.00     0.049 A 
ATOM     53  C   UNL A   1      40.916  31.379  35.718  1.00  0.00     0.074 A 
ATOM     54  C   UNL A   1      43.048  27.292  31.364  1.00  0.00     0.029 A 
ATOM     55  N   UNL A   1      41.906  28.840  32.475  1.00  0.00    -0.354 N 
ATOM     56  N   UNL A   1      41.307  30.583  34.752  1.00  0.00    -0.248 NA
ATOM     57  C   UNL A   1      41.710  31.260  36.950  1.00  0.00     0.031 C 
ATOM     58  C   UNL A   1      43.625  27.446  32.628  1.00  0.00     0.029 A 
ATOM     59  C   UNL A   1      42.927  28.427  33.314  1.00  0.00     0.049 A 
ATOM     60  H   UNL A   1      41.237  29.529  32.697  1.00  0.00     0.167 HD
ATOM     61  C   UNL A   1      42.412  29.895  35.244  1.00  0.00     0.074 A 
ATOM     62  C   UNL A   1      42.637  30.380  36.591  1.00  0.00     0.031 C 
ATOM     63  C   UNL A   1      43.170  28.947  34.638  1.00  0.00     0.034 A 
BRANCH  50  64
ATOM     64  C   UNL A   1      41.163  27.408  28.987  1.00  0.00     0.023 A 
ATOM     65  C   UNL A   1      40.378  26.241  28.883  1.00  0.00     0.012 A 
ATOM     66  C   UNL A   1      42.069  27.723  27.956  1.00  0.00     0.148 A 
ATOM     67  C   UNL A   1      40.531  25.375  27.801  1.00  0.00     0.002 A 
ATOM     68  C   UNL A   1      42.178  26.882  26.855  1.00  0.00     0.091 A 
ATOM     69  F   UNL A   1      42.827  28.821  28.083  1.00  0.00    -0.205 F 
ATOM     70  C   UNL A   1      41.424  25.700  26.785  1.00  0.00     0.022 A 
BRANCH  68  71
ATOM     71  S   UNL A   1      43.241  27.263  25.458  1.00  0.00     0.127 S 
ATOM     72  O   UNL A   1      44.383  27.892  26.120  1.00  0.00    -0.237 OA
ATOM     73  O   UNL A   1      43.512  25.935  24.906  1.00  0.00    -0.237 OA
ATOM     74  O   UNL A   1      42.460  28.130  24.588  1.00  0.00    -0.744 OA
ENDBRANCH  68  71
ENDBRANCH  50  64
BRANCH  51  75
ATOM     75  C   UNL A   1      39.504  33.208  36.932  1.00  0.00     0.023 A 
ATOM     76  C   UNL A   1      38.464  32.815  37.794  1.00  0.00     0.012 A 
ATOM     77  C   UNL A   1      40.280  34.338  37.257  1.00  0.00     0.148 A 
ATOM     78  C   UNL A   1      38.190  33.544  38.952  1.00  0.00     0.002 A 
ATOM     79  C   UNL A   1      40.039  35.025  38.439  1.00  0.00     0.091 A 
ATOM     80  F   UNL A   1      41.258  34.698  36.414  1.00  0.00    -0.205 F 
ATOM     81  C   UNL A   1      38.984  34.640  39.282  1.00  0.00     0.022 A 
BRANCH  79  82
ATOM     82  S   UNL A   1      41.089  36.364  39.011  1.00  0.00     0.127 S 
ATOM     83  O   UNL A   1      40.528  37.511  38.299  1.00  0.00    -0.237 OA
ATOM     84  O   UNL A   1      40.834  36.346  40.451  1.00  0.00    -0.237 OA
ATOM     85  O   UNL A   1      42.446  35.996  38.632  1.00  0.00    -0.744 OA
ENDBRANCH  79  82
ENDBRANCH  51  75
BRANCH  63  86
ATOM     86  C   UNL A   1      44.349  28.392  35.398  1.00  0.00     0.023 A 
ATOM     87  C   UNL A   1      45.639  28.921  35.193  1.00  0.00     0.012 A 
ATOM     88  C   UNL A   1      44.162  27.392  36.375  1.00  0.00     0.148 A 
ATOM     89  C   UNL A   1      46.727  28.438  35.921  1.00  0.00     0.002 A 
ATOM     90  C   UNL A   1      45.241  26.951  37.131  1.00  0.00     0.091 A 
ATOM     91  F   UNL A   1      42.931  26.886  36.544  1.00  0.00    -0.205 F 
ATOM     92  C   UNL A   1      46.527  27.462  36.895  1.00  0.00     0.022 A 
BRANCH  90  93
ATOM     93  S   UNL A   1      45.057  25.775  38.476  1.00  0.00     0.127 S 
ATOM     94  O   UNL A   1      46.437  25.631  38.937  1.00  0.00    -0.237 OA
ATOM     95  O   UNL A   1      44.177  26.491  39.399  1.00  0.00    -0.237 OA
ATOM     96  O   UNL A   1      44.467  24.581  37.885  1.00  0.00    -0.744 OA
ENDBRANCH  90  93
ENDBRANCH  63  86
ENDBRANCH  37  38
ENDBRANCH  30  32
ENDBRANCH  29  30
ENDBRANCH  28  29
ENDBRANCH  27  28
ENDBRANCH  26  27
ENDBRANCH  25  26
ENDBRANCH   1  25
TORSDOF 24
ENDMDL
