MODEL 1
REMARK VINA RESULT:      -9.6      0.000      0.000
REMARK SMILES O=C(C[C@H]([NH2+]Cc1ccccc1C1CC1)c1cccs1)OCCOCCOCCOC(=O)c1ccc(-c2c3nc(c(-c4cccc(S(=O)(=O)[O-])c4F)c4ccc([nH]4)c(-c4cccc(S(=O)(=O)[O-])c4F)c4nc(c(-c5cccc(S(=O)(=O)[O-])c5F)c5ccc2[nH]5)C=C4)C=C3)cc1
REMARK SMILES IDX 25 1 24 2 23 3 22 4 21 5 2 6 1 7 3 8 4 9 16 10 17 11 20 12
REMARK SMILES IDX 18 13 19 14 5 15 6 18 7 19 8 20 12 21 9 22 11 23 10 24 13 25
REMARK SMILES IDX 14 26 15 27 26 28 27 29 28 30 29 31 30 32 31 33 32 34 33 35
REMARK SMILES IDX 34 36 95 37 35 38 94 39 36 40 37 41 38 42 88 43 39 44 93 45
REMARK SMILES IDX 87 46 89 47 40 48 92 49 86 50 85 51 41 53 73 54 53 55 72 56
REMARK SMILES IDX 54 57 57 58 71 59 90 60 55 61 56 62 70 64 91 65 58 66 42 67
REMARK SMILES IDX 43 68 51 69 44 70 46 71 52 72 45 73 47 74 48 75 49 76 50 77
REMARK SMILES IDX 74 78 75 79 83 80 76 81 78 82 84 83 77 84 79 85 80 86 81 87
REMARK SMILES IDX 82 88 59 89 60 90 68 91 61 92 63 93 69 94 62 95 64 96 65 97
REMARK SMILES IDX 66 98 67 99
REMARK H PARENT 5 16 5 17 89 52 57 63
REMARK Flexibility Score: inf
ROOT
ATOM      1  C   UNL A   1      36.837  23.185  24.629  1.00  0.00     0.188 C 
ENDROOT
BRANCH   1   2
ATOM      2  O   UNL A   1      36.622  24.317  25.478  1.00  0.00    -0.376 OA
BRANCH   2   3
ATOM      3  C   UNL A   1      35.265  24.683  25.682  1.00  0.00     0.202 C 
BRANCH   3   4
ATOM      4  C   UNL A   1      34.406  23.493  26.076  1.00  0.00     0.261 C 
BRANCH   4   5
ATOM      5  O   UNL A   1      33.043  23.859  26.343  1.00  0.00    -0.463 OA
BRANCH   5   6
ATOM      6  C   UNL A   1      31.968  23.055  26.486  1.00  0.00     0.312 C 
ATOM      7  O   UNL A   1      31.536  22.878  27.628  1.00  0.00    -0.252 OA
BRANCH   6   8
ATOM      8  C   UNL A   1      31.376  22.259  25.333  1.00  0.00     0.193 C 
BRANCH   8   9
ATOM      9  C   UNL A   1      32.173  22.083  24.028  1.00  0.00     0.235 C 
BRANCH   9  10
ATOM     10  C   UNL A   1      32.563  20.630  23.824  1.00  0.00     0.062 A 
ATOM     11  C   UNL A   1      32.163  19.717  22.864  1.00  0.00     0.021 A 
ATOM     12  S   UNL A   1      33.621  19.878  24.963  1.00  0.00    -0.143 S 
ATOM     13  C   UNL A   1      32.515  18.379  23.207  1.00  0.00     0.012 A 
ATOM     14  C   UNL A   1      33.270  18.322  24.354  1.00  0.00     0.065 A 
ENDBRANCH   9  10
BRANCH   9  15
ATOM     15  N   UNL A   1      31.412  22.638  22.884  1.00  0.00    -0.335 N 
ATOM     16  H   UNL A   1      30.767  21.924  22.547  1.00  0.00     0.347 HD
ATOM     17  H   UNL A   1      32.090  22.908  22.171  1.00  0.00     0.347 HD
BRANCH  15  18
ATOM     18  C   UNL A   1      30.642  23.836  23.227  1.00  0.00     0.298 C 
BRANCH  18  19
ATOM     19  C   UNL A   1      31.504  25.070  23.030  1.00  0.00     0.010 A 
ATOM     20  C   UNL A   1      32.441  24.986  21.968  1.00  0.00     0.010 A 
ATOM     21  C   UNL A   1      31.392  26.276  23.765  1.00  0.00    -0.036 A 
ATOM     22  C   UNL A   1      33.275  26.048  21.632  1.00  0.00     0.001 A 
ATOM     23  C   UNL A   1      32.275  27.327  23.394  1.00  0.00     0.004 A 
ATOM     24  C   UNL A   1      33.196  27.225  22.352  1.00  0.00     0.000 A 
BRANCH  21  25
ATOM     25  C   UNL A   1      30.414  26.640  24.874  1.00  0.00     0.020 C 
ATOM     26  C   UNL A   1      29.813  25.809  25.969  1.00  0.00     0.009 C 
ATOM     27  C   UNL A   1      30.979  26.688  26.282  1.00  0.00     0.009 C 
ENDBRANCH  21  25
ENDBRANCH  18  19
ENDBRANCH  15  18
ENDBRANCH   9  15
ENDBRANCH   8   9
ENDBRANCH   6   8
ENDBRANCH   5   6
ENDBRANCH   4   5
ENDBRANCH   3   4
ENDBRANCH   2   3
ENDBRANCH   1   2
BRANCH   1  28
ATOM     28  C   UNL A   1      37.452  21.950  25.295  1.00  0.00     0.188 C 
BRANCH  28  29
ATOM     29  O   UNL A   1      37.545  20.774  24.497  1.00  0.00    -0.376 OA
BRANCH  29  30
ATOM     30  C   UNL A   1      37.851  19.547  25.155  1.00  0.00     0.202 C 
BRANCH  30  31
ATOM     31  C   UNL A   1      39.339  19.271  25.364  1.00  0.00     0.261 C 
BRANCH  31  32
ATOM     32  O   UNL A   1      39.758  19.658  26.687  1.00  0.00    -0.460 OA
BRANCH  32  33
ATOM     33  C   UNL A   1      41.052  20.037  26.809  1.00  0.00     0.338 C 
ATOM     34  O   UNL A   1      42.037  19.366  26.553  1.00  0.00    -0.246 OA
BRANCH  33  35
ATOM     35  C   UNL A   1      41.137  21.459  27.198  1.00  0.00     0.060 A 
ATOM     36  C   UNL A   1      40.779  22.416  26.242  1.00  0.00     0.016 A 
ATOM     37  C   UNL A   1      41.672  21.854  28.428  1.00  0.00     0.016 A 
ATOM     38  C   UNL A   1      41.030  23.766  26.480  1.00  0.00     0.010 A 
ATOM     39  C   UNL A   1      41.923  23.212  28.665  1.00  0.00     0.010 A 
ATOM     40  C   UNL A   1      41.652  24.169  27.670  1.00  0.00    -0.014 A 
BRANCH  40  41
ATOM     41  C   UNL A   1      42.153  25.562  27.789  1.00  0.00     0.031 A 
ATOM     42  C   UNL A   1      41.272  26.612  28.415  1.00  0.00     0.074 A 
ATOM     43  C   UNL A   1      43.396  25.884  27.386  1.00  0.00     0.049 A 
ATOM     44  N   UNL A   1      41.539  27.866  28.680  1.00  0.00    -0.248 NA
ATOM     45  C   UNL A   1      39.912  26.195  28.797  1.00  0.00     0.031 C 
ATOM     46  C   UNL A   1      44.341  24.971  26.748  1.00  0.00     0.029 A 
ATOM     47  N   UNL A   1      44.068  27.080  27.445  1.00  0.00    -0.354 N 
ATOM     48  C   UNL A   1      40.386  28.388  29.252  1.00  0.00     0.074 A 
ATOM     49  C   UNL A   1      39.403  27.325  29.269  1.00  0.00     0.031 C 
ATOM     50  C   UNL A   1      45.466  25.646  26.452  1.00  0.00     0.029 A 
ATOM     51  C   UNL A   1      45.318  27.038  26.876  1.00  0.00     0.049 A 
ATOM     52  H   UNL A   1      43.690  27.891  27.855  1.00  0.00     0.167 HD
ATOM     53  C   UNL A   1      40.168  29.629  29.750  1.00  0.00     0.034 A 
ATOM     54  C   UNL A   1      46.237  28.011  26.714  1.00  0.00     0.034 A 
ATOM     55  C   UNL A   1      41.144  30.685  29.755  1.00  0.00     0.049 A 
ATOM     56  C   UNL A   1      45.971  29.384  27.276  1.00  0.00     0.074 A 
ATOM     57  C   UNL A   1      41.024  31.965  30.268  1.00  0.00     0.029 A 
ATOM     58  N   UNL A   1      42.418  30.588  29.220  1.00  0.00    -0.354 N 
ATOM     59  N   UNL A   1      44.926  29.819  27.938  1.00  0.00    -0.248 NA
ATOM     60  C   UNL A   1      47.032  30.389  27.108  1.00  0.00     0.031 C 
ATOM     61  C   UNL A   1      42.225  32.646  30.034  1.00  0.00     0.029 A 
ATOM     62  C   UNL A   1      43.095  31.785  29.387  1.00  0.00     0.049 A 
ATOM     63  H   UNL A   1      42.788  29.786  28.785  1.00  0.00     0.167 HD
ATOM     64  C   UNL A   1      45.214  31.134  28.286  1.00  0.00     0.074 A 
ATOM     65  C   UNL A   1      46.546  31.415  27.792  1.00  0.00     0.031 C 
ATOM     66  C   UNL A   1      44.439  32.038  28.936  1.00  0.00     0.034 A 
BRANCH  53  67
ATOM     67  C   UNL A   1      38.832  29.900  30.390  1.00  0.00     0.023 A 
ATOM     68  C   UNL A   1      38.578  29.400  31.685  1.00  0.00     0.012 A 
ATOM     69  C   UNL A   1      37.863  30.700  29.755  1.00  0.00     0.148 A 
ATOM     70  C   UNL A   1      37.373  29.675  32.328  1.00  0.00     0.002 A 
ATOM     71  C   UNL A   1      36.678  30.999  30.417  1.00  0.00     0.091 A 
ATOM     72  F   UNL A   1      38.115  31.145  28.516  1.00  0.00    -0.205 F 
ATOM     73  C   UNL A   1      36.429  30.482  31.699  1.00  0.00     0.022 A 
BRANCH  71  74
ATOM     74  S   UNL A   1      35.426  32.085  29.724  1.00  0.00     0.127 S 
ATOM     75  O   UNL A   1      36.220  33.260  29.367  1.00  0.00    -0.237 OA
ATOM     76  O   UNL A   1      34.941  31.307  28.583  1.00  0.00    -0.237 OA
ATOM     77  O   UNL A   1      34.445  32.292  30.779  1.00  0.00    -0.744 OA
ENDBRANCH  71  74
ENDBRANCH  53  67
BRANCH  54  78
ATOM     78  C   UNL A   1      47.523  27.710  26.024  1.00  0.00     0.023 A 
ATOM     79  C   UNL A   1      48.656  27.349  26.778  1.00  0.00     0.012 A 
ATOM     80  C   UNL A   1      47.625  27.776  24.621  1.00  0.00     0.148 A 
ATOM     81  C   UNL A   1      49.875  27.092  26.150  1.00  0.00     0.002 A 
ATOM     82  C   UNL A   1      48.828  27.464  23.998  1.00  0.00     0.091 A 
ATOM     83  F   UNL A   1      46.544  28.146  23.919  1.00  0.00    -0.205 F 
ATOM     84  C   UNL A   1      49.959  27.138  24.761  1.00  0.00     0.022 A 
BRANCH  82  85
ATOM     85  S   UNL A   1      48.970  27.373  22.210  1.00  0.00     0.127 S 
ATOM     86  O   UNL A   1      48.454  26.036  21.935  1.00  0.00    -0.237 OA
ATOM     87  O   UNL A   1      48.105  28.470  21.774  1.00  0.00    -0.237 OA
ATOM     88  O   UNL A   1      50.384  27.586  21.928  1.00  0.00    -0.744 OA
ENDBRANCH  82  85
ENDBRANCH  54  78
BRANCH  66  89
ATOM     89  C   UNL A   1      45.012  33.413  29.163  1.00  0.00     0.023 A 
ATOM     90  C   UNL A   1      44.780  34.427  28.212  1.00  0.00     0.012 A 
ATOM     91  C   UNL A   1      45.732  33.719  30.335  1.00  0.00     0.148 A 
ATOM     92  C   UNL A   1      45.288  35.712  28.404  1.00  0.00     0.002 A 
ATOM     93  C   UNL A   1      46.198  35.014  30.540  1.00  0.00     0.091 A 
ATOM     94  F   UNL A   1      45.963  32.740  31.221  1.00  0.00    -0.205 F 
ATOM     95  C   UNL A   1      45.987  36.008  29.571  1.00  0.00     0.022 A 
BRANCH  93  96
ATOM     96  S   UNL A   1      47.032  35.499  32.057  1.00  0.00     0.127 S 
ATOM     97  O   UNL A   1      46.195  34.866  33.075  1.00  0.00    -0.237 OA
ATOM     98  O   UNL A   1      48.356  34.897  31.896  1.00  0.00    -0.237 OA
ATOM     99  O   UNL A   1      47.033  36.956  32.056  1.00  0.00    -0.744 OA
ENDBRANCH  93  96
ENDBRANCH  66  89
ENDBRANCH  40  41
ENDBRANCH  33  35
ENDBRANCH  32  33
ENDBRANCH  31  32
ENDBRANCH  30  31
ENDBRANCH  29  30
ENDBRANCH  28  29
ENDBRANCH   1  28
TORSDOF 26
ENDMDL
MODEL 2
REMARK VINA RESULT:      -9.3      2.755      9.306
REMARK SMILES O=C(C[C@H]([NH2+]Cc1ccccc1C1CC1)c1cccs1)OCCOCCOCCOC(=O)c1ccc(-c2c3nc(c(-c4cccc(S(=O)(=O)[O-])c4F)c4ccc([nH]4)c(-c4cccc(S(=O)(=O)[O-])c4F)c4nc(c(-c5cccc(S(=O)(=O)[O-])c5F)c5ccc2[nH]5)C=C4)C=C3)cc1
REMARK SMILES IDX 25 1 24 2 23 3 22 4 21 5 2 6 1 7 3 8 4 9 16 10 17 11 20 12
REMARK SMILES IDX 18 13 19 14 5 15 6 18 7 19 8 20 12 21 9 22 11 23 10 24 13 25
REMARK SMILES IDX 14 26 15 27 26 28 27 29 28 30 29 31 30 32 31 33 32 34 33 35
REMARK SMILES IDX 34 36 95 37 35 38 94 39 36 40 37 41 38 42 88 43 39 44 93 45
REMARK SMILES IDX 87 46 89 47 40 48 92 49 86 50 85 51 41 53 73 54 53 55 72 56
REMARK SMILES IDX 54 57 57 58 71 59 90 60 55 61 56 62 70 64 91 65 58 66 42 67
REMARK SMILES IDX 43 68 51 69 44 70 46 71 52 72 45 73 47 74 48 75 49 76 50 77
REMARK SMILES IDX 74 78 75 79 83 80 76 81 78 82 84 83 77 84 79 85 80 86 81 87
REMARK SMILES IDX 82 88 59 89 60 90 68 91 61 92 63 93 69 94 62 95 64 96 65 97
REMARK SMILES IDX 66 98 67 99
REMARK H PARENT 5 16 5 17 89 52 57 63
REMARK Flexibility Score: inf
ROOT
ATOM      1  C   UNL A   1      32.926  35.815  29.212  1.00  0.00     0.188 C 
ENDROOT
BRANCH   1   2
ATOM      2  O   UNL A   1      33.954  34.924  28.768  1.00  0.00    -0.376 OA
BRANCH   2   3
ATOM      3  C   UNL A   1      33.507  33.759  28.091  1.00  0.00     0.202 C 
BRANCH   3   4
ATOM      4  C   UNL A   1      34.611  32.726  27.942  1.00  0.00     0.261 C 
BRANCH   4   5
ATOM      5  O   UNL A   1      34.118  31.446  27.515  1.00  0.00    -0.463 OA
BRANCH   5   6
ATOM      6  C   UNL A   1      34.781  30.274  27.431  1.00  0.00     0.312 C 
ATOM      7  O   UNL A   1      36.006  30.320  27.290  1.00  0.00    -0.252 OA
BRANCH   6   8
ATOM      8  C   UNL A   1      34.073  28.930  27.355  1.00  0.00     0.193 C 
BRANCH   8   9
ATOM      9  C   UNL A   1      33.993  28.175  26.016  1.00  0.00     0.235 C 
BRANCH   9  10
ATOM     10  C   UNL A   1      33.167  26.909  26.156  1.00  0.00     0.062 A 
ATOM     11  C   UNL A   1      33.537  25.578  26.070  1.00  0.00     0.021 A 
ATOM     12  S   UNL A   1      31.463  27.043  26.397  1.00  0.00    -0.143 S 
ATOM     13  C   UNL A   1      32.414  24.709  25.950  1.00  0.00     0.012 A 
ATOM     14  C   UNL A   1      31.223  25.386  26.063  1.00  0.00     0.065 A 
ENDBRANCH   9  10
BRANCH   9  15
ATOM     15  N   UNL A   1      33.489  29.073  24.950  1.00  0.00    -0.335 N 
ATOM     16  H   UNL A   1      33.732  30.033  25.193  1.00  0.00     0.347 HD
ATOM     17  H   UNL A   1      32.480  28.935  24.891  1.00  0.00     0.347 HD
BRANCH  15  18
ATOM     18  C   UNL A   1      34.047  28.773  23.628  1.00  0.00     0.298 C 
BRANCH  18  19
ATOM     19  C   UNL A   1      33.198  27.716  22.945  1.00  0.00     0.010 A 
ATOM     20  C   UNL A   1      33.804  26.439  22.833  1.00  0.00     0.010 A 
ATOM     21  C   UNL A   1      31.869  27.899  22.490  1.00  0.00    -0.036 A 
ATOM     22  C   UNL A   1      33.140  25.352  22.270  1.00  0.00     0.001 A 
ATOM     23  C   UNL A   1      31.239  26.764  21.909  1.00  0.00     0.004 A 
ATOM     24  C   UNL A   1      31.851  25.516  21.800  1.00  0.00     0.000 A 
BRANCH  21  25
ATOM     25  C   UNL A   1      30.981  29.133  22.581  1.00  0.00     0.020 C 
ATOM     26  C   UNL A   1      29.502  29.297  22.394  1.00  0.00     0.009 C 
ATOM     27  C   UNL A   1      30.052  29.207  23.780  1.00  0.00     0.009 C 
ENDBRANCH  21  25
ENDBRANCH  18  19
ENDBRANCH  15  18
ENDBRANCH   9  15
ENDBRANCH   8   9
ENDBRANCH   6   8
ENDBRANCH   5   6
ENDBRANCH   4   5
ENDBRANCH   3   4
ENDBRANCH   2   3
ENDBRANCH   1   2
BRANCH   1  28
ATOM     28  C   UNL A   1      33.376  36.971  30.111  1.00  0.00     0.188 C 
BRANCH  28  29
ATOM     29  O   UNL A   1      33.193  36.799  31.513  1.00  0.00    -0.376 OA
BRANCH  29  30
ATOM     30  C   UNL A   1      33.158  35.466  32.020  1.00  0.00     0.202 C 
BRANCH  30  31
ATOM     31  C   UNL A   1      34.429  35.005  32.731  1.00  0.00     0.261 C 
BRANCH  31  32
ATOM     32  O   UNL A   1      34.877  33.734  32.222  1.00  0.00    -0.460 OA
BRANCH  32  33
ATOM     33  C   UNL A   1      35.729  33.046  33.017  1.00  0.00     0.338 C 
ATOM     34  O   UNL A   1      35.744  33.038  34.236  1.00  0.00    -0.246 OA
BRANCH  33  35
ATOM     35  C   UNL A   1      36.607  32.179  32.205  1.00  0.00     0.060 A 
ATOM     36  C   UNL A   1      37.520  31.363  32.882  1.00  0.00     0.016 A 
ATOM     37  C   UNL A   1      36.623  32.252  30.808  1.00  0.00     0.016 A 
ATOM     38  C   UNL A   1      38.503  30.680  32.170  1.00  0.00     0.010 A 
ATOM     39  C   UNL A   1      37.613  31.564  30.096  1.00  0.00     0.010 A 
ATOM     40  C   UNL A   1      38.591  30.818  30.777  1.00  0.00    -0.014 A 
BRANCH  40  41
ATOM     41  C   UNL A   1      39.795  30.308  30.074  1.00  0.00     0.031 A 
ATOM     42  C   UNL A   1      41.043  31.153  30.040  1.00  0.00     0.074 A 
ATOM     43  C   UNL A   1      39.800  29.087  29.509  1.00  0.00     0.049 A 
ATOM     44  N   UNL A   1      42.221  30.871  29.546  1.00  0.00    -0.248 NA
ATOM     45  C   UNL A   1      40.953  32.494  30.644  1.00  0.00     0.031 C 
ATOM     46  C   UNL A   1      38.658  28.177  29.455  1.00  0.00     0.029 A 
ATOM     47  N   UNL A   1      40.803  28.409  28.861  1.00  0.00    -0.354 N 
ATOM     48  C   UNL A   1      43.009  31.992  29.773  1.00  0.00     0.074 A 
ATOM     49  C   UNL A   1      42.168  32.975  30.423  1.00  0.00     0.031 C 
ATOM     50  C   UNL A   1      39.017  27.067  28.786  1.00  0.00     0.029 A 
ATOM     51  C   UNL A   1      40.412  27.190  28.364  1.00  0.00     0.049 A 
ATOM     52  H   UNL A   1      41.716  28.764  28.762  1.00  0.00     0.167 HD
ATOM     53  C   UNL A   1      44.322  32.181  29.499  1.00  0.00     0.034 A 
ATOM     54  C   UNL A   1      41.099  26.278  27.647  1.00  0.00     0.034 A 
ATOM     55  C   UNL A   1      45.170  31.203  28.872  1.00  0.00     0.049 A 
ATOM     56  C   UNL A   1      42.559  26.512  27.353  1.00  0.00     0.074 A 
ATOM     57  C   UNL A   1      46.521  31.294  28.584  1.00  0.00     0.029 A 
ATOM     58  N   UNL A   1      44.751  29.959  28.432  1.00  0.00    -0.354 N 
ATOM     59  N   UNL A   1      43.321  27.521  27.700  1.00  0.00    -0.248 NA
ATOM     60  C   UNL A   1      43.264  25.458  26.608  1.00  0.00     0.031 C 
ATOM     61  C   UNL A   1      46.917  30.106  27.960  1.00  0.00     0.029 A 
ATOM     62  C   UNL A   1      45.816  29.272  27.871  1.00  0.00     0.049 A 
ATOM     63  H   UNL A   1      43.833  29.613  28.506  1.00  0.00     0.167 HD
ATOM     64  C   UNL A   1      44.597  27.212  27.239  1.00  0.00     0.074 A 
ATOM     65  C   UNL A   1      44.512  25.907  26.619  1.00  0.00     0.031 C 
ATOM     66  C   UNL A   1      45.732  27.951  27.302  1.00  0.00     0.034 A 
BRANCH  53  67
ATOM     67  C   UNL A   1      44.946  33.482  29.931  1.00  0.00     0.023 A 
ATOM     68  C   UNL A   1      44.945  34.573  29.037  1.00  0.00     0.012 A 
ATOM     69  C   UNL A   1      45.462  33.651  31.230  1.00  0.00     0.148 A 
ATOM     70  C   UNL A   1      45.468  35.806  29.422  1.00  0.00     0.002 A 
ATOM     71  C   UNL A   1      45.949  34.894  31.619  1.00  0.00     0.091 A 
ATOM     72  F   UNL A   1      45.474  32.595  32.055  1.00  0.00    -0.205 F 
ATOM     73  C   UNL A   1      45.959  35.969  30.715  1.00  0.00     0.022 A 
BRANCH  71  74
ATOM     74  S   UNL A   1      46.542  35.228  33.282  1.00  0.00     0.127 S 
ATOM     75  O   UNL A   1      46.734  36.677  33.240  1.00  0.00    -0.237 OA
ATOM     76  O   UNL A   1      45.416  34.786  34.105  1.00  0.00    -0.237 OA
ATOM     77  O   UNL A   1      47.757  34.442  33.440  1.00  0.00    -0.744 OA
ENDBRANCH  71  74
ENDBRANCH  53  67
BRANCH  54  78
ATOM     78  C   UNL A   1      40.425  25.030  27.192  1.00  0.00     0.023 A 
ATOM     79  C   UNL A   1      39.251  25.109  26.417  1.00  0.00     0.012 A 
ATOM     80  C   UNL A   1      40.945  23.763  27.521  1.00  0.00     0.148 A 
ATOM     81  C   UNL A   1      38.591  23.951  26.007  1.00  0.00     0.002 A 
ATOM     82  C   UNL A   1      40.313  22.614  27.061  1.00  0.00     0.091 A 
ATOM     83  F   UNL A   1      42.048  23.704  28.281  1.00  0.00    -0.205 F 
ATOM     84  C   UNL A   1      39.127  22.704  26.318  1.00  0.00     0.022 A 
BRANCH  82  85
ATOM     85  S   UNL A   1      41.021  20.982  27.310  1.00  0.00     0.127 S 
ATOM     86  O   UNL A   1      40.161  20.149  26.475  1.00  0.00    -0.237 OA
ATOM     87  O   UNL A   1      42.386  21.156  26.810  1.00  0.00    -0.237 OA
ATOM     88  O   UNL A   1      40.943  20.747  28.746  1.00  0.00    -0.744 OA
ENDBRANCH  82  85
ENDBRANCH  54  78
BRANCH  66  89
ATOM     89  C   UNL A   1      46.981  27.364  26.696  1.00  0.00     0.023 A 
ATOM     90  C   UNL A   1      47.801  26.523  27.474  1.00  0.00     0.012 A 
ATOM     91  C   UNL A   1      47.316  27.598  25.347  1.00  0.00     0.148 A 
ATOM     92  C   UNL A   1      48.955  25.957  26.932  1.00  0.00     0.002 A 
ATOM     93  C   UNL A   1      48.444  26.994  24.802  1.00  0.00     0.091 A 
ATOM     94  F   UNL A   1      46.536  28.415  24.624  1.00  0.00    -0.205 F 
ATOM     95  C   UNL A   1      49.271  26.184  25.596  1.00  0.00     0.022 A 
BRANCH  93  96
ATOM     96  S   UNL A   1      48.872  27.165  23.064  1.00  0.00     0.127 S 
ATOM     97  O   UNL A   1      50.330  27.255  23.122  1.00  0.00    -0.237 OA
ATOM     98  O   UNL A   1      48.362  25.920  22.489  1.00  0.00    -0.237 OA
ATOM     99  O   UNL A   1      48.182  28.363  22.606  1.00  0.00    -0.744 OA
ENDBRANCH  93  96
ENDBRANCH  66  89
ENDBRANCH  40  41
ENDBRANCH  33  35
ENDBRANCH  32  33
ENDBRANCH  31  32
ENDBRANCH  30  31
ENDBRANCH  29  30
ENDBRANCH  28  29
ENDBRANCH   1  28
TORSDOF 26
ENDMDL
MODEL 3
REMARK VINA RESULT:      -9.0      3.336      9.104
REMARK SMILES O=C(C[C@H]([NH2+]Cc1ccccc1C1CC1)c1cccs1)OCCOCCOCCOC(=O)c1ccc(-c2c3nc(c(-c4cccc(S(=O)(=O)[O-])c4F)c4ccc([nH]4)c(-c4cccc(S(=O)(=O)[O-])c4F)c4nc(c(-c5cccc(S(=O)(=O)[O-])c5F)c5ccc2[nH]5)C=C4)C=C3)cc1
REMARK SMILES IDX 25 1 24 2 23 3 22 4 21 5 2 6 1 7 3 8 4 9 16 10 17 11 20 12
REMARK SMILES IDX 18 13 19 14 5 15 6 18 7 19 8 20 12 21 9 22 11 23 10 24 13 25
REMARK SMILES IDX 14 26 15 27 26 28 27 29 28 30 29 31 30 32 31 33 32 34 33 35
REMARK SMILES IDX 34 36 95 37 35 38 94 39 36 40 37 41 38 42 88 43 39 44 93 45
REMARK SMILES IDX 87 46 89 47 40 48 92 49 86 50 85 51 41 53 73 54 53 55 72 56
REMARK SMILES IDX 54 57 57 58 71 59 90 60 55 61 56 62 70 64 91 65 58 66 42 67
REMARK SMILES IDX 43 68 51 69 44 70 46 71 52 72 45 73 47 74 48 75 49 76 50 77
REMARK SMILES IDX 74 78 75 79 83 80 76 81 78 82 84 83 77 84 79 85 80 86 81 87
REMARK SMILES IDX 82 88 59 89 60 90 68 91 61 92 63 93 69 94 62 95 64 96 65 97
REMARK SMILES IDX 66 98 67 99
REMARK H PARENT 5 16 5 17 89 52 57 63
REMARK Flexibility Score: inf
ROOT
ATOM      1  C   UNL A   1      32.879  35.845  29.077  1.00  0.00     0.188 C 
ENDROOT
BRANCH   1   2
ATOM      2  O   UNL A   1      33.912  34.920  28.723  1.00  0.00    -0.376 OA
BRANCH   2   3
ATOM      3  C   UNL A   1      33.481  33.743  28.056  1.00  0.00     0.202 C 
BRANCH   3   4
ATOM      4  C   UNL A   1      34.585  32.703  27.964  1.00  0.00     0.261 C 
BRANCH   4   5
ATOM      5  O   UNL A   1      34.102  31.421  27.530  1.00  0.00    -0.463 OA
BRANCH   5   6
ATOM      6  C   UNL A   1      34.762  30.245  27.482  1.00  0.00     0.312 C 
ATOM      7  O   UNL A   1      35.992  30.284  27.390  1.00  0.00    -0.252 OA
BRANCH   6   8
ATOM      8  C   UNL A   1      34.051  28.904  27.390  1.00  0.00     0.193 C 
BRANCH   8   9
ATOM      9  C   UNL A   1      33.998  28.150  26.049  1.00  0.00     0.235 C 
BRANCH   9  10
ATOM     10  C   UNL A   1      33.152  26.895  26.168  1.00  0.00     0.062 A 
ATOM     11  C   UNL A   1      33.506  25.559  26.080  1.00  0.00     0.021 A 
ATOM     12  S   UNL A   1      31.446  27.050  26.378  1.00  0.00    -0.143 S 
ATOM     13  C   UNL A   1      32.374  24.706  25.934  1.00  0.00     0.012 A 
ATOM     14  C   UNL A   1      31.190  25.398  26.030  1.00  0.00     0.065 A 
ENDBRANCH   9  10
BRANCH   9  15
ATOM     15  N   UNL A   1      33.535  29.054  24.970  1.00  0.00    -0.335 N 
ATOM     16  H   UNL A   1      33.798  30.008  25.212  1.00  0.00     0.347 HD
ATOM     17  H   UNL A   1      32.523  28.942  24.896  1.00  0.00     0.347 HD
BRANCH  15  18
ATOM     18  C   UNL A   1      34.105  28.731  23.660  1.00  0.00     0.298 C 
BRANCH  18  19
ATOM     19  C   UNL A   1      33.230  27.704  22.962  1.00  0.00     0.010 A 
ATOM     20  C   UNL A   1      33.798  26.410  22.845  1.00  0.00     0.010 A 
ATOM     21  C   UNL A   1      31.911  27.930  22.499  1.00  0.00    -0.036 A 
ATOM     22  C   UNL A   1      33.107  25.348  22.269  1.00  0.00     0.001 A 
ATOM     23  C   UNL A   1      31.251  26.819  21.905  1.00  0.00     0.004 A 
ATOM     24  C   UNL A   1      31.827  25.554  21.792  1.00  0.00     0.000 A 
BRANCH  21  25
ATOM     25  C   UNL A   1      31.059  29.189  22.593  1.00  0.00     0.020 C 
ATOM     26  C   UNL A   1      29.589  29.401  22.383  1.00  0.00     0.009 C 
ATOM     27  C   UNL A   1      30.111  29.274  23.776  1.00  0.00     0.009 C 
ENDBRANCH  21  25
ENDBRANCH  18  19
ENDBRANCH  15  18
ENDBRANCH   9  15
ENDBRANCH   8   9
ENDBRANCH   6   8
ENDBRANCH   5   6
ENDBRANCH   4   5
ENDBRANCH   3   4
ENDBRANCH   2   3
ENDBRANCH   1   2
BRANCH   1  28
ATOM     28  C   UNL A   1      33.306  37.036  29.941  1.00  0.00     0.188 C 
BRANCH  28  29
ATOM     29  O   UNL A   1      32.987  36.967  31.327  1.00  0.00    -0.376 OA
BRANCH  29  30
ATOM     30  C   UNL A   1      32.809  35.675  31.904  1.00  0.00     0.202 C 
BRANCH  30  31
ATOM     31  C   UNL A   1      33.995  35.152  32.713  1.00  0.00     0.261 C 
BRANCH  31  32
ATOM     32  O   UNL A   1      34.450  33.882  32.206  1.00  0.00    -0.460 OA
BRANCH  32  33
ATOM     33  C   UNL A   1      35.235  33.160  33.040  1.00  0.00     0.338 C 
ATOM     34  O   UNL A   1      35.138  33.088  34.252  1.00  0.00    -0.246 OA
BRANCH  33  35
ATOM     35  C   UNL A   1      36.193  32.344  32.267  1.00  0.00     0.060 A 
ATOM     36  C   UNL A   1      37.080  31.534  32.984  1.00  0.00     0.016 A 
ATOM     37  C   UNL A   1      36.306  32.461  30.878  1.00  0.00     0.016 A 
ATOM     38  C   UNL A   1      38.132  30.901  32.325  1.00  0.00     0.010 A 
ATOM     39  C   UNL A   1      37.364  31.824  30.218  1.00  0.00     0.010 A 
ATOM     40  C   UNL A   1      38.314  31.084  30.947  1.00  0.00    -0.014 A 
BRANCH  40  41
ATOM     41  C   UNL A   1      39.580  30.631  30.317  1.00  0.00     0.031 A 
ATOM     42  C   UNL A   1      40.781  31.543  30.335  1.00  0.00     0.074 A 
ATOM     43  C   UNL A   1      39.680  29.404  29.774  1.00  0.00     0.049 A 
ATOM     44  N   UNL A   1      41.997  31.317  29.909  1.00  0.00    -0.248 NA
ATOM     45  C   UNL A   1      40.587  32.884  30.911  1.00  0.00     0.031 C 
ATOM     46  C   UNL A   1      38.593  28.433  29.675  1.00  0.00     0.029 A 
ATOM     47  N   UNL A   1      40.752  28.773  29.192  1.00  0.00    -0.354 N 
ATOM     48  C   UNL A   1      42.711  32.483  30.159  1.00  0.00     0.074 A 
ATOM     49  C   UNL A   1      41.785  33.428  30.746  1.00  0.00     0.031 C 
ATOM     50  C   UNL A   1      39.047  27.335  29.045  1.00  0.00     0.029 A 
ATOM     51  C   UNL A   1      40.454  27.528  28.695  1.00  0.00     0.049 A 
ATOM     52  H   UNL A   1      41.648  29.176  29.135  1.00  0.00     0.167 HD
ATOM     53  C   UNL A   1      44.025  32.739  29.951  1.00  0.00     0.034 A 
ATOM     54  C   UNL A   1      41.226  26.644  28.031  1.00  0.00     0.034 A 
ATOM     55  C   UNL A   1      44.956  31.800  29.387  1.00  0.00     0.049 A 
ATOM     56  C   UNL A   1      42.685  26.953  27.812  1.00  0.00     0.074 A 
ATOM     57  C   UNL A   1      46.314  31.960  29.170  1.00  0.00     0.029 A 
ATOM     58  N   UNL A   1      44.629  30.528  28.946  1.00  0.00    -0.354 N 
ATOM     59  N   UNL A   1      43.373  28.007  28.181  1.00  0.00    -0.248 NA
ATOM     60  C   UNL A   1      43.485  25.929  27.123  1.00  0.00     0.031 C 
ATOM     61  C   UNL A   1      46.807  30.786  28.587  1.00  0.00     0.029 A 
ATOM     62  C   UNL A   1      45.758  29.892  28.455  1.00  0.00     0.049 A 
ATOM     63  H   UNL A   1      43.728  30.134  28.978  1.00  0.00     0.167 HD
ATOM     64  C   UNL A   1      44.686  27.761  27.794  1.00  0.00     0.074 A 
ATOM     65  C   UNL A   1      44.705  26.444  27.192  1.00  0.00     0.031 C 
ATOM     66  C   UNL A   1      45.775  28.561  27.905  1.00  0.00     0.034 A 
BRANCH  53  67
ATOM     67  C   UNL A   1      44.554  34.078  30.394  1.00  0.00     0.023 A 
ATOM     68  C   UNL A   1      44.997  34.234  31.724  1.00  0.00     0.012 A 
ATOM     69  C   UNL A   1      44.680  35.151  29.492  1.00  0.00     0.148 A 
ATOM     70  C   UNL A   1      45.540  35.443  32.154  1.00  0.00     0.002 A 
ATOM     71  C   UNL A   1      45.255  36.343  29.918  1.00  0.00     0.091 A 
ATOM     72  F   UNL A   1      44.231  34.989  28.239  1.00  0.00    -0.205 F 
ATOM     73  C   UNL A   1      45.678  36.493  31.249  1.00  0.00     0.022 A 
BRANCH  71  74
ATOM     74  S   UNL A   1      45.541  37.732  28.816  1.00  0.00     0.127 S 
ATOM     75  O   UNL A   1      44.178  38.066  28.403  1.00  0.00    -0.237 OA
ATOM     76  O   UNL A   1      46.166  38.710  29.707  1.00  0.00    -0.237 OA
ATOM     77  O   UNL A   1      46.408  37.234  27.758  1.00  0.00    -0.744 OA
ENDBRANCH  71  74
ENDBRANCH  53  67
BRANCH  54  78
ATOM     78  C   UNL A   1      40.645  25.355  27.562  1.00  0.00     0.023 A 
ATOM     79  C   UNL A   1      39.450  25.354  26.817  1.00  0.00     0.012 A 
ATOM     80  C   UNL A   1      41.276  24.129  27.848  1.00  0.00     0.148 A 
ATOM     81  C   UNL A   1      38.876  24.155  26.395  1.00  0.00     0.002 A 
ATOM     82  C   UNL A   1      40.729  22.942  27.375  1.00  0.00     0.091 A 
ATOM     83  F   UNL A   1      42.400  24.144  28.580  1.00  0.00    -0.205 F 
ATOM     84  C   UNL A   1      39.521  22.950  26.663  1.00  0.00     0.022 A 
BRANCH  82  85
ATOM     85  S   UNL A   1      41.575  21.368  27.568  1.00  0.00     0.127 S 
ATOM     86  O   UNL A   1      42.255  21.232  26.285  1.00  0.00    -0.237 OA
ATOM     87  O   UNL A   1      42.455  21.628  28.709  1.00  0.00    -0.237 OA
ATOM     88  O   UNL A   1      40.521  20.399  27.843  1.00  0.00    -0.744 OA
ENDBRANCH  82  85
ENDBRANCH  54  78
BRANCH  66  89
ATOM     89  C   UNL A   1      47.084  28.034  27.375  1.00  0.00     0.023 A 
ATOM     90  C   UNL A   1      47.594  28.535  26.160  1.00  0.00     0.012 A 
ATOM     91  C   UNL A   1      47.837  27.088  28.100  1.00  0.00     0.148 A 
ATOM     92  C   UNL A   1      48.809  28.073  25.655  1.00  0.00     0.002 A 
ATOM     93  C   UNL A   1      49.068  26.666  27.611  1.00  0.00     0.091 A 
ATOM     94  F   UNL A   1      47.331  26.607  29.245  1.00  0.00    -0.205 F 
ATOM     95  C   UNL A   1      49.550  27.148  26.384  1.00  0.00     0.022 A 
BRANCH  93  96
ATOM     96  S   UNL A   1      50.126  25.542  28.533  1.00  0.00     0.127 S 
ATOM     97  O   UNL A   1      51.409  26.243  28.501  1.00  0.00    -0.237 OA
ATOM     98  O   UNL A   1      49.483  25.508  29.847  1.00  0.00    -0.237 OA
ATOM     99  O   UNL A   1      50.078  24.277  27.811  1.00  0.00    -0.744 OA
ENDBRANCH  93  96
ENDBRANCH  66  89
ENDBRANCH  40  41
ENDBRANCH  33  35
ENDBRANCH  32  33
ENDBRANCH  31  32
ENDBRANCH  30  31
ENDBRANCH  29  30
ENDBRANCH  28  29
ENDBRANCH   1  28
TORSDOF 26
ENDMDL
