MODEL 1
REMARK VINA RESULT:     -11.1      0.000      0.000
REMARK SMILES CS(=O)(=O)c1ccc(/C=C(/C(=O)OCCOCCOCCOC(=O)c2ccc(-c3c4nc(c(-c5cccc(S(=O)(=O)[O-])c5F)c5ccc([nH]5)c(-c5cccc(S(=O)(=O)[O-])c5F)c5nc(c(-c6cccc(S(=O)(=O)[O-])c6F)c6ccc3[nH]6)C=C5)C=C4)cc2)c2cccc(Br)c2)cc1
REMARK SMILES IDX 18 1 17 2 16 3 15 4 14 5 13 6 11 7 12 8 10 9 9 10 8 11 5 12
REMARK SMILES IDX 6 13 96 14 7 15 95 16 2 17 1 18 3 19 4 20 88 21 89 22 94 23
REMARK SMILES IDX 90 24 92 25 91 26 93 27 19 28 20 29 21 30 22 31 23 32 24 33
REMARK SMILES IDX 25 34 26 35 87 36 27 37 86 38 28 39 29 40 30 41 80 42 31 43
REMARK SMILES IDX 85 44 79 45 81 46 32 47 84 48 78 49 77 50 33 52 65 53 45 54
REMARK SMILES IDX 64 55 46 56 49 57 63 58 82 59 47 60 48 61 62 63 83 64 50 65
REMARK SMILES IDX 34 66 35 67 43 68 36 69 38 70 44 71 37 72 39 73 40 74 41 75
REMARK SMILES IDX 42 76 66 77 67 78 75 79 68 80 70 81 76 82 69 83 71 84 72 85
REMARK SMILES IDX 73 86 74 87 51 88 52 89 60 90 53 91 55 92 61 93 54 94 56 95
REMARK SMILES IDX 57 96 58 97 59 98
REMARK H PARENT 81 51 49 62
REMARK Flexibility Score: inf
ROOT
ATOM      1  C   UNL A   1      30.149  29.764  22.962  1.00  0.00     0.188 C 
ENDROOT
BRANCH   1   2
ATOM      2  C   UNL A   1      29.409  28.478  22.542  1.00  0.00     0.188 C 
BRANCH   2   3
ATOM      3  O   UNL A   1      28.728  27.835  23.610  1.00  0.00    -0.376 OA
BRANCH   3   4
ATOM      4  C   UNL A   1      29.019  26.456  23.784  1.00  0.00     0.202 C 
BRANCH   4   5
ATOM      5  C   UNL A   1      30.426  26.176  24.322  1.00  0.00     0.261 C 
BRANCH   5   6
ATOM      6  O   UNL A   1      30.804  24.787  24.311  1.00  0.00    -0.460 OA
BRANCH   6   7
ATOM      7  C   UNL A   1      30.971  24.180  25.510  1.00  0.00     0.338 C 
ATOM      8  O   UNL A   1      30.392  24.487  26.540  1.00  0.00    -0.246 OA
BRANCH   7   9
ATOM      9  C   UNL A   1      31.918  23.017  25.390  1.00  0.00     0.067 C 
ATOM     10  C   UNL A   1      31.419  21.775  25.174  1.00  0.00     0.024 C 
BRANCH  10  11
ATOM     11  C   UNL A   1      32.163  20.532  24.864  1.00  0.00    -0.025 A 
ATOM     12  C   UNL A   1      33.233  17.968  24.492  1.00  0.00     0.067 A 
ATOM     13  C   UNL A   1      32.796  18.700  23.388  1.00  0.00     0.021 A 
ATOM     14  C   UNL A   1      33.259  18.548  25.759  1.00  0.00     0.021 A 
ATOM     15  C   UNL A   1      32.289  19.989  23.577  1.00  0.00     0.009 A 
ATOM     16  C   UNL A   1      32.726  19.827  25.940  1.00  0.00     0.009 A 
BRANCH  12  17
ATOM     17  S   UNL A   1      33.681  16.262  24.288  1.00  0.00     0.175 S 
ATOM     18  C   UNL A   1      35.171  16.095  25.242  1.00  0.00     0.163 C 
ATOM     19  O   UNL A   1      34.043  16.067  22.893  1.00  0.00    -0.224 OA
ATOM     20  O   UNL A   1      32.641  15.465  24.903  1.00  0.00    -0.224 OA
ENDBRANCH  12  17
ENDBRANCH  10  11
BRANCH   9  21
ATOM     21  C   UNL A   1      33.368  23.285  25.479  1.00  0.00    -0.010 A 
ATOM     22  C   UNL A   1      33.951  23.530  26.735  1.00  0.00     0.009 A 
ATOM     23  C   UNL A   1      34.193  23.172  24.354  1.00  0.00     0.024 A 
ATOM     24  C   UNL A   1      35.336  23.631  26.868  1.00  0.00     0.002 A 
ATOM     25  C   UNL A   1      35.578  23.255  24.500  1.00  0.00     0.018 A 
ATOM     26  C   UNL A   1      36.153  23.481  25.750  1.00  0.00     0.016 A 
ATOM     27  Br  UNL A   1      36.689  22.989  22.992  1.00  0.00    -0.051 Br
ENDBRANCH   9  21
ENDBRANCH   7   9
ENDBRANCH   6   7
ENDBRANCH   5   6
ENDBRANCH   4   5
ENDBRANCH   3   4
ENDBRANCH   2   3
ENDBRANCH   1   2
BRANCH   1  28
ATOM     28  O   UNL A   1      30.151  30.182  24.323  1.00  0.00    -0.376 OA
BRANCH  28  29
ATOM     29  C   UNL A   1      31.354  30.087  25.072  1.00  0.00     0.202 C 
BRANCH  29  30
ATOM     30  C   UNL A   1      31.528  31.003  26.290  1.00  0.00     0.261 C 
BRANCH  30  31
ATOM     31  O   UNL A   1      32.704  30.741  27.072  1.00  0.00    -0.460 OA
BRANCH  31  32
ATOM     32  C   UNL A   1      33.430  31.837  27.405  1.00  0.00     0.338 C 
ATOM     33  O   UNL A   1      33.034  32.987  27.484  1.00  0.00    -0.246 OA
BRANCH  32  34
ATOM     34  C   UNL A   1      34.778  31.430  27.851  1.00  0.00     0.060 A 
ATOM     35  C   UNL A   1      34.988  30.078  28.160  1.00  0.00     0.016 A 
ATOM     36  C   UNL A   1      35.796  32.365  28.036  1.00  0.00     0.016 A 
ATOM     37  C   UNL A   1      36.211  29.660  28.684  1.00  0.00     0.010 A 
ATOM     38  C   UNL A   1      37.011  31.950  28.589  1.00  0.00     0.010 A 
ATOM     39  C   UNL A   1      37.211  30.603  28.944  1.00  0.00    -0.014 A 
BRANCH  39  40
ATOM     40  C   UNL A   1      38.386  30.227  29.766  1.00  0.00     0.031 A 
ATOM     41  C   UNL A   1      39.402  29.291  29.173  1.00  0.00     0.074 A 
ATOM     42  C   UNL A   1      38.532  30.681  31.023  1.00  0.00     0.049 A 
ATOM     43  N   UNL A   1      40.458  28.756  29.727  1.00  0.00    -0.248 NA
ATOM     44  C   UNL A   1      39.198  28.907  27.765  1.00  0.00     0.031 C 
ATOM     45  C   UNL A   1      37.628  31.607  31.700  1.00  0.00     0.029 A 
ATOM     46  N   UNL A   1      39.488  30.389  31.966  1.00  0.00    -0.354 N 
ATOM     47  C   UNL A   1      41.029  27.951  28.747  1.00  0.00     0.074 A 
ATOM     48  C   UNL A   1      40.205  28.070  27.564  1.00  0.00     0.031 C 
ATOM     49  C   UNL A   1      38.046  31.773  32.967  1.00  0.00     0.029 A 
ATOM     50  C   UNL A   1      39.230  30.945  33.197  1.00  0.00     0.049 A 
ATOM     51  H   UNL A   1      40.280  29.835  31.778  1.00  0.00     0.167 HD
ATOM     52  C   UNL A   1      42.141  27.183  28.824  1.00  0.00     0.034 A 
ATOM     53  C   UNL A   1      39.858  30.773  34.378  1.00  0.00     0.034 A 
ATOM     54  C   UNL A   1      42.957  27.059  29.999  1.00  0.00     0.049 A 
ATOM     55  C   UNL A   1      41.067  29.872  34.449  1.00  0.00     0.074 A 
ATOM     56  C   UNL A   1      44.115  26.322  30.168  1.00  0.00     0.029 A 
ATOM     57  N   UNL A   1      42.692  27.675  31.212  1.00  0.00    -0.354 N 
ATOM     58  N   UNL A   1      41.660  29.206  33.488  1.00  0.00    -0.248 NA
ATOM     59  C   UNL A   1      41.709  29.722  35.764  1.00  0.00     0.031 C 
ATOM     60  C   UNL A   1      44.539  26.475  31.493  1.00  0.00     0.029 A 
ATOM     61  C   UNL A   1      43.659  27.328  32.139  1.00  0.00     0.049 A 
ATOM     62  H   UNL A   1      41.928  28.271  31.388  1.00  0.00     0.167 HD
ATOM     63  C   UNL A   1      42.765  28.593  34.072  1.00  0.00     0.074 A 
ATOM     64  C   UNL A   1      42.767  28.979  35.468  1.00  0.00     0.031 C 
ATOM     65  C   UNL A   1      43.688  27.776  33.507  1.00  0.00     0.034 A 
BRANCH  52  66
ATOM     66  C   UNL A   1      42.545  26.425  27.589  1.00  0.00     0.023 A 
ATOM     67  C   UNL A   1      43.278  27.082  26.580  1.00  0.00     0.012 A 
ATOM     68  C   UNL A   1      42.237  25.058  27.447  1.00  0.00     0.148 A 
ATOM     69  C   UNL A   1      43.675  26.395  25.433  1.00  0.00     0.002 A 
ATOM     70  C   UNL A   1      42.669  24.371  26.319  1.00  0.00     0.091 A 
ATOM     71  F   UNL A   1      41.515  24.462  28.407  1.00  0.00    -0.205 F 
ATOM     72  C   UNL A   1      43.379  25.039  25.308  1.00  0.00     0.022 A 
BRANCH  70  73
ATOM     73  S   UNL A   1      42.396  22.611  26.100  1.00  0.00     0.127 S 
ATOM     74  O   UNL A   1      40.935  22.537  26.101  1.00  0.00    -0.237 OA
ATOM     75  O   UNL A   1      43.016  22.361  24.798  1.00  0.00    -0.237 OA
ATOM     76  O   UNL A   1      43.058  21.960  27.221  1.00  0.00    -0.744 OA
ENDBRANCH  70  73
ENDBRANCH  52  66
BRANCH  53  77
ATOM     77  C   UNL A   1      39.372  31.482  35.595  1.00  0.00     0.023 A 
ATOM     78  C   UNL A   1      38.334  30.913  36.359  1.00  0.00     0.012 A 
ATOM     79  C   UNL A   1      39.926  32.712  35.998  1.00  0.00     0.148 A 
ATOM     80  C   UNL A   1      37.836  31.573  37.484  1.00  0.00     0.002 A 
ATOM     81  C   UNL A   1      39.461  33.339  37.147  1.00  0.00     0.091 A 
ATOM     82  F   UNL A   1      40.898  33.247  35.245  1.00  0.00    -0.205 F 
ATOM     83  C   UNL A   1      38.405  32.779  37.883  1.00  0.00     0.022 A 
BRANCH  81  84
ATOM     84  S   UNL A   1      40.212  34.834  37.801  1.00  0.00     0.127 S 
ATOM     85  O   UNL A   1      39.116  35.402  38.582  1.00  0.00    -0.237 OA
ATOM     86  O   UNL A   1      41.319  34.297  38.591  1.00  0.00    -0.237 OA
ATOM     87  O   UNL A   1      40.625  35.604  36.635  1.00  0.00    -0.744 OA
ENDBRANCH  81  84
ENDBRANCH  53  77
BRANCH  65  88
ATOM     88  C   UNL A   1      44.816  27.277  34.372  1.00  0.00     0.023 A 
ATOM     89  C   UNL A   1      46.002  28.028  34.482  1.00  0.00     0.012 A 
ATOM     90  C   UNL A   1      44.658  26.115  35.154  1.00  0.00     0.148 A 
ATOM     91  C   UNL A   1      47.023  27.618  35.340  1.00  0.00     0.002 A 
ATOM     92  C   UNL A   1      45.659  25.738  36.041  1.00  0.00     0.091 A 
ATOM     93  F   UNL A   1      43.529  25.403  35.021  1.00  0.00    -0.205 F 
ATOM     94  C   UNL A   1      46.847  26.483  36.128  1.00  0.00     0.022 A 
BRANCH  92  95
ATOM     95  S   UNL A   1      45.475  24.349  37.165  1.00  0.00     0.127 S 
ATOM     96  O   UNL A   1      44.301  24.748  37.941  1.00  0.00    -0.237 OA
ATOM     97  O   UNL A   1      45.248  23.232  36.248  1.00  0.00    -0.237 OA
ATOM     98  O   UNL A   1      46.722  24.272  37.913  1.00  0.00    -0.744 OA
ENDBRANCH  92  95
ENDBRANCH  65  88
ENDBRANCH  39  40
ENDBRANCH  32  34
ENDBRANCH  31  32
ENDBRANCH  30  31
ENDBRANCH  29  30
ENDBRANCH  28  29
ENDBRANCH   1  28
TORSDOF 23
ENDMDL
MODEL 2
REMARK VINA RESULT:     -10.9      1.406      7.496
REMARK SMILES CS(=O)(=O)c1ccc(/C=C(/C(=O)OCCOCCOCCOC(=O)c2ccc(-c3c4nc(c(-c5cccc(S(=O)(=O)[O-])c5F)c5ccc([nH]5)c(-c5cccc(S(=O)(=O)[O-])c5F)c5nc(c(-c6cccc(S(=O)(=O)[O-])c6F)c6ccc3[nH]6)C=C5)C=C4)cc2)c2cccc(Br)c2)cc1
REMARK SMILES IDX 18 1 17 2 16 3 15 4 14 5 13 6 11 7 12 8 10 9 9 10 8 11 5 12
REMARK SMILES IDX 6 13 96 14 7 15 95 16 2 17 1 18 3 19 4 20 88 21 89 22 94 23
REMARK SMILES IDX 90 24 92 25 91 26 93 27 19 28 20 29 21 30 22 31 23 32 24 33
REMARK SMILES IDX 25 34 26 35 87 36 27 37 86 38 28 39 29 40 30 41 80 42 31 43
REMARK SMILES IDX 85 44 79 45 81 46 32 47 84 48 78 49 77 50 33 52 65 53 45 54
REMARK SMILES IDX 64 55 46 56 49 57 63 58 82 59 47 60 48 61 62 63 83 64 50 65
REMARK SMILES IDX 34 66 35 67 43 68 36 69 38 70 44 71 37 72 39 73 40 74 41 75
REMARK SMILES IDX 42 76 66 77 67 78 75 79 68 80 70 81 76 82 69 83 71 84 72 85
REMARK SMILES IDX 73 86 74 87 51 88 52 89 60 90 53 91 55 92 61 93 54 94 56 95
REMARK SMILES IDX 57 96 58 97 59 98
REMARK H PARENT 81 51 49 62
REMARK Flexibility Score: inf
ROOT
ATOM      1  C   UNL A   1      30.597  29.098  22.925  1.00  0.00     0.188 C 
ENDROOT
BRANCH   1   2
ATOM      2  C   UNL A   1      29.637  27.910  22.706  1.00  0.00     0.188 C 
BRANCH   2   3
ATOM      3  O   UNL A   1      28.927  27.525  23.873  1.00  0.00    -0.376 OA
BRANCH   3   4
ATOM      4  C   UNL A   1      29.124  26.185  24.299  1.00  0.00     0.202 C 
BRANCH   4   5
ATOM      5  C   UNL A   1      30.368  25.515  23.706  1.00  0.00     0.261 C 
BRANCH   5   6
ATOM      6  O   UNL A   1      31.454  25.342  24.635  1.00  0.00    -0.460 OA
BRANCH   6   7
ATOM      7  C   UNL A   1      32.692  25.159  24.116  1.00  0.00     0.338 C 
ATOM      8  O   UNL A   1      33.379  26.033  23.614  1.00  0.00    -0.246 OA
BRANCH   7   9
ATOM      9  C   UNL A   1      33.143  23.737  24.309  1.00  0.00     0.067 C 
ATOM     10  C   UNL A   1      32.214  22.759  24.448  1.00  0.00     0.024 C 
BRANCH  10  11
ATOM     11  C   UNL A   1      32.428  21.293  24.483  1.00  0.00    -0.025 A 
ATOM     12  C   UNL A   1      33.178  18.600  24.269  1.00  0.00     0.067 A 
ATOM     13  C   UNL A   1      33.303  19.256  25.493  1.00  0.00     0.021 A 
ATOM     14  C   UNL A   1      32.566  19.233  23.187  1.00  0.00     0.021 A 
ATOM     15  C   UNL A   1      32.901  20.591  25.601  1.00  0.00     0.009 A 
ATOM     16  C   UNL A   1      32.192  20.576  23.299  1.00  0.00     0.009 A 
BRANCH  12  17
ATOM     17  S   UNL A   1      33.875  16.980  24.069  1.00  0.00     0.175 S 
ATOM     18  C   UNL A   1      32.736  15.917  24.926  1.00  0.00     0.163 C 
ATOM     19  O   UNL A   1      35.127  16.947  24.808  1.00  0.00    -0.224 OA
ATOM     20  O   UNL A   1      33.837  16.664  22.657  1.00  0.00    -0.224 OA
ENDBRANCH  12  17
ENDBRANCH  10  11
BRANCH   9  21
ATOM     21  C   UNL A   1      34.594  23.458  24.305  1.00  0.00    -0.010 A 
ATOM     22  C   UNL A   1      35.201  22.966  23.136  1.00  0.00     0.009 A 
ATOM     23  C   UNL A   1      35.398  23.796  25.400  1.00  0.00     0.024 A 
ATOM     24  C   UNL A   1      36.588  22.841  23.053  1.00  0.00     0.002 A 
ATOM     25  C   UNL A   1      36.785  23.687  25.302  1.00  0.00     0.018 A 
ATOM     26  C   UNL A   1      37.384  23.214  24.134  1.00  0.00     0.016 A 
ATOM     27  Br  UNL A   1      37.866  24.252  26.746  1.00  0.00    -0.051 Br
ENDBRANCH   9  21
ENDBRANCH   7   9
ENDBRANCH   6   7
ENDBRANCH   5   6
ENDBRANCH   4   5
ENDBRANCH   3   4
ENDBRANCH   2   3
ENDBRANCH   1   2
BRANCH   1  28
ATOM     28  O   UNL A   1      31.621  29.022  23.911  1.00  0.00    -0.376 OA
BRANCH  28  29
ATOM     29  C   UNL A   1      31.500  29.801  25.092  1.00  0.00     0.202 C 
BRANCH  29  30
ATOM     30  C   UNL A   1      32.773  30.127  25.884  1.00  0.00     0.261 C 
BRANCH  30  31
ATOM     31  O   UNL A   1      32.542  30.746  27.159  1.00  0.00    -0.460 OA
BRANCH  31  32
ATOM     32  C   UNL A   1      33.368  31.780  27.455  1.00  0.00     0.338 C 
ATOM     33  O   UNL A   1      33.070  32.959  27.545  1.00  0.00    -0.246 OA
BRANCH  32  34
ATOM     34  C   UNL A   1      34.696  31.265  27.846  1.00  0.00     0.060 A 
ATOM     35  C   UNL A   1      34.830  29.886  28.060  1.00  0.00     0.016 A 
ATOM     36  C   UNL A   1      35.771  32.125  28.071  1.00  0.00     0.016 A 
ATOM     37  C   UNL A   1      36.034  29.362  28.530  1.00  0.00     0.010 A 
ATOM     38  C   UNL A   1      36.969  31.603  28.570  1.00  0.00     0.010 A 
ATOM     39  C   UNL A   1      37.093  30.225  28.831  1.00  0.00    -0.014 A 
BRANCH  39  40
ATOM     40  C   UNL A   1      38.257  29.726  29.602  1.00  0.00     0.031 A 
ATOM     41  C   UNL A   1      38.512  30.306  30.966  1.00  0.00     0.074 A 
ATOM     42  C   UNL A   1      39.089  28.802  29.091  1.00  0.00     0.049 A 
ATOM     43  N   UNL A   1      39.507  30.091  31.784  1.00  0.00    -0.248 NA
ATOM     44  C   UNL A   1      37.506  31.255  31.474  1.00  0.00     0.031 C 
ATOM     45  C   UNL A   1      38.937  28.152  27.791  1.00  0.00     0.029 A 
ATOM     46  N   UNL A   1      40.252  28.278  29.598  1.00  0.00    -0.354 N 
ATOM     47  C   UNL A   1      39.266  30.898  32.890  1.00  0.00     0.074 A 
ATOM     48  C   UNL A   1      38.028  31.604  32.641  1.00  0.00     0.031 C 
ATOM     49  C   UNL A   1      39.993  27.347  27.582  1.00  0.00     0.029 A 
ATOM     50  C   UNL A   1      40.908  27.448  28.720  1.00  0.00     0.049 A 
ATOM     51  H   UNL A   1      40.584  28.478  30.503  1.00  0.00     0.167 HD
ATOM     52  C   UNL A   1      40.006  31.039  34.015  1.00  0.00     0.034 A 
ATOM     53  C   UNL A   1      42.122  26.868  28.812  1.00  0.00     0.034 A 
ATOM     54  C   UNL A   1      41.237  30.344  34.263  1.00  0.00     0.049 A 
ATOM     55  C   UNL A   1      42.950  27.078  30.056  1.00  0.00     0.074 A 
ATOM     56  C   UNL A   1      42.049  30.403  35.382  1.00  0.00     0.029 A 
ATOM     57  N   UNL A   1      41.845  29.474  33.371  1.00  0.00    -0.354 N 
ATOM     58  N   UNL A   1      42.657  27.755  31.140  1.00  0.00    -0.248 NA
ATOM     59  C   UNL A   1      44.266  26.423  30.099  1.00  0.00     0.031 C 
ATOM     60  C   UNL A   1      43.161  29.585  35.156  1.00  0.00     0.029 A 
ATOM     61  C   UNL A   1      43.028  28.996  33.909  1.00  0.00     0.049 A 
ATOM     62  H   UNL A   1      41.489  29.232  32.486  1.00  0.00     0.167 HD
ATOM     63  C   UNL A   1      43.731  27.572  32.007  1.00  0.00     0.074 A 
ATOM     64  C   UNL A   1      44.675  26.710  31.328  1.00  0.00     0.031 C 
ATOM     65  C   UNL A   1      43.924  28.082  33.249  1.00  0.00     0.034 A 
BRANCH  52  66
ATOM     66  C   UNL A   1      39.488  31.975  35.072  1.00  0.00     0.023 A 
ATOM     67  C   UNL A   1      39.662  33.365  34.915  1.00  0.00     0.012 A 
ATOM     68  C   UNL A   1      38.796  31.484  36.196  1.00  0.00     0.148 A 
ATOM     69  C   UNL A   1      39.179  34.252  35.876  1.00  0.00     0.002 A 
ATOM     70  C   UNL A   1      38.283  32.376  37.130  1.00  0.00     0.091 A 
ATOM     71  F   UNL A   1      38.668  30.157  36.338  1.00  0.00    -0.205 F 
ATOM     72  C   UNL A   1      38.482  33.758  36.977  1.00  0.00     0.022 A 
BRANCH  70  73
ATOM     73  S   UNL A   1      37.315  31.841  38.543  1.00  0.00     0.127 S 
ATOM     74  O   UNL A   1      37.041  30.445  38.201  1.00  0.00    -0.237 OA
ATOM     75  O   UNL A   1      38.255  32.023  39.650  1.00  0.00    -0.237 OA
ATOM     76  O   UNL A   1      36.152  32.716  38.586  1.00  0.00    -0.744 OA
ENDBRANCH  70  73
ENDBRANCH  52  66
BRANCH  53  77
ATOM     77  C   UNL A   1      42.629  26.011  27.703  1.00  0.00     0.023 A 
ATOM     78  C   UNL A   1      43.553  26.546  26.783  1.00  0.00     0.012 A 
ATOM     79  C   UNL A   1      42.203  24.678  27.552  1.00  0.00     0.148 A 
ATOM     80  C   UNL A   1      44.017  25.777  25.715  1.00  0.00     0.002 A 
ATOM     81  C   UNL A   1      42.709  23.902  26.517  1.00  0.00     0.091 A 
ATOM     82  F   UNL A   1      41.307  24.195  28.425  1.00  0.00    -0.205 F 
ATOM     83  C   UNL A   1      43.604  24.454  25.587  1.00  0.00     0.022 A 
BRANCH  81  84
ATOM     84  S   UNL A   1      42.321  22.156  26.343  1.00  0.00     0.127 S 
ATOM     85  O   UNL A   1      43.142  21.781  25.195  1.00  0.00    -0.237 OA
ATOM     86  O   UNL A   1      42.771  21.617  27.626  1.00  0.00    -0.237 OA
ATOM     87  O   UNL A   1      40.880  22.095  26.139  1.00  0.00    -0.744 OA
ENDBRANCH  81  84
ENDBRANCH  53  77
BRANCH  65  88
ATOM     88  C   UNL A   1      45.174  27.687  33.991  1.00  0.00     0.023 A 
ATOM     89  C   UNL A   1      46.321  28.500  33.919  1.00  0.00     0.012 A 
ATOM     90  C   UNL A   1      45.175  26.562  34.841  1.00  0.00     0.148 A 
ATOM     91  C   UNL A   1      47.459  28.186  34.663  1.00  0.00     0.002 A 
ATOM     92  C   UNL A   1      46.295  26.283  35.615  1.00  0.00     0.091 A 
ATOM     93  F   UNL A   1      44.079  25.789  34.881  1.00  0.00    -0.205 F 
ATOM     94  C   UNL A   1      47.442  27.089  35.520  1.00  0.00     0.022 A 
BRANCH  92  95
ATOM     95  S   UNL A   1      46.323  24.949  36.818  1.00  0.00     0.127 S 
ATOM     96  O   UNL A   1      47.250  24.005  36.194  1.00  0.00    -0.237 OA
ATOM     97  O   UNL A   1      46.844  25.615  38.012  1.00  0.00    -0.237 OA
ATOM     98  O   UNL A   1      44.947  24.488  36.936  1.00  0.00    -0.744 OA
ENDBRANCH  92  95
ENDBRANCH  65  88
ENDBRANCH  39  40
ENDBRANCH  32  34
ENDBRANCH  31  32
ENDBRANCH  30  31
ENDBRANCH  29  30
ENDBRANCH  28  29
ENDBRANCH   1  28
TORSDOF 23
ENDMDL
MODEL 3
REMARK VINA RESULT:     -10.7      5.036      8.855
REMARK SMILES CS(=O)(=O)c1ccc(/C=C(/C(=O)OCCOCCOCCOC(=O)c2ccc(-c3c4nc(c(-c5cccc(S(=O)(=O)[O-])c5F)c5ccc([nH]5)c(-c5cccc(S(=O)(=O)[O-])c5F)c5nc(c(-c6cccc(S(=O)(=O)[O-])c6F)c6ccc3[nH]6)C=C5)C=C4)cc2)c2cccc(Br)c2)cc1
REMARK SMILES IDX 18 1 17 2 16 3 15 4 14 5 13 6 11 7 12 8 10 9 9 10 8 11 5 12
REMARK SMILES IDX 6 13 96 14 7 15 95 16 2 17 1 18 3 19 4 20 88 21 89 22 94 23
REMARK SMILES IDX 90 24 92 25 91 26 93 27 19 28 20 29 21 30 22 31 23 32 24 33
REMARK SMILES IDX 25 34 26 35 87 36 27 37 86 38 28 39 29 40 30 41 80 42 31 43
REMARK SMILES IDX 85 44 79 45 81 46 32 47 84 48 78 49 77 50 33 52 65 53 45 54
REMARK SMILES IDX 64 55 46 56 49 57 63 58 82 59 47 60 48 61 62 63 83 64 50 65
REMARK SMILES IDX 34 66 35 67 43 68 36 69 38 70 44 71 37 72 39 73 40 74 41 75
REMARK SMILES IDX 42 76 66 77 67 78 75 79 68 80 70 81 76 82 69 83 71 84 72 85
REMARK SMILES IDX 73 86 74 87 51 88 52 89 60 90 53 91 55 92 61 93 54 94 56 95
REMARK SMILES IDX 57 96 58 97 59 98
REMARK H PARENT 81 51 49 62
REMARK Flexibility Score: inf
ROOT
ATOM      1  C   UNL A   1      35.768  20.424  24.663  1.00  0.00     0.188 C 
ENDROOT
BRANCH   1   2
ATOM      2  C   UNL A   1      34.407  20.268  25.372  1.00  0.00     0.188 C 
BRANCH   2   3
ATOM      3  O   UNL A   1      34.209  21.184  26.439  1.00  0.00    -0.376 OA
BRANCH   3   4
ATOM      4  C   UNL A   1      32.963  21.865  26.441  1.00  0.00     0.202 C 
BRANCH   4   5
ATOM      5  C   UNL A   1      33.084  23.392  26.421  1.00  0.00     0.261 C 
BRANCH   5   6
ATOM      6  O   UNL A   1      32.346  24.036  25.366  1.00  0.00    -0.460 OA
BRANCH   6   7
ATOM      7  C   UNL A   1      33.044  24.814  24.505  1.00  0.00     0.338 C 
ATOM      8  O   UNL A   1      34.041  24.464  23.893  1.00  0.00    -0.246 OA
BRANCH   7   9
ATOM      9  C   UNL A   1      32.382  26.154  24.342  1.00  0.00     0.067 C 
ATOM     10  C   UNL A   1      31.684  26.416  23.209  1.00  0.00     0.024 C 
BRANCH  10  11
ATOM     11  C   UNL A   1      30.827  27.589  22.913  1.00  0.00    -0.025 A 
ATOM     12  C   UNL A   1      29.189  29.860  22.801  1.00  0.00     0.067 A 
ATOM     13  C   UNL A   1      30.488  29.921  22.298  1.00  0.00     0.021 A 
ATOM     14  C   UNL A   1      28.658  28.648  23.241  1.00  0.00     0.021 A 
ATOM     15  C   UNL A   1      31.292  28.777  22.331  1.00  0.00     0.009 A 
ATOM     16  C   UNL A   1      29.478  27.518  23.293  1.00  0.00     0.009 A 
BRANCH  12  17
ATOM     17  S   UNL A   1      28.239  31.353  22.953  1.00  0.00     0.175 S 
ATOM     18  C   UNL A   1      28.048  31.909  21.276  1.00  0.00     0.163 C 
ATOM     19  O   UNL A   1      29.069  32.332  23.637  1.00  0.00    -0.224 OA
ATOM     20  O   UNL A   1      26.940  30.986  23.475  1.00  0.00    -0.224 OA
ENDBRANCH  12  17
ENDBRANCH  10  11
BRANCH   9  21
ATOM     21  C   UNL A   1      32.491  27.127  25.449  1.00  0.00    -0.010 A 
ATOM     22  C   UNL A   1      31.401  27.313  26.316  1.00  0.00     0.009 A 
ATOM     23  C   UNL A   1      33.703  27.770  25.728  1.00  0.00     0.024 A 
ATOM     24  C   UNL A   1      31.528  28.106  27.458  1.00  0.00     0.002 A 
ATOM     25  C   UNL A   1      33.827  28.544  26.881  1.00  0.00     0.018 A 
ATOM     26  C   UNL A   1      32.747  28.713  27.748  1.00  0.00     0.016 A 
ATOM     27  Br  UNL A   1      35.500  29.317  27.307  1.00  0.00    -0.051 Br
ENDBRANCH   9  21
ENDBRANCH   7   9
ENDBRANCH   6   7
ENDBRANCH   5   6
ENDBRANCH   4   5
ENDBRANCH   3   4
ENDBRANCH   2   3
ENDBRANCH   1   2
BRANCH   1  28
ATOM     28  O   UNL A   1      36.869  19.599  25.028  1.00  0.00    -0.376 OA
BRANCH  28  29
ATOM     29  C   UNL A   1      38.138  20.198  25.245  1.00  0.00     0.202 C 
BRANCH  29  30
ATOM     30  C   UNL A   1      39.286  19.313  25.746  1.00  0.00     0.261 C 
BRANCH  30  31
ATOM     31  O   UNL A   1      40.581  19.933  25.708  1.00  0.00    -0.460 OA
BRANCH  31  32
ATOM     32  C   UNL A   1      41.176  20.099  26.915  1.00  0.00     0.338 C 
ATOM     33  O   UNL A   1      41.746  19.251  27.579  1.00  0.00    -0.246 OA
BRANCH  32  34
ATOM     34  C   UNL A   1      41.207  21.534  27.266  1.00  0.00     0.060 A 
ATOM     35  C   UNL A   1      40.637  22.444  26.365  1.00  0.00     0.016 A 
ATOM     36  C   UNL A   1      41.848  21.986  28.420  1.00  0.00     0.016 A 
ATOM     37  C   UNL A   1      40.731  23.816  26.599  1.00  0.00     0.010 A 
ATOM     38  C   UNL A   1      41.968  23.362  28.638  1.00  0.00     0.010 A 
ATOM     39  C   UNL A   1      41.438  24.281  27.713  1.00  0.00    -0.014 A 
BRANCH  39  40
ATOM     40  C   UNL A   1      41.799  25.715  27.814  1.00  0.00     0.031 A 
ATOM     41  C   UNL A   1      43.103  26.166  27.217  1.00  0.00     0.074 A 
ATOM     42  C   UNL A   1      41.003  26.592  28.448  1.00  0.00     0.049 A 
ATOM     43  N   UNL A   1      43.669  27.344  27.256  1.00  0.00    -0.248 NA
ATOM     44  C   UNL A   1      43.872  25.151  26.476  1.00  0.00     0.031 C 
ATOM     45  C   UNL A   1      39.708  26.281  29.048  1.00  0.00     0.029 A 
ATOM     46  N   UNL A   1      41.191  27.925  28.722  1.00  0.00    -0.354 N 
ATOM     47  C   UNL A   1      44.871  27.207  26.572  1.00  0.00     0.074 A 
ATOM     48  C   UNL A   1      44.953  25.833  26.125  1.00  0.00     0.031 C 
ATOM     49  C   UNL A   1      39.237  27.382  29.660  1.00  0.00     0.029 A 
ATOM     50  C   UNL A   1      40.210  28.465  29.519  1.00  0.00     0.049 A 
ATOM     51  H   UNL A   1      41.956  28.443  28.381  1.00  0.00     0.167 HD
ATOM     52  C   UNL A   1      45.822  28.140  26.335  1.00  0.00     0.034 A 
ATOM     53  C   UNL A   1      40.128  29.682  30.094  1.00  0.00     0.034 A 
ATOM     54  C   UNL A   1      45.746  29.502  26.782  1.00  0.00     0.049 A 
ATOM     55  C   UNL A   1      41.225  30.689  29.855  1.00  0.00     0.074 A 
ATOM     56  C   UNL A   1      46.650  30.528  26.572  1.00  0.00     0.029 A 
ATOM     57  N   UNL A   1      44.714  30.025  27.544  1.00  0.00    -0.354 N 
ATOM     58  N   UNL A   1      42.301  30.580  29.113  1.00  0.00    -0.248 NA
ATOM     59  C   UNL A   1      41.083  31.999  30.510  1.00  0.00     0.031 C 
ATOM     60  C   UNL A   1      46.173  31.668  27.229  1.00  0.00     0.029 A 
ATOM     61  C   UNL A   1      44.961  31.358  27.823  1.00  0.00     0.049 A 
ATOM     62  H   UNL A   1      43.921  29.523  27.844  1.00  0.00     0.167 HD
ATOM     63  C   UNL A   1      42.939  31.816  29.180  1.00  0.00     0.074 A 
ATOM     64  C   UNL A   1      42.122  32.663  30.023  1.00  0.00     0.031 C 
ATOM     65  C   UNL A   1      44.103  32.210  28.606  1.00  0.00     0.034 A 
BRANCH  52  66
ATOM     66  C   UNL A   1      47.025  27.715  25.539  1.00  0.00     0.023 A 
ATOM     67  C   UNL A   1      47.001  27.819  24.133  1.00  0.00     0.012 A 
ATOM     68  C   UNL A   1      48.191  27.253  26.181  1.00  0.00     0.148 A 
ATOM     69  C   UNL A   1      48.111  27.443  23.376  1.00  0.00     0.002 A 
ATOM     70  C   UNL A   1      49.306  26.917  25.423  1.00  0.00     0.091 A 
ATOM     71  F   UNL A   1      48.180  27.136  27.517  1.00  0.00    -0.205 F 
ATOM     72  C   UNL A   1      49.264  27.002  24.022  1.00  0.00     0.022 A 
BRANCH  70  73
ATOM     73  S   UNL A   1      50.857  26.405  26.165  1.00  0.00     0.127 S 
ATOM     74  O   UNL A   1      51.239  27.605  26.910  1.00  0.00    -0.237 OA
ATOM     75  O   UNL A   1      50.443  25.277  27.001  1.00  0.00    -0.237 OA
ATOM     76  O   UNL A   1      51.733  26.049  25.058  1.00  0.00    -0.744 OA
ENDBRANCH  70  73
ENDBRANCH  52  66
BRANCH  53  77
ATOM     77  C   UNL A   1      38.953  30.031  30.943  1.00  0.00     0.023 A 
ATOM     78  C   UNL A   1      38.841  29.475  32.232  1.00  0.00     0.012 A 
ATOM     79  C   UNL A   1      37.950  30.906  30.483  1.00  0.00     0.148 A 
ATOM     80  C   UNL A   1      37.735  29.757  33.035  1.00  0.00     0.002 A 
ATOM     81  C   UNL A   1      36.877  31.224  31.307  1.00  0.00     0.091 A 
ATOM     82  F   UNL A   1      38.064  31.408  29.245  1.00  0.00    -0.205 F 
ATOM     83  C   UNL A   1      36.759  30.638  32.577  1.00  0.00     0.022 A 
BRANCH  81  84
ATOM     84  S   UNL A   1      35.635  32.437  30.846  1.00  0.00     0.127 S 
ATOM     85  O   UNL A   1      36.452  33.623  30.601  1.00  0.00    -0.237 OA
ATOM     86  O   UNL A   1      35.051  31.832  29.649  1.00  0.00    -0.237 OA
ATOM     87  O   UNL A   1      34.727  32.515  31.982  1.00  0.00    -0.744 OA
ENDBRANCH  81  84
ENDBRANCH  53  77
BRANCH  65  88
ATOM     88  C   UNL A   1      44.549  33.633  28.814  1.00  0.00     0.023 A 
ATOM     89  C   UNL A   1      44.134  34.638  27.919  1.00  0.00     0.012 A 
ATOM     90  C   UNL A   1      45.296  33.989  29.956  1.00  0.00     0.148 A 
ATOM     91  C   UNL A   1      44.476  35.972  28.144  1.00  0.00     0.002 A 
ATOM     92  C   UNL A   1      45.593  35.325  30.198  1.00  0.00     0.091 A 
ATOM     93  F   UNL A   1      45.699  33.015  30.786  1.00  0.00    -0.205 F 
ATOM     94  C   UNL A   1      45.191  36.317  29.288  1.00  0.00     0.022 A 
BRANCH  92  95
ATOM     95  S   UNL A   1      46.423  35.868  31.696  1.00  0.00     0.127 S 
ATOM     96  O   UNL A   1      45.594  35.257  32.734  1.00  0.00    -0.237 OA
ATOM     97  O   UNL A   1      47.752  35.275  31.550  1.00  0.00    -0.237 OA
ATOM     98  O   UNL A   1      46.404  37.324  31.657  1.00  0.00    -0.744 OA
ENDBRANCH  92  95
ENDBRANCH  65  88
ENDBRANCH  39  40
ENDBRANCH  32  34
ENDBRANCH  31  32
ENDBRANCH  30  31
ENDBRANCH  29  30
ENDBRANCH  28  29
ENDBRANCH   1  28
TORSDOF 23
ENDMDL
