MODEL 1
REMARK VINA RESULT:      -8.2      0.000      0.000
REMARK SMILES COc1c(C(=O)OCCOCCOCCOC(=O)c2ccc(-c3c4nc(c(-c5cccc(S(=O)(=O)[O-])c5F)c5ccc([nH]5)c(-c5cccc(S(=O)(=O)[O-])c5F)c5nc(c(-c6cccc(S(=O)(=O)[O-])c6F)c6ccc3[nH]6)C=C5)C=C4)cc2)cccc1-c1cc(C)ccc1C
REMARK SMILES IDX 12 1 11 2 10 3 9 4 8 5 7 6 5 7 6 8 4 9 3 10 85 11 82 12
REMARK SMILES IDX 84 13 83 14 2 15 1 16 86 17 87 18 92 19 88 20 91 21 93 22
REMARK SMILES IDX 89 23 90 24 13 25 14 26 15 27 16 28 17 29 18 30 19 31 20 32
REMARK SMILES IDX 81 33 21 34 80 35 22 36 23 37 24 38 74 39 25 40 79 41 73 42
REMARK SMILES IDX 75 43 26 44 78 45 72 46 71 47 27 49 59 50 39 51 58 52 40 53
REMARK SMILES IDX 43 54 57 55 76 56 41 57 42 58 56 60 77 61 44 62 28 63 29 64
REMARK SMILES IDX 37 65 30 66 32 67 38 68 31 69 33 70 34 71 35 72 36 73 60 74
REMARK SMILES IDX 61 75 69 76 62 77 64 78 70 79 63 80 65 81 66 82 67 83 68 84
REMARK SMILES IDX 45 85 46 86 54 87 47 88 49 89 55 90 48 91 50 92 51 93 52 94
REMARK SMILES IDX 53 95
REMARK H PARENT 75 48 43 59
REMARK Flexibility Score: inf
ROOT
ATOM      1  C   UNL A   1      33.798  35.852  32.894  1.00  0.00     0.188 C 
ENDROOT
BRANCH   1   2
ATOM      2  C   UNL A   1      33.581  36.924  31.804  1.00  0.00     0.188 C 
BRANCH   2   3
ATOM      3  O   UNL A   1      32.554  36.719  30.859  1.00  0.00    -0.376 OA
BRANCH   3   4
ATOM      4  C   UNL A   1      32.753  35.852  29.752  1.00  0.00     0.202 C 
BRANCH   4   5
ATOM      5  C   UNL A   1      34.112  35.593  29.082  1.00  0.00     0.261 C 
BRANCH   5   6
ATOM      6  O   UNL A   1      34.804  34.427  29.530  1.00  0.00    -0.460 OA
BRANCH   6   7
ATOM      7  C   UNL A   1      35.455  33.730  28.564  1.00  0.00     0.342 C 
ATOM      8  O   UNL A   1      35.189  33.707  27.371  1.00  0.00    -0.246 OA
BRANCH   7   9
ATOM      9  C   UNL A   1      36.704  33.159  29.104  1.00  0.00     0.102 A 
ATOM     10  C   UNL A   1      36.898  31.778  29.255  1.00  0.00     0.141 A 
ATOM     11  C   UNL A   1      38.164  31.288  29.654  1.00  0.00     0.025 A 
ATOM     12  C   UNL A   1      37.702  34.067  29.486  1.00  0.00     0.019 A 
ATOM     13  C   UNL A   1      39.133  32.225  30.077  1.00  0.00     0.012 A 
ATOM     14  C   UNL A   1      38.899  33.600  30.014  1.00  0.00     0.002 A 
BRANCH  10  15
ATOM     15  O   UNL A   1      35.862  30.945  28.900  1.00  0.00    -0.495 OA
ATOM     16  C   UNL A   1      36.051  30.356  27.611  1.00  0.00     0.278 C 
ENDBRANCH  10  15
BRANCH  11  17
ATOM     17  C   UNL A   1      38.552  29.862  29.538  1.00  0.00    -0.011 A 
ATOM     18  C   UNL A   1      39.271  29.420  28.406  1.00  0.00     0.012 A 
ATOM     19  C   UNL A   1      38.186  28.899  30.512  1.00  0.00    -0.043 A 
ATOM     20  C   UNL A   1      39.647  28.077  28.245  1.00  0.00    -0.050 A 
ATOM     21  C   UNL A   1      38.620  27.571  30.372  1.00  0.00     0.004 A 
ATOM     22  C   UNL A   1      37.364  29.230  31.733  1.00  0.00     0.045 C 
ATOM     23  C   UNL A   1      40.349  27.633  26.996  1.00  0.00     0.044 C 
ATOM     24  C   UNL A   1      39.336  27.163  29.250  1.00  0.00     0.004 A 
ENDBRANCH  11  17
ENDBRANCH   7   9
ENDBRANCH   6   7
ENDBRANCH   5   6
ENDBRANCH   4   5
ENDBRANCH   3   4
ENDBRANCH   2   3
ENDBRANCH   1   2
BRANCH   1  25
ATOM     25  O   UNL A   1      33.367  34.519  32.704  1.00  0.00    -0.376 OA
BRANCH  25  26
ATOM     26  C   UNL A   1      34.118  33.458  33.266  1.00  0.00     0.202 C 
BRANCH  26  27
ATOM     27  C   UNL A   1      35.433  32.932  32.664  1.00  0.00     0.261 C 
BRANCH  27  28
ATOM     28  O   UNL A   1      36.476  32.575  33.579  1.00  0.00    -0.460 OA
BRANCH  28  29
ATOM     29  C   UNL A   1      37.565  33.381  33.561  1.00  0.00     0.338 C 
ATOM     30  O   UNL A   1      37.579  34.606  33.547  1.00  0.00    -0.246 OA
BRANCH  29  31
ATOM     31  C   UNL A   1      38.778  32.566  33.755  1.00  0.00     0.060 A 
ATOM     32  C   UNL A   1      40.023  33.115  33.413  1.00  0.00     0.016 A 
ATOM     33  C   UNL A   1      38.686  31.258  34.229  1.00  0.00     0.016 A 
ATOM     34  C   UNL A   1      41.182  32.350  33.532  1.00  0.00     0.010 A 
ATOM     35  C   UNL A   1      39.845  30.485  34.324  1.00  0.00     0.010 A 
ATOM     36  C   UNL A   1      41.094  31.017  33.951  1.00  0.00    -0.014 A 
BRANCH  36  37
ATOM     37  C   UNL A   1      42.278  30.129  33.858  1.00  0.00     0.031 A 
ATOM     38  C   UNL A   1      43.221  30.058  35.027  1.00  0.00     0.074 A 
ATOM     39  C   UNL A   1      42.525  29.417  32.744  1.00  0.00     0.049 A 
ATOM     40  N   UNL A   1      44.357  29.421  35.137  1.00  0.00    -0.248 NA
ATOM     41  C   UNL A   1      42.832  30.810  36.231  1.00  0.00     0.031 C 
ATOM     42  C   UNL A   1      41.680  29.392  31.551  1.00  0.00     0.029 A 
ATOM     43  N   UNL A   1      43.584  28.604  32.425  1.00  0.00    -0.354 N 
ATOM     44  C   UNL A   1      44.838  29.723  36.405  1.00  0.00     0.074 A 
ATOM     45  C   UNL A   1      43.871  30.603  37.026  1.00  0.00     0.031 C 
ATOM     46  C   UNL A   1      42.274  28.633  30.613  1.00  0.00     0.029 A 
ATOM     47  C   UNL A   1      43.554  28.148  31.128  1.00  0.00     0.049 A 
ATOM     48  H   UNL A   1      44.296  28.369  33.063  1.00  0.00     0.167 HD
ATOM     49  C   UNL A   1      45.977  29.300  37.002  1.00  0.00     0.034 A 
ATOM     50  C   UNL A   1      44.471  27.450  30.427  1.00  0.00     0.034 A 
ATOM     51  C   UNL A   1      46.931  28.418  36.386  1.00  0.00     0.049 A 
ATOM     52  C   UNL A   1      45.751  27.024  31.104  1.00  0.00     0.074 A 
ATOM     53  C   UNL A   1      48.093  27.897  36.928  1.00  0.00     0.029 A 
ATOM     54  N   UNL A   1      46.847  27.942  35.087  1.00  0.00    -0.354 N 
ATOM     55  N   UNL A   1      46.140  27.224  32.339  1.00  0.00    -0.248 NA
ATOM     56  C   UNL A   1      46.704  26.249  30.295  1.00  0.00     0.031 C 
ATOM     57  C   UNL A   1      48.731  27.136  35.943  1.00  0.00     0.029 A 
ATOM     58  C   UNL A   1      47.943  27.146  34.803  1.00  0.00     0.049 A 
ATOM     59  H   UNL A   1      46.115  28.141  34.459  1.00  0.00     0.167 HD
ATOM     60  C   UNL A   1      47.359  26.566  32.468  1.00  0.00     0.074 A 
ATOM     61  C   UNL A   1      47.636  25.947  31.188  1.00  0.00     0.031 C 
ATOM     62  C   UNL A   1      48.182  26.490  33.543  1.00  0.00     0.034 A 
BRANCH  49  63
ATOM     63  C   UNL A   1      46.255  29.781  38.402  1.00  0.00     0.023 A 
ATOM     64  C   UNL A   1      46.982  30.971  38.604  1.00  0.00     0.012 A 
ATOM     65  C   UNL A   1      45.741  29.086  39.515  1.00  0.00     0.148 A 
ATOM     66  C   UNL A   1      47.220  31.446  39.894  1.00  0.00     0.002 A 
ATOM     67  C   UNL A   1      45.941  29.592  40.794  1.00  0.00     0.091 A 
ATOM     68  F   UNL A   1      45.070  27.945  39.303  1.00  0.00    -0.205 F 
ATOM     69  C   UNL A   1      46.690  30.764  40.986  1.00  0.00     0.022 A 
BRANCH  67  70
ATOM     70  S   UNL A   1      45.231  28.832  42.258  1.00  0.00     0.127 S 
ATOM     71  O   UNL A   1      43.801  28.896  41.959  1.00  0.00    -0.237 OA
ATOM     72  O   UNL A   1      45.803  27.486  42.212  1.00  0.00    -0.237 OA
ATOM     73  O   UNL A   1      45.669  29.642  43.386  1.00  0.00    -0.744 OA
ENDBRANCH  67  70
ENDBRANCH  49  63
BRANCH  50  74
ATOM     74  C   UNL A   1      44.214  27.094  29.002  1.00  0.00     0.023 A 
ATOM     75  C   UNL A   1      44.584  27.993  27.982  1.00  0.00     0.012 A 
ATOM     76  C   UNL A   1      43.601  25.875  28.654  1.00  0.00     0.148 A 
ATOM     77  C   UNL A   1      44.314  27.700  26.645  1.00  0.00     0.002 A 
ATOM     78  C   UNL A   1      43.386  25.565  27.317  1.00  0.00     0.091 A 
ATOM     79  F   UNL A   1      43.241  25.041  29.640  1.00  0.00    -0.205 F 
ATOM     80  C   UNL A   1      43.726  26.484  26.312  1.00  0.00     0.022 A 
BRANCH  78  81
ATOM     81  S   UNL A   1      42.743  23.974  26.786  1.00  0.00     0.127 S 
ATOM     82  O   UNL A   1      42.789  24.105  25.332  1.00  0.00    -0.237 OA
ATOM     83  O   UNL A   1      43.725  23.050  27.354  1.00  0.00    -0.237 OA
ATOM     84  O   UNL A   1      41.413  23.873  27.371  1.00  0.00    -0.744 OA
ENDBRANCH  78  81
ENDBRANCH  50  74
BRANCH  62  85
ATOM     85  C   UNL A   1      49.438  25.664  33.414  1.00  0.00     0.023 A 
ATOM     86  C   UNL A   1      50.646  26.270  33.017  1.00  0.00     0.012 A 
ATOM     87  C   UNL A   1      49.432  24.298  33.763  1.00  0.00     0.148 A 
ATOM     88  C   UNL A   1      51.820  25.521  32.933  1.00  0.00     0.002 A 
ATOM     89  C   UNL A   1      50.616  23.572  33.728  1.00  0.00     0.091 A 
ATOM     90  F   UNL A   1      48.269  23.735  34.124  1.00  0.00    -0.205 F 
ATOM     91  C   UNL A   1      51.808  24.177  33.301  1.00  0.00     0.022 A 
BRANCH  89  92
ATOM     92  S   UNL A   1      50.716  21.864  34.278  1.00  0.00     0.127 S 
ATOM     93  O   UNL A   1      49.869  21.186  33.297  1.00  0.00    -0.237 OA
ATOM     94  O   UNL A   1      52.145  21.581  34.148  1.00  0.00    -0.237 OA
ATOM     95  O   UNL A   1      50.218  21.850  35.647  1.00  0.00    -0.744 OA
ENDBRANCH  89  92
ENDBRANCH  62  85
ENDBRANCH  36  37
ENDBRANCH  29  31
ENDBRANCH  28  29
ENDBRANCH  27  28
ENDBRANCH  26  27
ENDBRANCH  25  26
ENDBRANCH   1  25
TORSDOF 22
ENDMDL
MODEL 2
REMARK VINA RESULT:      -7.9      4.701     11.624
REMARK SMILES COc1c(C(=O)OCCOCCOCCOC(=O)c2ccc(-c3c4nc(c(-c5cccc(S(=O)(=O)[O-])c5F)c5ccc([nH]5)c(-c5cccc(S(=O)(=O)[O-])c5F)c5nc(c(-c6cccc(S(=O)(=O)[O-])c6F)c6ccc3[nH]6)C=C5)C=C4)cc2)cccc1-c1cc(C)ccc1C
REMARK SMILES IDX 12 1 11 2 10 3 9 4 8 5 7 6 5 7 6 8 4 9 3 10 85 11 82 12
REMARK SMILES IDX 84 13 83 14 2 15 1 16 86 17 87 18 92 19 88 20 91 21 93 22
REMARK SMILES IDX 89 23 90 24 13 25 14 26 15 27 16 28 17 29 18 30 19 31 20 32
REMARK SMILES IDX 81 33 21 34 80 35 22 36 23 37 24 38 74 39 25 40 79 41 73 42
REMARK SMILES IDX 75 43 26 44 78 45 72 46 71 47 27 49 59 50 39 51 58 52 40 53
REMARK SMILES IDX 43 54 57 55 76 56 41 57 42 58 56 60 77 61 44 62 28 63 29 64
REMARK SMILES IDX 37 65 30 66 32 67 38 68 31 69 33 70 34 71 35 72 36 73 60 74
REMARK SMILES IDX 61 75 69 76 62 77 64 78 70 79 63 80 65 81 66 82 67 83 68 84
REMARK SMILES IDX 45 85 46 86 54 87 47 88 49 89 55 90 48 91 50 92 51 93 52 94
REMARK SMILES IDX 53 95
REMARK H PARENT 75 48 43 59
REMARK Flexibility Score: inf
ROOT
ATOM      1  C   UNL A   1      47.519  24.677  27.879  1.00  0.00     0.188 C 
ENDROOT
BRANCH   1   2
ATOM      2  C   UNL A   1      46.174  24.263  27.243  1.00  0.00     0.188 C 
BRANCH   2   3
ATOM      3  O   UNL A   1      46.014  22.925  26.828  1.00  0.00    -0.376 OA
BRANCH   3   4
ATOM      4  C   UNL A   1      45.311  22.618  25.632  1.00  0.00     0.202 C 
BRANCH   4   5
ATOM      5  C   UNL A   1      44.441  21.367  25.431  1.00  0.00     0.261 C 
BRANCH   5   6
ATOM      6  O   UNL A   1      43.047  21.614  25.236  1.00  0.00    -0.460 OA
BRANCH   6   7
ATOM      7  C   UNL A   1      42.227  21.092  26.182  1.00  0.00     0.342 C 
ATOM      8  O   UNL A   1      42.455  20.129  26.900  1.00  0.00    -0.246 OA
BRANCH   7   9
ATOM      9  C   UNL A   1      41.077  21.988  26.409  1.00  0.00     0.102 A 
ATOM     10  C   UNL A   1      41.197  23.214  27.080  1.00  0.00     0.141 A 
ATOM     11  C   UNL A   1      40.085  24.086  27.149  1.00  0.00     0.025 A 
ATOM     12  C   UNL A   1      39.831  21.551  25.935  1.00  0.00     0.019 A 
ATOM     13  C   UNL A   1      38.834  23.601  26.707  1.00  0.00     0.012 A 
ATOM     14  C   UNL A   1      38.702  22.338  26.126  1.00  0.00     0.002 A 
BRANCH  10  15
ATOM     15  O   UNL A   1      42.440  23.563  27.554  1.00  0.00    -0.495 OA
ATOM     16  C   UNL A   1      42.627  23.192  28.923  1.00  0.00     0.278 C 
ENDBRANCH  10  15
BRANCH  11  17
ATOM     17  C   UNL A   1      40.197  25.508  27.551  1.00  0.00    -0.011 A 
ATOM     18  C   UNL A   1      39.600  25.948  28.753  1.00  0.00     0.012 A 
ATOM     19  C   UNL A   1      40.852  26.471  26.742  1.00  0.00    -0.043 A 
ATOM     20  C   UNL A   1      39.667  27.288  29.167  1.00  0.00    -0.050 A 
ATOM     21  C   UNL A   1      40.966  27.795  27.194  1.00  0.00     0.004 A 
ATOM     22  C   UNL A   1      41.473  26.144  25.407  1.00  0.00     0.045 C 
ATOM     23  C   UNL A   1      38.962  27.730  30.415  1.00  0.00     0.044 C 
ATOM     24  C   UNL A   1      40.377  28.201  28.388  1.00  0.00     0.004 A 
ENDBRANCH  11  17
ENDBRANCH   7   9
ENDBRANCH   6   7
ENDBRANCH   5   6
ENDBRANCH   4   5
ENDBRANCH   3   4
ENDBRANCH   2   3
ENDBRANCH   1   2
BRANCH   1  25
ATOM     25  O   UNL A   1      48.741  24.474  27.199  1.00  0.00    -0.376 OA
BRANCH  25  26
ATOM     26  C   UNL A   1      49.430  25.586  26.656  1.00  0.00     0.202 C 
BRANCH  26  27
ATOM     27  C   UNL A   1      49.313  26.026  25.186  1.00  0.00     0.261 C 
BRANCH  27  28
ATOM     28  O   UNL A   1      48.431  27.118  24.898  1.00  0.00    -0.460 OA
BRANCH  28  29
ATOM     29  C   UNL A   1      47.117  26.798  24.818  1.00  0.00     0.338 C 
ATOM     30  O   UNL A   1      46.607  25.937  24.110  1.00  0.00    -0.246 OA
BRANCH  29  31
ATOM     31  C   UNL A   1      46.373  27.521  25.865  1.00  0.00     0.060 A 
ATOM     32  C   UNL A   1      47.089  28.285  26.798  1.00  0.00     0.016 A 
ATOM     33  C   UNL A   1      44.986  27.413  25.952  1.00  0.00     0.016 A 
ATOM     34  C   UNL A   1      46.419  28.935  27.833  1.00  0.00     0.010 A 
ATOM     35  C   UNL A   1      44.318  28.043  27.005  1.00  0.00     0.010 A 
ATOM     36  C   UNL A   1      45.033  28.785  27.965  1.00  0.00    -0.014 A 
BRANCH  36  37
ATOM     37  C   UNL A   1      44.345  29.272  29.185  1.00  0.00     0.031 A 
ATOM     38  C   UNL A   1      43.920  30.713  29.248  1.00  0.00     0.074 A 
ATOM     39  C   UNL A   1      44.124  28.454  30.230  1.00  0.00     0.049 A 
ATOM     40  N   UNL A   1      43.384  31.376  30.238  1.00  0.00    -0.248 NA
ATOM     41  C   UNL A   1      44.133  31.514  28.031  1.00  0.00     0.031 C 
ATOM     42  C   UNL A   1      44.477  27.037  30.284  1.00  0.00     0.029 A 
ATOM     43  N   UNL A   1      43.579  28.715  31.463  1.00  0.00    -0.354 N 
ATOM     44  C   UNL A   1      43.229  32.678  29.780  1.00  0.00     0.074 A 
ATOM     45  C   UNL A   1      43.730  32.713  28.423  1.00  0.00     0.031 C 
ATOM     46  C   UNL A   1      44.176  26.560  31.505  1.00  0.00     0.029 A 
ATOM     47  C   UNL A   1      43.641  27.646  32.325  1.00  0.00     0.049 A 
ATOM     48  H   UNL A   1      43.183  29.583  31.706  1.00  0.00     0.167 HD
ATOM     49  C   UNL A   1      42.709  33.747  30.428  1.00  0.00     0.034 A 
ATOM     50  C   UNL A   1      43.334  27.564  33.636  1.00  0.00     0.034 A 
ATOM     51  C   UNL A   1      42.203  33.708  31.773  1.00  0.00     0.049 A 
ATOM     52  C   UNL A   1      42.793  28.781  34.346  1.00  0.00     0.074 A 
ATOM     53  C   UNL A   1      41.615  34.728  32.500  1.00  0.00     0.029 A 
ATOM     54  N   UNL A   1      42.242  32.598  32.603  1.00  0.00    -0.354 N 
ATOM     55  N   UNL A   1      42.548  29.977  33.868  1.00  0.00    -0.248 NA
ATOM     56  C   UNL A   1      42.459  28.626  35.769  1.00  0.00     0.031 C 
ATOM     57  C   UNL A   1      41.333  34.246  33.782  1.00  0.00     0.029 A 
ATOM     58  C   UNL A   1      41.704  32.911  33.838  1.00  0.00     0.049 A 
ATOM     59  H   UNL A   1      42.600  31.717  32.349  1.00  0.00     0.167 HD
ATOM     60  C   UNL A   1      41.992  30.702  34.918  1.00  0.00     0.074 A 
ATOM     61  C   UNL A   1      41.922  29.806  36.052  1.00  0.00     0.031 C 
ATOM     62  C   UNL A   1      41.588  31.997  34.944  1.00  0.00     0.034 A 
BRANCH  49  63
ATOM     63  C   UNL A   1      42.653  35.057  29.686  1.00  0.00     0.023 A 
ATOM     64  C   UNL A   1      41.615  35.297  28.763  1.00  0.00     0.012 A 
ATOM     65  C   UNL A   1      43.593  36.073  29.951  1.00  0.00     0.148 A 
ATOM     66  C   UNL A   1      41.530  36.516  28.092  1.00  0.00     0.002 A 
ATOM     67  C   UNL A   1      43.473  37.303  29.314  1.00  0.00     0.091 A 
ATOM     68  F   UNL A   1      44.584  35.818  30.816  1.00  0.00    -0.205 F 
ATOM     69  C   UNL A   1      42.451  37.522  28.376  1.00  0.00     0.022 A 
BRANCH  67  70
ATOM     70  S   UNL A   1      44.559  38.688  29.670  1.00  0.00     0.127 S 
ATOM     71  O   UNL A   1      45.872  38.118  29.370  1.00  0.00    -0.237 OA
ATOM     72  O   UNL A   1      44.098  39.693  28.711  1.00  0.00    -0.237 OA
ATOM     73  O   UNL A   1      44.333  39.029  31.067  1.00  0.00    -0.744 OA
ENDBRANCH  67  70
ENDBRANCH  49  63
BRANCH  50  74
ATOM     74  C   UNL A   1      43.517  26.280  34.371  1.00  0.00     0.023 A 
ATOM     75  C   UNL A   1      42.390  25.509  34.718  1.00  0.00     0.012 A 
ATOM     76  C   UNL A   1      44.799  25.822  34.733  1.00  0.00     0.148 A 
ATOM     77  C   UNL A   1      42.533  24.326  35.444  1.00  0.00     0.002 A 
ATOM     78  C   UNL A   1      44.939  24.616  35.407  1.00  0.00     0.091 A 
ATOM     79  F   UNL A   1      45.858  26.579  34.409  1.00  0.00    -0.205 F 
ATOM     80  C   UNL A   1      43.807  23.875  35.778  1.00  0.00     0.022 A 
BRANCH  78  81
ATOM     81  S   UNL A   1      46.543  23.897  35.776  1.00  0.00     0.127 S 
ATOM     82  O   UNL A   1      46.218  22.476  35.872  1.00  0.00    -0.237 OA
ATOM     83  O   UNL A   1      47.319  24.274  34.594  1.00  0.00    -0.237 OA
ATOM     84  O   UNL A   1      46.983  24.530  37.012  1.00  0.00    -0.744 OA
ENDBRANCH  78  81
ENDBRANCH  50  74
BRANCH  62  85
ATOM     85  C   UNL A   1      40.977  32.519  36.221  1.00  0.00     0.023 A 
ATOM     86  C   UNL A   1      41.702  33.404  37.043  1.00  0.00     0.012 A 
ATOM     87  C   UNL A   1      39.650  32.189  36.564  1.00  0.00     0.148 A 
ATOM     88  C   UNL A   1      41.130  33.922  38.205  1.00  0.00     0.002 A 
ATOM     89  C   UNL A   1      39.068  32.751  37.694  1.00  0.00     0.091 A 
ATOM     90  F   UNL A   1      38.981  31.333  35.777  1.00  0.00    -0.205 F 
ATOM     91  C   UNL A   1      39.810  33.606  38.523  1.00  0.00     0.022 A 
BRANCH  89  92
ATOM     92  S   UNL A   1      37.346  32.480  38.127  1.00  0.00     0.127 S 
ATOM     93  O   UNL A   1      36.653  33.135  37.018  1.00  0.00    -0.237 OA
ATOM     94  O   UNL A   1      37.252  31.020  38.127  1.00  0.00    -0.237 OA
ATOM     95  O   UNL A   1      37.156  33.099  39.432  1.00  0.00    -0.744 OA
ENDBRANCH  89  92
ENDBRANCH  62  85
ENDBRANCH  36  37
ENDBRANCH  29  31
ENDBRANCH  28  29
ENDBRANCH  27  28
ENDBRANCH  26  27
ENDBRANCH  25  26
ENDBRANCH   1  25
TORSDOF 22
ENDMDL
MODEL 3
REMARK VINA RESULT:      -7.4      4.220      7.288
REMARK SMILES COc1c(C(=O)OCCOCCOCCOC(=O)c2ccc(-c3c4nc(c(-c5cccc(S(=O)(=O)[O-])c5F)c5ccc([nH]5)c(-c5cccc(S(=O)(=O)[O-])c5F)c5nc(c(-c6cccc(S(=O)(=O)[O-])c6F)c6ccc3[nH]6)C=C5)C=C4)cc2)cccc1-c1cc(C)ccc1C
REMARK SMILES IDX 12 1 11 2 10 3 9 4 8 5 7 6 5 7 6 8 4 9 3 10 85 11 82 12
REMARK SMILES IDX 84 13 83 14 2 15 1 16 86 17 87 18 92 19 88 20 91 21 93 22
REMARK SMILES IDX 89 23 90 24 13 25 14 26 15 27 16 28 17 29 18 30 19 31 20 32
REMARK SMILES IDX 81 33 21 34 80 35 22 36 23 37 24 38 74 39 25 40 79 41 73 42
REMARK SMILES IDX 75 43 26 44 78 45 72 46 71 47 27 49 59 50 39 51 58 52 40 53
REMARK SMILES IDX 43 54 57 55 76 56 41 57 42 58 56 60 77 61 44 62 28 63 29 64
REMARK SMILES IDX 37 65 30 66 32 67 38 68 31 69 33 70 34 71 35 72 36 73 60 74
REMARK SMILES IDX 61 75 69 76 62 77 64 78 70 79 63 80 65 81 66 82 67 83 68 84
REMARK SMILES IDX 45 85 46 86 54 87 47 88 49 89 55 90 48 91 50 92 51 93 52 94
REMARK SMILES IDX 53 95
REMARK H PARENT 75 48 43 59
REMARK Flexibility Score: inf
ROOT
ATOM      1  C   UNL A   1      33.614  36.084  32.077  1.00  0.00     0.188 C 
ENDROOT
BRANCH   1   2
ATOM      2  C   UNL A   1      32.949  36.272  30.696  1.00  0.00     0.188 C 
BRANCH   2   3
ATOM      3  O   UNL A   1      33.603  35.750  29.561  1.00  0.00    -0.376 OA
BRANCH   3   4
ATOM      4  C   UNL A   1      33.119  34.576  28.924  1.00  0.00     0.202 C 
BRANCH   4   5
ATOM      5  C   UNL A   1      34.014  33.472  28.337  1.00  0.00     0.261 C 
BRANCH   5   6
ATOM      6  O   UNL A   1      34.167  32.310  29.152  1.00  0.00    -0.460 OA
BRANCH   6   7
ATOM      7  C   UNL A   1      34.859  32.494  30.305  1.00  0.00     0.342 C 
ATOM      8  O   UNL A   1      34.401  32.519  31.438  1.00  0.00    -0.246 OA
BRANCH   7   9
ATOM      9  C   UNL A   1      36.309  32.436  30.042  1.00  0.00     0.102 A 
ATOM     10  C   UNL A   1      37.000  31.224  29.892  1.00  0.00     0.141 A 
ATOM     11  C   UNL A   1      38.363  31.238  29.512  1.00  0.00     0.025 A 
ATOM     12  C   UNL A   1      36.989  33.660  29.966  1.00  0.00     0.019 A 
ATOM     13  C   UNL A   1      39.032  32.482  29.489  1.00  0.00     0.012 A 
ATOM     14  C   UNL A   1      38.358  33.680  29.734  1.00  0.00     0.002 A 
BRANCH  10  15
ATOM     15  O   UNL A   1      36.281  30.059  30.020  1.00  0.00    -0.495 OA
ATOM     16  C   UNL A   1      36.633  29.324  31.195  1.00  0.00     0.278 C 
ENDBRANCH  10  15
BRANCH  11  17
ATOM     17  C   UNL A   1      39.080  30.033  29.030  1.00  0.00    -0.011 A 
ATOM     18  C   UNL A   1      40.151  29.504  29.783  1.00  0.00     0.012 A 
ATOM     19  C   UNL A   1      38.757  29.406  27.801  1.00  0.00    -0.043 A 
ATOM     20  C   UNL A   1      40.869  28.376  29.358  1.00  0.00    -0.050 A 
ATOM     21  C   UNL A   1      39.440  28.241  27.415  1.00  0.00     0.004 A 
ATOM     22  C   UNL A   1      37.679  29.910  26.873  1.00  0.00     0.045 C 
ATOM     23  C   UNL A   1      42.045  27.885  30.150  1.00  0.00     0.044 C 
ATOM     24  C   UNL A   1      40.487  27.735  28.181  1.00  0.00     0.004 A 
ENDBRANCH  11  17
ENDBRANCH   7   9
ENDBRANCH   6   7
ENDBRANCH   5   6
ENDBRANCH   4   5
ENDBRANCH   3   4
ENDBRANCH   2   3
ENDBRANCH   1   2
BRANCH   1  25
ATOM     25  O   UNL A   1      34.869  35.448  32.202  1.00  0.00    -0.376 OA
BRANCH  25  26
ATOM     26  C   UNL A   1      35.457  35.313  33.484  1.00  0.00     0.202 C 
BRANCH  26  27
ATOM     27  C   UNL A   1      35.224  34.101  34.404  1.00  0.00     0.261 C 
BRANCH  27  28
ATOM     28  O   UNL A   1      36.191  33.045  34.353  1.00  0.00    -0.460 OA
BRANCH  28  29
ATOM     29  C   UNL A   1      37.288  33.224  35.128  1.00  0.00     0.338 C 
ATOM     30  O   UNL A   1      37.314  33.573  36.303  1.00  0.00    -0.246 OA
BRANCH  29  31
ATOM     31  C   UNL A   1      38.481  32.749  34.404  1.00  0.00     0.060 A 
ATOM     32  C   UNL A   1      38.328  31.753  33.429  1.00  0.00     0.016 A 
ATOM     33  C   UNL A   1      39.744  33.252  34.713  1.00  0.00     0.016 A 
ATOM     34  C   UNL A   1      39.445  31.245  32.767  1.00  0.00     0.010 A 
ATOM     35  C   UNL A   1      40.864  32.723  34.068  1.00  0.00     0.010 A 
ATOM     36  C   UNL A   1      40.723  31.699  33.111  1.00  0.00    -0.014 A 
BRANCH  36  37
ATOM     37  C   UNL A   1      41.925  31.006  32.589  1.00  0.00     0.031 A 
ATOM     38  C   UNL A   1      42.580  31.535  31.342  1.00  0.00     0.074 A 
ATOM     39  C   UNL A   1      42.412  29.909  33.196  1.00  0.00     0.049 A 
ATOM     40  N   UNL A   1      43.581  31.045  30.661  1.00  0.00    -0.248 NA
ATOM     41  C   UNL A   1      42.026  32.782  30.789  1.00  0.00     0.031 C 
ATOM     42  C   UNL A   1      41.874  29.308  34.415  1.00  0.00     0.029 A 
ATOM     43  N   UNL A   1      43.452  29.085  32.843  1.00  0.00    -0.354 N 
ATOM     44  C   UNL A   1      43.756  31.900  29.580  1.00  0.00     0.074 A 
ATOM     45  C   UNL A   1      42.755  32.938  29.694  1.00  0.00     0.031 C 
ATOM     46  C   UNL A   1      42.564  28.186  34.688  1.00  0.00     0.029 A 
ATOM     47  C   UNL A   1      43.568  27.975  33.646  1.00  0.00     0.049 A 
ATOM     48  H   UNL A   1      44.056  29.271  32.088  1.00  0.00     0.167 HD
ATOM     49  C   UNL A   1      44.671  31.831  28.585  1.00  0.00     0.034 A 
ATOM     50  C   UNL A   1      44.368  26.895  33.531  1.00  0.00     0.034 A 
ATOM     51  C   UNL A   1      45.671  30.803  28.479  1.00  0.00     0.049 A 
ATOM     52  C   UNL A   1      45.354  26.824  32.391  1.00  0.00     0.074 A 
ATOM     53  C   UNL A   1      46.673  30.674  27.532  1.00  0.00     0.029 A 
ATOM     54  N   UNL A   1      45.787  29.718  29.333  1.00  0.00    -0.354 N 
ATOM     55  N   UNL A   1      45.583  27.695  31.439  1.00  0.00    -0.248 NA
ATOM     56  C   UNL A   1      46.213  25.632  32.328  1.00  0.00     0.031 C 
ATOM     57  C   UNL A   1      47.369  29.490  27.793  1.00  0.00     0.029 A 
ATOM     58  C   UNL A   1      46.831  28.906  28.929  1.00  0.00     0.049 A 
ATOM     59  H   UNL A   1      45.210  29.551  30.114  1.00  0.00     0.167 HD
ATOM     60  C   UNL A   1      46.637  27.178  30.692  1.00  0.00     0.074 A 
ATOM     61  C   UNL A   1      47.013  25.926  31.312  1.00  0.00     0.031 C 
ATOM     62  C   UNL A   1      47.232  27.688  29.585  1.00  0.00     0.034 A 
BRANCH  49  63
ATOM     63  C   UNL A   1      44.642  32.905  27.529  1.00  0.00     0.023 A 
ATOM     64  C   UNL A   1      43.916  32.700  26.340  1.00  0.00     0.012 A 
ATOM     65  C   UNL A   1      45.283  34.142  27.746  1.00  0.00     0.148 A 
ATOM     66  C   UNL A   1      43.853  33.698  25.367  1.00  0.00     0.002 A 
ATOM     67  C   UNL A   1      45.175  35.147  26.793  1.00  0.00     0.091 A 
ATOM     68  F   UNL A   1      45.986  34.309  28.875  1.00  0.00    -0.205 F 
ATOM     69  C   UNL A   1      44.471  34.923  25.599  1.00  0.00     0.022 A 
BRANCH  67  70
ATOM     70  S   UNL A   1      45.866  36.788  27.033  1.00  0.00     0.127 S 
ATOM     71  O   UNL A   1      46.738  36.913  25.866  1.00  0.00    -0.237 OA
ATOM     72  O   UNL A   1      44.671  37.632  26.993  1.00  0.00    -0.237 OA
ATOM     73  O   UNL A   1      46.547  36.755  28.319  1.00  0.00    -0.744 OA
ENDBRANCH  67  70
ENDBRANCH  49  63
BRANCH  50  74
ATOM     74  C   UNL A   1      44.286  25.791  34.529  1.00  0.00     0.023 A 
ATOM     75  C   UNL A   1      43.409  24.712  34.304  1.00  0.00     0.012 A 
ATOM     76  C   UNL A   1      45.066  25.807  35.701  1.00  0.00     0.148 A 
ATOM     77  C   UNL A   1      43.283  23.689  35.244  1.00  0.00     0.002 A 
ATOM     78  C   UNL A   1      44.978  24.758  36.607  1.00  0.00     0.091 A 
ATOM     79  F   UNL A   1      45.882  26.852  35.906  1.00  0.00    -0.205 F 
ATOM     80  C   UNL A   1      44.074  23.707  36.389  1.00  0.00     0.022 A 
BRANCH  78  81
ATOM     81  S   UNL A   1      46.040  24.636  38.050  1.00  0.00     0.127 S 
ATOM     82  O   UNL A   1      45.963  23.210  38.357  1.00  0.00    -0.237 OA
ATOM     83  O   UNL A   1      47.326  25.083  37.513  1.00  0.00    -0.237 OA
ATOM     84  O   UNL A   1      45.459  25.528  39.044  1.00  0.00    -0.744 OA
ENDBRANCH  78  81
ENDBRANCH  50  74
BRANCH  62  85
ATOM     85  C   UNL A   1      48.395  26.928  28.996  1.00  0.00     0.023 A 
ATOM     86  C   UNL A   1      48.176  25.973  27.983  1.00  0.00     0.012 A 
ATOM     87  C   UNL A   1      49.714  27.220  29.396  1.00  0.00     0.148 A 
ATOM     88  C   UNL A   1      49.250  25.294  27.406  1.00  0.00     0.002 A 
ATOM     89  C   UNL A   1      50.781  26.579  28.779  1.00  0.00     0.091 A 
ATOM     90  F   UNL A   1      49.902  28.121  30.372  1.00  0.00    -0.205 F 
ATOM     91  C   UNL A   1      50.551  25.606  27.794  1.00  0.00     0.022 A 
BRANCH  89  92
ATOM     92  S   UNL A   1      52.493  26.986  29.143  1.00  0.00     0.127 S 
ATOM     93  O   UNL A   1      52.645  26.452  30.496  1.00  0.00    -0.237 OA
ATOM     94  O   UNL A   1      53.214  26.243  28.110  1.00  0.00    -0.237 OA
ATOM     95  O   UNL A   1      52.596  28.435  29.030  1.00  0.00    -0.744 OA
ENDBRANCH  89  92
ENDBRANCH  62  85
ENDBRANCH  36  37
ENDBRANCH  29  31
ENDBRANCH  28  29
ENDBRANCH  27  28
ENDBRANCH  26  27
ENDBRANCH  25  26
ENDBRANCH   1  25
TORSDOF 22
ENDMDL
