MODEL 1
REMARK VINA RESULT:      -9.5      0.000      0.000
REMARK SMILES C[C@H](NC(=O)N[C@H]1CCCC1(C)C)c1nc(C(=O)OCCOCCOCCOC(=O)c2ccc(-c3c4nc(c(-c5cccc(S(=O)(=O)[O-])c5F)c5ccc([nH]5)c(-c5cccc(S(=O)(=O)[O-])c5F)c5nc(c(-c6cccc(S(=O)(=O)[O-])c6F)c6ccc3[nH]6)C=C5)C=C4)cc2)cs1
REMARK SMILES IDX 23 1 22 2 21 3 20 4 19 5 17 6 18 7 16 8 14 9 15 10 95 11
REMARK SMILES IDX 94 12 2 13 1 14 3 15 4 16 5 18 6 19 7 21 8 22 11 23 9 24
REMARK SMILES IDX 10 25 12 26 13 27 24 28 25 29 26 30 27 31 28 32 29 33 30 34
REMARK SMILES IDX 31 35 32 36 93 37 33 38 92 39 34 40 35 41 36 42 86 43 37 44
REMARK SMILES IDX 91 45 85 46 87 47 38 48 90 49 84 50 83 51 39 53 71 54 51 55
REMARK SMILES IDX 70 56 52 57 55 58 69 59 88 60 53 61 54 62 68 64 89 65 56 66
REMARK SMILES IDX 40 67 41 68 49 69 42 70 44 71 50 72 43 73 45 74 46 75 47 76
REMARK SMILES IDX 48 77 72 78 73 79 81 80 74 81 76 82 82 83 75 84 77 85 78 86
REMARK SMILES IDX 79 87 80 88 57 89 58 90 66 91 59 92 61 93 67 94 60 95 62 96
REMARK SMILES IDX 63 97 64 98 65 99
REMARK H PARENT 3 17 6 20 87 52 55 63
REMARK Flexibility Score: inf
ROOT
ATOM      1  C   UNL A   1      40.912  19.840  26.448  1.00  0.00     0.188 C 
ENDROOT
BRANCH   1   2
ATOM      2  O   UNL A   1      40.796  21.207  26.080  1.00  0.00    -0.376 OA
BRANCH   2   3
ATOM      3  C   UNL A   1      39.774  21.993  26.687  1.00  0.00     0.202 C 
BRANCH   3   4
ATOM      4  C   UNL A   1      38.725  22.550  25.726  1.00  0.00     0.261 C 
BRANCH   4   5
ATOM      5  O   UNL A   1      37.464  21.919  26.005  1.00  0.00    -0.458 OA
BRANCH   5   6
ATOM      6  C   UNL A   1      37.044  20.994  25.097  1.00  0.00     0.357 C 
ATOM      7  O   UNL A   1      37.690  20.013  24.748  1.00  0.00    -0.244 OA
BRANCH   6   8
ATOM      8  C   UNL A   1      35.633  21.186  24.778  1.00  0.00     0.159 A 
ATOM      9  C   UNL A   1      33.762  22.319  24.316  1.00  0.00     0.116 A 
ATOM     10  N   UNL A   1      35.076  22.421  24.435  1.00  0.00    -0.232 NA
ATOM     11  S   UNL A   1      33.134  20.810  24.873  1.00  0.00    -0.124 S 
ATOM     12  C   UNL A   1      34.712  20.168  24.936  1.00  0.00     0.102 A 
BRANCH   9  13
ATOM     13  C   UNL A   1      32.858  23.462  23.876  1.00  0.00     0.140 C 
ATOM     14  C   UNL A   1      31.471  23.102  23.366  1.00  0.00     0.039 C 
BRANCH  13  15
ATOM     15  N   UNL A   1      33.589  24.428  23.047  1.00  0.00    -0.329 N 
ATOM     16  C   UNL A   1      33.401  25.706  22.699  1.00  0.00     0.315 C 
ATOM     17  H   UNL A   1      34.409  24.048  22.656  1.00  0.00     0.166 HD
ATOM     18  O   UNL A   1      33.870  26.086  21.623  1.00  0.00    -0.249 OA
ATOM     19  N   UNL A   1      32.685  26.578  23.419  1.00  0.00    -0.335 N 
ATOM     20  H   UNL A   1      31.939  27.010  22.942  1.00  0.00     0.165 HD
BRANCH  19  21
ATOM     21  C   UNL A   1      32.854  26.984  24.817  1.00  0.00     0.089 C 
ATOM     22  C   UNL A   1      33.700  28.272  24.885  1.00  0.00     0.025 C 
ATOM     23  C   UNL A   1      31.523  27.434  25.475  1.00  0.00    -0.015 C 
ATOM     24  C   UNL A   1      32.711  29.435  24.743  1.00  0.00     0.003 C 
ATOM     25  C   UNL A   1      31.313  28.836  24.881  1.00  0.00     0.008 C 
ATOM     26  C   UNL A   1      30.323  26.545  25.163  1.00  0.00     0.013 C 
ATOM     27  C   UNL A   1      31.659  27.514  27.010  1.00  0.00     0.013 C 
ENDBRANCH  19  21
ENDBRANCH  13  15
ENDBRANCH   9  13
ENDBRANCH   6   8
ENDBRANCH   5   6
ENDBRANCH   4   5
ENDBRANCH   3   4
ENDBRANCH   2   3
ENDBRANCH   1   2
BRANCH   1  28
ATOM     28  C   UNL A   1      42.236  19.098  26.176  1.00  0.00     0.188 C 
BRANCH  28  29
ATOM     29  O   UNL A   1      42.864  19.134  24.902  1.00  0.00    -0.376 OA
BRANCH  29  30
ATOM     30  C   UNL A   1      44.277  19.098  24.810  1.00  0.00     0.202 C 
BRANCH  30  31
ATOM     31  C   UNL A   1      45.000  20.398  24.458  1.00  0.00     0.261 C 
BRANCH  31  32
ATOM     32  O   UNL A   1      44.776  21.449  25.404  1.00  0.00    -0.460 OA
BRANCH  32  33
ATOM     33  C   UNL A   1      44.013  22.474  24.955  1.00  0.00     0.338 C 
ATOM     34  O   UNL A   1      43.466  22.566  23.869  1.00  0.00    -0.246 OA
BRANCH  33  35
ATOM     35  C   UNL A   1      43.816  23.455  26.038  1.00  0.00     0.060 A 
ATOM     36  C   UNL A   1      44.059  24.805  25.754  1.00  0.00     0.016 A 
ATOM     37  C   UNL A   1      43.467  23.051  27.329  1.00  0.00     0.016 A 
ATOM     38  C   UNL A   1      43.991  25.753  26.775  1.00  0.00     0.010 A 
ATOM     39  C   UNL A   1      43.411  24.000  28.352  1.00  0.00     0.010 A 
ATOM     40  C   UNL A   1      43.704  25.348  28.086  1.00  0.00    -0.014 A 
BRANCH  40  41
ATOM     41  C   UNL A   1      43.840  26.309  29.204  1.00  0.00     0.031 A 
ATOM     42  C   UNL A   1      45.162  26.420  29.913  1.00  0.00     0.074 A 
ATOM     43  C   UNL A   1      42.793  27.055  29.598  1.00  0.00     0.049 A 
ATOM     44  N   UNL A   1      45.497  27.183  30.919  1.00  0.00    -0.248 NA
ATOM     45  C   UNL A   1      46.248  25.552  29.425  1.00  0.00     0.031 C 
ATOM     46  C   UNL A   1      41.460  27.023  29.001  1.00  0.00     0.029 A 
ATOM     47  N   UNL A   1      42.685  27.965  30.619  1.00  0.00    -0.354 N 
ATOM     48  C   UNL A   1      46.825  26.884  31.194  1.00  0.00     0.074 A 
ATOM     49  C   UNL A   1      47.232  25.858  30.259  1.00  0.00     0.031 C 
ATOM     50  C   UNL A   1      40.656  27.853  29.688  1.00  0.00     0.029 A 
ATOM     51  C   UNL A   1      41.415  28.465  30.778  1.00  0.00     0.049 A 
ATOM     52  H   UNL A   1      43.445  28.235  31.184  1.00  0.00     0.167 HD
ATOM     53  C   UNL A   1      47.640  27.428  32.127  1.00  0.00     0.034 A 
ATOM     54  C   UNL A   1      40.922  29.309  31.706  1.00  0.00     0.034 A 
ATOM     55  C   UNL A   1      47.243  28.455  33.050  1.00  0.00     0.049 A 
ATOM     56  C   UNL A   1      41.846  29.881  32.750  1.00  0.00     0.074 A 
ATOM     57  C   UNL A   1      48.012  29.104  34.000  1.00  0.00     0.029 A 
ATOM     58  N   UNL A   1      45.962  28.975  33.148  1.00  0.00    -0.354 N 
ATOM     59  N   UNL A   1      43.136  29.701  32.900  1.00  0.00    -0.248 NA
ATOM     60  C   UNL A   1      41.251  30.799  33.734  1.00  0.00     0.031 C 
ATOM     61  C   UNL A   1      47.192  30.010  34.680  1.00  0.00     0.029 A 
ATOM     62  C   UNL A   1      45.914  29.929  34.149  1.00  0.00     0.049 A 
ATOM     63  H   UNL A   1      45.198  28.706  32.588  1.00  0.00     0.167 HD
ATOM     64  C   UNL A   1      43.512  30.504  33.972  1.00  0.00     0.074 A 
ATOM     65  C   UNL A   1      42.317  31.188  34.421  1.00  0.00     0.031 C 
ATOM     66  C   UNL A   1      44.732  30.649  34.544  1.00  0.00     0.034 A 
BRANCH  53  67
ATOM     67  C   UNL A   1      49.067  26.956  32.162  1.00  0.00     0.023 A 
ATOM     68  C   UNL A   1      50.070  27.770  31.596  1.00  0.00     0.012 A 
ATOM     69  C   UNL A   1      49.424  25.751  32.793  1.00  0.00     0.148 A 
ATOM     70  C   UNL A   1      51.407  27.380  31.643  1.00  0.00     0.002 A 
ATOM     71  C   UNL A   1      50.764  25.384  32.862  1.00  0.00     0.091 A 
ATOM     72  F   UNL A   1      48.450  24.978  33.297  1.00  0.00    -0.205 F 
ATOM     73  C   UNL A   1      51.754  26.194  32.284  1.00  0.00     0.022 A 
BRANCH  71  74
ATOM     74  S   UNL A   1      51.312  23.903  33.716  1.00  0.00     0.127 S 
ATOM     75  O   UNL A   1      50.732  22.850  32.883  1.00  0.00    -0.237 OA
ATOM     76  O   UNL A   1      52.769  24.014  33.631  1.00  0.00    -0.237 OA
ATOM     77  O   UNL A   1      50.778  24.002  35.067  1.00  0.00    -0.744 OA
ENDBRANCH  71  74
ENDBRANCH  53  67
BRANCH  54  78
ATOM     78  C   UNL A   1      39.487  29.706  31.662  1.00  0.00     0.023 A 
ATOM     79  C   UNL A   1      38.531  28.908  32.317  1.00  0.00     0.012 A 
ATOM     80  C   UNL A   1      39.068  30.868  30.988  1.00  0.00     0.148 A 
ATOM     81  C   UNL A   1      37.177  29.246  32.280  1.00  0.00     0.002 A 
ATOM     82  C   UNL A   1      37.724  31.226  30.994  1.00  0.00     0.091 A 
ATOM     83  F   UNL A   1      39.990  31.601  30.346  1.00  0.00    -0.205 F 
ATOM     84  C   UNL A   1      36.776  30.409  31.628  1.00  0.00     0.022 A 
BRANCH  82  85
ATOM     85  S   UNL A   1      37.151  32.769  30.276  1.00  0.00     0.127 S 
ATOM     86  O   UNL A   1      37.456  32.574  28.863  1.00  0.00    -0.237 OA
ATOM     87  O   UNL A   1      35.724  32.753  30.606  1.00  0.00    -0.237 OA
ATOM     88  O   UNL A   1      37.905  33.811  30.960  1.00  0.00    -0.744 OA
ENDBRANCH  82  85
ENDBRANCH  54  78
BRANCH  66  89
ATOM     89  C   UNL A   1      44.853  31.595  35.710  1.00  0.00     0.023 A 
ATOM     90  C   UNL A   1      45.316  32.906  35.491  1.00  0.00     0.012 A 
ATOM     91  C   UNL A   1      44.428  31.216  36.998  1.00  0.00     0.148 A 
ATOM     92  C   UNL A   1      45.374  33.822  36.541  1.00  0.00     0.002 A 
ATOM     93  C   UNL A   1      44.451  32.146  38.032  1.00  0.00     0.091 A 
ATOM     94  F   UNL A   1      44.012  29.955  37.192  1.00  0.00    -0.205 F 
ATOM     95  C   UNL A   1      44.930  33.447  37.807  1.00  0.00     0.022 A 
BRANCH  93  96
ATOM     96  S   UNL A   1      43.812  31.766  39.668  1.00  0.00     0.127 S 
ATOM     97  O   UNL A   1      44.194  32.959  40.422  1.00  0.00    -0.237 OA
ATOM     98  O   UNL A   1      42.375  31.633  39.424  1.00  0.00    -0.237 OA
ATOM     99  O   UNL A   1      44.468  30.528  40.068  1.00  0.00    -0.744 OA
ENDBRANCH  93  96
ENDBRANCH  66  89
ENDBRANCH  40  41
ENDBRANCH  33  35
ENDBRANCH  32  33
ENDBRANCH  31  32
ENDBRANCH  30  31
ENDBRANCH  29  30
ENDBRANCH  28  29
ENDBRANCH   1  28
TORSDOF 23
ENDMDL
MODEL 2
REMARK VINA RESULT:      -9.4      4.121     10.311
REMARK SMILES C[C@H](NC(=O)N[C@H]1CCCC1(C)C)c1nc(C(=O)OCCOCCOCCOC(=O)c2ccc(-c3c4nc(c(-c5cccc(S(=O)(=O)[O-])c5F)c5ccc([nH]5)c(-c5cccc(S(=O)(=O)[O-])c5F)c5nc(c(-c6cccc(S(=O)(=O)[O-])c6F)c6ccc3[nH]6)C=C5)C=C4)cc2)cs1
REMARK SMILES IDX 23 1 22 2 21 3 20 4 19 5 17 6 18 7 16 8 14 9 15 10 95 11
REMARK SMILES IDX 94 12 2 13 1 14 3 15 4 16 5 18 6 19 7 21 8 22 11 23 9 24
REMARK SMILES IDX 10 25 12 26 13 27 24 28 25 29 26 30 27 31 28 32 29 33 30 34
REMARK SMILES IDX 31 35 32 36 93 37 33 38 92 39 34 40 35 41 36 42 86 43 37 44
REMARK SMILES IDX 91 45 85 46 87 47 38 48 90 49 84 50 83 51 39 53 71 54 51 55
REMARK SMILES IDX 70 56 52 57 55 58 69 59 88 60 53 61 54 62 68 64 89 65 56 66
REMARK SMILES IDX 40 67 41 68 49 69 42 70 44 71 50 72 43 73 45 74 46 75 47 76
REMARK SMILES IDX 48 77 72 78 73 79 81 80 74 81 76 82 82 83 75 84 77 85 78 86
REMARK SMILES IDX 79 87 80 88 57 89 58 90 66 91 59 92 61 93 67 94 60 95 62 96
REMARK SMILES IDX 63 97 64 98 65 99
REMARK H PARENT 3 17 6 20 87 52 55 63
REMARK Flexibility Score: inf
ROOT
ATOM      1  C   UNL A   1      33.746  34.178  28.556  1.00  0.00     0.188 C 
ENDROOT
BRANCH   1   2
ATOM      2  O   UNL A   1      34.681  33.702  27.599  1.00  0.00    -0.376 OA
BRANCH   2   3
ATOM      3  C   UNL A   1      35.243  32.405  27.780  1.00  0.00     0.202 C 
BRANCH   3   4
ATOM      4  C   UNL A   1      34.291  31.358  28.356  1.00  0.00     0.261 C 
BRANCH   4   5
ATOM      5  O   UNL A   1      33.897  30.465  27.302  1.00  0.00    -0.458 OA
BRANCH   5   6
ATOM      6  C   UNL A   1      32.590  30.527  26.923  1.00  0.00     0.357 C 
ATOM      7  O   UNL A   1      31.927  31.556  26.862  1.00  0.00    -0.244 OA
BRANCH   6   8
ATOM      8  C   UNL A   1      32.151  29.250  26.368  1.00  0.00     0.159 A 
ATOM      9  C   UNL A   1      31.123  27.870  24.942  1.00  0.00     0.116 A 
ATOM     10  N   UNL A   1      31.513  29.121  25.132  1.00  0.00    -0.232 NA
ATOM     11  S   UNL A   1      31.272  26.880  26.348  1.00  0.00    -0.124 S 
ATOM     12  C   UNL A   1      32.211  28.084  27.106  1.00  0.00     0.102 A 
BRANCH   9  13
ATOM     13  C   UNL A   1      30.466  27.370  23.663  1.00  0.00     0.140 C 
ATOM     14  C   UNL A   1      29.371  26.324  23.800  1.00  0.00     0.039 C 
BRANCH  13  15
ATOM     15  N   UNL A   1      31.467  27.085  22.628  1.00  0.00    -0.329 N 
ATOM     16  C   UNL A   1      32.689  26.541  22.621  1.00  0.00     0.315 C 
ATOM     17  H   UNL A   1      31.171  27.359  21.729  1.00  0.00     0.166 HD
ATOM     18  O   UNL A   1      33.471  26.892  21.735  1.00  0.00    -0.249 OA
ATOM     19  N   UNL A   1      33.131  25.686  23.551  1.00  0.00    -0.335 N 
ATOM     20  H   UNL A   1      33.955  25.957  24.017  1.00  0.00     0.165 HD
BRANCH  19  21
ATOM     21  C   UNL A   1      32.562  24.404  23.974  1.00  0.00     0.089 C 
ATOM     22  C   UNL A   1      32.296  23.521  22.738  1.00  0.00     0.025 C 
ATOM     23  C   UNL A   1      33.568  23.540  24.780  1.00  0.00    -0.015 C 
ATOM     24  C   UNL A   1      33.603  22.768  22.467  1.00  0.00     0.003 C 
ATOM     25  C   UNL A   1      34.497  22.997  23.683  1.00  0.00     0.008 C 
ATOM     26  C   UNL A   1      34.376  24.306  25.824  1.00  0.00     0.013 C 
ATOM     27  C   UNL A   1      32.852  22.380  25.503  1.00  0.00     0.013 C 
ENDBRANCH  19  21
ENDBRANCH  13  15
ENDBRANCH   9  13
ENDBRANCH   6   8
ENDBRANCH   5   6
ENDBRANCH   4   5
ENDBRANCH   3   4
ENDBRANCH   2   3
ENDBRANCH   1   2
BRANCH   1  28
ATOM     28  C   UNL A   1      34.160  35.314  29.513  1.00  0.00     0.188 C 
BRANCH  28  29
ATOM     29  O   UNL A   1      33.379  35.653  30.651  1.00  0.00    -0.376 OA
BRANCH  29  30
ATOM     30  C   UNL A   1      34.013  35.919  31.889  1.00  0.00     0.202 C 
BRANCH  30  31
ATOM     31  C   UNL A   1      34.360  34.728  32.782  1.00  0.00     0.261 C 
BRANCH  31  32
ATOM     32  O   UNL A   1      35.606  34.108  32.446  1.00  0.00    -0.460 OA
BRANCH  32  33
ATOM     33  C   UNL A   1      35.817  32.896  33.011  1.00  0.00     0.338 C 
ATOM     34  O   UNL A   1      35.236  32.419  33.972  1.00  0.00    -0.246 OA
BRANCH  33  35
ATOM     35  C   UNL A   1      36.796  32.139  32.210  1.00  0.00     0.060 A 
ATOM     36  C   UNL A   1      37.492  31.097  32.836  1.00  0.00     0.016 A 
ATOM     37  C   UNL A   1      37.080  32.492  30.888  1.00  0.00     0.016 A 
ATOM     38  C   UNL A   1      38.504  30.427  32.149  1.00  0.00     0.010 A 
ATOM     39  C   UNL A   1      38.101  31.827  30.206  1.00  0.00     0.010 A 
ATOM     40  C   UNL A   1      38.839  30.815  30.844  1.00  0.00    -0.014 A 
BRANCH  40  41
ATOM     41  C   UNL A   1      40.044  30.257  30.191  1.00  0.00     0.031 A 
ATOM     42  C   UNL A   1      41.298  31.086  30.147  1.00  0.00     0.074 A 
ATOM     43  C   UNL A   1      40.015  29.038  29.624  1.00  0.00     0.049 A 
ATOM     44  N   UNL A   1      42.459  30.799  29.619  1.00  0.00    -0.248 NA
ATOM     45  C   UNL A   1      41.234  32.415  30.778  1.00  0.00     0.031 C 
ATOM     46  C   UNL A   1      38.855  28.150  29.588  1.00  0.00     0.029 A 
ATOM     47  N   UNL A   1      40.988  28.353  28.941  1.00  0.00    -0.354 N 
ATOM     48  C   UNL A   1      43.261  31.911  29.841  1.00  0.00     0.074 A 
ATOM     49  C   UNL A   1      42.451  32.885  30.540  1.00  0.00     0.031 C 
ATOM     50  C   UNL A   1      39.173  27.047  28.889  1.00  0.00     0.029 A 
ATOM     51  C   UNL A   1      40.554  27.157  28.420  1.00  0.00     0.049 A 
ATOM     52  H   UNL A   1      41.908  28.685  28.836  1.00  0.00     0.167 HD
ATOM     53  C   UNL A   1      44.560  32.097  29.513  1.00  0.00     0.034 A 
ATOM     54  C   UNL A   1      41.196  26.263  27.643  1.00  0.00     0.034 A 
ATOM     55  C   UNL A   1      45.370  31.128  28.830  1.00  0.00     0.049 A 
ATOM     56  C   UNL A   1      42.636  26.507  27.270  1.00  0.00     0.074 A 
ATOM     57  C   UNL A   1      46.711  31.206  28.497  1.00  0.00     0.029 A 
ATOM     58  N   UNL A   1      44.912  29.906  28.362  1.00  0.00    -0.354 N 
ATOM     59  N   UNL A   1      43.424  27.496  27.619  1.00  0.00    -0.248 NA
ATOM     60  C   UNL A   1      43.285  25.495  26.422  1.00  0.00     0.031 C 
ATOM     61  C   UNL A   1      47.061  30.035  27.818  1.00  0.00     0.029 A 
ATOM     62  C   UNL A   1      45.940  29.225  27.734  1.00  0.00     0.049 A 
ATOM     63  H   UNL A   1      43.992  29.571  28.463  1.00  0.00     0.167 HD
ATOM     64  C   UNL A   1      44.666  27.210  27.061  1.00  0.00     0.074 A 
ATOM     65  C   UNL A   1      44.532  25.945  26.369  1.00  0.00     0.031 C 
ATOM     66  C   UNL A   1      45.809  27.937  27.103  1.00  0.00     0.034 A 
BRANCH  53  67
ATOM     67  C   UNL A   1      45.204  33.387  29.938  1.00  0.00     0.023 A 
ATOM     68  C   UNL A   1      45.177  34.487  29.057  1.00  0.00     0.012 A 
ATOM     69  C   UNL A   1      45.780  33.532  31.213  1.00  0.00     0.148 A 
ATOM     70  C   UNL A   1      45.733  35.709  29.433  1.00  0.00     0.002 A 
ATOM     71  C   UNL A   1      46.305  34.763  31.592  1.00  0.00     0.091 A 
ATOM     72  F   UNL A   1      45.821  32.464  32.023  1.00  0.00    -0.205 F 
ATOM     73  C   UNL A   1      46.286  35.850  30.702  1.00  0.00     0.022 A 
BRANCH  71  74
ATOM     74  S   UNL A   1      46.988  35.055  33.227  1.00  0.00     0.127 S 
ATOM     75  O   UNL A   1      45.969  34.450  34.085  1.00  0.00    -0.237 OA
ATOM     76  O   UNL A   1      48.253  34.322  33.173  1.00  0.00    -0.237 OA
ATOM     77  O   UNL A   1      47.132  36.499  33.346  1.00  0.00    -0.744 OA
ENDBRANCH  71  74
ENDBRANCH  53  67
BRANCH  54  78
ATOM     78  C   UNL A   1      40.498  25.024  27.202  1.00  0.00     0.023 A 
ATOM     79  C   UNL A   1      39.288  25.130  26.490  1.00  0.00     0.012 A 
ATOM     80  C   UNL A   1      41.026  23.748  27.473  1.00  0.00     0.148 A 
ATOM     81  C   UNL A   1      38.603  23.986  26.078  1.00  0.00     0.002 A 
ATOM     82  C   UNL A   1      40.364  22.613  27.018  1.00  0.00     0.091 A 
ATOM     83  F   UNL A   1      42.166  23.666  28.176  1.00  0.00    -0.205 F 
ATOM     84  C   UNL A   1      39.146  22.729  26.333  1.00  0.00     0.022 A 
BRANCH  82  85
ATOM     85  S   UNL A   1      41.061  20.969  27.207  1.00  0.00     0.127 S 
ATOM     86  O   UNL A   1      42.434  21.172  26.754  1.00  0.00    -0.237 OA
ATOM     87  O   UNL A   1      40.916  20.734  28.645  1.00  0.00    -0.237 OA
ATOM     88  O   UNL A   1      40.232  20.105  26.379  1.00  0.00    -0.744 OA
ENDBRANCH  82  85
ENDBRANCH  54  78
BRANCH  66  89
ATOM     89  C   UNL A   1      47.020  27.384  26.399  1.00  0.00     0.023 A 
ATOM     90  C   UNL A   1      47.238  27.703  25.045  1.00  0.00     0.012 A 
ATOM     91  C   UNL A   1      47.981  26.627  27.096  1.00  0.00     0.148 A 
ATOM     92  C   UNL A   1      48.386  27.259  24.389  1.00  0.00     0.002 A 
ATOM     93  C   UNL A   1      49.142  26.222  26.446  1.00  0.00     0.091 A 
ATOM     94  F   UNL A   1      47.744  26.314  28.379  1.00  0.00    -0.205 F 
ATOM     95  C   UNL A   1      49.343  26.531  25.092  1.00  0.00     0.022 A 
BRANCH  93  96
ATOM     96  S   UNL A   1      50.462  25.358  27.307  1.00  0.00     0.127 S 
ATOM     97  O   UNL A   1      50.844  26.334  28.326  1.00  0.00    -0.237 OA
ATOM     98  O   UNL A   1      49.778  24.172  27.826  1.00  0.00    -0.237 OA
ATOM     99  O   UNL A   1      51.470  25.072  26.295  1.00  0.00    -0.744 OA
ENDBRANCH  93  96
ENDBRANCH  66  89
ENDBRANCH  40  41
ENDBRANCH  33  35
ENDBRANCH  32  33
ENDBRANCH  31  32
ENDBRANCH  30  31
ENDBRANCH  29  30
ENDBRANCH  28  29
ENDBRANCH   1  28
TORSDOF 23
ENDMDL
MODEL 3
REMARK VINA RESULT:      -9.4      5.083      5.888
REMARK SMILES C[C@H](NC(=O)N[C@H]1CCCC1(C)C)c1nc(C(=O)OCCOCCOCCOC(=O)c2ccc(-c3c4nc(c(-c5cccc(S(=O)(=O)[O-])c5F)c5ccc([nH]5)c(-c5cccc(S(=O)(=O)[O-])c5F)c5nc(c(-c6cccc(S(=O)(=O)[O-])c6F)c6ccc3[nH]6)C=C5)C=C4)cc2)cs1
REMARK SMILES IDX 23 1 22 2 21 3 20 4 19 5 17 6 18 7 16 8 14 9 15 10 95 11
REMARK SMILES IDX 94 12 2 13 1 14 3 15 4 16 5 18 6 19 7 21 8 22 11 23 9 24
REMARK SMILES IDX 10 25 12 26 13 27 24 28 25 29 26 30 27 31 28 32 29 33 30 34
REMARK SMILES IDX 31 35 32 36 93 37 33 38 92 39 34 40 35 41 36 42 86 43 37 44
REMARK SMILES IDX 91 45 85 46 87 47 38 48 90 49 84 50 83 51 39 53 71 54 51 55
REMARK SMILES IDX 70 56 52 57 55 58 69 59 88 60 53 61 54 62 68 64 89 65 56 66
REMARK SMILES IDX 40 67 41 68 49 69 42 70 44 71 50 72 43 73 45 74 46 75 47 76
REMARK SMILES IDX 48 77 72 78 73 79 81 80 74 81 76 82 82 83 75 84 77 85 78 86
REMARK SMILES IDX 79 87 80 88 57 89 58 90 66 91 59 92 61 93 67 94 60 95 62 96
REMARK SMILES IDX 63 97 64 98 65 99
REMARK H PARENT 3 17 6 20 87 52 55 63
REMARK Flexibility Score: inf
ROOT
ATOM      1  C   UNL A   1      40.107  22.616  27.323  1.00  0.00     0.188 C 
ENDROOT
BRANCH   1   2
ATOM      2  O   UNL A   1      39.589  23.767  26.674  1.00  0.00    -0.376 OA
BRANCH   2   3
ATOM      3  C   UNL A   1      38.200  23.804  26.354  1.00  0.00     0.202 C 
BRANCH   3   4
ATOM      4  C   UNL A   1      37.744  22.776  25.320  1.00  0.00     0.261 C 
BRANCH   4   5
ATOM      5  O   UNL A   1      36.542  22.148  25.795  1.00  0.00    -0.458 OA
BRANCH   5   6
ATOM      6  C   UNL A   1      36.135  21.041  25.112  1.00  0.00     0.357 C 
ATOM      7  O   UNL A   1      36.723  19.966  25.110  1.00  0.00    -0.244 OA
BRANCH   6   8
ATOM      8  C   UNL A   1      34.788  21.226  24.582  1.00  0.00     0.159 A 
ATOM      9  C   UNL A   1      32.995  22.349  23.862  1.00  0.00     0.116 A 
ATOM     10  N   UNL A   1      34.273  22.463  24.185  1.00  0.00    -0.232 NA
ATOM     11  S   UNL A   1      32.310  20.821  24.281  1.00  0.00    -0.124 S 
ATOM     12  C   UNL A   1      33.869  20.194  24.573  1.00  0.00     0.102 A 
BRANCH   9  13
ATOM     13  C   UNL A   1      32.153  23.493  23.313  1.00  0.00     0.140 C 
ATOM     14  C   UNL A   1      30.649  23.280  23.233  1.00  0.00     0.039 C 
BRANCH  13  15
ATOM     15  N   UNL A   1      32.760  24.067  22.107  1.00  0.00    -0.329 N 
ATOM     16  C   UNL A   1      32.816  25.291  21.569  1.00  0.00     0.315 C 
ATOM     17  H   UNL A   1      33.239  23.396  21.567  1.00  0.00     0.166 HD
ATOM     18  O   UNL A   1      32.937  25.377  20.345  1.00  0.00    -0.249 OA
ATOM     19  N   UNL A   1      32.686  26.422  22.272  1.00  0.00    -0.335 N 
ATOM     20  H   UNL A   1      31.966  27.025  21.975  1.00  0.00     0.165 HD
BRANCH  19  21
ATOM     21  C   UNL A   1      33.465  26.892  23.421  1.00  0.00     0.089 C 
ATOM     22  C   UNL A   1      34.261  28.153  23.027  1.00  0.00     0.025 C 
ATOM     23  C   UNL A   1      32.571  27.419  24.575  1.00  0.00    -0.015 C 
ATOM     24  C   UNL A   1      33.321  29.340  23.271  1.00  0.00     0.003 C 
ATOM     25  C   UNL A   1      32.128  28.796  24.053  1.00  0.00     0.008 C 
ATOM     26  C   UNL A   1      31.352  26.556  24.884  1.00  0.00     0.013 C 
ATOM     27  C   UNL A   1      33.379  27.572  25.880  1.00  0.00     0.013 C 
ENDBRANCH  19  21
ENDBRANCH  13  15
ENDBRANCH   9  13
ENDBRANCH   6   8
ENDBRANCH   5   6
ENDBRANCH   4   5
ENDBRANCH   3   4
ENDBRANCH   2   3
ENDBRANCH   1   2
BRANCH   1  28
ATOM     28  C   UNL A   1      40.957  21.615  26.515  1.00  0.00     0.188 C 
BRANCH  28  29
ATOM     29  O   UNL A   1      42.044  20.913  27.102  1.00  0.00    -0.376 OA
BRANCH  29  30
ATOM     30  C   UNL A   1      42.025  19.498  27.158  1.00  0.00     0.202 C 
BRANCH  30  31
ATOM     31  C   UNL A   1      42.788  18.733  26.078  1.00  0.00     0.261 C 
BRANCH  31  32
ATOM     32  O   UNL A   1      42.976  19.483  24.872  1.00  0.00    -0.460 OA
BRANCH  32  33
ATOM     33  C   UNL A   1      44.266  19.681  24.513  1.00  0.00     0.338 C 
ATOM     34  O   UNL A   1      44.998  18.900  23.928  1.00  0.00    -0.246 OA
BRANCH  33  35
ATOM     35  C   UNL A   1      44.659  21.068  24.823  1.00  0.00     0.060 A 
ATOM     36  C   UNL A   1      45.391  21.297  25.996  1.00  0.00     0.016 A 
ATOM     37  C   UNL A   1      44.257  22.134  24.015  1.00  0.00     0.016 A 
ATOM     38  C   UNL A   1      45.689  22.603  26.384  1.00  0.00     0.010 A 
ATOM     39  C   UNL A   1      44.547  23.441  24.412  1.00  0.00     0.010 A 
ATOM     40  C   UNL A   1      45.235  23.682  25.613  1.00  0.00    -0.014 A 
BRANCH  40  41
ATOM     41  C   UNL A   1      45.362  25.065  26.128  1.00  0.00     0.031 A 
ATOM     42  C   UNL A   1      46.692  25.760  26.027  1.00  0.00     0.074 A 
ATOM     43  C   UNL A   1      44.314  25.683  26.699  1.00  0.00     0.049 A 
ATOM     44  N   UNL A   1      47.028  26.960  26.422  1.00  0.00    -0.248 NA
ATOM     45  C   UNL A   1      47.789  25.000  25.402  1.00  0.00     0.031 C 
ATOM     46  C   UNL A   1      42.982  25.106  26.870  1.00  0.00     0.029 A 
ATOM     47  N   UNL A   1      44.220  26.927  27.270  1.00  0.00    -0.354 N 
ATOM     48  C   UNL A   1      48.373  27.099  26.106  1.00  0.00     0.074 A 
ATOM     49  C   UNL A   1      48.798  25.855  25.500  1.00  0.00     0.031 C 
ATOM     50  C   UNL A   1      42.209  25.984  27.533  1.00  0.00     0.029 A 
ATOM     51  C   UNL A   1      42.995  27.178  27.842  1.00  0.00     0.049 A 
ATOM     52  H   UNL A   1      44.958  27.578  27.270  1.00  0.00     0.167 HD
ATOM     53  C   UNL A   1      49.179  28.171  26.285  1.00  0.00     0.034 A 
ATOM     54  C   UNL A   1      42.565  28.244  28.545  1.00  0.00     0.034 A 
ATOM     55  C   UNL A   1      48.758  29.411  26.876  1.00  0.00     0.049 A 
ATOM     56  C   UNL A   1      43.491  29.415  28.752  1.00  0.00     0.074 A 
ATOM     57  C   UNL A   1      49.489  30.571  27.055  1.00  0.00     0.029 A 
ATOM     58  N   UNL A   1      47.496  29.648  27.397  1.00  0.00    -0.354 N 
ATOM     59  N   UNL A   1      44.714  29.589  28.312  1.00  0.00    -0.248 NA
ATOM     60  C   UNL A   1      42.965  30.551  29.524  1.00  0.00     0.031 C 
ATOM     61  C   UNL A   1      48.670  31.508  27.694  1.00  0.00     0.029 A 
ATOM     62  C   UNL A   1      47.428  30.932  27.908  1.00  0.00     0.049 A 
ATOM     63  H   UNL A   1      46.755  28.999  27.402  1.00  0.00     0.167 HD
ATOM     64  C   UNL A   1      45.092  30.862  28.727  1.00  0.00     0.074 A 
ATOM     65  C   UNL A   1      43.960  31.424  29.435  1.00  0.00     0.031 C 
ATOM     66  C   UNL A   1      46.275  31.501  28.554  1.00  0.00     0.034 A 
BRANCH  53  67
ATOM     67  C   UNL A   1      50.592  28.067  25.785  1.00  0.00     0.023 A 
ATOM     68  C   UNL A   1      51.633  27.863  26.714  1.00  0.00     0.012 A 
ATOM     69  C   UNL A   1      50.888  28.114  24.411  1.00  0.00     0.148 A 
ATOM     70  C   UNL A   1      52.951  27.725  26.282  1.00  0.00     0.002 A 
ATOM     71  C   UNL A   1      52.201  27.946  23.986  1.00  0.00     0.091 A 
ATOM     72  F   UNL A   1      49.887  28.340  23.547  1.00  0.00    -0.205 F 
ATOM     73  C   UNL A   1      53.233  27.757  24.920  1.00  0.00     0.022 A 
BRANCH  71  74
ATOM     74  S   UNL A   1      52.654  27.915  22.248  1.00  0.00     0.127 S 
ATOM     75  O   UNL A   1      52.870  29.335  21.974  1.00  0.00    -0.237 OA
ATOM     76  O   UNL A   1      53.871  27.103  22.257  1.00  0.00    -0.237 OA
ATOM     77  O   UNL A   1      51.528  27.306  21.555  1.00  0.00    -0.744 OA
ENDBRANCH  71  74
ENDBRANCH  53  67
BRANCH  54  78
ATOM     78  C   UNL A   1      41.171  28.278  29.067  1.00  0.00     0.023 A 
ATOM     79  C   UNL A   1      40.877  27.646  30.289  1.00  0.00     0.012 A 
ATOM     80  C   UNL A   1      40.142  28.936  28.368  1.00  0.00     0.148 A 
ATOM     81  C   UNL A   1      39.576  27.647  30.796  1.00  0.00     0.002 A 
ATOM     82  C   UNL A   1      38.858  28.975  28.900  1.00  0.00     0.091 A 
ATOM     83  F   UNL A   1      40.435  29.509  27.191  1.00  0.00    -0.205 F 
ATOM     84  C   UNL A   1      38.570  28.320  30.106  1.00  0.00     0.022 A 
BRANCH  82  85
ATOM     85  S   UNL A   1      37.540  29.920  28.128  1.00  0.00     0.127 S 
ATOM     86  O   UNL A   1      36.355  29.373  28.781  1.00  0.00    -0.237 OA
ATOM     87  O   UNL A   1      37.877  31.292  28.513  1.00  0.00    -0.237 OA
ATOM     88  O   UNL A   1      37.667  29.657  26.701  1.00  0.00    -0.744 OA
ENDBRANCH  82  85
ENDBRANCH  54  78
BRANCH  66  89
ATOM     89  C   UNL A   1      46.412  32.890  29.119  1.00  0.00     0.023 A 
ATOM     90  C   UNL A   1      46.799  33.056  30.463  1.00  0.00     0.012 A 
ATOM     91  C   UNL A   1      46.245  34.025  28.302  1.00  0.00     0.148 A 
ATOM     92  C   UNL A   1      46.998  34.331  30.991  1.00  0.00     0.002 A 
ATOM     93  C   UNL A   1      46.484  35.291  28.824  1.00  0.00     0.091 A 
ATOM     94  F   UNL A   1      45.853  33.849  27.031  1.00  0.00    -0.205 F 
ATOM     95  C   UNL A   1      46.854  35.447  30.170  1.00  0.00     0.022 A 
BRANCH  93  96
ATOM     96  S   UNL A   1      46.407  36.771  27.807  1.00  0.00     0.127 S 
ATOM     97  O   UNL A   1      46.772  37.812  28.766  1.00  0.00    -0.237 OA
ATOM     98  O   UNL A   1      47.417  36.504  26.782  1.00  0.00    -0.237 OA
ATOM     99  O   UNL A   1      45.042  36.828  27.300  1.00  0.00    -0.744 OA
ENDBRANCH  93  96
ENDBRANCH  66  89
ENDBRANCH  40  41
ENDBRANCH  33  35
ENDBRANCH  32  33
ENDBRANCH  31  32
ENDBRANCH  30  31
ENDBRANCH  29  30
ENDBRANCH  28  29
ENDBRANCH   1  28
TORSDOF 23
ENDMDL
