MODEL 1
REMARK VINA RESULT:      -8.9      0.000      0.000
REMARK SMILES COc1cc(OC)cc(-c2ccc([C@@H](C)C(=O)OCCOCCOCCOC(=O)c3ccc(-c4c5nc(c(-c6cccc(S(=O)(=O)[O-])c6F)c6ccc([nH]6)c(-c6cccc(S(=O)(=O)[O-])c6F)c6nc(c(-c7cccc(S(=O)(=O)[O-])c7F)c7ccc4[nH]7)C=C6)C=C5)cc3)cc2F)c1
REMARK SMILES IDX 22 1 21 2 20 3 19 4 18 5 16 6 17 7 14 8 15 9 13 10 10 11
REMARK SMILES IDX 11 12 94 13 12 14 93 15 95 16 9 17 3 18 4 19 96 20 5 21 8 22
REMARK SMILES IDX 2 23 1 24 6 25 7 26 23 27 24 28 25 29 26 30 27 31 28 32
REMARK SMILES IDX 29 33 30 34 31 35 92 36 32 37 91 38 33 39 34 40 35 41 85 42
REMARK SMILES IDX 36 43 90 44 84 45 86 46 37 47 89 48 83 49 82 50 38 52 70 53
REMARK SMILES IDX 50 54 69 55 51 56 54 57 68 58 87 59 52 60 53 61 67 63 88 64
REMARK SMILES IDX 55 65 39 66 40 67 48 68 41 69 43 70 49 71 42 72 44 73 45 74
REMARK SMILES IDX 46 75 47 76 71 77 72 78 80 79 73 80 75 81 81 82 74 83 76 84
REMARK SMILES IDX 77 85 78 86 79 87 56 88 57 89 65 90 58 91 60 92 66 93 59 94
REMARK SMILES IDX 61 95 62 96 63 97 64 98
REMARK H PARENT 86 51 54 62
REMARK Flexibility Score: inf
ROOT
ATOM      1  C   UNL A   1      35.341  33.271  29.833  1.00  0.00     0.188 C 
ENDROOT
BRANCH   1   2
ATOM      2  O   UNL A   1      36.501  33.827  29.227  1.00  0.00    -0.376 OA
BRANCH   2   3
ATOM      3  C   UNL A   1      37.499  32.956  28.709  1.00  0.00     0.202 C 
BRANCH   3   4
ATOM      4  C   UNL A   1      37.115  31.503  28.377  1.00  0.00     0.261 C 
BRANCH   4   5
ATOM      5  O   UNL A   1      35.914  31.340  27.588  1.00  0.00    -0.463 OA
BRANCH   5   6
ATOM      6  C   UNL A   1      35.171  30.233  27.839  1.00  0.00     0.313 C 
ATOM      7  O   UNL A   1      35.341  29.522  28.827  1.00  0.00    -0.252 OA
BRANCH   6   8
ATOM      8  C   UNL A   1      34.069  29.907  26.822  1.00  0.00     0.126 C 
ATOM      9  C   UNL A   1      32.816  30.693  27.204  1.00  0.00     0.025 C 
BRANCH   8  10
ATOM     10  C   UNL A   1      33.697  28.461  26.486  1.00  0.00    -0.031 A 
ATOM     11  C   UNL A   1      32.881  25.774  25.890  1.00  0.00     0.018 A 
ATOM     12  C   UNL A   1      34.181  26.236  25.603  1.00  0.00     0.012 A 
ATOM     13  C   UNL A   1      32.002  26.690  26.474  1.00  0.00     0.131 A 
ATOM     14  C   UNL A   1      34.587  27.551  25.905  1.00  0.00     0.005 A 
ATOM     15  C   UNL A   1      32.397  28.000  26.779  1.00  0.00     0.044 A 
ATOM     16  F   UNL A   1      30.752  26.319  26.790  1.00  0.00    -0.206 F 
BRANCH  11  17
ATOM     17  C   UNL A   1      32.519  24.356  25.692  1.00  0.00    -0.008 A 
ATOM     18  C   UNL A   1      32.910  22.116  24.812  1.00  0.00     0.123 A 
ATOM     19  C   UNL A   1      31.662  21.708  25.285  1.00  0.00     0.092 A 
ATOM     20  C   UNL A   1      33.334  23.439  25.000  1.00  0.00     0.055 A 
ATOM     21  C   UNL A   1      30.836  22.597  25.967  1.00  0.00     0.123 A 
ATOM     22  C   UNL A   1      31.274  23.905  26.177  1.00  0.00     0.055 A 
BRANCH  18  23
ATOM     23  O   UNL A   1      33.593  21.163  24.104  1.00  0.00    -0.497 OA
ATOM     24  C   UNL A   1      33.874  19.966  24.820  1.00  0.00     0.278 C 
ENDBRANCH  18  23
BRANCH  21  25
ATOM     25  O   UNL A   1      29.635  22.084  26.376  1.00  0.00    -0.497 OA
ATOM     26  C   UNL A   1      29.105  22.616  27.585  1.00  0.00     0.278 C 
ENDBRANCH  21  25
ENDBRANCH  11  17
ENDBRANCH   8  10
ENDBRANCH   6   8
ENDBRANCH   5   6
ENDBRANCH   4   5
ENDBRANCH   3   4
ENDBRANCH   2   3
ENDBRANCH   1   2
BRANCH   1  27
ATOM     27  C   UNL A   1      33.968  33.588  29.226  1.00  0.00     0.188 C 
BRANCH  27  28
ATOM     28  O   UNL A   1      33.967  34.620  28.263  1.00  0.00    -0.376 OA
BRANCH  28  29
ATOM     29  C   UNL A   1      33.761  35.937  28.731  1.00  0.00     0.202 C 
BRANCH  29  30
ATOM     30  C   UNL A   1      32.834  36.105  29.945  1.00  0.00     0.261 C 
BRANCH  30  31
ATOM     31  O   UNL A   1      33.476  36.225  31.228  1.00  0.00    -0.460 OA
BRANCH  31  32
ATOM     32  C   UNL A   1      33.078  35.380  32.206  1.00  0.00     0.338 C 
ATOM     33  O   UNL A   1      31.935  34.993  32.413  1.00  0.00    -0.246 OA
BRANCH  32  34
ATOM     34  C   UNL A   1      34.292  34.811  32.842  1.00  0.00     0.060 A 
ATOM     35  C   UNL A   1      35.522  35.459  32.662  1.00  0.00     0.016 A 
ATOM     36  C   UNL A   1      34.218  33.655  33.622  1.00  0.00     0.016 A 
ATOM     37  C   UNL A   1      36.686  34.931  33.230  1.00  0.00     0.010 A 
ATOM     38  C   UNL A   1      35.388  33.117  34.174  1.00  0.00     0.010 A 
ATOM     39  C   UNL A   1      36.633  33.731  33.952  1.00  0.00    -0.014 A 
BRANCH  39  40
ATOM     40  C   UNL A   1      37.894  33.032  34.319  1.00  0.00     0.031 A 
ATOM     41  C   UNL A   1      38.378  31.906  33.443  1.00  0.00     0.074 A 
ATOM     42  C   UNL A   1      38.607  33.387  35.403  1.00  0.00     0.049 A 
ATOM     43  N   UNL A   1      39.437  31.149  33.572  1.00  0.00    -0.248 NA
ATOM     44  C   UNL A   1      37.552  31.589  32.267  1.00  0.00     0.031 C 
ATOM     45  C   UNL A   1      38.257  34.458  36.334  1.00  0.00     0.029 A 
ATOM     46  N   UNL A   1      39.771  32.863  35.913  1.00  0.00    -0.354 N 
ATOM     47  C   UNL A   1      39.391  30.249  32.512  1.00  0.00     0.074 A 
ATOM     48  C   UNL A   1      38.189  30.543  31.762  1.00  0.00     0.031 C 
ATOM     49  C   UNL A   1      39.175  34.498  37.316  1.00  0.00     0.029 A 
ATOM     50  C   UNL A   1      40.164  33.442  37.097  1.00  0.00     0.049 A 
ATOM     51  H   UNL A   1      40.275  32.142  35.473  1.00  0.00     0.167 HD
ATOM     52  C   UNL A   1      40.273  29.276  32.181  1.00  0.00     0.034 A 
ATOM     53  C   UNL A   1      41.190  33.143  37.919  1.00  0.00     0.034 A 
ATOM     54  C   UNL A   1      41.473  28.985  32.919  1.00  0.00     0.049 A 
ATOM     55  C   UNL A   1      42.143  32.035  37.545  1.00  0.00     0.074 A 
ATOM     56  C   UNL A   1      42.452  28.047  32.635  1.00  0.00     0.029 A 
ATOM     57  N   UNL A   1      41.853  29.611  34.096  1.00  0.00    -0.354 N 
ATOM     58  N   UNL A   1      42.149  31.270  36.480  1.00  0.00    -0.248 NA
ATOM     59  C   UNL A   1      43.255  31.775  38.472  1.00  0.00     0.031 C 
ATOM     60  C   UNL A   1      43.401  28.079  33.664  1.00  0.00     0.029 A 
ATOM     61  C   UNL A   1      43.040  29.069  34.562  1.00  0.00     0.049 A 
ATOM     62  H   UNL A   1      41.351  30.334  34.538  1.00  0.00     0.167 HD
ATOM     63  C   UNL A   1      43.281  30.467  36.590  1.00  0.00     0.074 A 
ATOM     64  C   UNL A   1      43.949  30.858  37.814  1.00  0.00     0.031 C 
ATOM     65  C   UNL A   1      43.722  29.488  35.761  1.00  0.00     0.034 A 
BRANCH  52  66
ATOM     66  C   UNL A   1      39.972  28.455  30.952  1.00  0.00     0.023 A 
ATOM     67  C   UNL A   1      39.088  27.359  31.037  1.00  0.00     0.012 A 
ATOM     68  C   UNL A   1      40.533  28.793  29.705  1.00  0.00     0.148 A 
ATOM     69  C   UNL A   1      38.802  26.588  29.912  1.00  0.00     0.002 A 
ATOM     70  C   UNL A   1      40.204  28.050  28.578  1.00  0.00     0.091 A 
ATOM     71  F   UNL A   1      41.388  29.824  29.646  1.00  0.00    -0.205 F 
ATOM     72  C   UNL A   1      39.351  26.939  28.682  1.00  0.00     0.022 A 
BRANCH  70  73
ATOM     73  S   UNL A   1      40.794  28.469  26.934  1.00  0.00     0.127 S 
ATOM     74  O   UNL A   1      40.811  27.161  26.283  1.00  0.00    -0.237 OA
ATOM     75  O   UNL A   1      39.749  29.375  26.455  1.00  0.00    -0.237 OA
ATOM     76  O   UNL A   1      42.098  29.091  27.121  1.00  0.00    -0.744 OA
ENDBRANCH  70  73
ENDBRANCH  52  66
BRANCH  53  77
ATOM     77  C   UNL A   1      41.398  33.925  39.171  1.00  0.00     0.023 A 
ATOM     78  C   UNL A   1      42.190  35.090  39.143  1.00  0.00     0.012 A 
ATOM     79  C   UNL A   1      40.815  33.522  40.388  1.00  0.00     0.148 A 
ATOM     80  C   UNL A   1      42.425  35.821  40.308  1.00  0.00     0.002 A 
ATOM     81  C   UNL A   1      41.005  34.286  41.533  1.00  0.00     0.091 A 
ATOM     82  F   UNL A   1      40.079  32.402  40.398  1.00  0.00    -0.205 F 
ATOM     83  C   UNL A   1      41.824  35.425  41.500  1.00  0.00     0.022 A 
BRANCH  81  84
ATOM     84  S   UNL A   1      40.177  33.924  43.086  1.00  0.00     0.127 S 
ATOM     85  O   UNL A   1      41.308  33.727  43.990  1.00  0.00    -0.237 OA
ATOM     86  O   UNL A   1      39.414  35.153  43.309  1.00  0.00    -0.237 OA
ATOM     87  O   UNL A   1      39.362  32.743  42.833  1.00  0.00    -0.744 OA
ENDBRANCH  81  84
ENDBRANCH  53  77
BRANCH  65  88
ATOM     88  C   UNL A   1      45.014  28.793  36.121  1.00  0.00     0.023 A 
ATOM     89  C   UNL A   1      46.247  29.324  35.695  1.00  0.00     0.012 A 
ATOM     90  C   UNL A   1      45.006  27.629  36.918  1.00  0.00     0.148 A 
ATOM     91  C   UNL A   1      47.446  28.682  36.007  1.00  0.00     0.002 A 
ATOM     92  C   UNL A   1      46.207  27.026  37.272  1.00  0.00     0.091 A 
ATOM     93  F   UNL A   1      43.824  27.126  37.305  1.00  0.00    -0.205 F 
ATOM     94  C   UNL A   1      47.426  27.539  36.804  1.00  0.00     0.022 A 
BRANCH  92  95
ATOM     95  S   UNL A   1      46.283  25.609  38.374  1.00  0.00     0.127 S 
ATOM     96  O   UNL A   1      47.713  25.303  38.370  1.00  0.00    -0.237 OA
ATOM     97  O   UNL A   1      45.783  26.165  39.632  1.00  0.00    -0.237 OA
ATOM     98  O   UNL A   1      45.424  24.593  37.781  1.00  0.00    -0.744 OA
ENDBRANCH  92  95
ENDBRANCH  65  88
ENDBRANCH  39  40
ENDBRANCH  32  34
ENDBRANCH  31  32
ENDBRANCH  30  31
ENDBRANCH  29  30
ENDBRANCH  28  29
ENDBRANCH  27  28
ENDBRANCH   1  27
TORSDOF 24
ENDMDL
MODEL 2
REMARK VINA RESULT:      -8.7      7.761     10.844
REMARK SMILES COc1cc(OC)cc(-c2ccc([C@@H](C)C(=O)OCCOCCOCCOC(=O)c3ccc(-c4c5nc(c(-c6cccc(S(=O)(=O)[O-])c6F)c6ccc([nH]6)c(-c6cccc(S(=O)(=O)[O-])c6F)c6nc(c(-c7cccc(S(=O)(=O)[O-])c7F)c7ccc4[nH]7)C=C6)C=C5)cc3)cc2F)c1
REMARK SMILES IDX 22 1 21 2 20 3 19 4 18 5 16 6 17 7 14 8 15 9 13 10 10 11
REMARK SMILES IDX 11 12 94 13 12 14 93 15 95 16 9 17 3 18 4 19 96 20 5 21 8 22
REMARK SMILES IDX 2 23 1 24 6 25 7 26 23 27 24 28 25 29 26 30 27 31 28 32
REMARK SMILES IDX 29 33 30 34 31 35 92 36 32 37 91 38 33 39 34 40 35 41 85 42
REMARK SMILES IDX 36 43 90 44 84 45 86 46 37 47 89 48 83 49 82 50 38 52 70 53
REMARK SMILES IDX 50 54 69 55 51 56 54 57 68 58 87 59 52 60 53 61 67 63 88 64
REMARK SMILES IDX 55 65 39 66 40 67 48 68 41 69 43 70 49 71 42 72 44 73 45 74
REMARK SMILES IDX 46 75 47 76 71 77 72 78 80 79 73 80 75 81 81 82 74 83 76 84
REMARK SMILES IDX 77 85 78 86 79 87 56 88 57 89 65 90 58 91 60 92 66 93 59 94
REMARK SMILES IDX 61 95 62 96 63 97 64 98
REMARK H PARENT 86 51 54 62
REMARK Flexibility Score: inf
ROOT
ATOM      1  C   UNL A   1      44.948  24.591  25.141  1.00  0.00     0.188 C 
ENDROOT
BRANCH   1   2
ATOM      2  O   UNL A   1      45.335  23.639  26.124  1.00  0.00    -0.376 OA
BRANCH   2   3
ATOM      3  C   UNL A   1      44.742  22.345  26.109  1.00  0.00     0.202 C 
BRANCH   3   4
ATOM      4  C   UNL A   1      43.401  22.153  25.378  1.00  0.00     0.261 C 
BRANCH   4   5
ATOM      5  O   UNL A   1      42.824  20.830  25.475  1.00  0.00    -0.463 OA
BRANCH   5   6
ATOM      6  C   UNL A   1      41.907  20.642  26.457  1.00  0.00     0.313 C 
ATOM      7  O   UNL A   1      41.814  19.595  27.095  1.00  0.00    -0.252 OA
BRANCH   6   8
ATOM      8  C   UNL A   1      40.979  21.826  26.758  1.00  0.00     0.126 C 
ATOM      9  C   UNL A   1      40.876  21.981  28.275  1.00  0.00     0.025 C 
BRANCH   8  10
ATOM     10  C   UNL A   1      39.589  21.931  26.127  1.00  0.00    -0.031 A 
ATOM     11  C   UNL A   1      36.978  22.245  24.976  1.00  0.00     0.018 A 
ATOM     12  C   UNL A   1      37.716  21.054  24.826  1.00  0.00     0.012 A 
ATOM     13  C   UNL A   1      37.581  23.272  25.707  1.00  0.00     0.131 A 
ATOM     14  C   UNL A   1      38.992  20.893  25.400  1.00  0.00     0.005 A 
ATOM     15  C   UNL A   1      38.850  23.122  26.281  1.00  0.00     0.044 A 
ATOM     16  F   UNL A   1      36.933  24.431  25.903  1.00  0.00    -0.206 F 
BRANCH  11  17
ATOM     17  C   UNL A   1      35.588  22.343  24.485  1.00  0.00    -0.008 A 
ATOM     18  C   UNL A   1      33.892  23.082  22.897  1.00  0.00     0.123 A 
ATOM     19  C   UNL A   1      32.891  22.561  23.717  1.00  0.00     0.092 A 
ATOM     20  C   UNL A   1      35.236  22.988  23.283  1.00  0.00     0.055 A 
ATOM     21  C   UNL A   1      33.213  21.924  24.912  1.00  0.00     0.123 A 
ATOM     22  C   UNL A   1      34.554  21.808  25.279  1.00  0.00     0.055 A 
BRANCH  18  23
ATOM     23  O   UNL A   1      33.436  23.739  21.785  1.00  0.00    -0.497 OA
ATOM     24  C   UNL A   1      32.650  24.896  22.047  1.00  0.00     0.278 C 
ENDBRANCH  18  23
BRANCH  21  25
ATOM     25  O   UNL A   1      32.147  21.460  25.635  1.00  0.00    -0.497 OA
ATOM     26  C   UNL A   1      31.054  22.359  25.786  1.00  0.00     0.278 C 
ENDBRANCH  21  25
ENDBRANCH  11  17
ENDBRANCH   8  10
ENDBRANCH   6   8
ENDBRANCH   5   6
ENDBRANCH   4   5
ENDBRANCH   3   4
ENDBRANCH   2   3
ENDBRANCH   1   2
BRANCH   1  27
ATOM     27  C   UNL A   1      44.580  26.010  25.594  1.00  0.00     0.188 C 
BRANCH  27  28
ATOM     28  O   UNL A   1      43.367  26.505  25.071  1.00  0.00    -0.376 OA
BRANCH  28  29
ATOM     29  C   UNL A   1      42.218  25.698  25.231  1.00  0.00     0.202 C 
BRANCH  29  30
ATOM     30  C   UNL A   1      41.046  26.310  26.015  1.00  0.00     0.261 C 
BRANCH  30  31
ATOM     31  O   UNL A   1      40.537  25.533  27.114  1.00  0.00    -0.460 OA
BRANCH  31  32
ATOM     32  C   UNL A   1      40.548  26.105  28.340  1.00  0.00     0.338 C 
ATOM     33  O   UNL A   1      39.571  26.363  29.031  1.00  0.00    -0.246 OA
BRANCH  32  34
ATOM     34  C   UNL A   1      41.954  26.149  28.812  1.00  0.00     0.060 A 
ATOM     35  C   UNL A   1      42.748  25.000  28.696  1.00  0.00     0.016 A 
ATOM     36  C   UNL A   1      42.493  27.319  29.353  1.00  0.00     0.016 A 
ATOM     37  C   UNL A   1      44.069  25.006  29.155  1.00  0.00     0.010 A 
ATOM     38  C   UNL A   1      43.810  27.318  29.829  1.00  0.00     0.010 A 
ATOM     39  C   UNL A   1      44.594  26.153  29.766  1.00  0.00    -0.014 A 
BRANCH  39  40
ATOM     40  C   UNL A   1      45.890  26.077  30.492  1.00  0.00     0.031 A 
ATOM     41  C   UNL A   1      47.116  26.670  29.849  1.00  0.00     0.074 A 
ATOM     42  C   UNL A   1      45.987  25.502  31.705  1.00  0.00     0.049 A 
ATOM     43  N   UNL A   1      48.348  26.712  30.286  1.00  0.00    -0.248 NA
ATOM     44  C   UNL A   1      46.926  27.296  28.530  1.00  0.00     0.031 C 
ATOM     45  C   UNL A   1      44.883  24.892  32.444  1.00  0.00     0.029 A 
ATOM     46  N   UNL A   1      47.079  25.320  32.519  1.00  0.00    -0.354 N 
ATOM     47  C   UNL A   1      49.084  27.341  29.288  1.00  0.00     0.074 A 
ATOM     48  C   UNL A   1      48.163  27.647  28.215  1.00  0.00     0.031 C 
ATOM     49  C   UNL A   1      45.359  24.383  33.594  1.00  0.00     0.029 A 
ATOM     50  C   UNL A   1      46.802  24.609  33.663  1.00  0.00     0.049 A 
ATOM     51  H   UNL A   1      47.975  25.666  32.303  1.00  0.00     0.167 HD
ATOM     52  C   UNL A   1      50.403  27.652  29.268  1.00  0.00     0.034 A 
ATOM     53  C   UNL A   1      47.620  24.174  34.642  1.00  0.00     0.034 A 
ATOM     54  C   UNL A   1      51.320  27.357  30.336  1.00  0.00     0.049 A 
ATOM     55  C   UNL A   1      49.090  24.506  34.585  1.00  0.00     0.074 A 
ATOM     56  C   UNL A   1      52.666  27.673  30.426  1.00  0.00     0.029 A 
ATOM     57  N   UNL A   1      50.998  26.662  31.491  1.00  0.00    -0.354 N 
ATOM     58  N   UNL A   1      49.749  25.202  33.689  1.00  0.00    -0.248 NA
ATOM     59  C   UNL A   1      49.924  24.023  35.697  1.00  0.00     0.031 C 
ATOM     60  C   UNL A   1      53.164  27.132  31.617  1.00  0.00     0.029 A 
ATOM     61  C   UNL A   1      52.120  26.522  32.292  1.00  0.00     0.049 A 
ATOM     62  H   UNL A   1      50.102  26.316  31.710  1.00  0.00     0.167 HD
ATOM     63  C   UNL A   1      51.062  25.272  34.148  1.00  0.00     0.074 A 
ATOM     64  C   UNL A   1      51.098  24.569  35.413  1.00  0.00     0.031 C 
ATOM     65  C   UNL A   1      52.142  25.854  33.569  1.00  0.00     0.034 A 
BRANCH  52  66
ATOM     66  C   UNL A   1      50.930  28.360  28.046  1.00  0.00     0.023 A 
ATOM     67  C   UNL A   1      50.959  29.770  28.007  1.00  0.00     0.012 A 
ATOM     68  C   UNL A   1      51.433  27.630  26.951  1.00  0.00     0.148 A 
ATOM     69  C   UNL A   1      51.440  30.440  26.883  1.00  0.00     0.002 A 
ATOM     70  C   UNL A   1      51.956  28.305  25.855  1.00  0.00     0.091 A 
ATOM     71  F   UNL A   1      51.377  26.291  26.995  1.00  0.00    -0.205 F 
ATOM     72  C   UNL A   1      51.946  29.709  25.813  1.00  0.00     0.022 A 
BRANCH  70  73
ATOM     73  S   UNL A   1      52.706  27.456  24.461  1.00  0.00     0.127 S 
ATOM     74  O   UNL A   1      51.551  26.788  23.865  1.00  0.00    -0.237 OA
ATOM     75  O   UNL A   1      53.240  28.569  23.676  1.00  0.00    -0.237 OA
ATOM     76  O   UNL A   1      53.716  26.572  25.026  1.00  0.00    -0.744 OA
ENDBRANCH  70  73
ENDBRANCH  52  66
BRANCH  53  77
ATOM     77  C   UNL A   1      47.067  23.398  35.790  1.00  0.00     0.023 A 
ATOM     78  C   UNL A   1      46.896  22.005  35.674  1.00  0.00     0.012 A 
ATOM     79  C   UNL A   1      46.711  24.035  36.995  1.00  0.00     0.148 A 
ATOM     80  C   UNL A   1      46.351  21.264  36.723  1.00  0.00     0.002 A 
ATOM     81  C   UNL A   1      46.223  23.283  38.056  1.00  0.00     0.091 A 
ATOM     82  F   UNL A   1      46.866  25.363  37.080  1.00  0.00    -0.205 F 
ATOM     83  C   UNL A   1      46.024  21.901  37.917  1.00  0.00     0.022 A 
BRANCH  81  84
ATOM     84  S   UNL A   1      45.887  23.994  39.672  1.00  0.00     0.127 S 
ATOM     85  O   UNL A   1      45.506  22.814  40.445  1.00  0.00    -0.237 OA
ATOM     86  O   UNL A   1      47.188  24.567  40.020  1.00  0.00    -0.237 OA
ATOM     87  O   UNL A   1      44.831  24.975  39.460  1.00  0.00    -0.744 OA
ENDBRANCH  81  84
ENDBRANCH  53  77
BRANCH  65  88
ATOM     88  C   UNL A   1      53.454  25.797  34.316  1.00  0.00     0.023 A 
ATOM     89  C   UNL A   1      53.799  26.821  35.222  1.00  0.00     0.012 A 
ATOM     90  C   UNL A   1      54.331  24.706  34.148  1.00  0.00     0.148 A 
ATOM     91  C   UNL A   1      55.014  26.787  35.906  1.00  0.00     0.002 A 
ATOM     92  C   UNL A   1      55.515  24.652  34.873  1.00  0.00     0.091 A 
ATOM     93  F   UNL A   1      53.998  23.747  33.272  1.00  0.00    -0.205 F 
ATOM     94  C   UNL A   1      55.867  25.699  35.739  1.00  0.00     0.022 A 
BRANCH  92  95
ATOM     95  S   UNL A   1      56.627  23.243  34.796  1.00  0.00     0.127 S 
ATOM     96  O   UNL A   1      56.946  23.191  33.371  1.00  0.00    -0.237 OA
ATOM     97  O   UNL A   1      57.733  23.672  35.653  1.00  0.00    -0.237 OA
ATOM     98  O   UNL A   1      55.873  22.108  35.310  1.00  0.00    -0.744 OA
ENDBRANCH  92  95
ENDBRANCH  65  88
ENDBRANCH  39  40
ENDBRANCH  32  34
ENDBRANCH  31  32
ENDBRANCH  30  31
ENDBRANCH  29  30
ENDBRANCH  28  29
ENDBRANCH  27  28
ENDBRANCH   1  27
TORSDOF 24
ENDMDL
MODEL 3
REMARK VINA RESULT:      -8.7      5.025      8.953
REMARK SMILES COc1cc(OC)cc(-c2ccc([C@@H](C)C(=O)OCCOCCOCCOC(=O)c3ccc(-c4c5nc(c(-c6cccc(S(=O)(=O)[O-])c6F)c6ccc([nH]6)c(-c6cccc(S(=O)(=O)[O-])c6F)c6nc(c(-c7cccc(S(=O)(=O)[O-])c7F)c7ccc4[nH]7)C=C6)C=C5)cc3)cc2F)c1
REMARK SMILES IDX 22 1 21 2 20 3 19 4 18 5 16 6 17 7 14 8 15 9 13 10 10 11
REMARK SMILES IDX 11 12 94 13 12 14 93 15 95 16 9 17 3 18 4 19 96 20 5 21 8 22
REMARK SMILES IDX 2 23 1 24 6 25 7 26 23 27 24 28 25 29 26 30 27 31 28 32
REMARK SMILES IDX 29 33 30 34 31 35 92 36 32 37 91 38 33 39 34 40 35 41 85 42
REMARK SMILES IDX 36 43 90 44 84 45 86 46 37 47 89 48 83 49 82 50 38 52 70 53
REMARK SMILES IDX 50 54 69 55 51 56 54 57 68 58 87 59 52 60 53 61 67 63 88 64
REMARK SMILES IDX 55 65 39 66 40 67 48 68 41 69 43 70 49 71 42 72 44 73 45 74
REMARK SMILES IDX 46 75 47 76 71 77 72 78 80 79 73 80 75 81 81 82 74 83 76 84
REMARK SMILES IDX 77 85 78 86 79 87 56 88 57 89 65 90 58 91 60 92 66 93 59 94
REMARK SMILES IDX 61 95 62 96 63 97 64 98
REMARK H PARENT 86 51 54 62
REMARK Flexibility Score: inf
ROOT
ATOM      1  C   UNL A   1      45.823  23.204  25.068  1.00  0.00     0.188 C 
ENDROOT
BRANCH   1   2
ATOM      2  O   UNL A   1      46.236  21.937  25.566  1.00  0.00    -0.376 OA
BRANCH   2   3
ATOM      3  C   UNL A   1      45.323  20.847  25.531  1.00  0.00     0.202 C 
BRANCH   3   4
ATOM      4  C   UNL A   1      43.873  21.108  25.087  1.00  0.00     0.261 C 
BRANCH   4   5
ATOM      5  O   UNL A   1      42.908  20.109  25.492  1.00  0.00    -0.463 OA
BRANCH   5   6
ATOM      6  C   UNL A   1      42.255  20.338  26.658  1.00  0.00     0.313 C 
ATOM      7  O   UNL A   1      42.100  19.475  27.520  1.00  0.00    -0.252 OA
BRANCH   6   8
ATOM      8  C   UNL A   1      41.720  21.761  26.871  1.00  0.00     0.126 C 
ATOM      9  C   UNL A   1      41.980  22.159  28.323  1.00  0.00     0.025 C 
BRANCH   8  10
ATOM     10  C   UNL A   1      40.293  22.143  26.472  1.00  0.00    -0.031 A 
ATOM     11  C   UNL A   1      37.639  22.976  25.764  1.00  0.00     0.018 A 
ATOM     12  C   UNL A   1      38.127  21.696  25.435  1.00  0.00     0.012 A 
ATOM     13  C   UNL A   1      38.511  23.827  26.447  1.00  0.00     0.131 A 
ATOM     14  C   UNL A   1      39.425  21.281  25.792  1.00  0.00     0.005 A 
ATOM     15  C   UNL A   1      39.804  23.423  26.806  1.00  0.00     0.044 A 
ATOM     16  F   UNL A   1      38.113  25.057  26.807  1.00  0.00    -0.206 F 
BRANCH  11  17
ATOM     17  C   UNL A   1      36.231  23.342  25.503  1.00  0.00    -0.008 A 
ATOM     18  C   UNL A   1      33.890  23.569  26.147  1.00  0.00     0.123 A 
ATOM     19  C   UNL A   1      33.568  23.961  24.847  1.00  0.00     0.092 A 
ATOM     20  C   UNL A   1      35.215  23.245  26.473  1.00  0.00     0.055 A 
ATOM     21  C   UNL A   1      34.553  24.060  23.870  1.00  0.00     0.123 A 
ATOM     22  C   UNL A   1      35.874  23.764  24.206  1.00  0.00     0.055 A 
BRANCH  18  23
ATOM     23  O   UNL A   1      32.820  23.451  26.992  1.00  0.00    -0.497 OA
ATOM     24  C   UNL A   1      31.669  22.833  26.426  1.00  0.00     0.278 C 
ENDBRANCH  18  23
BRANCH  21  25
ATOM     25  O   UNL A   1      34.114  24.447  22.632  1.00  0.00    -0.497 OA
ATOM     26  C   UNL A   1      33.583  25.764  22.539  1.00  0.00     0.278 C 
ENDBRANCH  21  25
ENDBRANCH  11  17
ENDBRANCH   8  10
ENDBRANCH   6   8
ENDBRANCH   5   6
ENDBRANCH   4   5
ENDBRANCH   3   4
ENDBRANCH   2   3
ENDBRANCH   1   2
BRANCH   1  27
ATOM     27  C   UNL A   1      46.511  24.466  25.604  1.00  0.00     0.188 C 
BRANCH  27  28
ATOM     28  O   UNL A   1      45.728  25.638  25.553  1.00  0.00    -0.376 OA
BRANCH  28  29
ATOM     29  C   UNL A   1      44.383  25.498  25.142  1.00  0.00     0.202 C 
BRANCH  29  30
ATOM     30  C   UNL A   1      43.555  26.788  25.026  1.00  0.00     0.261 C 
BRANCH  30  31
ATOM     31  O   UNL A   1      42.387  26.875  25.863  1.00  0.00    -0.460 OA
BRANCH  31  32
ATOM     32  C   UNL A   1      42.162  28.047  26.499  1.00  0.00     0.338 C 
ATOM     33  O   UNL A   1      41.515  28.994  26.072  1.00  0.00    -0.246 OA
BRANCH  32  34
ATOM     34  C   UNL A   1      42.628  27.904  27.900  1.00  0.00     0.060 A 
ATOM     35  C   UNL A   1      41.699  27.577  28.897  1.00  0.00     0.016 A 
ATOM     36  C   UNL A   1      43.975  28.078  28.230  1.00  0.00     0.016 A 
ATOM     37  C   UNL A   1      42.107  27.460  30.230  1.00  0.00     0.010 A 
ATOM     38  C   UNL A   1      44.378  27.980  29.567  1.00  0.00     0.010 A 
ATOM     39  C   UNL A   1      43.441  27.707  30.580  1.00  0.00    -0.014 A 
BRANCH  39  40
ATOM     40  C   UNL A   1      43.817  27.851  32.012  1.00  0.00     0.031 A 
ATOM     41  C   UNL A   1      44.374  26.654  32.738  1.00  0.00     0.074 A 
ATOM     42  C   UNL A   1      43.677  29.019  32.664  1.00  0.00     0.049 A 
ATOM     43  N   UNL A   1      44.757  26.541  33.983  1.00  0.00    -0.248 NA
ATOM     44  C   UNL A   1      44.511  25.416  31.952  1.00  0.00     0.031 C 
ATOM     45  C   UNL A   1      43.156  30.256  32.084  1.00  0.00     0.029 A 
ATOM     46  N   UNL A   1      43.947  29.347  33.971  1.00  0.00    -0.354 N 
ATOM     47  C   UNL A   1      45.154  25.217  34.139  1.00  0.00     0.074 A 
ATOM     48  C   UNL A   1      44.947  24.562  32.866  1.00  0.00     0.031 C 
ATOM     49  C   UNL A   1      43.122  31.203  33.038  1.00  0.00     0.029 A 
ATOM     50  C   UNL A   1      43.597  30.636  34.300  1.00  0.00     0.049 A 
ATOM     51  H   UNL A   1      44.353  28.719  34.611  1.00  0.00     0.167 HD
ATOM     52  C   UNL A   1      45.659  24.601  35.236  1.00  0.00     0.034 A 
ATOM     53  C   UNL A   1      43.636  31.277  35.485  1.00  0.00     0.034 A 
ATOM     54  C   UNL A   1      45.874  25.250  36.502  1.00  0.00     0.049 A 
ATOM     55  C   UNL A   1      44.176  30.563  36.700  1.00  0.00     0.074 A 
ATOM     56  C   UNL A   1      46.423  24.720  37.658  1.00  0.00     0.029 A 
ATOM     57  N   UNL A   1      45.534  26.563  36.789  1.00  0.00    -0.354 N 
ATOM     58  N   UNL A   1      44.654  29.346  36.802  1.00  0.00    -0.248 NA
ATOM     59  C   UNL A   1      44.214  31.327  37.956  1.00  0.00     0.031 C 
ATOM     60  C   UNL A   1      46.377  25.702  38.655  1.00  0.00     0.029 A 
ATOM     61  C   UNL A   1      45.844  26.857  38.107  1.00  0.00     0.049 A 
ATOM     62  H   UNL A   1      45.130  27.194  36.150  1.00  0.00     0.167 HD
ATOM     63  C   UNL A   1      45.084  29.213  38.120  1.00  0.00     0.074 A 
ATOM     64  C   UNL A   1      44.831  30.482  38.769  1.00  0.00     0.031 C 
ATOM     65  C   UNL A   1      45.627  28.135  38.739  1.00  0.00     0.034 A 
BRANCH  52  66
ATOM     66  C   UNL A   1      46.024  23.144  35.107  1.00  0.00     0.023 A 
ATOM     67  C   UNL A   1      45.035  22.153  35.275  1.00  0.00     0.012 A 
ATOM     68  C   UNL A   1      47.339  22.757  34.780  1.00  0.00     0.148 A 
ATOM     69  C   UNL A   1      45.357  20.801  35.163  1.00  0.00     0.002 A 
ATOM     70  C   UNL A   1      47.641  21.410  34.621  1.00  0.00     0.091 A 
ATOM     71  F   UNL A   1      48.272  23.711  34.645  1.00  0.00    -0.205 F 
ATOM     72  C   UNL A   1      46.655  20.430  34.827  1.00  0.00     0.022 A 
BRANCH  70  73
ATOM     73  S   UNL A   1      49.263  20.834  34.109  1.00  0.00     0.127 S 
ATOM     74  O   UNL A   1      49.889  22.076  33.658  1.00  0.00    -0.237 OA
ATOM     75  O   UNL A   1      49.805  20.296  35.357  1.00  0.00    -0.237 OA
ATOM     76  O   UNL A   1      49.028  19.840  33.071  1.00  0.00    -0.744 OA
ENDBRANCH  70  73
ENDBRANCH  52  66
BRANCH  53  77
ATOM     77  C   UNL A   1      43.181  32.694  35.584  1.00  0.00     0.023 A 
ATOM     78  C   UNL A   1      44.112  33.739  35.427  1.00  0.00     0.012 A 
ATOM     79  C   UNL A   1      41.831  33.010  35.833  1.00  0.00     0.148 A 
ATOM     80  C   UNL A   1      43.715  35.071  35.547  1.00  0.00     0.002 A 
ATOM     81  C   UNL A   1      41.431  34.339  35.894  1.00  0.00     0.091 A 
ATOM     82  F   UNL A   1      40.964  32.001  35.997  1.00  0.00    -0.205 F 
ATOM     83  C   UNL A   1      42.375  35.371  35.770  1.00  0.00     0.022 A 
BRANCH  81  84
ATOM     84  S   UNL A   1      39.710  34.825  36.058  1.00  0.00     0.127 S 
ATOM     85  O   UNL A   1      39.098  34.148  34.916  1.00  0.00    -0.237 OA
ATOM     86  O   UNL A   1      39.366  34.265  37.365  1.00  0.00    -0.237 OA
ATOM     87  O   UNL A   1      39.704  36.281  36.003  1.00  0.00    -0.744 OA
ENDBRANCH  81  84
ENDBRANCH  53  77
BRANCH  65  88
ATOM     88  C   UNL A   1      46.029  28.287  40.187  1.00  0.00     0.023 A 
ATOM     89  C   UNL A   1      45.131  27.931  41.213  1.00  0.00     0.012 A 
ATOM     90  C   UNL A   1      47.316  28.749  40.531  1.00  0.00     0.148 A 
ATOM     91  C   UNL A   1      45.485  28.082  42.554  1.00  0.00     0.002 A 
ATOM     92  C   UNL A   1      47.682  28.845  41.868  1.00  0.00     0.091 A 
ATOM     93  F   UNL A   1      48.156  29.098  39.545  1.00  0.00    -0.205 F 
ATOM     94  C   UNL A   1      46.763  28.529  42.881  1.00  0.00     0.022 A 
BRANCH  92  95
ATOM     95  S   UNL A   1      49.338  29.317  42.382  1.00  0.00     0.127 S 
ATOM     96  O   UNL A   1      49.239  29.218  43.837  1.00  0.00    -0.237 OA
ATOM     97  O   UNL A   1      50.164  28.286  41.754  1.00  0.00    -0.237 OA
ATOM     98  O   UNL A   1      49.551  30.660  41.859  1.00  0.00    -0.744 OA
ENDBRANCH  92  95
ENDBRANCH  65  88
ENDBRANCH  39  40
ENDBRANCH  32  34
ENDBRANCH  31  32
ENDBRANCH  30  31
ENDBRANCH  29  30
ENDBRANCH  28  29
ENDBRANCH  27  28
ENDBRANCH   1  27
TORSDOF 24
ENDMDL
