MODEL 1
REMARK VINA RESULT:     -11.3      0.000      0.000
REMARK SMILES O=C(OCCOCCOCCOC(=O)[C@@H]1CCCCN1c1ccccc1[N+](=O)[O-])c1ccc(-c2c3nc(c(-c4cccc(S(=O)(=O)[O-])c4F)c4ccc([nH]4)c(-c4cccc(S(=O)(=O)[O-])c4F)c4nc(c(-c5cccc(S(=O)(=O)[O-])c5F)c5ccc2[nH]5)C=C4)C=C3)cc1
REMARK SMILES IDX 7 1 6 2 5 3 4 4 3 5 2 6 1 7 30 8 31 9 92 10 32 11 91 12
REMARK SMILES IDX 33 13 34 14 35 15 85 16 36 17 90 18 84 19 86 20 37 21 89 22
REMARK SMILES IDX 83 23 82 24 38 26 70 27 50 28 69 29 51 30 54 31 68 32 87 33
REMARK SMILES IDX 52 34 53 35 67 37 88 38 55 39 39 40 40 41 48 42 41 43 43 44
REMARK SMILES IDX 49 45 42 46 44 47 45 48 46 49 47 50 71 51 72 52 80 53 73 54
REMARK SMILES IDX 75 55 81 56 74 57 76 58 77 59 78 60 79 61 56 62 57 63 65 64
REMARK SMILES IDX 58 65 60 66 66 67 59 68 61 69 62 70 63 71 64 72 8 73 9 74
REMARK SMILES IDX 10 75 11 76 12 77 13 78 14 79 15 80 16 81 20 82 17 83 19 84
REMARK SMILES IDX 18 85 21 86 22 87 26 88 23 89 25 90 24 91 27 92 28 93 29 94
REMARK H PARENT 86 25 54 36
REMARK Flexibility Score: inf
ROOT
ATOM      1  C   UNL A   1      32.212  28.728  22.812  1.00  0.00     0.188 C 
ENDROOT
BRANCH   1   2
ATOM      2  O   UNL A   1      31.601  28.926  24.083  1.00  0.00    -0.376 OA
BRANCH   2   3
ATOM      3  C   UNL A   1      32.217  29.794  25.030  1.00  0.00     0.202 C 
BRANCH   3   4
ATOM      4  C   UNL A   1      31.299  30.648  25.888  1.00  0.00     0.261 C 
BRANCH   4   5
ATOM      5  O   UNL A   1      31.736  31.997  26.112  1.00  0.00    -0.460 OA
BRANCH   5   6
ATOM      6  C   UNL A   1      32.527  32.536  27.052  1.00  0.00     0.338 C 
ATOM      7  O   UNL A   1      32.230  33.626  27.530  1.00  0.00    -0.246 OA
BRANCH   6   8
ATOM      8  C   UNL A   1      33.698  31.861  27.633  1.00  0.00     0.060 A 
ATOM      9  C   UNL A   1      33.971  30.106  27.981  1.00  0.00     0.016 A 
ATOM     10  C   UNL A   1      35.047  32.973  27.941  1.00  0.00     0.016 A 
ATOM     11  C   UNL A   1      35.747  29.558  28.755  1.00  0.00     0.010 A 
ATOM     12  C   UNL A   1      36.623  32.455  28.593  1.00  0.00     0.010 A 
ATOM     13  C   UNL A   1      37.009  30.787  29.009  1.00  0.00    -0.014 A 
BRANCH  13  14
ATOM     14  C   UNL A   1      38.191  30.344  29.764  1.00  0.00     0.031 A 
ATOM     15  C   UNL A   1      38.319  30.772  31.183  1.00  0.00     0.074 A 
ATOM     16  C   UNL A   1      39.008  29.409  29.234  1.00  0.00     0.049 A 
ATOM     17  N   UNL A   1      39.264  30.494  32.032  1.00  0.00    -0.248 NA
ATOM     18  C   UNL A   1      37.236  31.594  31.747  1.00  0.00     0.031 C 
ATOM     19  C   UNL A   1      38.824  28.789  27.930  1.00  0.00     0.029 A 
ATOM     20  N   UNL A   1      40.119  28.767  29.705  1.00  0.00    -0.354 N 
ATOM     21  C   UNL A   1      38.927  31.164  33.196  1.00  0.00     0.074 A 
ATOM     22  C   UNL A   1      37.696  31.871  32.953  1.00  0.00     0.031 C 
ATOM     23  C   UNL A   1      39.735  27.845  27.705  1.00  0.00     0.029 A 
ATOM     24  C   UNL A   1      40.669  27.885  28.794  1.00  0.00     0.049 A 
ATOM     25  H   UNL A   1      40.491  28.917  30.604  1.00  0.00     0.167 HD
ATOM     26  C   UNL A   1      39.602  31.174  34.363  1.00  0.00     0.034 A 
ATOM     27  C   UNL A   1      41.824  27.208  28.789  1.00  0.00     0.034 A 
ATOM     28  C   UNL A   1      40.819  30.437  34.538  1.00  0.00     0.049 A 
ATOM     29  C   UNL A   1      42.617  27.332  30.038  1.00  0.00     0.074 A 
ATOM     30  C   UNL A   1      41.645  30.381  35.640  1.00  0.00     0.029 A 
ATOM     31  N   UNL A   1      41.394  29.635  33.554  1.00  0.00    -0.354 N 
ATOM     32  N   UNL A   1      42.312  28.018  31.114  1.00  0.00    -0.248 NA
ATOM     33  C   UNL A   1      43.859  26.572  30.115  1.00  0.00     0.031 C 
ATOM     34  C   UNL A   1      42.755  29.602  35.295  1.00  0.00     0.029 A 
ATOM     35  C   UNL A   1      42.582  29.104  34.010  1.00  0.00     0.049 A 
ATOM     36  H   UNL A   1      41.009  29.474  32.663  1.00  0.00     0.167 HD
ATOM     37  C   UNL A   1      43.298  27.735  32.029  1.00  0.00     0.074 A 
ATOM     38  C   UNL A   1      44.207  26.806  31.372  1.00  0.00     0.031 C 
ATOM     39  C   UNL A   1      43.438  28.190  33.296  1.00  0.00     0.034 A 
BRANCH  26  40
ATOM     40  C   UNL A   1      39.084  32.094  35.434  1.00  0.00     0.023 A 
ATOM     41  C   UNL A   1      39.398  33.470  35.437  1.00  0.00     0.012 A 
ATOM     42  C   UNL A   1      38.360  31.550  36.511  1.00  0.00     0.148 A 
ATOM     43  C   UNL A   1      39.058  34.272  36.528  1.00  0.00     0.002 A 
ATOM     44  C   UNL A   1      37.971  32.366  37.562  1.00  0.00     0.091 A 
ATOM     45  F   UNL A   1      38.107  30.234  36.508  1.00  0.00    -0.205 F 
ATOM     46  C   UNL A   1      38.341  33.721  37.586  1.00  0.00     0.022 A 
BRANCH  44  47
ATOM     47  S   UNL A   1      36.989  31.762  38.936  1.00  0.00     0.127 S 
ATOM     48  O   UNL A   1      37.746  32.261  40.084  1.00  0.00    -0.237 OA
ATOM     49  O   UNL A   1      35.711  32.435  38.705  1.00  0.00    -0.237 OA
ATOM     50  O   UNL A   1      36.952  30.313  38.803  1.00  0.00    -0.744 OA
ENDBRANCH  44  47
ENDBRANCH  26  40
BRANCH  27  51
ATOM     51  C   UNL A   1      42.240  26.391  27.609  1.00  0.00     0.023 A 
ATOM     52  C   UNL A   1      43.038  26.963  26.602  1.00  0.00     0.012 A 
ATOM     53  C   UNL A   1      41.901  25.022  27.515  1.00  0.00     0.148 A 
ATOM     54  C   UNL A   1      43.456  26.202  25.505  1.00  0.00     0.002 A 
ATOM     55  C   UNL A   1      42.355  24.260  26.442  1.00  0.00     0.091 A 
ATOM     56  F   UNL A   1      41.163  24.481  28.495  1.00  0.00    -0.205 F 
ATOM     57  C   UNL A   1      43.118  24.853  25.427  1.00  0.00     0.022 A 
BRANCH  55  58
ATOM     58  S   UNL A   1      42.062  22.491  26.312  1.00  0.00     0.127 S 
ATOM     59  O   UNL A   1      42.708  22.176  25.040  1.00  0.00    -0.237 OA
ATOM     60  O   UNL A   1      42.753  21.982  27.497  1.00  0.00    -0.237 OA
ATOM     61  O   UNL A   1      40.615  22.325  26.345  1.00  0.00    -0.744 OA
ENDBRANCH  55  58
ENDBRANCH  27  51
BRANCH  39  62
ATOM     62  C   UNL A   1      44.598  27.626  34.048  1.00  0.00     0.023 A 
ATOM     63  C   UNL A   1      45.833  28.299  34.059  1.00  0.00     0.012 A 
ATOM     64  C   UNL A   1      44.425  26.436  34.772  1.00  0.00     0.148 A 
ATOM     65  C   UNL A   1      46.907  27.757  34.752  1.00  0.00     0.002 A 
ATOM     66  C   UNL A   1      45.476  25.946  35.523  1.00  0.00     0.091 A 
ATOM     67  F   UNL A   1      43.240  25.811  34.707  1.00  0.00    -0.205 F 
ATOM     68  C   UNL A   1      46.725  26.591  35.497  1.00  0.00     0.022 A 
BRANCH  66  69
ATOM     69  S   UNL A   1      45.285  24.534  36.605  1.00  0.00     0.127 S 
ATOM     70  O   UNL A   1      46.669  24.265  36.988  1.00  0.00    -0.237 OA
ATOM     71  O   UNL A   1      44.447  25.083  37.672  1.00  0.00    -0.237 OA
ATOM     72  O   UNL A   1      44.646  23.495  35.809  1.00  0.00    -0.744 OA
ENDBRANCH  66  69
ENDBRANCH  39  62
ENDBRANCH  13  14
ENDBRANCH   6   8
ENDBRANCH   5   6
ENDBRANCH   4   5
ENDBRANCH   3   4
ENDBRANCH   2   3
ENDBRANCH   1   2
BRANCH   1  73
ATOM     73  C   UNL A   1      33.642  28.167  22.853  1.00  0.00     0.188 C 
BRANCH  73  74
ATOM     74  O   UNL A   1      33.967  27.038  22.055  1.00  0.00    -0.376 OA
BRANCH  74  75
ATOM     75  C   UNL A   1      32.962  26.484  21.220  1.00  0.00     0.202 C 
BRANCH  75  76
ATOM     76  C   UNL A   1      32.418  25.098  21.552  1.00  0.00     0.261 C 
BRANCH  76  77
ATOM     77  O   UNL A   1      33.388  24.041  21.560  1.00  0.00    -0.462 OA
BRANCH  77  78
ATOM     78  C   UNL A   1      33.842  23.699  22.788  1.00  0.00     0.328 C 
ATOM     79  O   UNL A   1      35.023  23.397  22.979  1.00  0.00    -0.250 OA
BRANCH  78  80
ATOM     80  C   UNL A   1      32.830  23.677  23.939  1.00  0.00     0.192 C 
ATOM     81  C   UNL A   1      33.204  24.904  24.812  1.00  0.00     0.037 C 
ATOM     82  N   UNL A   1      32.561  22.494  24.830  1.00  0.00    -0.353 N 
ATOM     83  C   UNL A   1      32.193  25.203  25.910  1.00  0.00     0.005 C 
ATOM     84  C   UNL A   1      31.530  22.795  25.861  1.00  0.00     0.118 C 
ATOM     85  C   UNL A   1      31.977  23.960  26.741  1.00  0.00     0.022 C 
BRANCH  82  86
ATOM     86  C   UNL A   1      32.994  21.173  24.672  1.00  0.00     0.116 A 
ATOM     87  C   UNL A   1      32.080  20.143  23.554  1.00  0.00     0.033 A 
ATOM     88  C   UNL A   1      34.569  20.513  25.313  1.00  0.00     0.292 A 
ATOM     89  C   UNL A   1      32.563  18.505  23.067  1.00  0.00     0.003 A 
ATOM     90  C   UNL A   1      35.125  18.659  24.710  1.00  0.00     0.088 A 
ATOM     91  C   UNL A   1      34.046  17.739  23.597  1.00  0.00     0.007 A 
BRANCH  88  92
ATOM     92  N   UNL A   1      35.022  21.503  26.395  1.00  0.00     0.064 N 
ATOM     93  O   UNL A   1      35.848  22.384  26.107  1.00  0.00    -0.258 OA
ATOM     94  O   UNL A   1      34.436  21.421  27.486  1.00  0.00    -0.258 OA
ENDBRANCH  88  92
ENDBRANCH  82  86
ENDBRANCH  78  80
ENDBRANCH  77  78
ENDBRANCH  76  77
ENDBRANCH  75  76
ENDBRANCH  74  75
ENDBRANCH  73  74
ENDBRANCH   1  73
TORSDOF 22
ENDMDL
MODEL 2
REMARK VINA RESULT:     -11.1      1.789      2.682
REMARK SMILES O=C(OCCOCCOCCOC(=O)[C@@H]1CCCCN1c1ccccc1[N+](=O)[O-])c1ccc(-c2c3nc(c(-c4cccc(S(=O)(=O)[O-])c4F)c4ccc([nH]4)c(-c4cccc(S(=O)(=O)[O-])c4F)c4nc(c(-c5cccc(S(=O)(=O)[O-])c5F)c5ccc2[nH]5)C=C4)C=C3)cc1
REMARK SMILES IDX 7 1 6 2 5 3 4 4 3 5 2 6 1 7 30 8 31 9 92 10 32 11 91 12
REMARK SMILES IDX 33 13 34 14 35 15 85 16 36 17 90 18 84 19 86 20 37 21 89 22
REMARK SMILES IDX 83 23 82 24 38 26 70 27 50 28 69 29 51 30 54 31 68 32 87 33
REMARK SMILES IDX 52 34 53 35 67 37 88 38 55 39 39 40 40 41 48 42 41 43 43 44
REMARK SMILES IDX 49 45 42 46 44 47 45 48 46 49 47 50 71 51 72 52 80 53 73 54
REMARK SMILES IDX 75 55 81 56 74 57 76 58 77 59 78 60 79 61 56 62 57 63 65 64
REMARK SMILES IDX 58 65 60 66 66 67 59 68 61 69 62 70 63 71 64 72 8 73 9 74
REMARK SMILES IDX 10 75 11 76 12 77 13 78 14 79 15 80 16 81 20 82 17 83 19 84
REMARK SMILES IDX 18 85 21 86 22 87 26 88 23 89 25 90 24 91 27 92 28 93 29 94
REMARK H PARENT 86 25 54 36
REMARK Flexibility Score: inf
ROOT
ATOM      1  C   UNL A   1      31.201  29.413  23.503  1.00  0.00     0.188 C 
ENDROOT
BRANCH   1   2
ATOM      2  O   UNL A   1      32.030  29.739  24.614  1.00  0.00    -0.376 OA
BRANCH   2   3
ATOM      3  C   UNL A   1      31.436  29.989  25.884  1.00  0.00     0.202 C 
BRANCH   3   4
ATOM      4  C   UNL A   1      30.988  31.412  26.172  1.00  0.00     0.261 C 
BRANCH   4   5
ATOM      5  O   UNL A   1      32.038  32.389  26.249  1.00  0.00    -0.460 OA
BRANCH   5   6
ATOM      6  C   UNL A   1      32.783  32.821  27.278  1.00  0.00     0.338 C 
ATOM      7  O   UNL A   1      32.450  33.844  27.870  1.00  0.00    -0.246 OA
BRANCH   6   8
ATOM      8  C   UNL A   1      33.940  32.094  27.823  1.00  0.00     0.060 A 
ATOM      9  C   UNL A   1      34.169  30.321  28.102  1.00  0.00     0.016 A 
ATOM     10  C   UNL A   1      35.320  33.158  28.161  1.00  0.00     0.016 A 
ATOM     11  C   UNL A   1      35.937  29.698  28.840  1.00  0.00     0.010 A 
ATOM     12  C   UNL A   1      36.888  32.575  28.779  1.00  0.00     0.010 A 
ATOM     13  C   UNL A   1      37.232  30.883  29.128  1.00  0.00    -0.014 A 
BRANCH  13  14
ATOM     14  C   UNL A   1      38.408  30.381  29.856  1.00  0.00     0.031 A 
ATOM     15  C   UNL A   1      38.564  30.759  31.286  1.00  0.00     0.074 A 
ATOM     16  C   UNL A   1      39.191  29.440  29.288  1.00  0.00     0.049 A 
ATOM     17  N   UNL A   1      39.508  30.426  32.116  1.00  0.00    -0.248 NA
ATOM     18  C   UNL A   1      37.511  31.594  31.888  1.00  0.00     0.031 C 
ATOM     19  C   UNL A   1      38.976  28.868  27.966  1.00  0.00     0.029 A 
ATOM     20  N   UNL A   1      40.287  28.750  29.725  1.00  0.00    -0.354 N 
ATOM     21  C   UNL A   1      39.202  31.068  33.304  1.00  0.00     0.074 A 
ATOM     22  C   UNL A   1      37.991  31.818  33.098  1.00  0.00     0.031 C 
ATOM     23  C   UNL A   1      39.855  27.905  27.702  1.00  0.00     0.029 A 
ATOM     24  C   UNL A   1      40.801  27.882  28.781  1.00  0.00     0.049 A 
ATOM     25  H   UNL A   1      40.673  28.860  30.625  1.00  0.00     0.167 HD
ATOM     26  C   UNL A   1      39.889  31.020  34.463  1.00  0.00     0.034 A 
ATOM     27  C   UNL A   1      41.936  27.172  28.741  1.00  0.00     0.034 A 
ATOM     28  C   UNL A   1      41.085  30.243  34.601  1.00  0.00     0.049 A 
ATOM     29  C   UNL A   1      42.744  27.232  29.984  1.00  0.00     0.074 A 
ATOM     30  C   UNL A   1      41.921  30.126  35.691  1.00  0.00     0.029 A 
ATOM     31  N   UNL A   1      41.626  29.456  33.586  1.00  0.00    -0.354 N 
ATOM     32  N   UNL A   1      42.471  27.892  31.086  1.00  0.00    -0.248 NA
ATOM     33  C   UNL A   1      43.963  26.433  30.024  1.00  0.00     0.031 C 
ATOM     34  C   UNL A   1      43.003  29.327  35.310  1.00  0.00     0.029 A 
ATOM     35  C   UNL A   1      42.802  28.875  34.012  1.00  0.00     0.049 A 
ATOM     36  H   UNL A   1      41.227  29.335  32.694  1.00  0.00     0.167 HD
ATOM     37  C   UNL A   1      43.458  27.550  31.980  1.00  0.00     0.074 A 
ATOM     38  C   UNL A   1      44.331  26.616  31.284  1.00  0.00     0.031 C 
ATOM     39  C   UNL A   1      43.624  27.959  33.259  1.00  0.00     0.034 A 
BRANCH  26  40
ATOM     40  C   UNL A   1      39.410  31.920  35.568  1.00  0.00     0.023 A 
ATOM     41  C   UNL A   1      38.385  31.519  36.452  1.00  0.00     0.012 A 
ATOM     42  C   UNL A   1      39.920  33.228  35.654  1.00  0.00     0.148 A 
ATOM     43  C   UNL A   1      37.833  32.429  37.357  1.00  0.00     0.002 A 
ATOM     44  C   UNL A   1      39.409  34.108  36.596  1.00  0.00     0.091 A 
ATOM     45  F   UNL A   1      40.864  33.602  34.779  1.00  0.00    -0.205 F 
ATOM     46  C   UNL A   1      38.349  33.720  37.431  1.00  0.00     0.022 A 
BRANCH  44  47
ATOM     47  S   UNL A   1      40.054  35.767  36.812  1.00  0.00     0.127 S 
ATOM     48  O   UNL A   1      39.625  36.415  35.573  1.00  0.00    -0.237 OA
ATOM     49  O   UNL A   1      39.343  36.209  38.012  1.00  0.00    -0.237 OA
ATOM     50  O   UNL A   1      41.495  35.627  36.969  1.00  0.00    -0.744 OA
ENDBRANCH  44  47
ENDBRANCH  26  40
BRANCH  27  51
ATOM     51  C   UNL A   1      42.315  26.382  27.532  1.00  0.00     0.023 A 
ATOM     52  C   UNL A   1      43.063  26.982  26.503  1.00  0.00     0.012 A 
ATOM     53  C   UNL A   1      41.991  25.010  27.427  1.00  0.00     0.148 A 
ATOM     54  C   UNL A   1      43.447  26.246  25.378  1.00  0.00     0.002 A 
ATOM     55  C   UNL A   1      42.412  24.273  26.323  1.00  0.00     0.091 A 
ATOM     56  F   UNL A   1      41.301  24.441  28.425  1.00  0.00    -0.205 F 
ATOM     57  C   UNL A   1      43.125  24.894  25.289  1.00  0.00     0.022 A 
BRANCH  55  58
ATOM     58  S   UNL A   1      42.138  22.502  26.173  1.00  0.00     0.127 S 
ATOM     59  O   UNL A   1      40.680  22.431  26.118  1.00  0.00    -0.237 OA
ATOM     60  O   UNL A   1      42.819  22.196  24.915  1.00  0.00    -0.237 OA
ATOM     61  O   UNL A   1      42.757  21.904  27.349  1.00  0.00    -0.744 OA
ENDBRANCH  55  58
ENDBRANCH  27  51
BRANCH  39  62
ATOM     62  C   UNL A   1      44.773  27.338  33.980  1.00  0.00     0.023 A 
ATOM     63  C   UNL A   1      46.042  27.945  33.952  1.00  0.00     0.012 A 
ATOM     64  C   UNL A   1      44.560  26.161  34.714  1.00  0.00     0.148 A 
ATOM     65  C   UNL A   1      47.106  27.349  34.616  1.00  0.00     0.002 A 
ATOM     66  C   UNL A   1      45.605  25.619  35.436  1.00  0.00     0.091 A 
ATOM     67  F   UNL A   1      43.342  25.599  34.687  1.00  0.00    -0.205 F 
ATOM     68  C   UNL A   1      46.884  26.197  35.371  1.00  0.00     0.022 A 
BRANCH  66  69
ATOM     69  S   UNL A   1      45.371  24.222  36.531  1.00  0.00     0.127 S 
ATOM     70  O   UNL A   1      44.958  23.179  35.595  1.00  0.00    -0.237 OA
ATOM     71  O   UNL A   1      46.711  24.050  37.092  1.00  0.00    -0.237 OA
ATOM     72  O   UNL A   1      44.358  24.627  37.496  1.00  0.00    -0.744 OA
ENDBRANCH  66  69
ENDBRANCH  39  62
ENDBRANCH  13  14
ENDBRANCH   6   8
ENDBRANCH   5   6
ENDBRANCH   4   5
ENDBRANCH   3   4
ENDBRANCH   2   3
ENDBRANCH   1   2
BRANCH   1  73
ATOM     73  C   UNL A   1      30.791  27.935  23.405  1.00  0.00     0.188 C 
BRANCH  73  74
ATOM     74  O   UNL A   1      30.692  27.327  22.124  1.00  0.00    -0.376 OA
BRANCH  74  75
ATOM     75  C   UNL A   1      31.504  26.197  21.846  1.00  0.00     0.202 C 
BRANCH  75  76
ATOM     76  C   UNL A   1      32.911  26.144  22.434  1.00  0.00     0.261 C 
BRANCH  76  77
ATOM     77  O   UNL A   1      33.821  25.252  21.776  1.00  0.00    -0.462 OA
BRANCH  77  78
ATOM     78  C   UNL A   1      33.984  24.057  22.388  1.00  0.00     0.328 C 
ATOM     79  O   UNL A   1      33.352  23.058  22.033  1.00  0.00    -0.250 OA
BRANCH  78  80
ATOM     80  C   UNL A   1      34.968  23.987  23.560  1.00  0.00     0.192 C 
ATOM     81  C   UNL A   1      35.898  22.792  23.219  1.00  0.00     0.037 C 
ATOM     82  N   UNL A   1      34.578  23.916  25.013  1.00  0.00    -0.353 N 
ATOM     83  C   UNL A   1      37.095  22.665  24.151  1.00  0.00     0.005 C 
ATOM     84  C   UNL A   1      35.768  23.846  25.907  1.00  0.00     0.118 C 
ATOM     85  C   UNL A   1      36.610  22.615  25.581  1.00  0.00     0.022 C 
BRANCH  82  86
ATOM     86  C   UNL A   1      33.315  24.106  25.582  1.00  0.00     0.116 A 
ATOM     87  C   UNL A   1      32.815  25.774  25.920  1.00  0.00     0.033 A 
ATOM     88  C   UNL A   1      32.047  22.806  25.750  1.00  0.00     0.292 A 
ATOM     89  C   UNL A   1      31.192  26.250  26.463  1.00  0.00     0.003 A 
ATOM     90  C   UNL A   1      30.188  23.376  26.328  1.00  0.00     0.088 A 
ATOM     91  C   UNL A   1      29.873  25.118  26.669  1.00  0.00     0.007 A 
BRANCH  88  92
ATOM     92  N   UNL A   1      32.798  21.475  25.609  1.00  0.00     0.064 N 
ATOM     93  O   UNL A   1      33.500  21.069  26.549  1.00  0.00    -0.258 OA
ATOM     94  O   UNL A   1      32.561  20.825  24.578  1.00  0.00    -0.258 OA
ENDBRANCH  88  92
ENDBRANCH  82  86
ENDBRANCH  78  80
ENDBRANCH  77  78
ENDBRANCH  76  77
ENDBRANCH  75  76
ENDBRANCH  74  75
ENDBRANCH  73  74
ENDBRANCH   1  73
TORSDOF 22
ENDMDL
MODEL 3
REMARK VINA RESULT:     -10.6      6.010     10.440
REMARK SMILES O=C(OCCOCCOCCOC(=O)[C@@H]1CCCCN1c1ccccc1[N+](=O)[O-])c1ccc(-c2c3nc(c(-c4cccc(S(=O)(=O)[O-])c4F)c4ccc([nH]4)c(-c4cccc(S(=O)(=O)[O-])c4F)c4nc(c(-c5cccc(S(=O)(=O)[O-])c5F)c5ccc2[nH]5)C=C4)C=C3)cc1
REMARK SMILES IDX 7 1 6 2 5 3 4 4 3 5 2 6 1 7 30 8 31 9 92 10 32 11 91 12
REMARK SMILES IDX 33 13 34 14 35 15 85 16 36 17 90 18 84 19 86 20 37 21 89 22
REMARK SMILES IDX 83 23 82 24 38 26 70 27 50 28 69 29 51 30 54 31 68 32 87 33
REMARK SMILES IDX 52 34 53 35 67 37 88 38 55 39 39 40 40 41 48 42 41 43 43 44
REMARK SMILES IDX 49 45 42 46 44 47 45 48 46 49 47 50 71 51 72 52 80 53 73 54
REMARK SMILES IDX 75 55 81 56 74 57 76 58 77 59 78 60 79 61 56 62 57 63 65 64
REMARK SMILES IDX 58 65 60 66 66 67 59 68 61 69 62 70 63 71 64 72 8 73 9 74
REMARK SMILES IDX 10 75 11 76 12 77 13 78 14 79 15 80 16 81 20 82 17 83 19 84
REMARK SMILES IDX 18 85 21 86 22 87 26 88 23 89 25 90 24 91 27 92 28 93 29 94
REMARK H PARENT 86 25 54 36
REMARK Flexibility Score: inf
ROOT
ATOM      1  C   UNL A   1      40.980  21.977  27.931  1.00  0.00     0.188 C 
ENDROOT
BRANCH   1   2
ATOM      2  O   UNL A   1      40.477  20.726  27.474  1.00  0.00    -0.376 OA
BRANCH   2   3
ATOM      3  C   UNL A   1      41.083  20.095  26.349  1.00  0.00     0.202 C 
BRANCH   3   4
ATOM      4  C   UNL A   1      42.516  20.483  26.024  1.00  0.00     0.261 C 
BRANCH   4   5
ATOM      5  O   UNL A   1      42.674  21.691  25.265  1.00  0.00    -0.460 OA
BRANCH   5   6
ATOM      6  C   UNL A   1      43.651  22.611  25.240  1.00  0.00     0.338 C 
ATOM      7  O   UNL A   1      44.714  22.340  24.691  1.00  0.00    -0.246 OA
BRANCH   6   8
ATOM      8  C   UNL A   1      43.506  23.983  25.750  1.00  0.00     0.060 A 
ATOM      9  C   UNL A   1      42.852  25.461  24.935  1.00  0.00     0.016 A 
ATOM     10  C   UNL A   1      43.980  24.134  27.455  1.00  0.00     0.016 A 
ATOM     11  C   UNL A   1      42.780  27.173  25.992  1.00  0.00     0.010 A 
ATOM     12  C   UNL A   1      43.870  25.655  28.378  1.00  0.00     0.010 A 
ATOM     13  C   UNL A   1      43.289  27.172  27.697  1.00  0.00    -0.014 A 
BRANCH  13  14
ATOM     14  C   UNL A   1      43.401  28.495  28.332  1.00  0.00     0.031 A 
ATOM     15  C   UNL A   1      44.695  29.220  28.219  1.00  0.00     0.074 A 
ATOM     16  C   UNL A   1      42.294  29.101  28.809  1.00  0.00     0.049 A 
ATOM     17  N   UNL A   1      45.013  30.391  28.688  1.00  0.00    -0.248 NA
ATOM     18  C   UNL A   1      45.774  28.574  27.455  1.00  0.00     0.031 C 
ATOM     19  C   UNL A   1      40.953  28.535  28.763  1.00  0.00     0.029 A 
ATOM     20  N   UNL A   1      42.073  30.323  29.381  1.00  0.00    -0.354 N 
ATOM     21  C   UNL A   1      46.340  30.582  28.342  1.00  0.00     0.074 A 
ATOM     22  C   UNL A   1      46.780  29.412  27.628  1.00  0.00     0.031 C 
ATOM     23  C   UNL A   1      40.047  29.389  29.233  1.00  0.00     0.029 A 
ATOM     24  C   UNL A   1      40.757  30.522  29.755  1.00  0.00     0.049 A 
ATOM     25  H   UNL A   1      42.780  30.995  29.513  1.00  0.00     0.167 HD
ATOM     26  C   UNL A   1      47.110  31.658  28.604  1.00  0.00     0.034 A 
ATOM     27  C   UNL A   1      40.169  31.478  30.485  1.00  0.00     0.034 A 
ATOM     28  C   UNL A   1      46.602  32.796  29.313  1.00  0.00     0.049 A 
ATOM     29  C   UNL A   1      41.066  32.595  30.873  1.00  0.00     0.074 A 
ATOM     30  C   UNL A   1      47.265  33.941  29.698  1.00  0.00     0.029 A 
ATOM     31  N   UNL A   1      45.288  32.913  29.762  1.00  0.00    -0.354 N 
ATOM     32  N   UNL A   1      42.338  32.738  30.586  1.00  0.00    -0.248 NA
ATOM     33  C   UNL A   1      40.469  33.696  31.621  1.00  0.00     0.031 C 
ATOM     34  C   UNL A   1      46.369  34.716  30.442  1.00  0.00     0.029 A 
ATOM     35  C   UNL A   1      45.126  34.097  30.449  1.00  0.00     0.049 A 
ATOM     36  H   UNL A   1      44.580  32.246  29.611  1.00  0.00     0.167 HD
ATOM     37  C   UNL A   1      42.694  33.974  31.071  1.00  0.00     0.074 A 
ATOM     38  C   UNL A   1      41.492  34.539  31.666  1.00  0.00     0.031 C 
ATOM     39  C   UNL A   1      43.898  34.591  31.022  1.00  0.00     0.034 A 
BRANCH  26  40
ATOM     40  C   UNL A   1      48.562  31.555  28.229  1.00  0.00     0.023 A 
ATOM     41  C   UNL A   1      49.470  30.799  29.001  1.00  0.00     0.012 A 
ATOM     42  C   UNL A   1      49.044  32.314  27.147  1.00  0.00     0.148 A 
ATOM     43  C   UNL A   1      50.841  30.856  28.740  1.00  0.00     0.002 A 
ATOM     44  C   UNL A   1      50.399  32.318  26.856  1.00  0.00     0.091 A 
ATOM     45  F   UNL A   1      48.171  33.057  26.452  1.00  0.00    -0.205 F 
ATOM     46  C   UNL A   1      51.303  31.611  27.666  1.00  0.00     0.022 A 
BRANCH  44  47
ATOM     47  S   UNL A   1      51.080  33.205  25.453  1.00  0.00     0.127 S 
ATOM     48  O   UNL A   1      52.259  33.836  26.046  1.00  0.00    -0.237 OA
ATOM     49  O   UNL A   1      51.371  32.113  24.524  1.00  0.00    -0.237 OA
ATOM     50  O   UNL A   1      50.042  34.125  25.012  1.00  0.00    -0.744 OA
ENDBRANCH  44  47
ENDBRANCH  26  40
BRANCH  27  51
ATOM     51  C   UNL A   1      38.722  31.400  30.844  1.00  0.00     0.023 A 
ATOM     52  C   UNL A   1      38.321  30.736  32.017  1.00  0.00     0.012 A 
ATOM     53  C   UNL A   1      37.740  32.044  30.058  1.00  0.00     0.148 A 
ATOM     54  C   UNL A   1      36.972  30.678  32.380  1.00  0.00     0.002 A 
ATOM     55  C   UNL A   1      36.403  32.018  30.445  1.00  0.00     0.091 A 
ATOM     56  F   UNL A   1      38.136  32.697  28.956  1.00  0.00    -0.205 F 
ATOM     57  C   UNL A   1      36.015  31.321  31.597  1.00  0.00     0.022 A 
BRANCH  55  58
ATOM     58  S   UNL A   1      35.115  32.908  29.560  1.00  0.00     0.127 S 
ATOM     59  O   UNL A   1      34.131  33.134  30.616  1.00  0.00    -0.237 OA
ATOM     60  O   UNL A   1      35.827  34.106  29.114  1.00  0.00    -0.237 OA
ATOM     61  O   UNL A   1      34.694  32.026  28.481  1.00  0.00    -0.744 OA
ENDBRANCH  55  58
ENDBRANCH  27  51
BRANCH  39  62
ATOM     62  C   UNL A   1      43.926  35.971  31.589  1.00  0.00     0.023 A 
ATOM     63  C   UNL A   1      44.069  36.168  32.974  1.00  0.00     0.012 A 
ATOM     64  C   UNL A   1      43.846  37.067  30.715  1.00  0.00     0.148 A 
ATOM     65  C   UNL A   1      44.081  37.458  33.489  1.00  0.00     0.002 A 
ATOM     66  C   UNL A   1      43.938  38.346  31.229  1.00  0.00     0.091 A 
ATOM     67  F   UNL A   1      43.678  36.833  29.405  1.00  0.00    -0.205 F 
ATOM     68  C   UNL A   1      44.033  38.546  32.617  1.00  0.00     0.022 A 
BRANCH  66  69
ATOM     69  S   UNL A   1      44.016  39.785  30.168  1.00  0.00     0.127 S 
ATOM     70  O   UNL A   1      42.720  39.728  29.495  1.00  0.00    -0.237 OA
ATOM     71  O   UNL A   1      44.157  40.869  31.140  1.00  0.00    -0.237 OA
ATOM     72  O   UNL A   1      45.174  39.592  29.305  1.00  0.00    -0.744 OA
ENDBRANCH  66  69
ENDBRANCH  39  62
ENDBRANCH  13  14
ENDBRANCH   6   8
ENDBRANCH   5   6
ENDBRANCH   4   5
ENDBRANCH   3   4
ENDBRANCH   2   3
ENDBRANCH   1   2
BRANCH   1  73
ATOM     73  C   UNL A   1      40.145  23.203  27.532  1.00  0.00     0.188 C 
BRANCH  73  74
ATOM     74  O   UNL A   1      39.571  23.258  26.233  1.00  0.00    -0.376 OA
BRANCH  74  75
ATOM     75  C   UNL A   1      38.192  22.956  26.087  1.00  0.00     0.202 C 
BRANCH  75  76
ATOM     76  C   UNL A   1      37.774  21.946  25.022  1.00  0.00     0.261 C 
BRANCH  76  77
ATOM     77  O   UNL A   1      36.371  21.909  24.725  1.00  0.00    -0.462 OA
BRANCH  77  78
ATOM     78  C   UNL A   1      35.968  22.799  23.789  1.00  0.00     0.328 C 
ATOM     79  O   UNL A   1      36.605  22.975  22.748  1.00  0.00    -0.250 OA
BRANCH  78  80
ATOM     80  C   UNL A   1      34.696  23.605  24.077  1.00  0.00     0.192 C 
ATOM     81  C   UNL A   1      35.146  24.703  25.077  1.00  0.00     0.037 C 
ATOM     82  N   UNL A   1      33.387  23.018  24.536  1.00  0.00    -0.353 N 
ATOM     83  C   UNL A   1      34.082  25.758  25.344  1.00  0.00     0.005 C 
ATOM     84  C   UNL A   1      32.347  24.066  24.738  1.00  0.00     0.118 C 
ATOM     85  C   UNL A   1      32.806  25.080  25.784  1.00  0.00     0.022 C 
BRANCH  82  86
ATOM     86  C   UNL A   1      33.010  21.672  24.587  1.00  0.00     0.116 A 
ATOM     87  C   UNL A   1      32.460  20.921  23.077  1.00  0.00     0.033 A 
ATOM     88  C   UNL A   1      33.295  20.569  26.011  1.00  0.00     0.292 A 
ATOM     89  C   UNL A   1      32.116  19.190  22.879  1.00  0.00     0.003 A 
ATOM     90  C   UNL A   1      32.938  18.590  25.751  1.00  0.00     0.088 A 
ATOM     91  C   UNL A   1      32.342  18.009  24.152  1.00  0.00     0.007 A 
BRANCH  88  92
ATOM     92  N   UNL A   1      33.551  21.495  27.207  1.00  0.00     0.064 N 
ATOM     93  O   UNL A   1      34.718  21.765  27.531  1.00  0.00    -0.258 OA
ATOM     94  O   UNL A   1      32.544  22.012  27.719  1.00  0.00    -0.258 OA
ENDBRANCH  88  92
ENDBRANCH  82  86
ENDBRANCH  78  80
ENDBRANCH  77  78
ENDBRANCH  76  77
ENDBRANCH  75  76
ENDBRANCH  74  75
ENDBRANCH  73  74
ENDBRANCH   1  73
TORSDOF 22
ENDMDL
