MODEL 1
REMARK VINA RESULT:      -9.2      0.000      0.000
REMARK SMILES CC(C)(Br)[C@H](Br)C(=O)OCCOCCOCCOC(=O)c1ccc(-c2c3nc(c(-c4cccc(S(=O)(=O)[O-])c4F)c4ccc([nH]4)c(-c4cccc(S(=O)(=O)[O-])c4F)c4nc(c(-c5cccc(S(=O)(=O)[O-])c5F)c5ccc2[nH]5)C=C4)C=C3)cc1
REMARK SMILES IDX 14 1 13 2 12 3 11 4 10 5 9 6 7 7 8 8 5 9 6 10 2 11 1 12 3 13
REMARK SMILES IDX 4 14 15 15 16 16 17 17 18 18 19 19 20 20 21 21 22 22 83 23
REMARK SMILES IDX 23 24 82 25 24 26 25 27 26 28 76 29 27 30 81 31 75 32 77 33
REMARK SMILES IDX 28 34 80 35 74 36 73 37 29 39 61 40 41 41 60 42 42 43 45 44
REMARK SMILES IDX 59 45 78 46 43 47 44 48 58 50 79 51 46 52 30 53 31 54 39 55
REMARK SMILES IDX 32 56 34 57 40 58 33 59 35 60 36 61 37 62 38 63 62 64 63 65
REMARK SMILES IDX 71 66 64 67 66 68 72 69 65 70 67 71 68 72 69 73 70 74 47 75
REMARK SMILES IDX 48 76 56 77 49 78 51 79 57 80 50 81 52 82 53 83 54 84 55 85
REMARK H PARENT 77 38 45 49
REMARK Flexibility Score: inf
ROOT
ATOM      1  C   UNL A   1      31.251  27.342  25.016  1.00  0.00     0.188 C 
ENDROOT
BRANCH   1   2
ATOM      2  C   UNL A   1      30.725  26.198  24.135  1.00  0.00     0.188 C 
BRANCH   2   3
ATOM      3  O   UNL A   1      30.985  26.247  22.739  1.00  0.00    -0.376 OA
BRANCH   3   4
ATOM      4  C   UNL A   1      32.240  25.773  22.261  1.00  0.00     0.202 C 
BRANCH   4   5
ATOM      5  C   UNL A   1      33.059  24.836  23.162  1.00  0.00     0.261 C 
BRANCH   5   6
ATOM      6  O   UNL A   1      34.159  24.185  22.496  1.00  0.00    -0.462 OA
BRANCH   6   7
ATOM      7  C   UNL A   1      34.766  23.148  23.136  1.00  0.00     0.321 C 
ATOM      8  O   UNL A   1      35.816  22.647  22.749  1.00  0.00    -0.251 OA
BRANCH   7   9
ATOM      9  C   UNL A   1      34.089  22.730  24.448  1.00  0.00     0.183 C 
ATOM     10  Br  UNL A   1      33.234  20.959  24.243  1.00  0.00    -0.075 Br
BRANCH   9  11
ATOM     11  C   UNL A   1      34.998  22.797  25.701  1.00  0.00     0.043 C 
ATOM     12  C   UNL A   1      35.719  24.142  25.913  1.00  0.00     0.025 C 
ATOM     13  C   UNL A   1      36.086  21.707  25.652  1.00  0.00     0.025 C 
ATOM     14  Br  UNL A   1      33.926  22.512  27.350  1.00  0.00    -0.084 Br
ENDBRANCH   9  11
ENDBRANCH   7   9
ENDBRANCH   6   7
ENDBRANCH   5   6
ENDBRANCH   4   5
ENDBRANCH   3   4
ENDBRANCH   2   3
ENDBRANCH   1   2
BRANCH   1  15
ATOM     15  O   UNL A   1      30.669  28.600  24.734  1.00  0.00    -0.376 OA
BRANCH  15  16
ATOM     16  C   UNL A   1      31.546  29.714  24.624  1.00  0.00     0.202 C 
BRANCH  16  17
ATOM     17  C   UNL A   1      31.448  30.746  25.766  1.00  0.00     0.261 C 
BRANCH  17  18
ATOM     18  O   UNL A   1      32.445  30.630  26.799  1.00  0.00    -0.460 OA
BRANCH  18  19
ATOM     19  C   UNL A   1      33.064  31.774  27.180  1.00  0.00     0.338 C 
ATOM     20  O   UNL A   1      32.554  32.882  27.264  1.00  0.00    -0.246 OA
BRANCH  19  21
ATOM     21  C   UNL A   1      34.384  31.415  27.758  1.00  0.00     0.060 A 
ATOM     22  C   UNL A   1      34.654  30.060  28.005  1.00  0.00     0.016 A 
ATOM     23  C   UNL A   1      35.361  32.381  28.010  1.00  0.00     0.016 A 
ATOM     24  C   UNL A   1      35.881  29.674  28.547  1.00  0.00     0.010 A 
ATOM     25  C   UNL A   1      36.585  31.993  28.571  1.00  0.00     0.010 A 
ATOM     26  C   UNL A   1      36.837  30.643  28.880  1.00  0.00    -0.014 A 
BRANCH  26  27
ATOM     27  C   UNL A   1      37.997  30.264  29.732  1.00  0.00     0.031 A 
ATOM     28  C   UNL A   1      39.002  29.285  29.178  1.00  0.00     0.074 A 
ATOM     29  C   UNL A   1      38.186  30.792  30.955  1.00  0.00     0.049 A 
ATOM     30  N   UNL A   1      40.088  28.808  29.727  1.00  0.00    -0.248 NA
ATOM     31  C   UNL A   1      38.743  28.777  27.819  1.00  0.00     0.031 C 
ATOM     32  C   UNL A   1      37.298  31.746  31.615  1.00  0.00     0.029 A 
ATOM     33  N   UNL A   1      39.188  30.576  31.872  1.00  0.00    -0.354 N 
ATOM     34  C   UNL A   1      40.634  27.936  28.793  1.00  0.00     0.074 A 
ATOM     35  C   UNL A   1      39.745  27.927  27.652  1.00  0.00     0.031 C 
ATOM     36  C   UNL A   1      37.777  32.009  32.845  1.00  0.00     0.029 A 
ATOM     37  C   UNL A   1      38.995  31.229  33.066  1.00  0.00     0.049 A 
ATOM     38  H   UNL A   1      39.970  30.005  31.690  1.00  0.00     0.167 HD
ATOM     39  C   UNL A   1      41.783  27.223  28.860  1.00  0.00     0.034 A 
ATOM     40  C   UNL A   1      39.703  31.184  34.213  1.00  0.00     0.034 A 
ATOM     41  C   UNL A   1      42.675  27.227  29.987  1.00  0.00     0.049 A 
ATOM     42  C   UNL A   1      40.962  30.353  34.278  1.00  0.00     0.074 A 
ATOM     43  C   UNL A   1      43.873  26.551  30.138  1.00  0.00     0.029 A 
ATOM     44  N   UNL A   1      42.465  27.933  31.161  1.00  0.00    -0.354 N 
ATOM     45  N   UNL A   1      41.520  29.619  33.346  1.00  0.00    -0.248 NA
ATOM     46  C   UNL A   1      41.711  30.378  35.545  1.00  0.00     0.031 C 
ATOM     47  C   UNL A   1      44.374  26.826  31.415  1.00  0.00     0.029 A 
ATOM     48  C   UNL A   1      43.509  27.706  32.043  1.00  0.00     0.049 A 
ATOM     49  H   UNL A   1      41.689  28.510  31.341  1.00  0.00     0.167 HD
ATOM     50  C   UNL A   1      42.700  29.128  33.899  1.00  0.00     0.074 A 
ATOM     51  C   UNL A   1      42.790  29.671  35.237  1.00  0.00     0.031 C 
ATOM     52  C   UNL A   1      43.619  28.291  33.354  1.00  0.00     0.034 A 
BRANCH  39  53
ATOM     53  C   UNL A   1      42.158  26.394  27.658  1.00  0.00     0.023 A 
ATOM     54  C   UNL A   1      42.876  26.991  26.600  1.00  0.00     0.012 A 
ATOM     55  C   UNL A   1      41.852  25.021  27.598  1.00  0.00     0.148 A 
ATOM     56  C   UNL A   1      43.255  26.242  25.487  1.00  0.00     0.002 A 
ATOM     57  C   UNL A   1      42.274  24.271  26.507  1.00  0.00     0.091 A 
ATOM     58  F   UNL A   1      41.151  24.478  28.603  1.00  0.00    -0.205 F 
ATOM     59  C   UNL A   1      42.964  24.881  25.447  1.00  0.00     0.022 A 
BRANCH  57  60
ATOM     60  S   UNL A   1      42.020  22.496  26.392  1.00  0.00     0.127 S 
ATOM     61  O   UNL A   1      42.655  22.028  27.624  1.00  0.00    -0.237 OA
ATOM     62  O   UNL A   1      40.561  22.397  26.383  1.00  0.00    -0.237 OA
ATOM     63  O   UNL A   1      42.669  22.074  25.159  1.00  0.00    -0.744 OA
ENDBRANCH  57  60
ENDBRANCH  39  53
BRANCH  40  64
ATOM     64  C   UNL A   1      39.253  31.957  35.408  1.00  0.00     0.023 A 
ATOM     65  C   UNL A   1      38.317  31.397  36.300  1.00  0.00     0.012 A 
ATOM     66  C   UNL A   1      39.732  33.261  35.647  1.00  0.00     0.148 A 
ATOM     67  C   UNL A   1      37.835  32.136  37.382  1.00  0.00     0.002 A 
ATOM     68  C   UNL A   1      39.294  33.967  36.761  1.00  0.00     0.091 A 
ATOM     69  F   UNL A   1      40.606  33.785  34.776  1.00  0.00    -0.205 F 
ATOM     70  C   UNL A   1      38.329  33.416  37.618  1.00  0.00     0.022 A 
BRANCH  68  71
ATOM     71  S   UNL A   1      39.969  35.568  37.210  1.00  0.00     0.127 S 
ATOM     72  O   UNL A   1      39.272  35.847  38.462  1.00  0.00    -0.237 OA
ATOM     73  O   UNL A   1      41.394  35.265  37.350  1.00  0.00    -0.237 OA
ATOM     74  O   UNL A   1      39.651  36.454  36.098  1.00  0.00    -0.744 OA
ENDBRANCH  68  71
ENDBRANCH  40  64
BRANCH  52  75
ATOM     75  C   UNL A   1      44.834  27.948  34.181  1.00  0.00     0.023 A 
ATOM     76  C   UNL A   1      45.895  28.868  34.298  1.00  0.00     0.012 A 
ATOM     77  C   UNL A   1      44.899  26.728  34.885  1.00  0.00     0.148 A 
ATOM     78  C   UNL A   1      47.021  28.560  35.062  1.00  0.00     0.002 A 
ATOM     79  C   UNL A   1      46.000  26.451  35.688  1.00  0.00     0.091 A 
ATOM     80  F   UNL A   1      43.889  25.857  34.753  1.00  0.00    -0.205 F 
ATOM     81  C   UNL A   1      47.070  27.358  35.764  1.00  0.00     0.022 A 
BRANCH  79  82
ATOM     82  S   UNL A   1      46.105  24.972  36.703  1.00  0.00     0.127 S 
ATOM     83  O   UNL A   1      46.520  23.968  35.723  1.00  0.00    -0.237 OA
ATOM     84  O   UNL A   1      47.136  25.336  37.676  1.00  0.00    -0.237 OA
ATOM     85  O   UNL A   1      44.778  24.780  37.271  1.00  0.00    -0.744 OA
ENDBRANCH  79  82
ENDBRANCH  52  75
ENDBRANCH  26  27
ENDBRANCH  19  21
ENDBRANCH  18  19
ENDBRANCH  17  18
ENDBRANCH  16  17
ENDBRANCH  15  16
ENDBRANCH   1  15
TORSDOF 21
ENDMDL
MODEL 2
REMARK VINA RESULT:      -8.8      2.770      8.524
REMARK SMILES CC(C)(Br)[C@H](Br)C(=O)OCCOCCOCCOC(=O)c1ccc(-c2c3nc(c(-c4cccc(S(=O)(=O)[O-])c4F)c4ccc([nH]4)c(-c4cccc(S(=O)(=O)[O-])c4F)c4nc(c(-c5cccc(S(=O)(=O)[O-])c5F)c5ccc2[nH]5)C=C4)C=C3)cc1
REMARK SMILES IDX 14 1 13 2 12 3 11 4 10 5 9 6 7 7 8 8 5 9 6 10 2 11 1 12 3 13
REMARK SMILES IDX 4 14 15 15 16 16 17 17 18 18 19 19 20 20 21 21 22 22 83 23
REMARK SMILES IDX 23 24 82 25 24 26 25 27 26 28 76 29 27 30 81 31 75 32 77 33
REMARK SMILES IDX 28 34 80 35 74 36 73 37 29 39 61 40 41 41 60 42 42 43 45 44
REMARK SMILES IDX 59 45 78 46 43 47 44 48 58 50 79 51 46 52 30 53 31 54 39 55
REMARK SMILES IDX 32 56 34 57 40 58 33 59 35 60 36 61 37 62 38 63 62 64 63 65
REMARK SMILES IDX 71 66 64 67 66 68 72 69 65 70 67 71 68 72 69 73 70 74 47 75
REMARK SMILES IDX 48 76 56 77 49 78 51 79 57 80 50 81 52 82 53 83 54 84 55 85
REMARK H PARENT 77 38 45 49
REMARK Flexibility Score: inf
ROOT
ATOM      1  C   UNL A   1      31.283  27.727  25.108  1.00  0.00     0.188 C 
ENDROOT
BRANCH   1   2
ATOM      2  C   UNL A   1      30.364  27.159  24.015  1.00  0.00     0.188 C 
BRANCH   2   3
ATOM      3  O   UNL A   1      30.890  27.005  22.705  1.00  0.00    -0.376 OA
BRANCH   3   4
ATOM      4  C   UNL A   1      32.230  27.416  22.453  1.00  0.00     0.202 C 
BRANCH   4   5
ATOM      5  C   UNL A   1      33.281  26.337  22.151  1.00  0.00     0.261 C 
BRANCH   5   6
ATOM      6  O   UNL A   1      33.613  25.501  23.277  1.00  0.00    -0.462 OA
BRANCH   6   7
ATOM      7  C   UNL A   1      33.819  24.175  23.045  1.00  0.00     0.321 C 
ATOM      8  O   UNL A   1      33.908  23.701  21.918  1.00  0.00    -0.251 OA
BRANCH   7   9
ATOM      9  C   UNL A   1      34.045  23.338  24.311  1.00  0.00     0.183 C 
ATOM     10  Br  UNL A   1      35.546  24.080  25.364  1.00  0.00    -0.075 Br
BRANCH   9  11
ATOM     11  C   UNL A   1      32.780  23.113  25.179  1.00  0.00     0.043 C 
ATOM     12  C   UNL A   1      31.449  23.116  24.403  1.00  0.00     0.025 C 
ATOM     13  C   UNL A   1      32.664  24.190  26.275  1.00  0.00     0.025 C 
ATOM     14  Br  UNL A   1      32.860  21.341  26.074  1.00  0.00    -0.084 Br
ENDBRANCH   9  11
ENDBRANCH   7   9
ENDBRANCH   6   7
ENDBRANCH   5   6
ENDBRANCH   4   5
ENDBRANCH   3   4
ENDBRANCH   2   3
ENDBRANCH   1   2
BRANCH   1  15
ATOM     15  O   UNL A   1      31.232  29.135  25.231  1.00  0.00    -0.376 OA
BRANCH  15  16
ATOM     16  C   UNL A   1      32.465  29.821  25.403  1.00  0.00     0.202 C 
BRANCH  16  17
ATOM     17  C   UNL A   1      32.603  30.609  26.721  1.00  0.00     0.261 C 
BRANCH  17  18
ATOM     18  O   UNL A   1      33.638  30.154  27.615  1.00  0.00    -0.460 OA
BRANCH  18  19
ATOM     19  C   UNL A   1      34.585  31.059  27.962  1.00  0.00     0.338 C 
ATOM     20  O   UNL A   1      34.397  32.234  28.241  1.00  0.00    -0.246 OA
BRANCH  19  21
ATOM     21  C   UNL A   1      35.847  30.327  28.232  1.00  0.00     0.060 A 
ATOM     22  C   UNL A   1      36.006  29.717  29.487  1.00  0.00     0.016 A 
ATOM     23  C   UNL A   1      36.841  30.195  27.260  1.00  0.00     0.016 A 
ATOM     24  C   UNL A   1      37.175  29.016  29.787  1.00  0.00     0.010 A 
ATOM     25  C   UNL A   1      38.022  29.507  27.569  1.00  0.00     0.010 A 
ATOM     26  C   UNL A   1      38.213  28.948  28.848  1.00  0.00    -0.014 A 
BRANCH  26  27
ATOM     27  C   UNL A   1      39.558  28.477  29.276  1.00  0.00     0.031 A 
ATOM     28  C   UNL A   1      40.263  29.231  30.374  1.00  0.00     0.074 A 
ATOM     29  C   UNL A   1      40.137  27.389  28.737  1.00  0.00     0.049 A 
ATOM     30  N   UNL A   1      41.433  29.012  30.916  1.00  0.00    -0.248 NA
ATOM     31  C   UNL A   1      39.550  30.391  30.937  1.00  0.00     0.031 C 
ATOM     32  C   UNL A   1      39.572  26.566  27.670  1.00  0.00     0.029 A 
ATOM     33  N   UNL A   1      41.352  26.803  29.006  1.00  0.00    -0.354 N 
ATOM     34  C   UNL A   1      41.603  30.009  31.868  1.00  0.00     0.074 A 
ATOM     35  C   UNL A   1      40.430  30.853  31.812  1.00  0.00     0.031 C 
ATOM     36  C   UNL A   1      40.453  25.599  27.353  1.00  0.00     0.029 A 
ATOM     37  C   UNL A   1      41.651  25.745  28.179  1.00  0.00     0.049 A 
ATOM     38  H   UNL A   1      41.951  27.112  29.723  1.00  0.00     0.167 HD
ATOM     39  C   UNL A   1      42.629  30.198  32.732  1.00  0.00     0.034 A 
ATOM     40  C   UNL A   1      42.770  24.999  28.082  1.00  0.00     0.034 A 
ATOM     41  C   UNL A   1      43.798  29.364  32.799  1.00  0.00     0.049 A 
ATOM     42  C   UNL A   1      43.917  25.251  29.032  1.00  0.00     0.074 A 
ATOM     43  C   UNL A   1      44.879  29.467  33.654  1.00  0.00     0.029 A 
ATOM     44  N   UNL A   1      44.045  28.280  31.972  1.00  0.00    -0.354 N 
ATOM     45  N   UNL A   1      44.015  26.131  29.999  1.00  0.00    -0.248 NA
ATOM     46  C   UNL A   1      45.093  24.377  28.901  1.00  0.00     0.031 C 
ATOM     47  C   UNL A   1      45.795  28.461  33.327  1.00  0.00     0.029 A 
ATOM     48  C   UNL A   1      45.263  27.707  32.294  1.00  0.00     0.049 A 
ATOM     49  H   UNL A   1      43.443  27.964  31.261  1.00  0.00     0.167 HD
ATOM     50  C   UNL A   1      45.241  25.892  30.613  1.00  0.00     0.074 A 
ATOM     51  C   UNL A   1      45.838  24.766  29.927  1.00  0.00     0.031 C 
ATOM     52  C   UNL A   1      45.828  26.553  31.642  1.00  0.00     0.034 A 
BRANCH  39  53
ATOM     53  C   UNL A   1      42.516  31.345  33.704  1.00  0.00     0.023 A 
ATOM     54  C   UNL A   1      43.222  32.540  33.454  1.00  0.00     0.012 A 
ATOM     55  C   UNL A   1      41.674  31.262  34.831  1.00  0.00     0.148 A 
ATOM     56  C   UNL A   1      43.118  33.623  34.326  1.00  0.00     0.002 A 
ATOM     57  C   UNL A   1      41.539  32.362  35.669  1.00  0.00     0.091 A 
ATOM     58  F   UNL A   1      41.028  30.111  35.062  1.00  0.00    -0.205 F 
ATOM     59  C   UNL A   1      42.269  33.537  35.425  1.00  0.00     0.022 A 
BRANCH  57  60
ATOM     60  S   UNL A   1      40.412  32.385  37.067  1.00  0.00     0.127 S 
ATOM     61  O   UNL A   1      39.956  33.775  37.055  1.00  0.00    -0.237 OA
ATOM     62  O   UNL A   1      39.402  31.408  36.659  1.00  0.00    -0.237 OA
ATOM     63  O   UNL A   1      41.201  31.999  38.229  1.00  0.00    -0.744 OA
ENDBRANCH  57  60
ENDBRANCH  39  53
BRANCH  40  64
ATOM     64  C   UNL A   1      42.873  23.924  27.052  1.00  0.00     0.023 A 
ATOM     65  C   UNL A   1      43.589  24.155  25.860  1.00  0.00     0.012 A 
ATOM     66  C   UNL A   1      42.238  22.680  27.239  1.00  0.00     0.148 A 
ATOM     67  C   UNL A   1      43.634  23.184  24.858  1.00  0.00     0.002 A 
ATOM     68  C   UNL A   1      42.340  21.696  26.264  1.00  0.00     0.091 A 
ATOM     69  F   UNL A   1      41.544  22.487  28.370  1.00  0.00    -0.205 F 
ATOM     70  C   UNL A   1      43.018  21.953  25.062  1.00  0.00     0.022 A 
BRANCH  68  71
ATOM     71  S   UNL A   1      41.684  20.042  26.497  1.00  0.00     0.127 S 
ATOM     72  O   UNL A   1      42.239  19.334  25.346  1.00  0.00    -0.237 OA
ATOM     73  O   UNL A   1      42.262  19.669  27.789  1.00  0.00    -0.237 OA
ATOM     74  O   UNL A   1      40.235  20.192  26.509  1.00  0.00    -0.744 OA
ENDBRANCH  68  71
ENDBRANCH  40  64
BRANCH  52  75
ATOM     75  C   UNL A   1      47.164  26.049  32.132  1.00  0.00     0.023 A 
ATOM     76  C   UNL A   1      47.233  25.204  33.258  1.00  0.00     0.012 A 
ATOM     77  C   UNL A   1      48.349  26.373  31.440  1.00  0.00     0.148 A 
ATOM     78  C   UNL A   1      48.463  24.730  33.716  1.00  0.00     0.002 A 
ATOM     79  C   UNL A   1      49.565  25.854  31.870  1.00  0.00     0.091 A 
ATOM     80  F   UNL A   1      48.268  27.189  30.379  1.00  0.00    -0.205 F 
ATOM     81  C   UNL A   1      49.626  25.047  33.018  1.00  0.00     0.022 A 
BRANCH  79  82
ATOM     82  S   UNL A   1      51.100  26.129  30.978  1.00  0.00     0.127 S 
ATOM     83  O   UNL A   1      52.052  25.361  31.780  1.00  0.00    -0.237 OA
ATOM     84  O   UNL A   1      50.803  25.552  29.666  1.00  0.00    -0.237 OA
ATOM     85  O   UNL A   1      51.307  27.570  30.971  1.00  0.00    -0.744 OA
ENDBRANCH  79  82
ENDBRANCH  52  75
ENDBRANCH  26  27
ENDBRANCH  19  21
ENDBRANCH  18  19
ENDBRANCH  17  18
ENDBRANCH  16  17
ENDBRANCH  15  16
ENDBRANCH   1  15
TORSDOF 21
ENDMDL
MODEL 3
REMARK VINA RESULT:      -8.7      3.138      3.946
REMARK SMILES CC(C)(Br)[C@H](Br)C(=O)OCCOCCOCCOC(=O)c1ccc(-c2c3nc(c(-c4cccc(S(=O)(=O)[O-])c4F)c4ccc([nH]4)c(-c4cccc(S(=O)(=O)[O-])c4F)c4nc(c(-c5cccc(S(=O)(=O)[O-])c5F)c5ccc2[nH]5)C=C4)C=C3)cc1
REMARK SMILES IDX 14 1 13 2 12 3 11 4 10 5 9 6 7 7 8 8 5 9 6 10 2 11 1 12 3 13
REMARK SMILES IDX 4 14 15 15 16 16 17 17 18 18 19 19 20 20 21 21 22 22 83 23
REMARK SMILES IDX 23 24 82 25 24 26 25 27 26 28 76 29 27 30 81 31 75 32 77 33
REMARK SMILES IDX 28 34 80 35 74 36 73 37 29 39 61 40 41 41 60 42 42 43 45 44
REMARK SMILES IDX 59 45 78 46 43 47 44 48 58 50 79 51 46 52 30 53 31 54 39 55
REMARK SMILES IDX 32 56 34 57 40 58 33 59 35 60 36 61 37 62 38 63 62 64 63 65
REMARK SMILES IDX 71 66 64 67 66 68 72 69 65 70 67 71 68 72 69 73 70 74 47 75
REMARK SMILES IDX 48 76 56 77 49 78 51 79 57 80 50 81 52 82 53 83 54 84 55 85
REMARK H PARENT 77 38 45 49
REMARK Flexibility Score: inf
ROOT
ATOM      1  C   UNL A   1      31.338  27.640  25.194  1.00  0.00     0.188 C 
ENDROOT
BRANCH   1   2
ATOM      2  C   UNL A   1      30.513  27.117  24.007  1.00  0.00     0.188 C 
BRANCH   2   3
ATOM      3  O   UNL A   1      31.089  27.170  22.710  1.00  0.00    -0.376 OA
BRANCH   3   4
ATOM      4  C   UNL A   1      32.466  26.838  22.560  1.00  0.00     0.202 C 
BRANCH   4   5
ATOM      5  C   UNL A   1      32.827  25.484  21.929  1.00  0.00     0.261 C 
BRANCH   5   6
ATOM      6  O   UNL A   1      32.585  24.349  22.784  1.00  0.00    -0.462 OA
BRANCH   6   7
ATOM      7  C   UNL A   1      33.665  23.676  23.268  1.00  0.00     0.321 C 
ATOM      8  O   UNL A   1      34.782  23.760  22.770  1.00  0.00    -0.251 OA
BRANCH   7   9
ATOM      9  C   UNL A   1      33.396  22.891  24.559  1.00  0.00     0.183 C 
ATOM     10  Br  UNL A   1      34.587  21.316  24.664  1.00  0.00    -0.075 Br
BRANCH   9  11
ATOM     11  C   UNL A   1      33.434  23.738  25.856  1.00  0.00     0.043 C 
ATOM     12  C   UNL A   1      34.062  25.137  25.704  1.00  0.00     0.025 C 
ATOM     13  C   UNL A   1      34.218  23.011  26.966  1.00  0.00     0.025 C 
ATOM     14  Br  UNL A   1      31.591  24.062  26.527  1.00  0.00    -0.084 Br
ENDBRANCH   9  11
ENDBRANCH   7   9
ENDBRANCH   6   7
ENDBRANCH   5   6
ENDBRANCH   4   5
ENDBRANCH   3   4
ENDBRANCH   2   3
ENDBRANCH   1   2
BRANCH   1  15
ATOM     15  O   UNL A   1      31.335  29.049  25.321  1.00  0.00    -0.376 OA
BRANCH  15  16
ATOM     16  C   UNL A   1      32.596  29.705  25.328  1.00  0.00     0.202 C 
BRANCH  16  17
ATOM     17  C   UNL A   1      32.947  30.445  26.635  1.00  0.00     0.261 C 
BRANCH  17  18
ATOM     18  O   UNL A   1      34.079  29.928  27.361  1.00  0.00    -0.460 OA
BRANCH  18  19
ATOM     19  C   UNL A   1      34.793  30.819  28.091  1.00  0.00     0.338 C 
ATOM     20  O   UNL A   1      34.358  31.820  28.641  1.00  0.00    -0.246 OA
BRANCH  19  21
ATOM     21  C   UNL A   1      36.129  30.230  28.361  1.00  0.00     0.060 A 
ATOM     22  C   UNL A   1      36.321  29.547  29.571  1.00  0.00     0.016 A 
ATOM     23  C   UNL A   1      37.164  30.302  27.426  1.00  0.00     0.016 A 
ATOM     24  C   UNL A   1      37.560  28.975  29.868  1.00  0.00     0.010 A 
ATOM     25  C   UNL A   1      38.412  29.744  27.734  1.00  0.00     0.010 A 
ATOM     26  C   UNL A   1      38.629  29.112  28.973  1.00  0.00    -0.014 A 
BRANCH  26  27
ATOM     27  C   UNL A   1      40.008  28.780  29.424  1.00  0.00     0.031 A 
ATOM     28  C   UNL A   1      40.701  27.599  28.794  1.00  0.00     0.074 A 
ATOM     29  C   UNL A   1      40.654  29.519  30.344  1.00  0.00     0.049 A 
ATOM     30  N   UNL A   1      41.897  27.119  29.019  1.00  0.00    -0.248 NA
ATOM     31  C   UNL A   1      39.941  26.860  27.771  1.00  0.00     0.031 C 
ATOM     32  C   UNL A   1      40.108  30.685  31.035  1.00  0.00     0.029 A 
ATOM     33  N   UNL A   1      41.916  29.378  30.872  1.00  0.00    -0.354 N 
ATOM     34  C   UNL A   1      42.027  26.018  28.181  1.00  0.00     0.074 A 
ATOM     35  C   UNL A   1      40.779  25.882  27.463  1.00  0.00     0.031 C 
ATOM     36  C   UNL A   1      41.017  31.134  31.919  1.00  0.00     0.029 A 
ATOM     37  C   UNL A   1      42.202  30.278  31.871  1.00  0.00     0.049 A 
ATOM     38  H   UNL A   1      42.555  28.695  30.563  1.00  0.00     0.167 HD
ATOM     39  C   UNL A   1      43.094  25.203  28.002  1.00  0.00     0.034 A 
ATOM     40  C   UNL A   1      43.283  30.384  32.672  1.00  0.00     0.034 A 
ATOM     41  C   UNL A   1      44.340  25.331  28.709  1.00  0.00     0.049 A 
ATOM     42  C   UNL A   1      44.446  29.441  32.479  1.00  0.00     0.074 A 
ATOM     43  C   UNL A   1      45.483  24.564  28.579  1.00  0.00     0.029 A 
ATOM     44  N   UNL A   1      44.603  26.280  29.684  1.00  0.00    -0.354 N 
ATOM     45  N   UNL A   1      44.594  28.473  31.607  1.00  0.00    -0.248 NA
ATOM     46  C   UNL A   1      45.611  29.634  33.357  1.00  0.00     0.031 C 
ATOM     47  C   UNL A   1      46.431  25.031  29.497  1.00  0.00     0.029 A 
ATOM     48  C   UNL A   1      45.891  26.116  30.167  1.00  0.00     0.049 A 
ATOM     49  H   UNL A   1      43.970  26.969  29.986  1.00  0.00     0.167 HD
ATOM     50  C   UNL A   1      45.876  27.969  31.806  1.00  0.00     0.074 A 
ATOM     51  C   UNL A   1      46.474  28.757  32.862  1.00  0.00     0.031 C 
ATOM     52  C   UNL A   1      46.498  26.938  31.182  1.00  0.00     0.034 A 
BRANCH  39  53
ATOM     53  C   UNL A   1      42.968  24.110  26.972  1.00  0.00     0.023 A 
ATOM     54  C   UNL A   1      43.551  24.285  25.700  1.00  0.00     0.012 A 
ATOM     55  C   UNL A   1      42.326  22.894  27.277  1.00  0.00     0.148 A 
ATOM     56  C   UNL A   1      43.469  23.281  24.736  1.00  0.00     0.002 A 
ATOM     57  C   UNL A   1      42.289  21.880  26.327  1.00  0.00     0.091 A 
ATOM     58  F   UNL A   1      41.761  22.756  28.485  1.00  0.00    -0.205 F 
ATOM     59  C   UNL A   1      42.849  22.076  25.055  1.00  0.00     0.022 A 
BRANCH  57  60
ATOM     60  S   UNL A   1      41.585  20.262  26.662  1.00  0.00     0.127 S 
ATOM     61  O   UNL A   1      42.302  19.875  27.877  1.00  0.00    -0.237 OA
ATOM     62  O   UNL A   1      40.172  20.581  26.863  1.00  0.00    -0.237 OA
ATOM     63  O   UNL A   1      41.867  19.448  25.488  1.00  0.00    -0.744 OA
ENDBRANCH  57  60
ENDBRANCH  39  53
BRANCH  40  64
ATOM     64  C   UNL A   1      43.334  31.430  33.734  1.00  0.00     0.023 A 
ATOM     65  C   UNL A   1      43.578  32.775  33.390  1.00  0.00     0.012 A 
ATOM     66  C   UNL A   1      43.168  31.091  35.092  1.00  0.00     0.148 A 
ATOM     67  C   UNL A   1      43.698  33.753  34.379  1.00  0.00     0.002 A 
ATOM     68  C   UNL A   1      43.227  32.080  36.066  1.00  0.00     0.091 A 
ATOM     69  F   UNL A   1      42.958  29.804  35.403  1.00  0.00    -0.205 F 
ATOM     70  C   UNL A   1      43.514  33.408  35.715  1.00  0.00     0.022 A 
BRANCH  68  71
ATOM     71  S   UNL A   1      42.880  31.747  37.795  1.00  0.00     0.127 S 
ATOM     72  O   UNL A   1      43.555  30.467  37.996  1.00  0.00    -0.237 OA
ATOM     73  O   UNL A   1      43.514  32.889  38.454  1.00  0.00    -0.237 OA
ATOM     74  O   UNL A   1      41.428  31.721  37.906  1.00  0.00    -0.744 OA
ENDBRANCH  68  71
ENDBRANCH  40  64
BRANCH  52  75
ATOM     75  C   UNL A   1      47.921  26.629  31.582  1.00  0.00     0.023 A 
ATOM     76  C   UNL A   1      48.181  25.779  32.676  1.00  0.00     0.012 A 
ATOM     77  C   UNL A   1      49.002  27.142  30.837  1.00  0.00     0.148 A 
ATOM     78  C   UNL A   1      49.492  25.485  33.051  1.00  0.00     0.002 A 
ATOM     79  C   UNL A   1      50.305  26.802  31.183  1.00  0.00     0.091 A 
ATOM     80  F   UNL A   1      48.739  27.960  29.807  1.00  0.00    -0.205 F 
ATOM     81  C   UNL A   1      50.553  25.988  32.301  1.00  0.00     0.022 A 
BRANCH  79  82
ATOM     82  S   UNL A   1      51.727  27.323  30.217  1.00  0.00     0.127 S 
ATOM     83  O   UNL A   1      52.826  26.677  30.934  1.00  0.00    -0.237 OA
ATOM     84  O   UNL A   1      51.436  26.748  28.902  1.00  0.00    -0.237 OA
ATOM     85  O   UNL A   1      51.725  28.779  30.253  1.00  0.00    -0.744 OA
ENDBRANCH  79  82
ENDBRANCH  52  75
ENDBRANCH  26  27
ENDBRANCH  19  21
ENDBRANCH  18  19
ENDBRANCH  17  18
ENDBRANCH  16  17
ENDBRANCH  15  16
ENDBRANCH   1  15
TORSDOF 21
ENDMDL
