MODEL 1
REMARK VINA RESULT:     -10.2      0.000      0.000
REMARK SMILES CCn1ncc(NC(=O)[C@@H]2CCCC[C@@H]2C(=O)OCCOCCOCCOC(=O)c2ccc(-c3c4nc(c(-c5cccc(S(=O)(=O)[O-])c5F)c5ccc([nH]5)c(-c5cccc(S(=O)(=O)[O-])c5F)c5nc(c(-c6cccc(S(=O)(=O)[O-])c6F)c6ccc3[nH]6)C=C5)C=C4)cc2)c1C(=O)Nc1cnn(C)c1C
REMARK SMILES IDX 22 1 21 2 20 3 19 4 18 5 16 6 17 7 15 8 10 9 11 10 12 11
REMARK SMILES IDX 14 12 13 13 8 14 7 15 9 17 6 18 3 19 4 20 93 21 5 22 2 23
REMARK SMILES IDX 1 24 94 25 95 26 96 27 97 29 98 30 102 31 99 32 100 33
REMARK SMILES IDX 103 34 101 35 23 36 24 37 25 38 26 39 27 40 28 41 29 42
REMARK SMILES IDX 30 43 31 44 92 45 32 46 91 47 33 48 34 49 35 50 85 51 36 52
REMARK SMILES IDX 90 53 84 54 86 55 37 56 89 57 83 58 82 59 38 61 70 62 50 63
REMARK SMILES IDX 69 64 51 65 54 66 68 67 87 68 52 69 53 70 67 72 88 73 55 74
REMARK SMILES IDX 39 75 40 76 48 77 41 78 43 79 49 80 42 81 44 82 45 83 46 84
REMARK SMILES IDX 47 85 71 86 72 87 80 88 73 89 75 90 81 91 74 92 76 93 77 94
REMARK SMILES IDX 78 95 79 96 56 97 57 98 65 99 58 100 60 101 66 102 59 103
REMARK SMILES IDX 61 104 62 105 63 106 64 107
REMARK H PARENT 7 16 96 28 86 60 54 71
REMARK Flexibility Score: inf
ROOT
ATOM      1  C   UNL A   1      33.615  31.792  27.378  1.00  0.00     0.188 C 
ENDROOT
BRANCH   1   2
ATOM      2  O   UNL A   1      33.589  30.440  27.832  1.00  0.00    -0.376 OA
BRANCH   2   3
ATOM      3  C   UNL A   1      34.443  29.477  27.246  1.00  0.00     0.202 C 
BRANCH   3   4
ATOM      4  C   UNL A   1      33.758  28.357  26.445  1.00  0.00     0.261 C 
BRANCH   4   5
ATOM      5  O   UNL A   1      34.099  28.260  25.048  1.00  0.00    -0.463 OA
BRANCH   5   6
ATOM      6  C   UNL A   1      33.047  28.322  24.184  1.00  0.00     0.309 C 
ATOM      7  O   UNL A   1      32.726  29.343  23.589  1.00  0.00    -0.252 OA
BRANCH   6   8
ATOM      8  C   UNL A   1      32.275  26.988  24.116  1.00  0.00     0.111 C 
ATOM      9  C   UNL A   1      31.936  26.472  22.685  1.00  0.00     0.093 C 
ATOM     10  C   UNL A   1      31.220  27.548  21.942  1.00  0.00     0.014 C 
ATOM     11  C   UNL A   1      29.954  28.021  22.623  1.00  0.00     0.001 C 
ATOM     12  C   UNL A   1      30.935  27.242  24.847  1.00  0.00     0.016 C 
ATOM     13  C   UNL A   1      30.047  28.255  24.118  1.00  0.00     0.001 C 
BRANCH   9  14
ATOM     14  C   UNL A   1      32.978  25.646  21.907  1.00  0.00     0.228 C 
ATOM     15  N   UNL A   1      33.520  24.433  22.240  1.00  0.00    -0.322 N 
ATOM     16  H   UNL A   1      34.288  24.195  21.671  1.00  0.00     0.170 HD
ATOM     17  O   UNL A   1      33.399  26.138  20.847  1.00  0.00    -0.274 OA
BRANCH  15  18
ATOM     18  C   UNL A   1      33.240  23.453  23.193  1.00  0.00     0.092 A 
ATOM     19  N   UNL A   1      32.718  22.258  24.935  1.00  0.00    -0.258 N 
ATOM     20  N   UNL A   1      32.310  21.500  23.902  1.00  0.00    -0.178 NA
ATOM     21  C   UNL A   1      33.569  23.281  24.551  1.00  0.00     0.150 A 
ATOM     22  C   UNL A   1      32.633  22.225  22.842  1.00  0.00     0.162 A 
BRANCH  19  23
ATOM     23  C   UNL A   1      32.069  21.974  26.198  1.00  0.00     0.142 C 
ATOM     24  C   UNL A   1      30.616  22.420  26.201  1.00  0.00     0.029 C 
ENDBRANCH  19  23
BRANCH  21  25
ATOM     25  C   UNL A   1      34.608  23.974  25.325  1.00  0.00     0.276 C 
ATOM     26  O   UNL A   1      34.549  25.188  25.540  1.00  0.00    -0.267 OA
ATOM     27  N   UNL A   1      35.433  23.231  26.156  1.00  0.00    -0.318 N 
ATOM     28  H   UNL A   1      35.210  23.246  27.115  1.00  0.00     0.170 HD
BRANCH  27  29
ATOM     29  C   UNL A   1      36.524  22.478  25.800  1.00  0.00     0.082 A 
ATOM     30  C   UNL A   1      36.579  21.204  25.206  1.00  0.00     0.161 A 
ATOM     31  C   UNL A   1      37.842  22.869  25.947  1.00  0.00     0.059 A 
ATOM     32  N   UNL A   1      37.831  20.746  25.138  1.00  0.00    -0.179 NA
ATOM     33  N   UNL A   1      38.560  21.720  25.715  1.00  0.00    -0.271 N 
ATOM     34  C   UNL A   1      38.476  24.119  26.434  1.00  0.00     0.068 C 
ATOM     35  C   UNL A   1      39.884  21.399  26.197  1.00  0.00     0.174 C 
ENDBRANCH  27  29
ENDBRANCH  21  25
ENDBRANCH  15  18
ENDBRANCH   9  14
ENDBRANCH   6   8
ENDBRANCH   5   6
ENDBRANCH   4   5
ENDBRANCH   3   4
ENDBRANCH   2   3
ENDBRANCH   1   2
BRANCH   1  36
ATOM     36  C   UNL A   1      33.902  32.980  28.330  1.00  0.00     0.188 C 
BRANCH  36  37
ATOM     37  O   UNL A   1      34.028  32.606  29.689  1.00  0.00    -0.376 OA
BRANCH  37  38
ATOM     38  C   UNL A   1      35.297  32.693  30.309  1.00  0.00     0.202 C 
BRANCH  38  39
ATOM     39  C   UNL A   1      36.340  31.656  29.932  1.00  0.00     0.261 C 
BRANCH  39  40
ATOM     40  O   UNL A   1      35.988  30.331  30.271  1.00  0.00    -0.460 OA
BRANCH  40  41
ATOM     41  C   UNL A   1      36.733  29.687  31.183  1.00  0.00     0.338 C 
ATOM     42  O   UNL A   1      36.680  29.798  32.399  1.00  0.00    -0.246 OA
BRANCH  41  43
ATOM     43  C   UNL A   1      37.716  28.911  30.420  1.00  0.00     0.060 A 
ATOM     44  C   UNL A   1      38.295  27.809  31.047  1.00  0.00     0.016 A 
ATOM     45  C   UNL A   1      38.264  29.487  29.255  1.00  0.00     0.016 A 
ATOM     46  C   UNL A   1      39.574  27.473  30.675  1.00  0.00     0.010 A 
ATOM     47  C   UNL A   1      39.544  29.172  28.904  1.00  0.00     0.010 A 
ATOM     48  C   UNL A   1      40.207  28.254  29.700  1.00  0.00    -0.014 A 
BRANCH  48  49
ATOM     49  C   UNL A   1      41.636  28.173  29.592  1.00  0.00     0.031 A 
ATOM     50  C   UNL A   1      42.104  27.179  28.622  1.00  0.00     0.074 A 
ATOM     51  C   UNL A   1      42.431  28.980  30.316  1.00  0.00     0.049 A 
ATOM     52  N   UNL A   1      42.547  26.000  28.896  1.00  0.00    -0.248 NA
ATOM     53  C   UNL A   1      41.879  27.436  27.197  1.00  0.00     0.031 C 
ATOM     54  C   UNL A   1      42.080  30.179  31.084  1.00  0.00     0.029 A 
ATOM     55  N   UNL A   1      43.781  28.935  30.412  1.00  0.00    -0.354 N 
ATOM     56  C   UNL A   1      42.890  25.452  27.669  1.00  0.00     0.074 A 
ATOM     57  C   UNL A   1      42.259  26.272  26.668  1.00  0.00     0.031 C 
ATOM     58  C   UNL A   1      43.211  30.867  31.366  1.00  0.00     0.029 A 
ATOM     59  C   UNL A   1      44.355  30.087  30.923  1.00  0.00     0.049 A 
ATOM     60  H   UNL A   1      44.309  28.150  30.142  1.00  0.00     0.167 HD
ATOM     61  C   UNL A   1      43.883  24.529  27.577  1.00  0.00     0.034 A 
ATOM     62  C   UNL A   1      45.675  30.387  30.882  1.00  0.00     0.034 A 
ATOM     63  C   UNL A   1      44.245  24.008  28.874  1.00  0.00     0.049 A 
ATOM     64  C   UNL A   1      46.408  29.102  30.731  1.00  0.00     0.074 A 
ATOM     65  C   UNL A   1      43.571  23.335  29.874  1.00  0.00     0.029 A 
ATOM     66  N   UNL A   1      45.376  24.526  29.460  1.00  0.00    -0.354 N 
ATOM     67  N   UNL A   1      46.421  28.179  31.655  1.00  0.00    -0.248 NA
ATOM     68  C   UNL A   1      46.720  28.640  29.386  1.00  0.00     0.031 C 
ATOM     69  C   UNL A   1      44.084  23.875  31.091  1.00  0.00     0.029 A 
ATOM     70  C   UNL A   1      45.074  24.806  30.768  1.00  0.00     0.049 A 
ATOM     71  H   UNL A   1      46.245  24.670  29.019  1.00  0.00     0.167 HD
ATOM     72  C   UNL A   1      46.283  26.983  30.957  1.00  0.00     0.074 A 
ATOM     73  C   UNL A   1      46.586  27.320  29.566  1.00  0.00     0.031 C 
ATOM     74  C   UNL A   1      45.650  25.906  31.513  1.00  0.00     0.034 A 
BRANCH  61  75
ATOM     75  C   UNL A   1      44.788  24.366  26.385  1.00  0.00     0.023 A 
ATOM     76  C   UNL A   1      44.991  23.052  25.911  1.00  0.00     0.012 A 
ATOM     77  C   UNL A   1      45.648  25.372  25.889  1.00  0.00     0.148 A 
ATOM     78  C   UNL A   1      46.034  22.747  25.032  1.00  0.00     0.002 A 
ATOM     79  C   UNL A   1      46.632  25.077  24.955  1.00  0.00     0.091 A 
ATOM     80  F   UNL A   1      45.622  26.600  26.414  1.00  0.00    -0.205 F 
ATOM     81  C   UNL A   1      46.851  23.760  24.549  1.00  0.00     0.022 A 
BRANCH  79  82
ATOM     82  S   UNL A   1      47.690  26.357  24.270  1.00  0.00     0.127 S 
ATOM     83  O   UNL A   1      48.513  26.705  25.425  1.00  0.00    -0.237 OA
ATOM     84  O   UNL A   1      48.385  25.634  23.205  1.00  0.00    -0.237 OA
ATOM     85  O   UNL A   1      46.785  27.395  23.791  1.00  0.00    -0.744 OA
ENDBRANCH  79  82
ENDBRANCH  61  75
BRANCH  62  86
ATOM     86  C   UNL A   1      46.303  31.707  30.657  1.00  0.00     0.023 A 
ATOM     87  C   UNL A   1      47.164  32.254  31.626  1.00  0.00     0.012 A 
ATOM     88  C   UNL A   1      46.268  32.312  29.377  1.00  0.00     0.148 A 
ATOM     89  C   UNL A   1      47.981  33.352  31.326  1.00  0.00     0.002 A 
ATOM     90  C   UNL A   1      47.075  33.407  29.086  1.00  0.00     0.091 A 
ATOM     91  F   UNL A   1      45.515  31.757  28.420  1.00  0.00    -0.205 F 
ATOM     92  C   UNL A   1      47.942  33.924  30.056  1.00  0.00     0.022 A 
BRANCH  90  93
ATOM     93  S   UNL A   1      47.089  34.178  27.462  1.00  0.00     0.127 S 
ATOM     94  O   UNL A   1      45.676  34.504  27.269  1.00  0.00    -0.237 OA
ATOM     95  O   UNL A   1      47.958  35.331  27.683  1.00  0.00    -0.237 OA
ATOM     96  O   UNL A   1      47.600  33.168  26.544  1.00  0.00    -0.744 OA
ENDBRANCH  90  93
ENDBRANCH  62  86
BRANCH  74  97
ATOM     97  C   UNL A   1      45.273  25.988  32.974  1.00  0.00     0.023 A 
ATOM     98  C   UNL A   1      46.203  25.705  33.999  1.00  0.00     0.012 A 
ATOM     99  C   UNL A   1      44.028  26.533  33.326  1.00  0.00     0.148 A 
ATOM    100  C   UNL A   1      45.890  25.933  35.342  1.00  0.00     0.002 A 
ATOM    101  C   UNL A   1      43.735  26.797  34.660  1.00  0.00     0.091 A 
ATOM    102  F   UNL A   1      43.158  26.813  32.343  1.00  0.00    -0.205 F 
ATOM    103  C   UNL A   1      44.658  26.490  35.671  1.00  0.00     0.022 A 
BRANCH 101 104
ATOM    104  S   UNL A   1      42.218  27.627  35.145  1.00  0.00     0.127 S 
ATOM    105  O   UNL A   1      42.477  27.942  36.548  1.00  0.00    -0.237 OA
ATOM    106  O   UNL A   1      42.196  28.787  34.252  1.00  0.00    -0.237 OA
ATOM    107  O   UNL A   1      41.143  26.671  34.903  1.00  0.00    -0.744 OA
ENDBRANCH 101 104
ENDBRANCH  74  97
ENDBRANCH  48  49
ENDBRANCH  41  43
ENDBRANCH  40  41
ENDBRANCH  39  40
ENDBRANCH  38  39
ENDBRANCH  37  38
ENDBRANCH  36  37
ENDBRANCH   1  36
TORSDOF 25
ENDMDL
MODEL 2
REMARK VINA RESULT:     -10.1      5.121     12.072
REMARK SMILES CCn1ncc(NC(=O)[C@@H]2CCCC[C@@H]2C(=O)OCCOCCOCCOC(=O)c2ccc(-c3c4nc(c(-c5cccc(S(=O)(=O)[O-])c5F)c5ccc([nH]5)c(-c5cccc(S(=O)(=O)[O-])c5F)c5nc(c(-c6cccc(S(=O)(=O)[O-])c6F)c6ccc3[nH]6)C=C5)C=C4)cc2)c1C(=O)Nc1cnn(C)c1C
REMARK SMILES IDX 22 1 21 2 20 3 19 4 18 5 16 6 17 7 15 8 10 9 11 10 12 11
REMARK SMILES IDX 14 12 13 13 8 14 7 15 9 17 6 18 3 19 4 20 93 21 5 22 2 23
REMARK SMILES IDX 1 24 94 25 95 26 96 27 97 29 98 30 102 31 99 32 100 33
REMARK SMILES IDX 103 34 101 35 23 36 24 37 25 38 26 39 27 40 28 41 29 42
REMARK SMILES IDX 30 43 31 44 92 45 32 46 91 47 33 48 34 49 35 50 85 51 36 52
REMARK SMILES IDX 90 53 84 54 86 55 37 56 89 57 83 58 82 59 38 61 70 62 50 63
REMARK SMILES IDX 69 64 51 65 54 66 68 67 87 68 52 69 53 70 67 72 88 73 55 74
REMARK SMILES IDX 39 75 40 76 48 77 41 78 43 79 49 80 42 81 44 82 45 83 46 84
REMARK SMILES IDX 47 85 71 86 72 87 80 88 73 89 75 90 81 91 74 92 76 93 77 94
REMARK SMILES IDX 78 95 79 96 56 97 57 98 65 99 58 100 60 101 66 102 59 103
REMARK SMILES IDX 61 104 62 105 63 106 64 107
REMARK H PARENT 7 16 96 28 86 60 54 71
REMARK Flexibility Score: inf
ROOT
ATOM      1  C   UNL A   1      34.692  35.396  32.522  1.00  0.00     0.188 C 
ENDROOT
BRANCH   1   2
ATOM      2  O   UNL A   1      34.576  34.509  33.633  1.00  0.00    -0.376 OA
BRANCH   2   3
ATOM      3  C   UNL A   1      34.682  33.113  33.442  1.00  0.00     0.202 C 
BRANCH   3   4
ATOM      4  C   UNL A   1      35.756  32.642  32.446  1.00  0.00     0.261 C 
BRANCH   4   5
ATOM      5  O   UNL A   1      37.128  32.773  32.865  1.00  0.00    -0.463 OA
BRANCH   5   6
ATOM      6  C   UNL A   1      37.569  31.816  33.730  1.00  0.00     0.309 C 
ATOM      7  O   UNL A   1      37.647  30.631  33.437  1.00  0.00    -0.252 OA
BRANCH   6   8
ATOM      8  C   UNL A   1      37.872  32.395  35.128  1.00  0.00     0.111 C 
ATOM      9  C   UNL A   1      39.120  33.324  35.223  1.00  0.00     0.093 C 
ATOM     10  C   UNL A   1      40.301  32.601  34.671  1.00  0.00     0.014 C 
ATOM     11  C   UNL A   1      40.592  31.289  35.365  1.00  0.00     0.001 C 
ATOM     12  C   UNL A   1      38.134  31.172  36.039  1.00  0.00     0.016 C 
ATOM     13  C   UNL A   1      39.396  30.400  35.644  1.00  0.00     0.001 C 
BRANCH   9  14
ATOM     14  C   UNL A   1      38.982  34.821  34.884  1.00  0.00     0.228 C 
ATOM     15  N   UNL A   1      39.837  35.844  35.197  1.00  0.00    -0.322 N 
ATOM     16  H   UNL A   1      39.444  36.730  35.021  1.00  0.00     0.170 HD
ATOM     17  O   UNL A   1      37.963  35.158  34.258  1.00  0.00    -0.274 OA
BRANCH  15  18
ATOM     18  C   UNL A   1      41.133  35.929  35.705  1.00  0.00     0.092 A 
ATOM     19  N   UNL A   1      43.112  35.641  36.565  1.00  0.00    -0.258 N 
ATOM     20  N   UNL A   1      43.304  36.617  35.661  1.00  0.00    -0.178 NA
ATOM     21  C   UNL A   1      41.774  35.428  36.854  1.00  0.00     0.150 A 
ATOM     22  C   UNL A   1      42.099  36.796  35.141  1.00  0.00     0.162 A 
BRANCH  19  23
ATOM     23  C   UNL A   1      44.301  34.899  36.929  1.00  0.00     0.142 C 
ATOM     24  C   UNL A   1      45.541  35.779  36.925  1.00  0.00     0.029 C 
ENDBRANCH  19  23
BRANCH  21  25
ATOM     25  C   UNL A   1      41.154  34.886  38.072  1.00  0.00     0.276 C 
ATOM     26  O   UNL A   1      40.931  33.679  38.198  1.00  0.00    -0.267 OA
ATOM     27  N   UNL A   1      41.187  35.641  39.233  1.00  0.00    -0.318 N 
ATOM     28  H   UNL A   1      41.870  35.387  39.897  1.00  0.00     0.170 HD
BRANCH  27  29
ATOM     29  C   UNL A   1      40.381  36.700  39.570  1.00  0.00     0.082 A 
ATOM     30  C   UNL A   1      39.064  36.987  39.171  1.00  0.00     0.161 A 
ATOM     31  C   UNL A   1      40.733  37.724  40.432  1.00  0.00     0.059 A 
ATOM     32  N   UNL A   1      38.667  38.185  39.607  1.00  0.00    -0.179 NA
ATOM     33  N   UNL A   1      39.746  38.664  40.255  1.00  0.00    -0.271 N 
ATOM     34  C   UNL A   1      41.943  37.985  41.249  1.00  0.00     0.068 C 
ATOM     35  C   UNL A   1      39.835  40.087  40.491  1.00  0.00     0.174 C 
ENDBRANCH  27  29
ENDBRANCH  21  25
ENDBRANCH  15  18
ENDBRANCH   9  14
ENDBRANCH   6   8
ENDBRANCH   5   6
ENDBRANCH   4   5
ENDBRANCH   3   4
ENDBRANCH   2   3
ENDBRANCH   1   2
BRANCH   1  36
ATOM     36  C   UNL A   1      33.477  35.785  31.642  1.00  0.00     0.188 C 
BRANCH  36  37
ATOM     37  O   UNL A   1      33.189  34.850  30.620  1.00  0.00    -0.376 OA
BRANCH  37  38
ATOM     38  C   UNL A   1      34.173  34.581  29.640  1.00  0.00     0.202 C 
BRANCH  38  39
ATOM     39  C   UNL A   1      34.128  33.233  28.944  1.00  0.00     0.261 C 
BRANCH  39  40
ATOM     40  O   UNL A   1      35.356  32.838  28.368  1.00  0.00    -0.460 OA
BRANCH  40  41
ATOM     41  C   UNL A   1      35.558  31.532  28.131  1.00  0.00     0.338 C 
ATOM     42  O   UNL A   1      34.963  30.820  27.335  1.00  0.00    -0.246 OA
BRANCH  41  43
ATOM     43  C   UNL A   1      36.557  31.098  29.113  1.00  0.00     0.060 A 
ATOM     44  C   UNL A   1      37.736  31.835  29.203  1.00  0.00     0.016 A 
ATOM     45  C   UNL A   1      36.434  29.805  29.663  1.00  0.00     0.016 A 
ATOM     46  C   UNL A   1      38.871  31.164  29.586  1.00  0.00     0.010 A 
ATOM     47  C   UNL A   1      37.566  29.130  30.017  1.00  0.00     0.010 A 
ATOM     48  C   UNL A   1      38.771  29.793  29.856  1.00  0.00    -0.014 A 
BRANCH  48  49
ATOM     49  C   UNL A   1      39.977  29.015  29.864  1.00  0.00     0.031 A 
ATOM     50  C   UNL A   1      40.541  28.806  31.200  1.00  0.00     0.074 A 
ATOM     51  C   UNL A   1      40.487  28.519  28.723  1.00  0.00     0.049 A 
ATOM     52  N   UNL A   1      41.532  29.449  31.716  1.00  0.00    -0.248 NA
ATOM     53  C   UNL A   1      39.818  27.936  32.134  1.00  0.00     0.031 C 
ATOM     54  C   UNL A   1      39.869  28.424  27.397  1.00  0.00     0.029 A 
ATOM     55  N   UNL A   1      41.670  27.882  28.560  1.00  0.00    -0.354 N 
ATOM     56  C   UNL A   1      41.713  28.884  32.969  1.00  0.00     0.074 A 
ATOM     57  C   UNL A   1      40.516  28.136  33.254  1.00  0.00     0.031 C 
ATOM     58  C   UNL A   1      40.587  27.563  26.638  1.00  0.00     0.029 A 
ATOM     59  C   UNL A   1      41.775  27.169  27.377  1.00  0.00     0.049 A 
ATOM     60  H   UNL A   1      42.394  27.921  29.225  1.00  0.00     0.167 HD
ATOM     61  C   UNL A   1      42.942  28.862  33.548  1.00  0.00     0.034 A 
ATOM     62  C   UNL A   1      42.735  26.256  27.097  1.00  0.00     0.034 A 
ATOM     63  C   UNL A   1      43.862  29.744  32.871  1.00  0.00     0.049 A 
ATOM     64  C   UNL A   1      43.894  26.561  27.978  1.00  0.00     0.074 A 
ATOM     65  C   UNL A   1      43.896  31.100  32.608  1.00  0.00     0.029 A 
ATOM     66  N   UNL A   1      44.747  29.165  31.991  1.00  0.00    -0.354 N 
ATOM     67  N   UNL A   1      44.596  27.657  27.874  1.00  0.00    -0.248 NA
ATOM     68  C   UNL A   1      43.976  25.891  29.268  1.00  0.00     0.031 C 
ATOM     69  C   UNL A   1      44.435  31.206  31.291  1.00  0.00     0.029 A 
ATOM     70  C   UNL A   1      44.747  29.919  30.846  1.00  0.00     0.049 A 
ATOM     71  H   UNL A   1      45.283  28.356  32.155  1.00  0.00     0.167 HD
ATOM     72  C   UNL A   1      44.824  28.053  29.188  1.00  0.00     0.074 A 
ATOM     73  C   UNL A   1      44.519  26.873  29.997  1.00  0.00     0.031 C 
ATOM     74  C   UNL A   1      44.947  29.375  29.519  1.00  0.00     0.034 A 
BRANCH  61  75
ATOM     75  C   UNL A   1      43.429  27.782  34.476  1.00  0.00     0.023 A 
ATOM     76  C   UNL A   1      43.945  28.195  35.723  1.00  0.00     0.012 A 
ATOM     77  C   UNL A   1      43.660  26.441  34.093  1.00  0.00     0.148 A 
ATOM     78  C   UNL A   1      44.702  27.333  36.521  1.00  0.00     0.002 A 
ATOM     79  C   UNL A   1      44.345  25.566  34.926  1.00  0.00     0.091 A 
ATOM     80  F   UNL A   1      43.346  26.028  32.862  1.00  0.00    -0.205 F 
ATOM     81  C   UNL A   1      44.897  26.016  36.126  1.00  0.00     0.022 A 
BRANCH  79  82
ATOM     82  S   UNL A   1      44.590  23.843  34.478  1.00  0.00     0.127 S 
ATOM     83  O   UNL A   1      45.571  23.420  35.473  1.00  0.00    -0.237 OA
ATOM     84  O   UNL A   1      43.246  23.294  34.657  1.00  0.00    -0.237 OA
ATOM     85  O   UNL A   1      45.046  23.861  33.094  1.00  0.00    -0.744 OA
ENDBRANCH  79  82
ENDBRANCH  61  75
BRANCH  62  86
ATOM     86  C   UNL A   1      42.595  24.982  26.359  1.00  0.00     0.023 A 
ATOM     87  C   UNL A   1      43.566  24.603  25.414  1.00  0.00     0.012 A 
ATOM     88  C   UNL A   1      41.648  24.013  26.769  1.00  0.00     0.148 A 
ATOM     89  C   UNL A   1      43.609  23.296  24.910  1.00  0.00     0.002 A 
ATOM     90  C   UNL A   1      41.690  22.719  26.261  1.00  0.00     0.091 A 
ATOM     91  F   UNL A   1      40.768  24.333  27.725  1.00  0.00    -0.205 F 
ATOM     92  C   UNL A   1      42.676  22.353  25.339  1.00  0.00     0.022 A 
BRANCH  90  93
ATOM     93  S   UNL A   1      40.531  21.448  26.787  1.00  0.00     0.127 S 
ATOM     94  O   UNL A   1      40.726  21.442  28.237  1.00  0.00    -0.237 OA
ATOM     95  O   UNL A   1      39.255  22.002  26.343  1.00  0.00    -0.237 OA
ATOM     96  O   UNL A   1      40.953  20.222  26.123  1.00  0.00    -0.744 OA
ENDBRANCH  90  93
ENDBRANCH  62  86
BRANCH  74  97
ATOM     97  C   UNL A   1      45.018  30.379  28.393  1.00  0.00     0.023 A 
ATOM     98  C   UNL A   1      43.855  30.888  27.776  1.00  0.00     0.012 A 
ATOM     99  C   UNL A   1      46.258  30.958  28.075  1.00  0.00     0.148 A 
ATOM    100  C   UNL A   1      43.927  31.928  26.845  1.00  0.00     0.002 A 
ATOM    101  C   UNL A   1      46.322  32.020  27.179  1.00  0.00     0.091 A 
ATOM    102  F   UNL A   1      47.355  30.477  28.680  1.00  0.00    -0.205 F 
ATOM    103  C   UNL A   1      45.161  32.502  26.555  1.00  0.00     0.022 A 
BRANCH 101 104
ATOM    104  S   UNL A   1      47.860  32.886  26.853  1.00  0.00     0.127 S 
ATOM    105  O   UNL A   1      47.471  33.812  25.792  1.00  0.00    -0.237 OA
ATOM    106  O   UNL A   1      48.144  33.519  28.143  1.00  0.00    -0.237 OA
ATOM    107  O   UNL A   1      48.824  31.861  26.470  1.00  0.00    -0.744 OA
ENDBRANCH 101 104
ENDBRANCH  74  97
ENDBRANCH  48  49
ENDBRANCH  41  43
ENDBRANCH  40  41
ENDBRANCH  39  40
ENDBRANCH  38  39
ENDBRANCH  37  38
ENDBRANCH  36  37
ENDBRANCH   1  36
TORSDOF 25
ENDMDL
MODEL 3
REMARK VINA RESULT:     -10.1      3.631      8.271
REMARK SMILES CCn1ncc(NC(=O)[C@@H]2CCCC[C@@H]2C(=O)OCCOCCOCCOC(=O)c2ccc(-c3c4nc(c(-c5cccc(S(=O)(=O)[O-])c5F)c5ccc([nH]5)c(-c5cccc(S(=O)(=O)[O-])c5F)c5nc(c(-c6cccc(S(=O)(=O)[O-])c6F)c6ccc3[nH]6)C=C5)C=C4)cc2)c1C(=O)Nc1cnn(C)c1C
REMARK SMILES IDX 22 1 21 2 20 3 19 4 18 5 16 6 17 7 15 8 10 9 11 10 12 11
REMARK SMILES IDX 14 12 13 13 8 14 7 15 9 17 6 18 3 19 4 20 93 21 5 22 2 23
REMARK SMILES IDX 1 24 94 25 95 26 96 27 97 29 98 30 102 31 99 32 100 33
REMARK SMILES IDX 103 34 101 35 23 36 24 37 25 38 26 39 27 40 28 41 29 42
REMARK SMILES IDX 30 43 31 44 92 45 32 46 91 47 33 48 34 49 35 50 85 51 36 52
REMARK SMILES IDX 90 53 84 54 86 55 37 56 89 57 83 58 82 59 38 61 70 62 50 63
REMARK SMILES IDX 69 64 51 65 54 66 68 67 87 68 52 69 53 70 67 72 88 73 55 74
REMARK SMILES IDX 39 75 40 76 48 77 41 78 43 79 49 80 42 81 44 82 45 83 46 84
REMARK SMILES IDX 47 85 71 86 72 87 80 88 73 89 75 90 81 91 74 92 76 93 77 94
REMARK SMILES IDX 78 95 79 96 56 97 57 98 65 99 58 100 60 101 66 102 59 103
REMARK SMILES IDX 61 104 62 105 63 106 64 107
REMARK H PARENT 7 16 96 28 86 60 54 71
REMARK Flexibility Score: inf
ROOT
ATOM      1  C   UNL A   1      36.029  31.698  28.111  1.00  0.00     0.188 C 
ENDROOT
BRANCH   1   2
ATOM      2  O   UNL A   1      35.170  30.569  28.252  1.00  0.00    -0.376 OA
BRANCH   2   3
ATOM      3  C   UNL A   1      35.372  29.418  27.456  1.00  0.00     0.202 C 
BRANCH   3   4
ATOM      4  C   UNL A   1      34.288  29.118  26.407  1.00  0.00     0.261 C 
BRANCH   4   5
ATOM      5  O   UNL A   1      34.075  27.732  26.076  1.00  0.00    -0.463 OA
BRANCH   5   6
ATOM      6  C   UNL A   1      33.495  27.503  24.865  1.00  0.00     0.309 C 
ATOM      7  O   UNL A   1      34.044  27.751  23.799  1.00  0.00    -0.252 OA
BRANCH   6   8
ATOM      8  C   UNL A   1      32.050  26.979  25.005  1.00  0.00     0.111 C 
ATOM      9  C   UNL A   1      31.313  26.652  23.671  1.00  0.00     0.093 C 
ATOM     10  C   UNL A   1      31.368  27.849  22.785  1.00  0.00     0.014 C 
ATOM     11  C   UNL A   1      30.770  29.094  23.402  1.00  0.00     0.001 C 
ATOM     12  C   UNL A   1      31.260  28.111  25.706  1.00  0.00     0.016 C 
ATOM     13  C   UNL A   1      31.145  29.372  24.845  1.00  0.00     0.001 C 
BRANCH   9  14
ATOM     14  C   UNL A   1      31.507  25.272  23.013  1.00  0.00     0.228 C 
ATOM     15  N   UNL A   1      31.693  24.060  23.623  1.00  0.00    -0.322 N 
ATOM     16  H   UNL A   1      31.964  23.357  22.988  1.00  0.00     0.170 HD
ATOM     17  O   UNL A   1      31.511  25.244  21.771  1.00  0.00    -0.274 OA
BRANCH  15  18
ATOM     18  C   UNL A   1      31.586  23.584  24.930  1.00  0.00     0.092 A 
ATOM     19  N   UNL A   1      31.843  22.773  26.933  1.00  0.00    -0.258 N 
ATOM     20  N   UNL A   1      30.859  23.677  27.085  1.00  0.00    -0.178 NA
ATOM     21  C   UNL A   1      32.082  22.453  25.607  1.00  0.00     0.150 A 
ATOM     22  C   UNL A   1      30.699  24.166  25.865  1.00  0.00     0.162 A 
BRANCH  19  23
ATOM     23  C   UNL A   1      32.565  22.443  28.144  1.00  0.00     0.142 C 
ATOM     24  C   UNL A   1      34.071  22.491  27.936  1.00  0.00     0.029 C 
ENDBRANCH  19  23
BRANCH  21  25
ATOM     25  C   UNL A   1      32.641  21.224  25.027  1.00  0.00     0.276 C 
ATOM     26  O   UNL A   1      31.983  20.182  24.971  1.00  0.00    -0.267 OA
ATOM     27  N   UNL A   1      33.735  21.319  24.182  1.00  0.00    -0.318 N 
ATOM     28  H   UNL A   1      33.545  21.263  23.217  1.00  0.00     0.170 HD
BRANCH  27  29
ATOM     29  C   UNL A   1      35.053  21.481  24.530  1.00  0.00     0.082 A 
ATOM     30  C   UNL A   1      36.016  20.516  24.874  1.00  0.00     0.161 A 
ATOM     31  C   UNL A   1      35.717  22.694  24.585  1.00  0.00     0.059 A 
ATOM     32  N   UNL A   1      37.155  21.079  25.281  1.00  0.00    -0.179 NA
ATOM     33  N   UNL A   1      36.898  22.400  25.222  1.00  0.00    -0.271 N 
ATOM     34  C   UNL A   1      35.307  24.085  24.271  1.00  0.00     0.068 C 
ATOM     35  C   UNL A   1      37.737  23.302  25.979  1.00  0.00     0.174 C 
ENDBRANCH  27  29
ENDBRANCH  21  25
ENDBRANCH  15  18
ENDBRANCH   9  14
ENDBRANCH   6   8
ENDBRANCH   5   6
ENDBRANCH   4   5
ENDBRANCH   3   4
ENDBRANCH   2   3
ENDBRANCH   1   2
BRANCH   1  36
ATOM     36  C   UNL A   1      35.484  33.139  27.941  1.00  0.00     0.188 C 
BRANCH  36  37
ATOM     37  O   UNL A   1      35.359  33.850  29.158  1.00  0.00    -0.376 OA
BRANCH  37  38
ATOM     38  C   UNL A   1      34.091  33.926  29.780  1.00  0.00     0.202 C 
BRANCH  38  39
ATOM     39  C   UNL A   1      33.759  35.187  30.556  1.00  0.00     0.261 C 
BRANCH  39  40
ATOM     40  O   UNL A   1      34.363  35.258  31.831  1.00  0.00    -0.460 OA
BRANCH  40  41
ATOM     41  C   UNL A   1      34.150  34.253  32.695  1.00  0.00     0.338 C 
ATOM     42  O   UNL A   1      33.083  33.728  32.976  1.00  0.00    -0.246 OA
BRANCH  41  43
ATOM     43  C   UNL A   1      35.446  33.993  33.332  1.00  0.00     0.060 A 
ATOM     44  C   UNL A   1      36.448  34.946  33.166  1.00  0.00     0.016 A 
ATOM     45  C   UNL A   1      35.719  32.684  33.780  1.00  0.00     0.016 A 
ATOM     46  C   UNL A   1      37.748  34.501  33.171  1.00  0.00     0.010 A 
ATOM     47  C   UNL A   1      37.007  32.235  33.757  1.00  0.00     0.010 A 
ATOM     48  C   UNL A   1      37.977  33.130  33.338  1.00  0.00    -0.014 A 
BRANCH  48  49
ATOM     49  C   UNL A   1      39.258  32.606  32.954  1.00  0.00     0.031 A 
ATOM     50  C   UNL A   1      40.262  32.649  34.021  1.00  0.00     0.074 A 
ATOM     51  C   UNL A   1      39.460  32.105  31.723  1.00  0.00     0.049 A 
ATOM     52  N   UNL A   1      41.202  33.522  34.145  1.00  0.00    -0.248 NA
ATOM     53  C   UNL A   1      40.095  31.756  35.171  1.00  0.00     0.031 C 
ATOM     54  C   UNL A   1      38.476  31.755  30.693  1.00  0.00     0.029 A 
ATOM     55  N   UNL A   1      40.632  31.697  31.182  1.00  0.00    -0.354 N 
ATOM     56  C   UNL A   1      41.903  33.135  35.276  1.00  0.00     0.074 A 
ATOM     57  C   UNL A   1      41.061  32.201  35.977  1.00  0.00     0.031 C 
ATOM     58  C   UNL A   1      39.073  30.978  29.760  1.00  0.00     0.029 A 
ATOM     59  C   UNL A   1      40.494  30.901  30.057  1.00  0.00     0.049 A 
ATOM     60  H   UNL A   1      41.507  31.945  31.557  1.00  0.00     0.167 HD
ATOM     61  C   UNL A   1      43.228  33.413  35.398  1.00  0.00     0.034 A 
ATOM     62  C   UNL A   1      41.483  30.169  29.492  1.00  0.00     0.034 A 
ATOM     63  C   UNL A   1      43.658  34.384  34.420  1.00  0.00     0.049 A 
ATOM     64  C   UNL A   1      42.771  30.783  29.911  1.00  0.00     0.074 A 
ATOM     65  C   UNL A   1      43.306  35.685  34.121  1.00  0.00     0.029 A 
ATOM     66  N   UNL A   1      44.308  33.901  33.308  1.00  0.00    -0.354 N 
ATOM     67  N   UNL A   1      43.143  31.978  29.540  1.00  0.00    -0.248 NA
ATOM     68  C   UNL A   1      43.417  30.277  31.114  1.00  0.00     0.031 C 
ATOM     69  C   UNL A   1      43.345  35.759  32.697  1.00  0.00     0.029 A 
ATOM     70  C   UNL A   1      43.767  34.519  32.210  1.00  0.00     0.049 A 
ATOM     71  H   UNL A   1      45.031  33.232  33.302  1.00  0.00     0.167 HD
ATOM     72  C   UNL A   1      43.698  32.544  30.683  1.00  0.00     0.074 A 
ATOM     73  C   UNL A   1      43.941  31.416  31.583  1.00  0.00     0.031 C 
ATOM     74  C   UNL A   1      43.632  33.891  30.913  1.00  0.00     0.034 A 
BRANCH  61  75
ATOM     75  C   UNL A   1      44.217  32.549  36.135  1.00  0.00     0.023 A 
ATOM     76  C   UNL A   1      44.834  31.514  35.400  1.00  0.00     0.012 A 
ATOM     77  C   UNL A   1      44.362  32.520  37.541  1.00  0.00     0.148 A 
ATOM     78  C   UNL A   1      45.513  30.472  36.037  1.00  0.00     0.002 A 
ATOM     79  C   UNL A   1      45.105  31.525  38.163  1.00  0.00     0.091 A 
ATOM     80  F   UNL A   1      43.672  33.368  38.308  1.00  0.00    -0.205 F 
ATOM     81  C   UNL A   1      45.654  30.480  37.419  1.00  0.00     0.022 A 
BRANCH  79  82
ATOM     82  S   UNL A   1      45.351  31.513  39.943  1.00  0.00     0.127 S 
ATOM     83  O   UNL A   1      45.867  32.859  40.175  1.00  0.00    -0.237 OA
ATOM     84  O   UNL A   1      43.993  31.275  40.431  1.00  0.00    -0.237 OA
ATOM     85  O   UNL A   1      46.276  30.417  40.201  1.00  0.00    -0.744 OA
ENDBRANCH  79  82
ENDBRANCH  61  75
BRANCH  62  86
ATOM     86  C   UNL A   1      41.389  28.824  28.886  1.00  0.00     0.023 A 
ATOM     87  C   UNL A   1      40.441  27.899  29.362  1.00  0.00     0.012 A 
ATOM     88  C   UNL A   1      42.047  28.536  27.666  1.00  0.00     0.148 A 
ATOM     89  C   UNL A   1      40.141  26.738  28.638  1.00  0.00     0.002 A 
ATOM     90  C   UNL A   1      41.752  27.378  26.955  1.00  0.00     0.091 A 
ATOM     91  F   UNL A   1      42.893  29.441  27.158  1.00  0.00    -0.205 F 
ATOM     92  C   UNL A   1      40.791  26.481  27.432  1.00  0.00     0.022 A 
BRANCH  90  93
ATOM     93  S   UNL A   1      42.537  26.996  25.382  1.00  0.00     0.127 S 
ATOM     94  O   UNL A   1      41.768  25.835  24.934  1.00  0.00    -0.237 OA
ATOM     95  O   UNL A   1      42.298  28.219  24.621  1.00  0.00    -0.237 OA
ATOM     96  O   UNL A   1      43.931  26.706  25.691  1.00  0.00    -0.744 OA
ENDBRANCH  90  93
ENDBRANCH  62  86
BRANCH  74  97
ATOM     97  C   UNL A   1      43.108  34.769  29.800  1.00  0.00     0.023 A 
ATOM     98  C   UNL A   1      41.726  34.879  29.528  1.00  0.00     0.012 A 
ATOM     99  C   UNL A   1      43.995  35.636  29.142  1.00  0.00     0.148 A 
ATOM    100  C   UNL A   1      41.244  35.809  28.603  1.00  0.00     0.002 A 
ATOM    101  C   UNL A   1      43.508  36.588  28.253  1.00  0.00     0.091 A 
ATOM    102  F   UNL A   1      45.304  35.533  29.421  1.00  0.00    -0.205 F 
ATOM    103  C   UNL A   1      42.135  36.672  27.973  1.00  0.00     0.022 A 
BRANCH 101 104
ATOM    104  S   UNL A   1      44.585  37.812  27.500  1.00  0.00     0.127 S 
ATOM    105  O   UNL A   1      43.645  38.599  26.705  1.00  0.00    -0.237 OA
ATOM    106  O   UNL A   1      45.132  38.508  28.666  1.00  0.00    -0.237 OA
ATOM    107  O   UNL A   1      45.576  37.060  26.739  1.00  0.00    -0.744 OA
ENDBRANCH 101 104
ENDBRANCH  74  97
ENDBRANCH  48  49
ENDBRANCH  41  43
ENDBRANCH  40  41
ENDBRANCH  39  40
ENDBRANCH  38  39
ENDBRANCH  37  38
ENDBRANCH  36  37
ENDBRANCH   1  36
TORSDOF 25
ENDMDL
