MODEL 1
REMARK VINA RESULT:     -11.0      0.000      0.000
REMARK SMILES O=C1C[C@@H](C(=O)OCCOCCOCCOC(=O)c2ccc(-c3c4nc(c(-c5cccc(S(=O)(=O)[O-])c5F)c5ccc([nH]5)c(-c5cccc(S(=O)(=O)[O-])c5F)c5nc(c(-c6cccc(S(=O)(=O)[O-])c6F)c6ccc3[nH]6)C=C5)C=C4)cc2)C2(CC[NH+](Cc3c[nH]nc3-c3ccc(Cl)cc3)CC2)N1
REMARK SMILES IDX 11 1 10 2 9 3 8 4 7 5 5 6 6 7 4 8 1 9 2 10 3 11 101 12 82 13
REMARK SMILES IDX 83 15 100 16 84 17 99 18 85 19 86 21 87 22 88 23 91 24 89 25
REMARK SMILES IDX 90 26 92 28 93 29 98 30 94 31 97 32 95 33 96 34 12 35 13 36
REMARK SMILES IDX 14 37 15 38 16 39 17 40 18 41 19 42 20 43 81 44 21 45 80 46
REMARK SMILES IDX 22 47 23 48 24 49 74 50 25 51 79 52 73 53 75 54 26 55 78 56
REMARK SMILES IDX 72 57 71 58 27 60 59 61 39 62 58 63 40 64 43 65 57 66 76 67
REMARK SMILES IDX 41 68 42 69 56 71 77 72 44 73 28 74 29 75 37 76 30 77 32 78
REMARK SMILES IDX 38 79 31 80 33 81 34 82 35 83 36 84 60 85 61 86 69 87 62 88
REMARK SMILES IDX 64 89 70 90 63 91 65 92 66 93 67 94 68 95 45 96 46 97 54 98
REMARK SMILES IDX 47 99 49 100 55 101 48 102 50 103 51 104 52 105 53 106
REMARK H PARENT 101 14 85 20 89 27 75 59 43 70
REMARK Flexibility Score: inf
ROOT
ATOM      1  C   UNL A   1      39.469  22.226  26.115  1.00  0.00     0.188 C 
ENDROOT
BRANCH   1   2
ATOM      2  O   UNL A   1      38.128  21.754  26.063  1.00  0.00    -0.376 OA
BRANCH   2   3
ATOM      3  C   UNL A   1      37.196  22.356  25.181  1.00  0.00     0.202 C 
BRANCH   3   4
ATOM      4  C   UNL A   1      36.087  21.455  24.597  1.00  0.00     0.261 C 
BRANCH   4   5
ATOM      5  O   UNL A   1      35.340  20.575  25.485  1.00  0.00    -0.463 OA
BRANCH   5   6
ATOM      6  C   UNL A   1      34.545  21.201  26.387  1.00  0.00     0.311 C 
ATOM      7  O   UNL A   1      34.967  21.635  27.457  1.00  0.00    -0.252 OA
BRANCH   6   8
ATOM      8  C   UNL A   1      33.038  21.253  26.106  1.00  0.00     0.134 C 
ATOM      9  O   UNL A   1      32.518  19.641  22.962  1.00  0.00    -0.275 OA
ATOM     10  C   UNL A   1      32.517  20.355  23.956  1.00  0.00     0.221 C 
ATOM     11  C   UNL A   1      32.733  19.922  25.377  1.00  0.00     0.117 C 
ATOM     12  N   UNL A   1      32.259  21.698  23.949  1.00  0.00    -0.349 N 
ATOM     13  C   UNL A   1      32.223  22.285  25.273  1.00  0.00     0.064 C 
ATOM     14  H   UNL A   1      32.109  22.214  23.125  1.00  0.00     0.164 HD
ATOM     15  C   UNL A   1      32.716  23.721  25.165  1.00  0.00     0.091 C 
ATOM     16  C   UNL A   1      30.727  22.308  25.764  1.00  0.00     0.091 C 
ATOM     17  C   UNL A   1      32.432  24.481  26.442  1.00  0.00     0.264 C 
ATOM     18  C   UNL A   1      30.388  23.301  26.894  1.00  0.00     0.264 C 
ATOM     19  N   UNL A   1      31.039  24.597  26.802  1.00  0.00    -0.331 N 
ATOM     20  H   UNL A   1      31.008  24.921  27.768  1.00  0.00     0.348 HD
BRANCH  19  21
ATOM     21  C   UNL A   1      30.304  25.753  26.272  1.00  0.00     0.303 C 
BRANCH  21  22
ATOM     22  C   UNL A   1      31.125  26.997  26.214  1.00  0.00     0.052 A 
ATOM     23  C   UNL A   1      31.386  27.832  27.285  1.00  0.00     0.115 A 
ATOM     24  C   UNL A   1      31.864  27.587  25.129  1.00  0.00     0.101 A 
ATOM     25  N   UNL A   1      32.039  28.907  26.784  1.00  0.00    -0.285 N 
ATOM     26  N   UNL A   1      32.378  28.774  25.501  1.00  0.00    -0.175 NA
ATOM     27  H   UNL A   1      32.244  29.710  27.316  1.00  0.00     0.189 HD
BRANCH  24  28
ATOM     28  C   UNL A   1      32.137  27.113  23.768  1.00  0.00     0.003 A 
ATOM     29  C   UNL A   1      31.060  26.857  22.905  1.00  0.00     0.012 A 
ATOM     30  C   UNL A   1      33.423  26.818  23.318  1.00  0.00     0.012 A 
ATOM     31  C   UNL A   1      31.267  26.334  21.623  1.00  0.00     0.021 A 
ATOM     32  C   UNL A   1      33.638  26.309  22.030  1.00  0.00     0.021 A 
ATOM     33  C   UNL A   1      32.560  26.065  21.189  1.00  0.00     0.041 A 
ATOM     34  Cl  UNL A   1      32.827  25.402  19.624  1.00  0.00    -0.084 Cl
ENDBRANCH  24  28
ENDBRANCH  21  22
ENDBRANCH  19  21
ENDBRANCH   6   8
ENDBRANCH   5   6
ENDBRANCH   4   5
ENDBRANCH   3   4
ENDBRANCH   2   3
ENDBRANCH   1   2
BRANCH   1  35
ATOM     35  C   UNL A   1      40.360  21.768  27.258  1.00  0.00     0.188 C 
BRANCH  35  36
ATOM     36  O   UNL A   1      40.457  20.364  27.379  1.00  0.00    -0.376 OA
BRANCH  36  37
ATOM     37  C   UNL A   1      40.634  19.649  26.175  1.00  0.00     0.202 C 
BRANCH  37  38
ATOM     38  C   UNL A   1      41.916  18.810  26.166  1.00  0.00     0.261 C 
BRANCH  38  39
ATOM     39  O   UNL A   1      42.660  18.829  24.928  1.00  0.00    -0.460 OA
BRANCH  39  40
ATOM     40  C   UNL A   1      43.936  19.276  24.995  1.00  0.00     0.338 C 
ATOM     41  O   UNL A   1      44.940  18.638  24.732  1.00  0.00    -0.246 OA
BRANCH  40  42
ATOM     42  C   UNL A   1      43.935  20.730  25.261  1.00  0.00     0.060 A 
ATOM     43  C   UNL A   1      44.011  21.610  24.182  1.00  0.00     0.016 A 
ATOM     44  C   UNL A   1      43.959  21.234  26.555  1.00  0.00     0.016 A 
ATOM     45  C   UNL A   1      44.158  22.979  24.360  1.00  0.00     0.010 A 
ATOM     46  C   UNL A   1      44.070  22.619  26.744  1.00  0.00     0.010 A 
ATOM     47  C   UNL A   1      44.196  23.500  25.649  1.00  0.00    -0.014 A 
BRANCH  47  48
ATOM     48  C   UNL A   1      44.463  24.945  25.854  1.00  0.00     0.031 A 
ATOM     49  C   UNL A   1      45.861  25.460  25.674  1.00  0.00     0.074 A 
ATOM     50  C   UNL A   1      43.476  25.790  26.208  1.00  0.00     0.049 A 
ATOM     51  N   UNL A   1      46.371  26.611  26.018  1.00  0.00    -0.248 NA
ATOM     52  C   UNL A   1      46.818  24.542  25.034  1.00  0.00     0.031 C 
ATOM     53  C   UNL A   1      42.063  25.433  26.348  1.00  0.00     0.029 A 
ATOM     54  N   UNL A   1      43.520  27.118  26.553  1.00  0.00    -0.354 N 
ATOM     55  C   UNL A   1      47.727  26.522  25.729  1.00  0.00     0.074 A 
ATOM     56  C   UNL A   1      47.952  25.212  25.156  1.00  0.00     0.031 C 
ATOM     57  C   UNL A   1      41.382  26.503  26.784  1.00  0.00     0.029 A 
ATOM     58  C   UNL A   1      42.320  27.592  27.032  1.00  0.00     0.049 A 
ATOM     59  H   UNL A   1      44.328  27.674  26.468  1.00  0.00     0.167 HD
ATOM     60  C   UNL A   1      48.695  27.445  25.936  1.00  0.00     0.034 A 
ATOM     61  C   UNL A   1      42.022  28.742  27.667  1.00  0.00     0.034 A 
ATOM     62  C   UNL A   1      48.445  28.759  26.465  1.00  0.00     0.049 A 
ATOM     63  C   UNL A   1      43.113  29.747  27.909  1.00  0.00     0.074 A 
ATOM     64  C   UNL A   1      49.342  29.793  26.662  1.00  0.00     0.029 A 
ATOM     65  N   UNL A   1      47.208  29.216  26.898  1.00  0.00    -0.354 N 
ATOM     66  N   UNL A   1      44.383  29.677  27.592  1.00  0.00    -0.248 NA
ATOM     67  C   UNL A   1      42.728  30.995  28.580  1.00  0.00     0.031 C 
ATOM     68  C   UNL A   1      48.657  30.857  27.258  1.00  0.00     0.029 A 
ATOM     69  C   UNL A   1      47.321  30.507  27.383  1.00  0.00     0.049 A 
ATOM     70  H   UNL A   1      46.372  28.696  26.865  1.00  0.00     0.167 HD
ATOM     71  C   UNL A   1      44.945  30.881  27.998  1.00  0.00     0.074 A 
ATOM     72  C   UNL A   1      43.870  31.669  28.568  1.00  0.00     0.031 C 
ATOM     73  C   UNL A   1      46.235  31.292  27.914  1.00  0.00     0.034 A 
BRANCH  60  74
ATOM     74  C   UNL A   1      50.113  27.046  25.625  1.00  0.00     0.023 A 
ATOM     75  C   UNL A   1      50.908  26.398  26.592  1.00  0.00     0.012 A 
ATOM     76  C   UNL A   1      50.659  27.315  24.354  1.00  0.00     0.148 A 
ATOM     77  C   UNL A   1      52.237  26.075  26.318  1.00  0.00     0.002 A 
ATOM     78  C   UNL A   1      51.966  26.940  24.069  1.00  0.00     0.091 A 
ATOM     79  F   UNL A   1      49.899  27.954  23.453  1.00  0.00    -0.205 F 
ATOM     80  C   UNL A   1      52.762  26.337  25.055  1.00  0.00     0.022 A 
BRANCH  78  81
ATOM     81  S   UNL A   1      52.701  27.161  22.446  1.00  0.00     0.127 S 
ATOM     82  O   UNL A   1      51.620  26.714  21.569  1.00  0.00    -0.237 OA
ATOM     83  O   UNL A   1      52.954  28.601  22.417  1.00  0.00    -0.237 OA
ATOM     84  O   UNL A   1      53.901  26.334  22.433  1.00  0.00    -0.744 OA
ENDBRANCH  78  81
ENDBRANCH  60  74
BRANCH  61  85
ATOM     85  C   UNL A   1      40.629  28.978  28.141  1.00  0.00     0.023 A 
ATOM     86  C   UNL A   1      39.626  29.325  27.218  1.00  0.00     0.012 A 
ATOM     87  C   UNL A   1      40.285  28.797  29.496  1.00  0.00     0.148 A 
ATOM     88  C   UNL A   1      38.306  29.500  27.637  1.00  0.00     0.002 A 
ATOM     89  C   UNL A   1      38.960  28.915  29.897  1.00  0.00     0.091 A 
ATOM     90  F   UNL A   1      41.260  28.479  30.360  1.00  0.00    -0.205 F 
ATOM     91  C   UNL A   1      37.971  29.282  28.971  1.00  0.00     0.022 A 
BRANCH  89  92
ATOM     92  S   UNL A   1      38.414  28.518  31.561  1.00  0.00     0.127 S 
ATOM     93  O   UNL A   1      38.627  27.074  31.609  1.00  0.00    -0.237 OA
ATOM     94  O   UNL A   1      39.342  29.306  32.373  1.00  0.00    -0.237 OA
ATOM     95  O   UNL A   1      37.025  28.950  31.637  1.00  0.00    -0.744 OA
ENDBRANCH  89  92
ENDBRANCH  61  85
BRANCH  73  96
ATOM     96  C   UNL A   1      46.556  32.681  28.406  1.00  0.00     0.023 A 
ATOM     97  C   UNL A   1      46.977  32.885  29.734  1.00  0.00     0.012 A 
ATOM     98  C   UNL A   1      46.508  33.775  27.519  1.00  0.00     0.148 A 
ATOM     99  C   UNL A   1      47.312  34.162  30.182  1.00  0.00     0.002 A 
ATOM    100  C   UNL A   1      46.897  35.034  27.956  1.00  0.00     0.091 A 
ATOM    101  F   UNL A   1      46.087  33.563  26.264  1.00  0.00    -0.205 F 
ATOM    102  C   UNL A   1      47.285  35.233  29.291  1.00  0.00     0.022 A 
BRANCH 100 103
ATOM    103  S   UNL A   1      46.990  36.450  26.854  1.00  0.00     0.127 S 
ATOM    104  O   UNL A   1      48.002  36.013  25.893  1.00  0.00    -0.237 OA
ATOM    105  O   UNL A   1      45.629  36.515  26.321  1.00  0.00    -0.237 OA
ATOM    106  O   UNL A   1      47.369  37.584  27.687  1.00  0.00    -0.744 OA
ENDBRANCH 100 103
ENDBRANCH  73  96
ENDBRANCH  47  48
ENDBRANCH  40  42
ENDBRANCH  39  40
ENDBRANCH  38  39
ENDBRANCH  37  38
ENDBRANCH  36  37
ENDBRANCH  35  36
ENDBRANCH   1  35
TORSDOF 23
ENDMDL
MODEL 2
REMARK VINA RESULT:     -10.9      1.989      2.749
REMARK SMILES O=C1C[C@@H](C(=O)OCCOCCOCCOC(=O)c2ccc(-c3c4nc(c(-c5cccc(S(=O)(=O)[O-])c5F)c5ccc([nH]5)c(-c5cccc(S(=O)(=O)[O-])c5F)c5nc(c(-c6cccc(S(=O)(=O)[O-])c6F)c6ccc3[nH]6)C=C5)C=C4)cc2)C2(CC[NH+](Cc3c[nH]nc3-c3ccc(Cl)cc3)CC2)N1
REMARK SMILES IDX 11 1 10 2 9 3 8 4 7 5 5 6 6 7 4 8 1 9 2 10 3 11 101 12 82 13
REMARK SMILES IDX 83 15 100 16 84 17 99 18 85 19 86 21 87 22 88 23 91 24 89 25
REMARK SMILES IDX 90 26 92 28 93 29 98 30 94 31 97 32 95 33 96 34 12 35 13 36
REMARK SMILES IDX 14 37 15 38 16 39 17 40 18 41 19 42 20 43 81 44 21 45 80 46
REMARK SMILES IDX 22 47 23 48 24 49 74 50 25 51 79 52 73 53 75 54 26 55 78 56
REMARK SMILES IDX 72 57 71 58 27 60 59 61 39 62 58 63 40 64 43 65 57 66 76 67
REMARK SMILES IDX 41 68 42 69 56 71 77 72 44 73 28 74 29 75 37 76 30 77 32 78
REMARK SMILES IDX 38 79 31 80 33 81 34 82 35 83 36 84 60 85 61 86 69 87 62 88
REMARK SMILES IDX 64 89 70 90 63 91 65 92 66 93 67 94 68 95 45 96 46 97 54 98
REMARK SMILES IDX 47 99 49 100 55 101 48 102 50 103 51 104 52 105 53 106
REMARK H PARENT 101 14 85 20 89 27 75 59 43 70
REMARK Flexibility Score: inf
ROOT
ATOM      1  C   UNL A   1      38.756  21.744  25.594  1.00  0.00     0.188 C 
ENDROOT
BRANCH   1   2
ATOM      2  O   UNL A   1      37.604  20.929  25.776  1.00  0.00    -0.376 OA
BRANCH   2   3
ATOM      3  C   UNL A   1      36.319  21.430  25.450  1.00  0.00     0.202 C 
BRANCH   3   4
ATOM      4  C   UNL A   1      36.048  22.924  25.727  1.00  0.00     0.261 C 
BRANCH   4   5
ATOM      5  O   UNL A   1      36.048  23.868  24.617  1.00  0.00    -0.463 OA
BRANCH   5   6
ATOM      6  C   UNL A   1      35.382  23.460  23.510  1.00  0.00     0.311 C 
ATOM      7  O   UNL A   1      35.948  22.966  22.536  1.00  0.00    -0.252 OA
BRANCH   6   8
ATOM      8  C   UNL A   1      33.877  23.745  23.429  1.00  0.00     0.134 C 
ATOM      9  O   UNL A   1      33.204  24.790  20.081  1.00  0.00    -0.275 OA
ATOM     10  C   UNL A   1      33.265  24.613  21.290  1.00  0.00     0.221 C 
ATOM     11  C   UNL A   1      33.475  23.306  22.000  1.00  0.00     0.117 C 
ATOM     12  N   UNL A   1      33.094  25.591  22.230  1.00  0.00    -0.349 N 
ATOM     13  C   UNL A   1      33.118  25.094  23.591  1.00  0.00     0.064 C 
ATOM     14  H   UNL A   1      32.965  26.540  22.004  1.00  0.00     0.164 HD
ATOM     15  C   UNL A   1      33.700  26.184  24.480  1.00  0.00     0.091 C 
ATOM     16  C   UNL A   1      31.634  24.823  24.043  1.00  0.00     0.091 C 
ATOM     17  C   UNL A   1      33.486  25.852  25.941  1.00  0.00     0.264 C 
ATOM     18  C   UNL A   1      31.377  24.764  25.563  1.00  0.00     0.264 C 
ATOM     19  N   UNL A   1      32.109  25.735  26.358  1.00  0.00    -0.331 N 
ATOM     20  H   UNL A   1      32.115  25.298  27.279  1.00  0.00     0.348 HD
BRANCH  19  21
ATOM     21  C   UNL A   1      31.442  26.960  26.819  1.00  0.00     0.303 C 
BRANCH  21  22
ATOM     22  C   UNL A   1      31.485  28.067  25.820  1.00  0.00     0.052 A 
ATOM     23  C   UNL A   1      30.653  28.186  24.723  1.00  0.00     0.115 A 
ATOM     24  C   UNL A   1      32.299  29.254  25.766  1.00  0.00     0.101 A 
ATOM     25  N   UNL A   1      31.110  29.239  24.005  1.00  0.00    -0.285 N 
ATOM     26  N   UNL A   1      32.072  29.928  24.623  1.00  0.00    -0.175 NA
ATOM     27  H   UNL A   1      30.767  29.473  23.113  1.00  0.00     0.189 HD
BRANCH  24  28
ATOM     28  C   UNL A   1      33.267  29.813  26.715  1.00  0.00     0.003 A 
ATOM     29  C   UNL A   1      33.092  31.127  27.175  1.00  0.00     0.012 A 
ATOM     30  C   UNL A   1      34.411  29.124  27.116  1.00  0.00     0.012 A 
ATOM     31  C   UNL A   1      34.029  31.729  28.023  1.00  0.00     0.021 A 
ATOM     32  C   UNL A   1      35.345  29.715  27.978  1.00  0.00     0.021 A 
ATOM     33  C   UNL A   1      35.153  31.016  28.425  1.00  0.00     0.041 A 
ATOM     34  Cl  UNL A   1      36.323  31.750  29.451  1.00  0.00    -0.084 Cl
ENDBRANCH  24  28
ENDBRANCH  21  22
ENDBRANCH  19  21
ENDBRANCH   6   8
ENDBRANCH   5   6
ENDBRANCH   4   5
ENDBRANCH   3   4
ENDBRANCH   2   3
ENDBRANCH   1   2
BRANCH   1  35
ATOM     35  C   UNL A   1      39.675  21.983  26.781  1.00  0.00     0.188 C 
BRANCH  35  36
ATOM     36  O   UNL A   1      40.421  20.847  27.164  1.00  0.00    -0.376 OA
BRANCH  36  37
ATOM     37  C   UNL A   1      40.743  19.940  26.130  1.00  0.00     0.202 C 
BRANCH  37  38
ATOM     38  C   UNL A   1      42.200  19.469  26.185  1.00  0.00     0.261 C 
BRANCH  38  39
ATOM     39  O   UNL A   1      42.858  19.342  24.905  1.00  0.00    -0.460 OA
BRANCH  39  40
ATOM     40  C   UNL A   1      44.208  19.429  24.909  1.00  0.00     0.338 C 
ATOM     41  O   UNL A   1      44.992  18.513  24.732  1.00  0.00    -0.246 OA
BRANCH  40  42
ATOM     42  C   UNL A   1      44.610  20.850  24.975  1.00  0.00     0.060 A 
ATOM     43  C   UNL A   1      45.240  21.317  26.128  1.00  0.00     0.016 A 
ATOM     44  C   UNL A   1      44.290  21.745  23.963  1.00  0.00     0.016 A 
ATOM     45  C   UNL A   1      45.517  22.663  26.319  1.00  0.00     0.010 A 
ATOM     46  C   UNL A   1      44.599  23.103  24.132  1.00  0.00     0.010 A 
ATOM     47  C   UNL A   1      45.192  23.576  25.322  1.00  0.00    -0.014 A 
BRANCH  47  48
ATOM     48  C   UNL A   1      45.381  25.029  25.559  1.00  0.00     0.031 A 
ATOM     49  C   UNL A   1      46.763  25.607  25.477  1.00  0.00     0.074 A 
ATOM     50  C   UNL A   1      44.336  25.824  25.856  1.00  0.00     0.049 A 
ATOM     51  N   UNL A   1      47.198  26.775  25.865  1.00  0.00    -0.248 NA
ATOM     52  C   UNL A   1      47.800  24.741  24.891  1.00  0.00     0.031 C 
ATOM     53  C   UNL A   1      42.934  25.404  25.899  1.00  0.00     0.029 A 
ATOM     54  N   UNL A   1      44.298  27.149  26.217  1.00  0.00    -0.354 N 
ATOM     55  C   UNL A   1      48.572  26.750  25.665  1.00  0.00     0.074 A 
ATOM     56  C   UNL A   1      48.893  25.458  25.095  1.00  0.00     0.031 C 
ATOM     57  C   UNL A   1      42.179  26.437  26.300  1.00  0.00     0.029 A 
ATOM     58  C   UNL A   1      43.050  27.563  26.620  1.00  0.00     0.049 A 
ATOM     59  H   UNL A   1      45.084  27.741  26.190  1.00  0.00     0.167 HD
ATOM     60  C   UNL A   1      49.482  27.711  25.944  1.00  0.00     0.034 A 
ATOM     61  C   UNL A   1      42.659  28.690  27.247  1.00  0.00     0.034 A 
ATOM     62  C   UNL A   1      49.140  29.006  26.470  1.00  0.00     0.049 A 
ATOM     63  C   UNL A   1      43.686  29.739  27.570  1.00  0.00     0.074 A 
ATOM     64  C   UNL A   1      49.975  30.075  26.735  1.00  0.00     0.029 A 
ATOM     65  N   UNL A   1      47.858  29.402  26.825  1.00  0.00    -0.354 N 
ATOM     66  N   UNL A   1      44.976  29.729  27.336  1.00  0.00    -0.248 NA
ATOM     67  C   UNL A   1      43.203  30.960  28.227  1.00  0.00     0.031 C 
ATOM     68  C   UNL A   1      49.205  31.100  27.297  1.00  0.00     0.029 A 
ATOM     69  C   UNL A   1      47.881  30.691  27.330  1.00  0.00     0.049 A 
ATOM     70  H   UNL A   1      47.050  28.847  26.732  1.00  0.00     0.167 HD
ATOM     71  C   UNL A   1      45.456  30.951  27.791  1.00  0.00     0.074 A 
ATOM     72  C   UNL A   1      44.312  31.684  28.297  1.00  0.00     0.031 C 
ATOM     73  C   UNL A   1      46.729  31.420  27.796  1.00  0.00     0.034 A 
BRANCH  60  74
ATOM     74  C   UNL A   1      50.934  27.379  25.723  1.00  0.00     0.023 A 
ATOM     75  C   UNL A   1      51.751  26.969  26.796  1.00  0.00     0.012 A 
ATOM     76  C   UNL A   1      51.490  27.471  24.431  1.00  0.00     0.148 A 
ATOM     77  C   UNL A   1      53.108  26.711  26.597  1.00  0.00     0.002 A 
ATOM     78  C   UNL A   1      52.829  27.159  24.231  1.00  0.00     0.091 A 
ATOM     79  F   UNL A   1      50.707  27.887  23.426  1.00  0.00    -0.205 F 
ATOM     80  C   UNL A   1      53.643  26.797  25.315  1.00  0.00     0.022 A 
BRANCH  78  81
ATOM     81  S   UNL A   1      53.586  27.159  22.603  1.00  0.00     0.127 S 
ATOM     82  O   UNL A   1      52.716  26.237  21.873  1.00  0.00    -0.237 OA
ATOM     83  O   UNL A   1      53.459  28.561  22.206  1.00  0.00    -0.237 OA
ATOM     84  O   UNL A   1      54.956  26.705  22.797  1.00  0.00    -0.744 OA
ENDBRANCH  78  81
ENDBRANCH  60  74
BRANCH  61  85
ATOM     85  C   UNL A   1      41.229  28.858  27.630  1.00  0.00     0.023 A 
ATOM     86  C   UNL A   1      40.281  29.217  26.655  1.00  0.00     0.012 A 
ATOM     87  C   UNL A   1      40.798  28.601  28.948  1.00  0.00     0.148 A 
ATOM     88  C   UNL A   1      38.930  29.329  26.987  1.00  0.00     0.002 A 
ATOM     89  C   UNL A   1      39.445  28.657  29.258  1.00  0.00     0.091 A 
ATOM     90  F   UNL A   1      41.721  28.273  29.864  1.00  0.00    -0.205 F 
ATOM     91  C   UNL A   1      38.511  29.037  28.282  1.00  0.00     0.022 A 
BRANCH  89  92
ATOM     92  S   UNL A   1      38.799  28.163  30.859  1.00  0.00     0.127 S 
ATOM     93  O   UNL A   1      39.759  28.779  31.771  1.00  0.00    -0.237 OA
ATOM     94  O   UNL A   1      37.474  28.784  30.848  1.00  0.00    -0.237 OA
ATOM     95  O   UNL A   1      38.787  26.707  30.851  1.00  0.00    -0.744 OA
ENDBRANCH  89  92
ENDBRANCH  61  85
BRANCH  73  96
ATOM     96  C   UNL A   1      46.954  32.815  28.322  1.00  0.00     0.023 A 
ATOM     97  C   UNL A   1      47.296  33.018  29.673  1.00  0.00     0.012 A 
ATOM     98  C   UNL A   1      46.898  33.919  27.448  1.00  0.00     0.148 A 
ATOM     99  C   UNL A   1      47.544  34.303  30.155  1.00  0.00     0.002 A 
ATOM    100  C   UNL A   1      47.200  35.189  27.922  1.00  0.00     0.091 A 
ATOM    101  F   UNL A   1      46.553  33.706  26.170  1.00  0.00    -0.205 F 
ATOM    102  C   UNL A   1      47.509  35.385  29.278  1.00  0.00     0.022 A 
BRANCH 100 103
ATOM    103  S   UNL A   1      47.280  36.625  26.845  1.00  0.00     0.127 S 
ATOM    104  O   UNL A   1      48.111  36.129  25.749  1.00  0.00    -0.237 OA
ATOM    105  O   UNL A   1      45.873  36.829  26.500  1.00  0.00    -0.237 OA
ATOM    106  O   UNL A   1      47.869  37.693  27.641  1.00  0.00    -0.744 OA
ENDBRANCH 100 103
ENDBRANCH  73  96
ENDBRANCH  47  48
ENDBRANCH  40  42
ENDBRANCH  39  40
ENDBRANCH  38  39
ENDBRANCH  37  38
ENDBRANCH  36  37
ENDBRANCH  35  36
ENDBRANCH   1  35
TORSDOF 23
ENDMDL
MODEL 3
REMARK VINA RESULT:     -10.5      3.546      8.869
REMARK SMILES O=C1C[C@@H](C(=O)OCCOCCOCCOC(=O)c2ccc(-c3c4nc(c(-c5cccc(S(=O)(=O)[O-])c5F)c5ccc([nH]5)c(-c5cccc(S(=O)(=O)[O-])c5F)c5nc(c(-c6cccc(S(=O)(=O)[O-])c6F)c6ccc3[nH]6)C=C5)C=C4)cc2)C2(CC[NH+](Cc3c[nH]nc3-c3ccc(Cl)cc3)CC2)N1
REMARK SMILES IDX 11 1 10 2 9 3 8 4 7 5 5 6 6 7 4 8 1 9 2 10 3 11 101 12 82 13
REMARK SMILES IDX 83 15 100 16 84 17 99 18 85 19 86 21 87 22 88 23 91 24 89 25
REMARK SMILES IDX 90 26 92 28 93 29 98 30 94 31 97 32 95 33 96 34 12 35 13 36
REMARK SMILES IDX 14 37 15 38 16 39 17 40 18 41 19 42 20 43 81 44 21 45 80 46
REMARK SMILES IDX 22 47 23 48 24 49 74 50 25 51 79 52 73 53 75 54 26 55 78 56
REMARK SMILES IDX 72 57 71 58 27 60 59 61 39 62 58 63 40 64 43 65 57 66 76 67
REMARK SMILES IDX 41 68 42 69 56 71 77 72 44 73 28 74 29 75 37 76 30 77 32 78
REMARK SMILES IDX 38 79 31 80 33 81 34 82 35 83 36 84 60 85 61 86 69 87 62 88
REMARK SMILES IDX 64 89 70 90 63 91 65 92 66 93 67 94 68 95 45 96 46 97 54 98
REMARK SMILES IDX 47 99 49 100 55 101 48 102 50 103 51 104 52 105 53 106
REMARK H PARENT 101 14 85 20 89 27 75 59 43 70
REMARK Flexibility Score: inf
ROOT
ATOM      1  C   UNL A   1      35.165  22.230  23.954  1.00  0.00     0.188 C 
ENDROOT
BRANCH   1   2
ATOM      2  O   UNL A   1      33.937  22.787  23.501  1.00  0.00    -0.376 OA
BRANCH   2   3
ATOM      3  C   UNL A   1      33.020  23.337  24.431  1.00  0.00     0.202 C 
BRANCH   3   4
ATOM      4  C   UNL A   1      33.307  24.760  24.956  1.00  0.00     0.261 C 
BRANCH   4   5
ATOM      5  O   UNL A   1      32.425  25.854  24.572  1.00  0.00    -0.463 OA
BRANCH   5   6
ATOM      6  C   UNL A   1      31.729  26.420  25.588  1.00  0.00     0.311 C 
ATOM      7  O   UNL A   1      31.254  25.765  26.515  1.00  0.00    -0.252 OA
BRANCH   6   8
ATOM      8  C   UNL A   1      31.420  27.919  25.503  1.00  0.00     0.134 C 
ATOM      9  O   UNL A   1      30.809  28.653  22.062  1.00  0.00    -0.275 OA
ATOM     10  C   UNL A   1      31.138  28.627  23.240  1.00  0.00     0.221 C 
ATOM     11  C   UNL A   1      30.361  28.034  24.380  1.00  0.00     0.117 C 
ATOM     12  N   UNL A   1      32.274  29.198  23.744  1.00  0.00    -0.349 N 
ATOM     13  C   UNL A   1      32.374  29.108  25.187  1.00  0.00     0.064 C 
ATOM     14  H   UNL A   1      32.957  29.628  23.181  1.00  0.00     0.164 HD
ATOM     15  C   UNL A   1      33.848  29.008  25.552  1.00  0.00     0.091 C 
ATOM     16  C   UNL A   1      31.797  30.437  25.805  1.00  0.00     0.091 C 
ATOM     17  C   UNL A   1      34.045  29.206  27.039  1.00  0.00     0.264 C 
ATOM     18  C   UNL A   1      32.235  30.773  27.245  1.00  0.00     0.264 C 
ATOM     19  N   UNL A   1      33.624  30.485  27.558  1.00  0.00    -0.331 N 
ATOM     20  H   UNL A   1      33.602  30.399  28.574  1.00  0.00     0.348 HD
BRANCH  19  21
ATOM     21  C   UNL A   1      34.617  31.567  27.559  1.00  0.00     0.303 C 
BRANCH  21  22
ATOM     22  C   UNL A   1      34.549  32.429  28.775  1.00  0.00     0.052 A 
ATOM     23  C   UNL A   1      33.811  33.592  28.889  1.00  0.00     0.115 A 
ATOM     24  C   UNL A   1      35.136  32.264  30.079  1.00  0.00     0.101 A 
ATOM     25  N   UNL A   1      34.133  34.136  30.086  1.00  0.00    -0.285 N 
ATOM     26  N   UNL A   1      34.894  33.345  30.844  1.00  0.00    -0.175 NA
ATOM     27  H   UNL A   1      33.833  35.030  30.371  1.00  0.00     0.189 HD
BRANCH  24  28
ATOM     28  C   UNL A   1      35.897  31.158  30.669  1.00  0.00     0.003 A 
ATOM     29  C   UNL A   1      36.336  31.263  31.999  1.00  0.00     0.012 A 
ATOM     30  C   UNL A   1      36.285  30.037  29.937  1.00  0.00     0.012 A 
ATOM     31  C   UNL A   1      37.129  30.267  32.580  1.00  0.00     0.021 A 
ATOM     32  C   UNL A   1      37.065  29.028  30.519  1.00  0.00     0.021 A 
ATOM     33  C   UNL A   1      37.487  29.149  31.837  1.00  0.00     0.041 A 
ATOM     34  Cl  UNL A   1      38.479  27.927  32.533  1.00  0.00    -0.084 Cl
ENDBRANCH  24  28
ENDBRANCH  21  22
ENDBRANCH  19  21
ENDBRANCH   6   8
ENDBRANCH   5   6
ENDBRANCH   4   5
ENDBRANCH   3   4
ENDBRANCH   2   3
ENDBRANCH   1   2
BRANCH   1  35
ATOM     35  C   UNL A   1      35.122  21.027  24.882  1.00  0.00     0.188 C 
BRANCH  35  36
ATOM     36  O   UNL A   1      36.389  20.641  25.376  1.00  0.00    -0.376 OA
BRANCH  36  37
ATOM     37  C   UNL A   1      37.476  21.460  25.000  1.00  0.00     0.202 C 
BRANCH  37  38
ATOM     38  C   UNL A   1      38.701  21.271  25.900  1.00  0.00     0.261 C 
BRANCH  38  39
ATOM     39  O   UNL A   1      39.369  22.488  26.301  1.00  0.00    -0.460 OA
BRANCH  39  40
ATOM     40  C   UNL A   1      38.576  23.543  26.600  1.00  0.00     0.338 C 
ATOM     41  O   UNL A   1      37.358  23.549  26.616  1.00  0.00    -0.246 OA
BRANCH  40  42
ATOM     42  C   UNL A   1      39.408  24.660  27.094  1.00  0.00     0.060 A 
ATOM     43  C   UNL A   1      39.583  25.779  26.278  1.00  0.00     0.016 A 
ATOM     44  C   UNL A   1      40.093  24.582  28.298  1.00  0.00     0.016 A 
ATOM     45  C   UNL A   1      40.461  26.800  26.612  1.00  0.00     0.010 A 
ATOM     46  C   UNL A   1      40.955  25.627  28.661  1.00  0.00     0.010 A 
ATOM     47  C   UNL A   1      41.164  26.732  27.809  1.00  0.00    -0.014 A 
BRANCH  47  48
ATOM     48  C   UNL A   1      42.187  27.761  28.125  1.00  0.00     0.031 A 
ATOM     49  C   UNL A   1      41.758  29.033  28.795  1.00  0.00     0.074 A 
ATOM     50  C   UNL A   1      43.482  27.570  27.809  1.00  0.00     0.049 A 
ATOM     51  N   UNL A   1      42.416  30.148  28.955  1.00  0.00    -0.248 NA
ATOM     52  C   UNL A   1      40.392  29.053  29.345  1.00  0.00     0.031 C 
ATOM     53  C   UNL A   1      44.042  26.353  27.220  1.00  0.00     0.029 A 
ATOM     54  N   UNL A   1      44.557  28.420  27.905  1.00  0.00    -0.354 N 
ATOM     55  C   UNL A   1      41.517  31.035  29.533  1.00  0.00     0.074 A 
ATOM     56  C   UNL A   1      40.274  30.317  29.719  1.00  0.00     0.031 C 
ATOM     57  C   UNL A   1      45.346  26.546  26.972  1.00  0.00     0.029 A 
ATOM     58  C   UNL A   1      45.693  27.923  27.309  1.00  0.00     0.049 A 
ATOM     59  H   UNL A   1      44.518  29.295  28.354  1.00  0.00     0.167 HD
ATOM     60  C   UNL A   1      41.709  32.333  29.864  1.00  0.00     0.034 A 
ATOM     61  C   UNL A   1      46.856  28.526  26.998  1.00  0.00     0.034 A 
ATOM     62  C   UNL A   1      42.964  33.019  29.712  1.00  0.00     0.049 A 
ATOM     63  C   UNL A   1      47.045  29.974  27.352  1.00  0.00     0.074 A 
ATOM     64  C   UNL A   1      43.285  34.316  30.069  1.00  0.00     0.029 A 
ATOM     65  N   UNL A   1      44.104  32.466  29.144  1.00  0.00    -0.354 N 
ATOM     66  N   UNL A   1      46.209  30.795  27.940  1.00  0.00    -0.248 NA
ATOM     67  C   UNL A   1      48.343  30.576  27.018  1.00  0.00     0.031 C 
ATOM     68  C   UNL A   1      44.604  34.563  29.671  1.00  0.00     0.029 A 
ATOM     69  C   UNL A   1      45.123  33.403  29.117  1.00  0.00     0.049 A 
ATOM     70  H   UNL A   1      44.176  31.544  28.808  1.00  0.00     0.167 HD
ATOM     71  C   UNL A   1      46.885  32.001  28.072  1.00  0.00     0.074 A 
ATOM     72  C   UNL A   1      48.209  31.797  27.518  1.00  0.00     0.031 C 
ATOM     73  C   UNL A   1      46.447  33.173  28.596  1.00  0.00     0.034 A 
BRANCH  60  74
ATOM     74  C   UNL A   1      40.521  33.101  30.383  1.00  0.00     0.023 A 
ATOM     75  C   UNL A   1      39.580  33.659  29.495  1.00  0.00     0.012 A 
ATOM     76  C   UNL A   1      40.338  33.263  31.771  1.00  0.00     0.148 A 
ATOM     77  C   UNL A   1      38.509  34.413  29.977  1.00  0.00     0.002 A 
ATOM     78  C   UNL A   1      39.239  33.966  32.246  1.00  0.00     0.091 A 
ATOM     79  F   UNL A   1      41.255  32.747  32.602  1.00  0.00    -0.205 F 
ATOM     80  C   UNL A   1      38.334  34.558  31.351  1.00  0.00     0.022 A 
BRANCH  78  81
ATOM     81  S   UNL A   1      38.884  34.134  33.998  1.00  0.00     0.127 S 
ATOM     82  O   UNL A   1      38.725  32.737  34.402  1.00  0.00    -0.237 OA
ATOM     83  O   UNL A   1      40.099  34.778  34.496  1.00  0.00    -0.237 OA
ATOM     84  O   UNL A   1      37.682  34.952  34.088  1.00  0.00    -0.744 OA
ENDBRANCH  78  81
ENDBRANCH  60  74
BRANCH  61  85
ATOM     85  C   UNL A   1      47.915  27.756  26.286  1.00  0.00     0.023 A 
ATOM     86  C   UNL A   1      48.068  27.899  24.895  1.00  0.00     0.012 A 
ATOM     87  C   UNL A   1      48.809  26.929  26.997  1.00  0.00     0.148 A 
ATOM     88  C   UNL A   1      49.087  27.224  24.221  1.00  0.00     0.002 A 
ATOM     89  C   UNL A   1      49.857  26.307  26.329  1.00  0.00     0.091 A 
ATOM     90  F   UNL A   1      48.636  26.797  28.319  1.00  0.00    -0.205 F 
ATOM     91  C   UNL A   1      49.988  26.440  24.938  1.00  0.00     0.022 A 
BRANCH  89  92
ATOM     92  S   UNL A   1      51.143  25.393  27.186  1.00  0.00     0.127 S 
ATOM     93  O   UNL A   1      50.364  24.398  27.919  1.00  0.00    -0.237 OA
ATOM     94  O   UNL A   1      51.925  24.863  26.069  1.00  0.00    -0.237 OA
ATOM     95  O   UNL A   1      51.844  26.370  28.008  1.00  0.00    -0.744 OA
ENDBRANCH  89  92
ENDBRANCH  61  85
BRANCH  73  96
ATOM     96  C   UNL A   1      47.422  34.322  28.644  1.00  0.00     0.023 A 
ATOM     97  C   UNL A   1      48.194  34.551  29.799  1.00  0.00     0.012 A 
ATOM     98  C   UNL A   1      47.622  35.129  27.507  1.00  0.00     0.148 A 
ATOM     99  C   UNL A   1      49.125  35.588  29.834  1.00  0.00     0.002 A 
ATOM    100  C   UNL A   1      48.591  36.125  27.529  1.00  0.00     0.091 A 
ATOM    101  F   UNL A   1      46.864  34.906  26.423  1.00  0.00    -0.205 F 
ATOM    102  C   UNL A   1      49.333  36.366  28.697  1.00  0.00     0.022 A 
BRANCH 100 103
ATOM    103  S   UNL A   1      48.996  37.106  26.080  1.00  0.00     0.127 S 
ATOM    104  O   UNL A   1      50.201  37.807  26.523  1.00  0.00    -0.237 OA
ATOM    105  O   UNL A   1      49.226  36.077  25.066  1.00  0.00    -0.237 OA
ATOM    106  O   UNL A   1      47.838  37.953  25.830  1.00  0.00    -0.744 OA
ENDBRANCH 100 103
ENDBRANCH  73  96
ENDBRANCH  47  48
ENDBRANCH  40  42
ENDBRANCH  39  40
ENDBRANCH  38  39
ENDBRANCH  37  38
ENDBRANCH  36  37
ENDBRANCH  35  36
ENDBRANCH   1  35
TORSDOF 23
ENDMDL
