MODEL 1
REMARK VINA RESULT:     -10.6      0.000      0.000
REMARK SMILES O=C(OCCOCCOCCOC(=O)[C@H]1Cc2[nH]cnc2CN1C(=O)NCc1nc[nH]n1)c1ccc(-c2c3nc(c(-c4cccc(S(=O)(=O)[O-])c4F)c4ccc([nH]4)c(-c4cccc(S(=O)(=O)[O-])c4F)c4nc(c(-c5cccc(S(=O)(=O)[O-])c5F)c5ccc2[nH]5)C=C4)C=C3)cc1
REMARK SMILES IDX 7 1 6 2 5 3 4 4 3 5 2 6 1 7 33 8 34 9 95 10 35 11 94 12
REMARK SMILES IDX 36 13 37 14 38 15 88 16 39 17 93 18 87 19 89 20 40 21 92 22
REMARK SMILES IDX 86 23 85 24 41 26 73 27 53 28 72 29 54 30 57 31 71 32 90 33
REMARK SMILES IDX 55 34 56 35 70 37 91 38 58 39 42 40 43 41 51 42 44 43 46 44
REMARK SMILES IDX 52 45 45 46 47 47 48 48 49 49 50 50 74 51 75 52 83 53 76 54
REMARK SMILES IDX 78 55 84 56 77 57 79 58 80 59 81 60 82 61 59 62 60 63 68 64
REMARK SMILES IDX 61 65 63 66 69 67 62 68 64 69 65 70 66 71 67 72 8 73 9 74
REMARK SMILES IDX 10 75 11 76 12 77 13 78 14 79 15 80 16 81 23 82 17 83 22 84
REMARK SMILES IDX 18 85 21 86 19 87 20 89 24 90 25 91 26 92 27 94 28 95 29 96
REMARK SMILES IDX 32 97 30 98 31 99
REMARK H PARENT 89 25 57 36 18 88 26 93 31 100
REMARK Flexibility Score: inf
ROOT
ATOM      1  C   UNL A   1      34.246  33.389  27.981  1.00  0.00     0.188 C 
ENDROOT
BRANCH   1   2
ATOM      2  O   UNL A   1      33.378  34.286  28.661  1.00  0.00    -0.376 OA
BRANCH   2   3
ATOM      3  C   UNL A   1      33.779  35.045  29.791  1.00  0.00     0.202 C 
BRANCH   3   4
ATOM      4  C   UNL A   1      34.409  34.432  31.052  1.00  0.00     0.261 C 
BRANCH   4   5
ATOM      5  O   UNL A   1      35.527  33.550  30.926  1.00  0.00    -0.460 OA
BRANCH   5   6
ATOM      6  C   UNL A   1      35.640  32.272  31.330  1.00  0.00     0.338 C 
ATOM      7  O   UNL A   1      35.024  31.889  32.321  1.00  0.00    -0.246 OA
BRANCH   6   8
ATOM      8  C   UNL A   1      36.601  31.347  30.694  1.00  0.00     0.060 A 
ATOM      9  C   UNL A   1      36.577  29.967  30.898  1.00  0.00     0.016 A 
ATOM     10  C   UNL A   1      37.655  31.944  29.974  1.00  0.00     0.016 A 
ATOM     11  C   UNL A   1      37.645  29.203  30.473  1.00  0.00     0.010 A 
ATOM     12  C   UNL A   1      38.737  31.188  29.567  1.00  0.00     0.010 A 
ATOM     13  C   UNL A   1      38.753  29.840  29.910  1.00  0.00    -0.014 A 
BRANCH  13  14
ATOM     14  C   UNL A   1      39.999  29.101  29.977  1.00  0.00     0.031 A 
ATOM     15  C   UNL A   1      40.646  28.978  31.295  1.00  0.00     0.074 A 
ATOM     16  C   UNL A   1      40.545  28.626  28.840  1.00  0.00     0.049 A 
ATOM     17  N   UNL A   1      41.742  29.539  31.690  1.00  0.00    -0.248 NA
ATOM     18  C   UNL A   1      39.947  28.208  32.329  1.00  0.00     0.031 C 
ATOM     19  C   UNL A   1      39.890  28.472  27.535  1.00  0.00     0.029 A 
ATOM     20  N   UNL A   1      41.766  28.058  28.647  1.00  0.00    -0.354 N 
ATOM     21  C   UNL A   1      41.995  29.005  32.949  1.00  0.00     0.074 A 
ATOM     22  C   UNL A   1      40.787  28.331  33.357  1.00  0.00     0.031 C 
ATOM     23  C   UNL A   1      40.616  27.622  26.779  1.00  0.00     0.029 A 
ATOM     24  C   UNL A   1      41.835  27.291  27.493  1.00  0.00     0.049 A 
ATOM     25  H   UNL A   1      42.524  28.178  29.264  1.00  0.00     0.167 HD
ATOM     26  C   UNL A   1      43.252  28.945  33.465  1.00  0.00     0.034 A 
ATOM     27  C   UNL A   1      42.776  26.365  27.201  1.00  0.00     0.034 A 
ATOM     28  C   UNL A   1      44.180  29.789  32.764  1.00  0.00     0.049 A 
ATOM     29  C   UNL A   1      43.969  26.654  28.028  1.00  0.00     0.074 A 
ATOM     30  C   UNL A   1      44.278  31.140  32.499  1.00  0.00     0.029 A 
ATOM     31  N   UNL A   1      45.084  29.173  31.935  1.00  0.00    -0.354 N 
ATOM     32  N   UNL A   1      44.734  27.698  27.861  1.00  0.00    -0.248 NA
ATOM     33  C   UNL A   1      44.105  25.979  29.307  1.00  0.00     0.031 C 
ATOM     34  C   UNL A   1      44.909  31.225  31.226  1.00  0.00     0.029 A 
ATOM     35  C   UNL A   1      45.174  29.924  30.794  1.00  0.00     0.049 A 
ATOM     36  H   UNL A   1      45.578  28.342  32.125  1.00  0.00     0.167 HD
ATOM     37  C   UNL A   1      45.114  28.061  29.147  1.00  0.00     0.074 A 
ATOM     38  C   UNL A   1      44.810  26.897  29.974  1.00  0.00     0.031 C 
ATOM     39  C   UNL A   1      45.360  29.367  29.469  1.00  0.00     0.034 A 
BRANCH  26  40
ATOM     40  C   UNL A   1      43.732  27.871  34.406  1.00  0.00     0.023 A 
ATOM     41  C   UNL A   1      44.331  28.272  35.620  1.00  0.00     0.012 A 
ATOM     42  C   UNL A   1      43.859  26.513  34.043  1.00  0.00     0.148 A 
ATOM     43  C   UNL A   1      45.038  27.368  36.419  1.00  0.00     0.002 A 
ATOM     44  C   UNL A   1      44.479  25.601  34.886  1.00  0.00     0.091 A 
ATOM     45  F   UNL A   1      43.504  26.113  32.816  1.00  0.00    -0.205 F 
ATOM     46  C   UNL A   1      45.097  26.025  36.062  1.00  0.00     0.022 A 
BRANCH  44  47
ATOM     47  S   UNL A   1      44.491  23.850  34.488  1.00  0.00     0.127 S 
ATOM     48  O   UNL A   1      45.150  23.285  35.658  1.00  0.00    -0.237 OA
ATOM     49  O   UNL A   1      43.063  23.552  34.372  1.00  0.00    -0.237 OA
ATOM     50  O   UNL A   1      45.218  23.767  33.224  1.00  0.00    -0.744 OA
ENDBRANCH  44  47
ENDBRANCH  26  40
BRANCH  27  51
ATOM     51  C   UNL A   1      42.602  25.104  26.448  1.00  0.00     0.023 A 
ATOM     52  C   UNL A   1      43.489  24.787  25.404  1.00  0.00     0.012 A 
ATOM     53  C   UNL A   1      41.718  24.097  26.902  1.00  0.00     0.148 A 
ATOM     54  C   UNL A   1      43.508  23.506  24.842  1.00  0.00     0.002 A 
ATOM     55  C   UNL A   1      41.724  22.833  26.325  1.00  0.00     0.091 A 
ATOM     56  F   UNL A   1      40.938  24.345  27.963  1.00  0.00    -0.205 F 
ATOM     57  C   UNL A   1      42.627  22.529  25.301  1.00  0.00     0.022 A 
BRANCH  55  58
ATOM     58  S   UNL A   1      40.607  21.534  26.875  1.00  0.00     0.127 S 
ATOM     59  O   UNL A   1      39.299  22.081  26.513  1.00  0.00    -0.237 OA
ATOM     60  O   UNL A   1      41.043  20.399  26.067  1.00  0.00    -0.237 OA
ATOM     61  O   UNL A   1      40.823  21.413  28.312  1.00  0.00    -0.744 OA
ENDBRANCH  55  58
ENDBRANCH  27  51
BRANCH  39  62
ATOM     62  C   UNL A   1      45.511  30.366  28.349  1.00  0.00     0.023 A 
ATOM     63  C   UNL A   1      44.389  30.925  27.702  1.00  0.00     0.012 A 
ATOM     64  C   UNL A   1      46.785  30.895  28.075  1.00  0.00     0.148 A 
ATOM     65  C   UNL A   1      44.536  31.965  26.782  1.00  0.00     0.002 A 
ATOM     66  C   UNL A   1      46.922  31.964  27.197  1.00  0.00     0.091 A 
ATOM     67  F   UNL A   1      47.844  30.364  28.705  1.00  0.00    -0.205 F 
ATOM     68  C   UNL A   1      45.801  32.495  26.539  1.00  0.00     0.022 A 
BRANCH  66  69
ATOM     69  S   UNL A   1      48.502  32.784  26.956  1.00  0.00     0.127 S 
ATOM     70  O   UNL A   1      48.144  33.887  26.068  1.00  0.00    -0.237 OA
ATOM     71  O   UNL A   1      48.863  33.186  28.316  1.00  0.00    -0.237 OA
ATOM     72  O   UNL A   1      49.386  31.773  26.387  1.00  0.00    -0.744 OA
ENDBRANCH  66  69
ENDBRANCH  39  62
ENDBRANCH  13  14
ENDBRANCH   6   8
ENDBRANCH   5   6
ENDBRANCH   4   5
ENDBRANCH   3   4
ENDBRANCH   2   3
ENDBRANCH   1   2
BRANCH   1  73
ATOM     73  C   UNL A   1      34.003  31.877  27.961  1.00  0.00     0.188 C 
BRANCH  73  74
ATOM     74  O   UNL A   1      35.035  31.145  27.340  1.00  0.00    -0.376 OA
BRANCH  74  75
ATOM     75  C   UNL A   1      35.121  29.758  27.606  1.00  0.00     0.202 C 
BRANCH  75  76
ATOM     76  C   UNL A   1      34.060  28.769  27.109  1.00  0.00     0.261 C 
BRANCH  76  77
ATOM     77  O   UNL A   1      34.166  28.100  25.828  1.00  0.00    -0.462 OA
BRANCH  77  78
ATOM     78  C   UNL A   1      33.323  27.027  25.648  1.00  0.00     0.329 C 
ATOM     79  O   UNL A   1      33.628  25.874  25.953  1.00  0.00    -0.250 OA
BRANCH  78  80
ATOM     80  C   UNL A   1      32.049  27.323  24.827  1.00  0.00     0.203 C 
ATOM     81  C   UNL A   1      32.480  27.863  23.425  1.00  0.00     0.093 C 
ATOM     82  N   UNL A   1      30.658  26.602  24.825  1.00  0.00    -0.305 N 
ATOM     83  C   UNL A   1      31.328  28.588  22.844  1.00  0.00     0.042 A 
ATOM     84  C   UNL A   1      29.557  27.458  24.271  1.00  0.00     0.180 C 
ATOM     85  N   UNL A   1      31.314  29.614  21.942  1.00  0.00    -0.348 N 
ATOM     86  C   UNL A   1      30.022  28.400  23.218  1.00  0.00     0.081 A 
ATOM     87  C   UNL A   1      30.001  29.982  21.787  1.00  0.00     0.197 A 
ATOM     88  H   UNL A   1      32.094  30.011  21.492  1.00  0.00     0.167 HD
ATOM     89  N   UNL A   1      29.199  29.263  22.542  1.00  0.00    -0.240 NA
BRANCH  82  90
ATOM     90  C   UNL A   1      30.142  25.407  25.293  1.00  0.00     0.318 C 
ATOM     91  O   UNL A   1      29.575  25.328  26.392  1.00  0.00    -0.249 OA
ATOM     92  N   UNL A   1      30.238  24.209  24.695  1.00  0.00    -0.331 N 
ATOM     93  H   UNL A   1      29.928  23.446  25.235  1.00  0.00     0.165 HD
BRANCH  92  94
ATOM     94  C   UNL A   1      30.716  23.879  23.413  1.00  0.00     0.197 C 
BRANCH  94  95
ATOM     95  C   UNL A   1      32.158  23.597  23.145  1.00  0.00     0.169 A 
ATOM     96  N   UNL A   1      32.886  24.425  22.312  1.00  0.00    -0.218 NA
ATOM     97  N   UNL A   1      32.907  23.009  24.097  1.00  0.00    -0.157 NA
ATOM     98  C   UNL A   1      34.089  24.407  22.840  1.00  0.00     0.216 A 
ATOM     99  N   UNL A   1      34.092  23.611  23.940  1.00  0.00    -0.266 N 
ATOM    100  H   UNL A   1      34.863  23.493  24.541  1.00  0.00     0.191 HD
ENDBRANCH  94  95
ENDBRANCH  92  94
ENDBRANCH  82  90
ENDBRANCH  78  80
ENDBRANCH  77  78
ENDBRANCH  76  77
ENDBRANCH  75  76
ENDBRANCH  74  75
ENDBRANCH  73  74
ENDBRANCH   1  73
TORSDOF 23
ENDMDL
MODEL 2
REMARK VINA RESULT:     -10.4      3.465      5.276
REMARK SMILES O=C(OCCOCCOCCOC(=O)[C@H]1Cc2[nH]cnc2CN1C(=O)NCc1nc[nH]n1)c1ccc(-c2c3nc(c(-c4cccc(S(=O)(=O)[O-])c4F)c4ccc([nH]4)c(-c4cccc(S(=O)(=O)[O-])c4F)c4nc(c(-c5cccc(S(=O)(=O)[O-])c5F)c5ccc2[nH]5)C=C4)C=C3)cc1
REMARK SMILES IDX 7 1 6 2 5 3 4 4 3 5 2 6 1 7 33 8 34 9 95 10 35 11 94 12
REMARK SMILES IDX 36 13 37 14 38 15 88 16 39 17 93 18 87 19 89 20 40 21 92 22
REMARK SMILES IDX 86 23 85 24 41 26 73 27 53 28 72 29 54 30 57 31 71 32 90 33
REMARK SMILES IDX 55 34 56 35 70 37 91 38 58 39 42 40 43 41 51 42 44 43 46 44
REMARK SMILES IDX 52 45 45 46 47 47 48 48 49 49 50 50 74 51 75 52 83 53 76 54
REMARK SMILES IDX 78 55 84 56 77 57 79 58 80 59 81 60 82 61 59 62 60 63 68 64
REMARK SMILES IDX 61 65 63 66 69 67 62 68 64 69 65 70 66 71 67 72 8 73 9 74
REMARK SMILES IDX 10 75 11 76 12 77 13 78 14 79 15 80 16 81 23 82 17 83 22 84
REMARK SMILES IDX 18 85 21 86 19 87 20 89 24 90 25 91 26 92 27 94 28 95 29 96
REMARK SMILES IDX 32 97 30 98 31 99
REMARK H PARENT 89 25 57 36 18 88 26 93 31 100
REMARK Flexibility Score: inf
ROOT
ATOM      1  C   UNL A   1      35.138  31.956  27.819  1.00  0.00     0.188 C 
ENDROOT
BRANCH   1   2
ATOM      2  O   UNL A   1      34.266  32.800  28.559  1.00  0.00    -0.376 OA
BRANCH   2   3
ATOM      3  C   UNL A   1      34.341  34.217  28.517  1.00  0.00     0.202 C 
BRANCH   3   4
ATOM      4  C   UNL A   1      33.211  35.146  28.989  1.00  0.00     0.261 C 
BRANCH   4   5
ATOM      5  O   UNL A   1      33.299  35.770  30.272  1.00  0.00    -0.460 OA
BRANCH   5   6
ATOM      6  C   UNL A   1      33.208  35.207  31.490  1.00  0.00     0.338 C 
ATOM      7  O   UNL A   1      32.175  35.331  32.144  1.00  0.00    -0.246 OA
BRANCH   6   8
ATOM      8  C   UNL A   1      34.372  34.557  32.127  1.00  0.00     0.060 A 
ATOM      9  C   UNL A   1      35.445  35.272  32.659  1.00  0.00     0.016 A 
ATOM     10  C   UNL A   1      34.423  33.151  32.041  1.00  0.00     0.016 A 
ATOM     11  C   UNL A   1      36.597  34.599  33.011  1.00  0.00     0.010 A 
ATOM     12  C   UNL A   1      35.582  32.475  32.369  1.00  0.00     0.010 A 
ATOM     13  C   UNL A   1      36.684  33.227  32.762  1.00  0.00    -0.014 A 
BRANCH  13  14
ATOM     14  C   UNL A   1      38.029  32.697  32.647  1.00  0.00     0.031 A 
ATOM     15  C   UNL A   1      38.886  32.750  33.845  1.00  0.00     0.074 A 
ATOM     16  C   UNL A   1      38.461  32.250  31.452  1.00  0.00     0.049 A 
ATOM     17  N   UNL A   1      39.923  33.497  34.039  1.00  0.00    -0.248 NA
ATOM     18  C   UNL A   1      38.491  31.940  35.002  1.00  0.00     0.031 C 
ATOM     19  C   UNL A   1      37.644  31.923  30.276  1.00  0.00     0.029 A 
ATOM     20  N   UNL A   1      39.713  31.870  31.079  1.00  0.00    -0.354 N 
ATOM     21  C   UNL A   1      40.453  33.080  35.256  1.00  0.00     0.074 A 
ATOM     22  C   UNL A   1      39.450  32.250  35.876  1.00  0.00     0.031 C 
ATOM     23  C   UNL A   1      38.373  31.156  29.438  1.00  0.00     0.029 A 
ATOM     24  C   UNL A   1      39.726  31.060  29.953  1.00  0.00     0.049 A 
ATOM     25  H   UNL A   1      40.529  32.141  31.560  1.00  0.00     0.167 HD
ATOM     26  C   UNL A   1      41.768  33.247  35.562  1.00  0.00     0.034 A 
ATOM     27  C   UNL A   1      40.747  30.277  29.539  1.00  0.00     0.034 A 
ATOM     28  C   UNL A   1      42.425  34.184  34.694  1.00  0.00     0.049 A 
ATOM     29  C   UNL A   1      41.992  30.795  30.152  1.00  0.00     0.074 A 
ATOM     30  C   UNL A   1      42.259  35.517  34.376  1.00  0.00     0.029 A 
ATOM     31  N   UNL A   1      43.277  33.671  33.747  1.00  0.00    -0.354 N 
ATOM     32  N   UNL A   1      42.541  31.934  29.832  1.00  0.00    -0.248 NA
ATOM     33  C   UNL A   1      42.434  30.222  31.412  1.00  0.00     0.031 C 
ATOM     34  C   UNL A   1      42.661  35.628  33.015  1.00  0.00     0.029 A 
ATOM     35  C   UNL A   1      43.064  34.362  32.585  1.00  0.00     0.049 A 
ATOM     36  H   UNL A   1      43.923  32.940  33.880  1.00  0.00     0.167 HD
ATOM     37  C   UNL A   1      43.052  32.424  31.027  1.00  0.00     0.074 A 
ATOM     38  C   UNL A   1      43.075  31.275  31.927  1.00  0.00     0.031 C 
ATOM     39  C   UNL A   1      43.130  33.768  31.265  1.00  0.00     0.034 A 
BRANCH  26  40
ATOM     40  C   UNL A   1      42.557  32.315  36.444  1.00  0.00     0.023 A 
ATOM     41  C   UNL A   1      43.351  32.881  37.465  1.00  0.00     0.012 A 
ATOM     42  C   UNL A   1      42.759  30.948  36.155  1.00  0.00     0.148 A 
ATOM     43  C   UNL A   1      44.311  32.127  38.147  1.00  0.00     0.002 A 
ATOM     44  C   UNL A   1      43.645  30.181  36.900  1.00  0.00     0.091 A 
ATOM     45  F   UNL A   1      42.199  30.405  35.068  1.00  0.00    -0.205 F 
ATOM     46  C   UNL A   1      44.447  30.769  37.878  1.00  0.00     0.022 A 
BRANCH  44  47
ATOM     47  S   UNL A   1      43.773  28.411  36.629  1.00  0.00     0.127 S 
ATOM     48  O   UNL A   1      44.230  28.356  35.246  1.00  0.00    -0.237 OA
ATOM     49  O   UNL A   1      44.767  28.018  37.629  1.00  0.00    -0.237 OA
ATOM     50  O   UNL A   1      42.432  27.901  36.895  1.00  0.00    -0.744 OA
ENDBRANCH  44  47
ENDBRANCH  26  40
BRANCH  27  51
ATOM     51  C   UNL A   1      40.666  28.965  28.863  1.00  0.00     0.023 A 
ATOM     52  C   UNL A   1      39.599  28.096  29.153  1.00  0.00     0.012 A 
ATOM     53  C   UNL A   1      41.496  28.657  27.760  1.00  0.00     0.148 A 
ATOM     54  C   UNL A   1      39.357  26.968  28.361  1.00  0.00     0.002 A 
ATOM     55  C   UNL A   1      41.266  27.524  26.990  1.00  0.00     0.091 A 
ATOM     56  F   UNL A   1      42.453  29.526  27.404  1.00  0.00    -0.205 F 
ATOM     57  C   UNL A   1      40.188  26.681  27.281  1.00  0.00     0.022 A 
BRANCH  55  58
ATOM     58  S   UNL A   1      42.308  27.102  25.587  1.00  0.00     0.127 S 
ATOM     59  O   UNL A   1      42.194  28.297  24.749  1.00  0.00    -0.237 OA
ATOM     60  O   UNL A   1      43.610  26.919  26.221  1.00  0.00    -0.237 OA
ATOM     61  O   UNL A   1      41.712  25.907  25.000  1.00  0.00    -0.744 OA
ENDBRANCH  55  58
ENDBRANCH  27  51
BRANCH  39  62
ATOM     62  C   UNL A   1      42.939  34.714  30.106  1.00  0.00     0.023 A 
ATOM     63  C   UNL A   1      41.666  34.949  29.545  1.00  0.00     0.012 A 
ATOM     64  C   UNL A   1      44.017  35.522  29.702  1.00  0.00     0.148 A 
ATOM     65  C   UNL A   1      41.477  35.944  28.585  1.00  0.00     0.002 A 
ATOM     66  C   UNL A   1      43.815  36.546  28.783  1.00  0.00     0.091 A 
ATOM     67  F   UNL A   1      45.221  35.299  30.250  1.00  0.00    -0.205 F 
ATOM     68  C   UNL A   1      42.548  36.753  28.213  1.00  0.00     0.022 A 
BRANCH  66  69
ATOM     69  S   UNL A   1      45.118  37.712  28.375  1.00  0.00     0.127 S 
ATOM     70  O   UNL A   1      46.202  36.827  27.956  1.00  0.00    -0.237 OA
ATOM     71  O   UNL A   1      44.517  38.497  27.295  1.00  0.00    -0.237 OA
ATOM     72  O   UNL A   1      45.358  38.475  29.594  1.00  0.00    -0.744 OA
ENDBRANCH  66  69
ENDBRANCH  39  62
ENDBRANCH  13  14
ENDBRANCH   6   8
ENDBRANCH   5   6
ENDBRANCH   4   5
ENDBRANCH   3   4
ENDBRANCH   2   3
ENDBRANCH   1   2
BRANCH   1  73
ATOM     73  C   UNL A   1      34.839  30.470  27.596  1.00  0.00     0.188 C 
BRANCH  73  74
ATOM     74  O   UNL A   1      33.796  30.233  26.679  1.00  0.00    -0.376 OA
BRANCH  74  75
ATOM     75  C   UNL A   1      32.493  30.027  27.191  1.00  0.00     0.202 C 
BRANCH  75  76
ATOM     76  C   UNL A   1      31.778  28.676  27.070  1.00  0.00     0.261 C 
BRANCH  76  77
ATOM     77  O   UNL A   1      31.183  28.224  25.829  1.00  0.00    -0.462 OA
BRANCH  77  78
ATOM     78  C   UNL A   1      31.084  26.860  25.681  1.00  0.00     0.329 C 
ATOM     79  O   UNL A   1      30.642  26.118  26.558  1.00  0.00    -0.250 OA
BRANCH  78  80
ATOM     80  C   UNL A   1      31.774  26.284  24.424  1.00  0.00     0.203 C 
ATOM     81  C   UNL A   1      30.965  25.034  23.947  1.00  0.00     0.093 C 
ATOM     82  N   UNL A   1      32.546  27.012  23.273  1.00  0.00    -0.305 N 
ATOM     83  C   UNL A   1      31.855  24.218  23.091  1.00  0.00     0.042 A 
ATOM     84  C   UNL A   1      33.463  26.097  22.515  1.00  0.00     0.180 C 
ATOM     85  N   UNL A   1      31.833  22.873  22.851  1.00  0.00    -0.348 N 
ATOM     86  C   UNL A   1      32.966  24.696  22.445  1.00  0.00     0.081 A 
ATOM     87  C   UNL A   1      32.913  22.601  22.049  1.00  0.00     0.197 A 
ATOM     88  H   UNL A   1      31.172  22.226  23.188  1.00  0.00     0.167 HD
ATOM     89  N   UNL A   1      33.611  23.685  21.785  1.00  0.00    -0.240 NA
BRANCH  82  90
ATOM     90  C   UNL A   1      32.689  28.310  22.819  1.00  0.00     0.318 C 
ATOM     91  O   UNL A   1      33.801  28.853  22.734  1.00  0.00    -0.249 OA
ATOM     92  N   UNL A   1      31.698  29.155  22.493  1.00  0.00    -0.331 N 
ATOM     93  H   UNL A   1      31.979  30.082  22.317  1.00  0.00     0.165 HD
BRANCH  92  94
ATOM     94  C   UNL A   1      30.317  28.914  22.364  1.00  0.00     0.197 C 
BRANCH  94  95
ATOM     95  C   UNL A   1      29.314  30.020  22.316  1.00  0.00     0.169 A 
ATOM     96  N   UNL A   1      29.295  30.898  21.249  1.00  0.00    -0.218 NA
ATOM     97  N   UNL A   1      28.104  29.843  22.879  1.00  0.00    -0.157 NA
ATOM     98  C   UNL A   1      28.020  31.181  21.109  1.00  0.00     0.216 A 
ATOM     99  N   UNL A   1      27.299  30.507  22.041  1.00  0.00    -0.266 N 
ATOM    100  H   UNL A   1      26.316  30.507  22.093  1.00  0.00     0.191 HD
ENDBRANCH  94  95
ENDBRANCH  92  94
ENDBRANCH  82  90
ENDBRANCH  78  80
ENDBRANCH  77  78
ENDBRANCH  76  77
ENDBRANCH  75  76
ENDBRANCH  74  75
ENDBRANCH  73  74
ENDBRANCH   1  73
TORSDOF 23
ENDMDL
MODEL 3
REMARK VINA RESULT:     -10.3      2.256      3.561
REMARK SMILES O=C(OCCOCCOCCOC(=O)[C@H]1Cc2[nH]cnc2CN1C(=O)NCc1nc[nH]n1)c1ccc(-c2c3nc(c(-c4cccc(S(=O)(=O)[O-])c4F)c4ccc([nH]4)c(-c4cccc(S(=O)(=O)[O-])c4F)c4nc(c(-c5cccc(S(=O)(=O)[O-])c5F)c5ccc2[nH]5)C=C4)C=C3)cc1
REMARK SMILES IDX 7 1 6 2 5 3 4 4 3 5 2 6 1 7 33 8 34 9 95 10 35 11 94 12
REMARK SMILES IDX 36 13 37 14 38 15 88 16 39 17 93 18 87 19 89 20 40 21 92 22
REMARK SMILES IDX 86 23 85 24 41 26 73 27 53 28 72 29 54 30 57 31 71 32 90 33
REMARK SMILES IDX 55 34 56 35 70 37 91 38 58 39 42 40 43 41 51 42 44 43 46 44
REMARK SMILES IDX 52 45 45 46 47 47 48 48 49 49 50 50 74 51 75 52 83 53 76 54
REMARK SMILES IDX 78 55 84 56 77 57 79 58 80 59 81 60 82 61 59 62 60 63 68 64
REMARK SMILES IDX 61 65 63 66 69 67 62 68 64 69 65 70 66 71 67 72 8 73 9 74
REMARK SMILES IDX 10 75 11 76 12 77 13 78 14 79 15 80 16 81 23 82 17 83 22 84
REMARK SMILES IDX 18 85 21 86 19 87 20 89 24 90 25 91 26 92 27 94 28 95 29 96
REMARK SMILES IDX 32 97 30 98 31 99
REMARK H PARENT 89 25 57 36 18 88 26 93 31 100
REMARK Flexibility Score: inf
ROOT
ATOM      1  C   UNL A   1      34.562  29.811  27.213  1.00  0.00     0.188 C 
ENDROOT
BRANCH   1   2
ATOM      2  O   UNL A   1      33.845  30.881  27.815  1.00  0.00    -0.376 OA
BRANCH   2   3
ATOM      3  C   UNL A   1      34.284  32.230  27.770  1.00  0.00     0.202 C 
BRANCH   3   4
ATOM      4  C   UNL A   1      34.194  33.197  28.960  1.00  0.00     0.261 C 
BRANCH   4   5
ATOM      5  O   UNL A   1      35.145  33.098  30.024  1.00  0.00    -0.460 OA
BRANCH   5   6
ATOM      6  C   UNL A   1      35.498  32.015  30.739  1.00  0.00     0.338 C 
ATOM      7  O   UNL A   1      35.043  31.855  31.869  1.00  0.00    -0.246 OA
BRANCH   6   8
ATOM      8  C   UNL A   1      36.533  31.078  30.255  1.00  0.00     0.060 A 
ATOM      9  C   UNL A   1      36.493  29.706  30.502  1.00  0.00     0.016 A 
ATOM     10  C   UNL A   1      37.663  31.661  29.646  1.00  0.00     0.016 A 
ATOM     11  C   UNL A   1      37.608  28.938  30.235  1.00  0.00     0.010 A 
ATOM     12  C   UNL A   1      38.790  30.902  29.399  1.00  0.00     0.010 A 
ATOM     13  C   UNL A   1      38.772  29.567  29.787  1.00  0.00    -0.014 A 
BRANCH  13  14
ATOM     14  C   UNL A   1      40.005  28.843  30.028  1.00  0.00     0.031 A 
ATOM     15  C   UNL A   1      40.562  28.884  31.392  1.00  0.00     0.074 A 
ATOM     16  C   UNL A   1      40.622  28.231  28.999  1.00  0.00     0.049 A 
ATOM     17  N   UNL A   1      41.633  29.490  31.788  1.00  0.00    -0.248 NA
ATOM     18  C   UNL A   1      39.789  28.248  32.464  1.00  0.00     0.031 C 
ATOM     19  C   UNL A   1      40.055  27.916  27.681  1.00  0.00     0.029 A 
ATOM     20  N   UNL A   1      41.849  27.644  28.960  1.00  0.00    -0.354 N 
ATOM     21  C   UNL A   1      41.797  29.116  33.117  1.00  0.00     0.074 A 
ATOM     22  C   UNL A   1      40.560  28.497  33.523  1.00  0.00     0.031 C 
ATOM     23  C   UNL A   1      40.823  26.980  27.087  1.00  0.00     0.029 A 
ATOM     24  C   UNL A   1      41.989  26.741  27.916  1.00  0.00     0.049 A 
ATOM     25  H   UNL A   1      42.566  27.840  29.606  1.00  0.00     0.167 HD
ATOM     26  C   UNL A   1      43.017  29.122  33.720  1.00  0.00     0.034 A 
ATOM     27  C   UNL A   1      42.940  25.786  27.805  1.00  0.00     0.034 A 
ATOM     28  C   UNL A   1      43.996  29.872  32.985  1.00  0.00     0.049 A 
ATOM     29  C   UNL A   1      44.078  26.176  28.668  1.00  0.00     0.074 A 
ATOM     30  C   UNL A   1      44.122  31.180  32.562  1.00  0.00     0.029 A 
ATOM     31  N   UNL A   1      44.949  29.159  32.300  1.00  0.00    -0.354 N 
ATOM     32  N   UNL A   1      44.860  27.191  28.426  1.00  0.00    -0.248 NA
ATOM     33  C   UNL A   1      44.123  25.664  30.027  1.00  0.00     0.031 C 
ATOM     34  C   UNL A   1      44.837  31.107  31.334  1.00  0.00     0.029 A 
ATOM     35  C   UNL A   1      45.121  29.763  31.084  1.00  0.00     0.049 A 
ATOM     36  H   UNL A   1      45.422  28.358  32.625  1.00  0.00     0.167 HD
ATOM     37  C   UNL A   1      45.156  27.711  29.680  1.00  0.00     0.074 A 
ATOM     38  C   UNL A   1      44.789  26.658  30.621  1.00  0.00     0.031 C 
ATOM     39  C   UNL A   1      45.391  29.046  29.854  1.00  0.00     0.034 A 
BRANCH  26  40
ATOM     40  C   UNL A   1      43.424  28.173  34.817  1.00  0.00     0.023 A 
ATOM     41  C   UNL A   1      44.003  28.716  35.984  1.00  0.00     0.012 A 
ATOM     42  C   UNL A   1      43.506  26.773  34.649  1.00  0.00     0.148 A 
ATOM     43  C   UNL A   1      44.649  27.907  36.925  1.00  0.00     0.002 A 
ATOM     44  C   UNL A   1      44.063  25.965  35.632  1.00  0.00     0.091 A 
ATOM     45  F   UNL A   1      43.172  26.219  33.478  1.00  0.00    -0.205 F 
ATOM     46  C   UNL A   1      44.663  26.527  36.759  1.00  0.00     0.022 A 
BRANCH  44  47
ATOM     47  S   UNL A   1      44.016  24.177  35.479  1.00  0.00     0.127 S 
ATOM     48  O   UNL A   1      42.582  23.919  35.465  1.00  0.00    -0.237 OA
ATOM     49  O   UNL A   1      44.701  23.960  34.205  1.00  0.00    -0.237 OA
ATOM     50  O   UNL A   1      44.757  23.690  36.639  1.00  0.00    -0.744 OA
ENDBRANCH  44  47
ENDBRANCH  26  40
BRANCH  27  51
ATOM     51  C   UNL A   1      42.807  24.441  27.203  1.00  0.00     0.023 A 
ATOM     52  C   UNL A   1      41.559  23.794  27.211  1.00  0.00     0.012 A 
ATOM     53  C   UNL A   1      43.840  23.890  26.409  1.00  0.00     0.148 A 
ATOM     54  C   UNL A   1      41.341  22.645  26.443  1.00  0.00     0.002 A 
ATOM     55  C   UNL A   1      43.627  22.736  25.666  1.00  0.00     0.091 A 
ATOM     56  F   UNL A   1      45.004  24.547  26.306  1.00  0.00    -0.205 F 
ATOM     57  C   UNL A   1      42.373  22.116  25.671  1.00  0.00     0.022 A 
BRANCH  55  58
ATOM     58  S   UNL A   1      44.922  22.006  24.654  1.00  0.00     0.127 S 
ATOM     59  O   UNL A   1      44.265  20.807  24.132  1.00  0.00    -0.237 OA
ATOM     60  O   UNL A   1      45.161  23.054  23.666  1.00  0.00    -0.237 OA
ATOM     61  O   UNL A   1      46.024  21.728  25.568  1.00  0.00    -0.744 OA
ENDBRANCH  55  58
ENDBRANCH  27  51
BRANCH  39  62
ATOM     62  C   UNL A   1      45.624  29.900  28.632  1.00  0.00     0.023 A 
ATOM     63  C   UNL A   1      44.551  30.437  27.890  1.00  0.00     0.012 A 
ATOM     64  C   UNL A   1      46.931  30.327  28.339  1.00  0.00     0.148 A 
ATOM     65  C   UNL A   1      44.777  31.354  26.862  1.00  0.00     0.002 A 
ATOM     66  C   UNL A   1      47.148  31.278  27.348  1.00  0.00     0.091 A 
ATOM     67  F   UNL A   1      47.944  29.818  29.058  1.00  0.00    -0.205 F 
ATOM     68  C   UNL A   1      46.075  31.786  26.599  1.00  0.00     0.022 A 
BRANCH  66  69
ATOM     69  S   UNL A   1      48.776  31.981  27.063  1.00  0.00     0.127 S 
ATOM     70  O   UNL A   1      49.533  30.824  26.593  1.00  0.00    -0.237 OA
ATOM     71  O   UNL A   1      48.511  32.995  26.041  1.00  0.00    -0.237 OA
ATOM     72  O   UNL A   1      49.195  32.535  28.346  1.00  0.00    -0.744 OA
ENDBRANCH  66  69
ENDBRANCH  39  62
ENDBRANCH  13  14
ENDBRANCH   6   8
ENDBRANCH   5   6
ENDBRANCH   4   5
ENDBRANCH   3   4
ENDBRANCH   2   3
ENDBRANCH   1   2
BRANCH   1  73
ATOM     73  C   UNL A   1      33.933  28.433  26.986  1.00  0.00     0.188 C 
BRANCH  73  74
ATOM     74  O   UNL A   1      32.628  28.313  27.505  1.00  0.00    -0.376 OA
BRANCH  74  75
ATOM     75  C   UNL A   1      31.672  27.599  26.745  1.00  0.00     0.202 C 
BRANCH  75  76
ATOM     76  C   UNL A   1      32.068  26.431  25.834  1.00  0.00     0.261 C 
BRANCH  76  77
ATOM     77  O   UNL A   1      31.320  25.191  25.798  1.00  0.00    -0.462 OA
BRANCH  77  78
ATOM     78  C   UNL A   1      31.936  24.109  26.383  1.00  0.00     0.329 C 
ATOM     79  O   UNL A   1      31.601  23.653  27.476  1.00  0.00    -0.250 OA
BRANCH  78  80
ATOM     80  C   UNL A   1      33.232  23.636  25.688  1.00  0.00     0.203 C 
ATOM     81  C   UNL A   1      34.316  23.382  26.785  1.00  0.00     0.093 C 
ATOM     82  N   UNL A   1      33.428  22.772  24.396  1.00  0.00    -0.305 N 
ATOM     83  C   UNL A   1      35.642  23.414  26.129  1.00  0.00     0.042 A 
ATOM     84  C   UNL A   1      34.788  22.934  23.785  1.00  0.00     0.180 C 
ATOM     85  N   UNL A   1      36.862  23.740  26.652  1.00  0.00    -0.348 N 
ATOM     86  C   UNL A   1      35.852  23.206  24.789  1.00  0.00     0.081 A 
ATOM     87  C   UNL A   1      37.759  23.686  25.615  1.00  0.00     0.197 A 
ATOM     88  H   UNL A   1      37.057  23.969  27.589  1.00  0.00     0.167 HD
ATOM     89  N   UNL A   1      37.178  23.362  24.480  1.00  0.00    -0.240 NA
BRANCH  82  90
ATOM     90  C   UNL A   1      32.642  21.962  23.598  1.00  0.00     0.318 C 
ATOM     91  O   UNL A   1      32.279  22.316  22.466  1.00  0.00    -0.249 OA
ATOM     92  N   UNL A   1      32.121  20.772  23.936  1.00  0.00    -0.331 N 
ATOM     93  H   UNL A   1      31.479  20.397  23.291  1.00  0.00     0.165 HD
BRANCH  92  94
ATOM     94  C   UNL A   1      32.357  19.978  25.075  1.00  0.00     0.197 C 
BRANCH  94  95
ATOM     95  C   UNL A   1      33.025  18.644  24.996  1.00  0.00     0.169 A 
ATOM     96  N   UNL A   1      32.279  17.504  24.765  1.00  0.00    -0.218 NA
ATOM     97  N   UNL A   1      34.283  18.559  24.525  1.00  0.00    -0.157 NA
ATOM     98  C   UNL A   1      33.084  16.751  24.051  1.00  0.00     0.216 A 
ATOM     99  N   UNL A   1      34.260  17.401  23.854  1.00  0.00    -0.266 N 
ATOM    100  H   UNL A   1      34.995  17.065  23.292  1.00  0.00     0.191 HD
ENDBRANCH  94  95
ENDBRANCH  92  94
ENDBRANCH  82  90
ENDBRANCH  78  80
ENDBRANCH  77  78
ENDBRANCH  76  77
ENDBRANCH  75  76
ENDBRANCH  74  75
ENDBRANCH  73  74
ENDBRANCH   1  73
TORSDOF 23
ENDMDL
