MODEL 1
REMARK VINA RESULT:      -9.8      0.000      0.000
REMARK SMILES CCCn1ncc(C(=O)N2CCC[C@@H]2C(=O)OCCOCCOCCOC(=O)c2ccc(-c3c4nc(c(-c5cccc(S(=O)(=O)[O-])c5F)c5ccc([nH]5)c(-c5cccc(S(=O)(=O)[O-])c5F)c5nc(c(-c6cccc(S(=O)(=O)[O-])c6F)c6ccc3[nH]6)C=C5)C=C4)cc2)c1C
REMARK SMILES IDX 21 1 20 2 19 3 18 4 17 5 15 6 16 7 14 8 10 9 11 10 12 11
REMARK SMILES IDX 13 12 8 13 9 14 7 15 4 16 5 17 92 18 6 19 93 20 3 21 2 22
REMARK SMILES IDX 1 23 22 24 23 25 24 26 25 27 26 28 27 29 28 30 29 31 30 32
REMARK SMILES IDX 91 33 31 34 90 35 32 36 33 37 34 38 84 39 35 40 89 41 83 42
REMARK SMILES IDX 85 43 36 44 88 45 82 46 81 47 37 49 69 50 49 51 68 52 50 53
REMARK SMILES IDX 53 54 67 55 86 56 51 57 52 58 66 60 87 61 54 62 38 63 39 64
REMARK SMILES IDX 47 65 40 66 42 67 48 68 41 69 43 70 44 71 45 72 46 73 70 74
REMARK SMILES IDX 71 75 79 76 72 77 74 78 80 79 73 80 75 81 76 82 77 83 78 84
REMARK SMILES IDX 55 85 56 86 64 87 57 88 59 89 65 90 58 91 60 92 61 93 62 94
REMARK SMILES IDX 63 95
REMARK H PARENT 85 48 53 59
REMARK Flexibility Score: inf
ROOT
ATOM      1  C   UNL A   1      36.539  23.027  25.180  1.00  0.00     0.188 C 
ENDROOT
BRANCH   1   2
ATOM      2  O   UNL A   1      35.236  22.639  24.825  1.00  0.00    -0.376 OA
BRANCH   2   3
ATOM      3  C   UNL A   1      34.306  23.603  24.367  1.00  0.00     0.202 C 
BRANCH   3   4
ATOM      4  C   UNL A   1      34.365  25.095  24.761  1.00  0.00     0.261 C 
BRANCH   4   5
ATOM      5  O   UNL A   1      34.186  26.056  23.702  1.00  0.00    -0.462 OA
BRANCH   5   6
ATOM      6  C   UNL A   1      33.988  27.336  24.102  1.00  0.00     0.328 C 
ATOM      7  O   UNL A   1      34.337  28.309  23.435  1.00  0.00    -0.250 OA
BRANCH   6   8
ATOM      8  C   UNL A   1      33.296  27.511  25.476  1.00  0.00     0.195 C 
ATOM      9  N   UNL A   1      31.901  27.880  25.289  1.00  0.00    -0.325 N 
ATOM     10  C   UNL A   1      31.418  28.751  26.329  1.00  0.00     0.121 C 
ATOM     11  C   UNL A   1      32.648  29.562  26.661  1.00  0.00     0.024 C 
ATOM     12  C   UNL A   1      33.793  28.564  26.479  1.00  0.00     0.039 C 
BRANCH   9  13
ATOM     13  C   UNL A   1      31.091  27.244  24.388  1.00  0.00     0.258 C 
ATOM     14  O   UNL A   1      30.975  26.028  24.310  1.00  0.00    -0.269 OA
BRANCH  13  15
ATOM     15  C   UNL A   1      30.495  28.204  23.466  1.00  0.00     0.080 A 
ATOM     16  N   UNL A   1      29.126  29.386  22.215  1.00  0.00    -0.269 N 
ATOM     17  N   UNL A   1      30.350  29.789  21.826  1.00  0.00    -0.180 NA
ATOM     18  C   UNL A   1      29.158  28.354  23.125  1.00  0.00     0.048 A 
ATOM     19  C   UNL A   1      31.171  29.101  22.608  1.00  0.00     0.149 A 
ATOM     20  C   UNL A   1      27.994  27.537  23.550  1.00  0.00     0.067 C 
BRANCH  16  21
ATOM     21  C   UNL A   1      27.992  30.067  21.622  1.00  0.00     0.144 C 
BRANCH  21  22
ATOM     22  C   UNL A   1      28.342  31.453  21.067  1.00  0.00     0.020 C 
ATOM     23  C   UNL A   1      28.297  32.573  22.103  1.00  0.00     0.006 C 
ENDBRANCH  21  22
ENDBRANCH  16  21
ENDBRANCH  13  15
ENDBRANCH   9  13
ENDBRANCH   6   8
ENDBRANCH   5   6
ENDBRANCH   4   5
ENDBRANCH   3   4
ENDBRANCH   2   3
ENDBRANCH   1   2
BRANCH   1  24
ATOM     24  C   UNL A   1      37.512  22.011  25.793  1.00  0.00     0.188 C 
BRANCH  24  25
ATOM     25  O   UNL A   1      38.873  22.293  26.045  1.00  0.00    -0.376 OA
BRANCH  25  26
ATOM     26  C   UNL A   1      39.937  21.370  26.198  1.00  0.00     0.202 C 
BRANCH  26  27
ATOM     27  C   UNL A   1      41.415  21.735  26.250  1.00  0.00     0.261 C 
BRANCH  27  28
ATOM     28  O   UNL A   1      41.721  22.790  27.118  1.00  0.00    -0.460 OA
BRANCH  28  29
ATOM     29  C   UNL A   1      41.957  23.952  26.481  1.00  0.00     0.338 C 
ATOM     30  O   UNL A   1      42.602  24.128  25.456  1.00  0.00    -0.246 OA
BRANCH  29  31
ATOM     31  C   UNL A   1      41.244  24.992  27.215  1.00  0.00     0.060 A 
ATOM     32  C   UNL A   1      40.411  25.838  26.482  1.00  0.00     0.016 A 
ATOM     33  C   UNL A   1      41.598  25.234  28.550  1.00  0.00     0.016 A 
ATOM     34  C   UNL A   1      40.152  27.078  27.004  1.00  0.00     0.010 A 
ATOM     35  C   UNL A   1      41.361  26.476  29.059  1.00  0.00     0.010 A 
ATOM     36  C   UNL A   1      40.744  27.403  28.227  1.00  0.00    -0.014 A 
BRANCH  36  37
ATOM     37  C   UNL A   1      40.754  28.786  28.622  1.00  0.00     0.031 A 
ATOM     38  C   UNL A   1      41.992  29.482  28.243  1.00  0.00     0.074 A 
ATOM     39  C   UNL A   1      39.659  29.335  29.181  1.00  0.00     0.049 A 
ATOM     40  N   UNL A   1      42.908  29.936  29.029  1.00  0.00    -0.248 NA
ATOM     41  C   UNL A   1      42.346  29.505  26.814  1.00  0.00     0.031 C 
ATOM     42  C   UNL A   1      38.320  28.742  29.304  1.00  0.00     0.029 A 
ATOM     43  N   UNL A   1      39.472  30.607  29.614  1.00  0.00    -0.354 N 
ATOM     44  C   UNL A   1      43.819  30.549  28.180  1.00  0.00     0.074 A 
ATOM     45  C   UNL A   1      43.562  30.046  26.858  1.00  0.00     0.031 C 
ATOM     46  C   UNL A   1      37.422  29.727  29.526  1.00  0.00     0.029 A 
ATOM     47  C   UNL A   1      38.135  30.982  29.684  1.00  0.00     0.049 A 
ATOM     48  H   UNL A   1      40.213  31.208  29.855  1.00  0.00     0.167 HD
ATOM     49  C   UNL A   1      44.484  31.668  28.567  1.00  0.00     0.034 A 
ATOM     50  C   UNL A   1      37.668  32.251  29.756  1.00  0.00     0.034 A 
ATOM     51  C   UNL A   1      44.465  31.841  29.996  1.00  0.00     0.049 A 
ATOM     52  C   UNL A   1      38.792  33.107  30.207  1.00  0.00     0.074 A 
ATOM     53  C   UNL A   1      44.861  31.071  31.071  1.00  0.00     0.029 A 
ATOM     54  N   UNL A   1      43.599  32.782  30.496  1.00  0.00    -0.354 N 
ATOM     55  N   UNL A   1      39.326  33.033  31.393  1.00  0.00    -0.248 NA
ATOM     56  C   UNL A   1      39.614  33.744  29.190  1.00  0.00     0.031 C 
ATOM     57  C   UNL A   1      43.873  31.299  32.072  1.00  0.00     0.029 A 
ATOM     58  C   UNL A   1      42.962  32.236  31.580  1.00  0.00     0.049 A 
ATOM     59  H   UNL A   1      43.461  33.690  30.139  1.00  0.00     0.167 HD
ATOM     60  C   UNL A   1      40.690  33.180  31.168  1.00  0.00     0.074 A 
ATOM     61  C   UNL A   1      40.792  33.735  29.820  1.00  0.00     0.031 C 
ATOM     62  C   UNL A   1      41.605  32.560  31.970  1.00  0.00     0.034 A 
BRANCH  49  63
ATOM     63  C   UNL A   1      44.807  32.792  27.620  1.00  0.00     0.023 A 
ATOM     64  C   UNL A   1      43.854  33.115  26.637  1.00  0.00     0.012 A 
ATOM     65  C   UNL A   1      46.090  33.378  27.496  1.00  0.00     0.148 A 
ATOM     66  C   UNL A   1      44.166  33.975  25.580  1.00  0.00     0.002 A 
ATOM     67  C   UNL A   1      46.361  34.312  26.508  1.00  0.00     0.091 A 
ATOM     68  F   UNL A   1      47.109  32.931  28.240  1.00  0.00    -0.205 F 
ATOM     69  C   UNL A   1      45.412  34.593  25.526  1.00  0.00     0.022 A 
BRANCH  67  70
ATOM     70  S   UNL A   1      47.928  35.189  26.463  1.00  0.00     0.127 S 
ATOM     71  O   UNL A   1      47.619  36.298  25.565  1.00  0.00    -0.237 OA
ATOM     72  O   UNL A   1      48.106  35.557  27.867  1.00  0.00    -0.237 OA
ATOM     73  O   UNL A   1      48.899  34.215  25.977  1.00  0.00    -0.744 OA
ENDBRANCH  67  70
ENDBRANCH  49  63
BRANCH  50  74
ATOM     74  C   UNL A   1      36.425  32.828  29.192  1.00  0.00     0.023 A 
ATOM     75  C   UNL A   1      35.761  32.152  28.149  1.00  0.00     0.012 A 
ATOM     76  C   UNL A   1      35.739  33.874  29.850  1.00  0.00     0.148 A 
ATOM     77  C   UNL A   1      34.448  32.483  27.795  1.00  0.00     0.002 A 
ATOM     78  C   UNL A   1      34.437  34.207  29.488  1.00  0.00     0.091 A 
ATOM     79  F   UNL A   1      36.326  34.479  30.892  1.00  0.00    -0.205 F 
ATOM     80  C   UNL A   1      33.783  33.503  28.470  1.00  0.00     0.022 A 
BRANCH  78  81
ATOM     81  S   UNL A   1      33.509  35.497  30.329  1.00  0.00     0.127 S 
ATOM     82  O   UNL A   1      33.766  36.659  29.476  1.00  0.00    -0.237 OA
ATOM     83  O   UNL A   1      32.144  34.981  30.263  1.00  0.00    -0.237 OA
ATOM     84  O   UNL A   1      34.084  35.598  31.665  1.00  0.00    -0.744 OA
ENDBRANCH  78  81
ENDBRANCH  50  74
BRANCH  62  85
ATOM     85  C   UNL A   1      41.112  31.932  33.252  1.00  0.00     0.023 A 
ATOM     86  C   UNL A   1      40.704  30.584  33.326  1.00  0.00     0.012 A 
ATOM     87  C   UNL A   1      41.222  32.671  34.443  1.00  0.00     0.148 A 
ATOM     88  C   UNL A   1      40.389  29.994  34.555  1.00  0.00     0.002 A 
ATOM     89  C   UNL A   1      40.954  32.069  35.666  1.00  0.00     0.091 A 
ATOM     90  F   UNL A   1      41.616  33.951  34.360  1.00  0.00    -0.205 F 
ATOM     91  C   UNL A   1      40.527  30.733  35.726  1.00  0.00     0.022 A 
BRANCH  89  92
ATOM     92  S   UNL A   1      41.237  32.928  37.216  1.00  0.00     0.127 S 
ATOM     93  O   UNL A   1      40.155  33.909  37.224  1.00  0.00    -0.237 OA
ATOM     94  O   UNL A   1      41.099  31.854  38.202  1.00  0.00    -0.237 OA
ATOM     95  O   UNL A   1      42.584  33.479  37.127  1.00  0.00    -0.744 OA
ENDBRANCH  89  92
ENDBRANCH  62  85
ENDBRANCH  36  37
ENDBRANCH  29  31
ENDBRANCH  28  29
ENDBRANCH  27  28
ENDBRANCH  26  27
ENDBRANCH  25  26
ENDBRANCH  24  25
ENDBRANCH   1  24
TORSDOF 24
ENDMDL
MODEL 2
REMARK VINA RESULT:      -9.3      1.598      2.496
REMARK SMILES CCCn1ncc(C(=O)N2CCC[C@@H]2C(=O)OCCOCCOCCOC(=O)c2ccc(-c3c4nc(c(-c5cccc(S(=O)(=O)[O-])c5F)c5ccc([nH]5)c(-c5cccc(S(=O)(=O)[O-])c5F)c5nc(c(-c6cccc(S(=O)(=O)[O-])c6F)c6ccc3[nH]6)C=C5)C=C4)cc2)c1C
REMARK SMILES IDX 21 1 20 2 19 3 18 4 17 5 15 6 16 7 14 8 10 9 11 10 12 11
REMARK SMILES IDX 13 12 8 13 9 14 7 15 4 16 5 17 92 18 6 19 93 20 3 21 2 22
REMARK SMILES IDX 1 23 22 24 23 25 24 26 25 27 26 28 27 29 28 30 29 31 30 32
REMARK SMILES IDX 91 33 31 34 90 35 32 36 33 37 34 38 84 39 35 40 89 41 83 42
REMARK SMILES IDX 85 43 36 44 88 45 82 46 81 47 37 49 69 50 49 51 68 52 50 53
REMARK SMILES IDX 53 54 67 55 86 56 51 57 52 58 66 60 87 61 54 62 38 63 39 64
REMARK SMILES IDX 47 65 40 66 42 67 48 68 41 69 43 70 44 71 45 72 46 73 70 74
REMARK SMILES IDX 71 75 79 76 72 77 74 78 80 79 73 80 75 81 76 82 77 83 78 84
REMARK SMILES IDX 55 85 56 86 64 87 57 88 59 89 65 90 58 91 60 92 61 93 62 94
REMARK SMILES IDX 63 95
REMARK H PARENT 85 48 53 59
REMARK Flexibility Score: inf
ROOT
ATOM      1  C   UNL A   1      36.483  23.576  25.196  1.00  0.00     0.188 C 
ENDROOT
BRANCH   1   2
ATOM      2  O   UNL A   1      35.114  23.316  25.013  1.00  0.00    -0.376 OA
BRANCH   2   3
ATOM      3  C   UNL A   1      34.257  24.328  24.519  1.00  0.00     0.202 C 
BRANCH   3   4
ATOM      4  C   UNL A   1      34.404  25.821  24.885  1.00  0.00     0.261 C 
BRANCH   4   5
ATOM      5  O   UNL A   1      34.167  26.777  23.833  1.00  0.00    -0.462 OA
BRANCH   5   6
ATOM      6  C   UNL A   1      34.016  28.062  24.235  1.00  0.00     0.328 C 
ATOM      7  O   UNL A   1      34.238  29.025  23.502  1.00  0.00    -0.250 OA
BRANCH   6   8
ATOM      8  C   UNL A   1      33.553  28.258  25.699  1.00  0.00     0.195 C 
ATOM      9  N   UNL A   1      32.210  28.819  25.727  1.00  0.00    -0.325 N 
ATOM     10  C   UNL A   1      32.002  29.693  26.852  1.00  0.00     0.121 C 
ATOM     11  C   UNL A   1      33.366  30.316  27.027  1.00  0.00     0.024 C 
ATOM     12  C   UNL A   1      34.325  29.185  26.652  1.00  0.00     0.039 C 
BRANCH   9  13
ATOM     13  C   UNL A   1      31.202  28.342  24.934  1.00  0.00     0.258 C 
ATOM     14  O   UNL A   1      30.522  29.042  24.196  1.00  0.00    -0.269 OA
BRANCH  13  15
ATOM     15  C   UNL A   1      30.976  26.924  25.188  1.00  0.00     0.080 A 
ATOM     16  N   UNL A   1      30.699  24.748  25.019  1.00  0.00    -0.269 N 
ATOM     17  N   UNL A   1      30.365  25.020  26.295  1.00  0.00    -0.180 NA
ATOM     18  C   UNL A   1      30.972  25.876  24.278  1.00  0.00     0.048 A 
ATOM     19  C   UNL A   1      30.567  26.326  26.402  1.00  0.00     0.149 A 
ATOM     20  C   UNL A   1      31.127  25.927  22.803  1.00  0.00     0.067 C 
BRANCH  16  21
ATOM     21  C   UNL A   1      30.706  23.354  24.625  1.00  0.00     0.144 C 
BRANCH  21  22
ATOM     22  C   UNL A   1      30.725  22.389  25.817  1.00  0.00     0.020 C 
ATOM     23  C   UNL A   1      32.106  21.831  26.150  1.00  0.00     0.006 C 
ENDBRANCH  21  22
ENDBRANCH  16  21
ENDBRANCH  13  15
ENDBRANCH   9  13
ENDBRANCH   6   8
ENDBRANCH   5   6
ENDBRANCH   4   5
ENDBRANCH   3   4
ENDBRANCH   2   3
ENDBRANCH   1   2
BRANCH   1  24
ATOM     24  C   UNL A   1      37.397  22.517  25.827  1.00  0.00     0.188 C 
BRANCH  24  25
ATOM     25  O   UNL A   1      38.788  22.695  26.000  1.00  0.00    -0.376 OA
BRANCH  25  26
ATOM     26  C   UNL A   1      39.786  21.695  26.088  1.00  0.00     0.202 C 
BRANCH  26  27
ATOM     27  C   UNL A   1      41.286  21.955  26.160  1.00  0.00     0.261 C 
BRANCH  27  28
ATOM     28  O   UNL A   1      41.652  22.996  27.023  1.00  0.00    -0.460 OA
BRANCH  28  29
ATOM     29  C   UNL A   1      41.919  24.149  26.382  1.00  0.00     0.338 C 
ATOM     30  O   UNL A   1      42.552  24.302  25.346  1.00  0.00    -0.246 OA
BRANCH  29  31
ATOM     31  C   UNL A   1      41.255  25.213  27.128  1.00  0.00     0.060 A 
ATOM     32  C   UNL A   1      40.580  26.188  26.391  1.00  0.00     0.016 A 
ATOM     33  C   UNL A   1      41.516  25.333  28.500  1.00  0.00     0.016 A 
ATOM     34  C   UNL A   1      40.406  27.414  26.977  1.00  0.00     0.010 A 
ATOM     35  C   UNL A   1      41.364  26.561  29.075  1.00  0.00     0.010 A 
ATOM     36  C   UNL A   1      40.919  27.598  28.262  1.00  0.00    -0.014 A 
BRANCH  36  37
ATOM     37  C   UNL A   1      41.037  28.945  28.753  1.00  0.00     0.031 A 
ATOM     38  C   UNL A   1      42.264  29.616  28.299  1.00  0.00     0.074 A 
ATOM     39  C   UNL A   1      40.032  29.495  29.459  1.00  0.00     0.049 A 
ATOM     40  N   UNL A   1      43.275  29.969  29.017  1.00  0.00    -0.248 NA
ATOM     41  C   UNL A   1      42.475  29.733  26.847  1.00  0.00     0.031 C 
ATOM     42  C   UNL A   1      38.684  28.950  29.677  1.00  0.00     0.029 A 
ATOM     43  N   UNL A   1      39.952  30.736  30.000  1.00  0.00    -0.354 N 
ATOM     44  C   UNL A   1      44.126  30.606  28.125  1.00  0.00     0.074 A 
ATOM     45  C   UNL A   1      43.715  30.218  26.803  1.00  0.00     0.031 C 
ATOM     46  C   UNL A   1      37.863  29.952  30.061  1.00  0.00     0.029 A 
ATOM     47  C   UNL A   1      38.649  31.161  30.234  1.00  0.00     0.049 A 
ATOM     48  H   UNL A   1      40.743  31.286  30.206  1.00  0.00     0.167 HD
ATOM     49  C   UNL A   1      44.881  31.663  28.521  1.00  0.00     0.034 A 
ATOM     50  C   UNL A   1      38.255  32.439  30.445  1.00  0.00     0.034 A 
ATOM     51  C   UNL A   1      45.013  31.727  29.952  1.00  0.00     0.049 A 
ATOM     52  C   UNL A   1      39.459  33.211  30.838  1.00  0.00     0.074 A 
ATOM     53  C   UNL A   1      45.476  30.862  30.923  1.00  0.00     0.029 A 
ATOM     54  N   UNL A   1      44.249  32.663  30.606  1.00  0.00    -0.354 N 
ATOM     55  N   UNL A   1      40.104  33.023  31.954  1.00  0.00    -0.248 NA
ATOM     56  C   UNL A   1      40.206  33.889  29.790  1.00  0.00     0.031 C 
ATOM     57  C   UNL A   1      44.605  31.054  32.035  1.00  0.00     0.029 A 
ATOM     58  C   UNL A   1      43.697  32.063  31.707  1.00  0.00     0.049 A 
ATOM     59  H   UNL A   1      44.121  33.600  30.331  1.00  0.00     0.167 HD
ATOM     60  C   UNL A   1      41.445  33.130  31.601  1.00  0.00     0.074 A 
ATOM     61  C   UNL A   1      41.439  33.782  30.292  1.00  0.00     0.031 C 
ATOM     62  C   UNL A   1      42.404  32.413  32.257  1.00  0.00     0.034 A 
BRANCH  49  63
ATOM     63  C   UNL A   1      45.163  32.842  27.629  1.00  0.00     0.023 A 
ATOM     64  C   UNL A   1      44.396  32.977  26.457  1.00  0.00     0.012 A 
ATOM     65  C   UNL A   1      46.297  33.680  27.760  1.00  0.00     0.148 A 
ATOM     66  C   UNL A   1      44.745  33.896  25.464  1.00  0.00     0.002 A 
ATOM     67  C   UNL A   1      46.577  34.663  26.823  1.00  0.00     0.091 A 
ATOM     68  F   UNL A   1      47.203  33.442  28.715  1.00  0.00    -0.205 F 
ATOM     69  C   UNL A   1      45.822  34.756  25.655  1.00  0.00     0.022 A 
BRANCH  67  70
ATOM     70  S   UNL A   1      47.907  35.843  27.082  1.00  0.00     0.127 S 
ATOM     71  O   UNL A   1      49.073  34.966  27.130  1.00  0.00    -0.237 OA
ATOM     72  O   UNL A   1      47.805  36.676  25.884  1.00  0.00    -0.237 OA
ATOM     73  O   UNL A   1      47.568  36.537  28.318  1.00  0.00    -0.744 OA
ENDBRANCH  67  70
ENDBRANCH  49  63
BRANCH  50  74
ATOM     74  C   UNL A   1      36.992  33.109  30.055  1.00  0.00     0.023 A 
ATOM     75  C   UNL A   1      36.471  32.903  28.762  1.00  0.00     0.012 A 
ATOM     76  C   UNL A   1      36.156  33.714  31.021  1.00  0.00     0.148 A 
ATOM     77  C   UNL A   1      35.153  33.256  28.450  1.00  0.00     0.002 A 
ATOM     78  C   UNL A   1      34.849  34.073  30.703  1.00  0.00     0.091 A 
ATOM     79  F   UNL A   1      36.608  33.851  32.274  1.00  0.00    -0.205 F 
ATOM     80  C   UNL A   1      34.340  33.832  29.422  1.00  0.00     0.022 A 
BRANCH  78  81
ATOM     81  S   UNL A   1      33.734  34.801  31.912  1.00  0.00     0.127 S 
ATOM     82  O   UNL A   1      34.536  35.910  32.433  1.00  0.00    -0.237 OA
ATOM     83  O   UNL A   1      32.604  35.202  31.079  1.00  0.00    -0.237 OA
ATOM     84  O   UNL A   1      33.461  33.751  32.887  1.00  0.00    -0.744 OA
ENDBRANCH  78  81
ENDBRANCH  50  74
BRANCH  62  85
ATOM     85  C   UNL A   1      42.010  31.710  33.535  1.00  0.00     0.023 A 
ATOM     86  C   UNL A   1      41.422  30.427  33.543  1.00  0.00     0.012 A 
ATOM     87  C   UNL A   1      42.396  32.283  34.759  1.00  0.00     0.148 A 
ATOM     88  C   UNL A   1      41.201  29.745  34.744  1.00  0.00     0.002 A 
ATOM     89  C   UNL A   1      42.219  31.583  35.946  1.00  0.00     0.091 A 
ATOM     90  F   UNL A   1      42.960  33.501  34.738  1.00  0.00    -0.205 F 
ATOM     91  C   UNL A   1      41.612  30.317  35.944  1.00  0.00     0.022 A 
BRANCH  89  92
ATOM     92  S   UNL A   1      42.844  32.210  37.507  1.00  0.00     0.127 S 
ATOM     93  O   UNL A   1      44.163  31.588  37.581  1.00  0.00    -0.237 OA
ATOM     94  O   UNL A   1      42.860  33.657  37.282  1.00  0.00    -0.237 OA
ATOM     95  O   UNL A   1      41.888  31.780  38.521  1.00  0.00    -0.744 OA
ENDBRANCH  89  92
ENDBRANCH  62  85
ENDBRANCH  36  37
ENDBRANCH  29  31
ENDBRANCH  28  29
ENDBRANCH  27  28
ENDBRANCH  26  27
ENDBRANCH  25  26
ENDBRANCH  24  25
ENDBRANCH   1  24
TORSDOF 24
ENDMDL
MODEL 3
REMARK VINA RESULT:      -9.2      3.988      9.916
REMARK SMILES CCCn1ncc(C(=O)N2CCC[C@@H]2C(=O)OCCOCCOCCOC(=O)c2ccc(-c3c4nc(c(-c5cccc(S(=O)(=O)[O-])c5F)c5ccc([nH]5)c(-c5cccc(S(=O)(=O)[O-])c5F)c5nc(c(-c6cccc(S(=O)(=O)[O-])c6F)c6ccc3[nH]6)C=C5)C=C4)cc2)c1C
REMARK SMILES IDX 21 1 20 2 19 3 18 4 17 5 15 6 16 7 14 8 10 9 11 10 12 11
REMARK SMILES IDX 13 12 8 13 9 14 7 15 4 16 5 17 92 18 6 19 93 20 3 21 2 22
REMARK SMILES IDX 1 23 22 24 23 25 24 26 25 27 26 28 27 29 28 30 29 31 30 32
REMARK SMILES IDX 91 33 31 34 90 35 32 36 33 37 34 38 84 39 35 40 89 41 83 42
REMARK SMILES IDX 85 43 36 44 88 45 82 46 81 47 37 49 69 50 49 51 68 52 50 53
REMARK SMILES IDX 53 54 67 55 86 56 51 57 52 58 66 60 87 61 54 62 38 63 39 64
REMARK SMILES IDX 47 65 40 66 42 67 48 68 41 69 43 70 44 71 45 72 46 73 70 74
REMARK SMILES IDX 71 75 79 76 72 77 74 78 80 79 73 80 75 81 76 82 77 83 78 84
REMARK SMILES IDX 55 85 56 86 64 87 57 88 59 89 65 90 58 91 60 92 61 93 62 94
REMARK SMILES IDX 63 95
REMARK H PARENT 85 48 53 59
REMARK Flexibility Score: inf
ROOT
ATOM      1  C   UNL A   1      34.524  30.944  27.753  1.00  0.00     0.188 C 
ENDROOT
BRANCH   1   2
ATOM      2  O   UNL A   1      33.856  30.239  26.737  1.00  0.00    -0.376 OA
BRANCH   2   3
ATOM      3  C   UNL A   1      32.620  29.604  27.006  1.00  0.00     0.202 C 
BRANCH   3   4
ATOM      4  C   UNL A   1      31.782  28.882  25.930  1.00  0.00     0.261 C 
BRANCH   4   5
ATOM      5  O   UNL A   1      32.166  27.533  25.601  1.00  0.00    -0.462 OA
BRANCH   5   6
ATOM      6  C   UNL A   1      32.756  27.371  24.391  1.00  0.00     0.328 C 
ATOM      7  O   UNL A   1      33.698  28.062  24.006  1.00  0.00    -0.250 OA
BRANCH   6   8
ATOM      8  C   UNL A   1      32.158  26.257  23.496  1.00  0.00     0.195 C 
ATOM      9  N   UNL A   1      33.125  25.182  23.327  1.00  0.00    -0.325 N 
ATOM     10  C   UNL A   1      33.026  24.553  22.035  1.00  0.00     0.121 C 
ATOM     11  C   UNL A   1      32.624  25.707  21.148  1.00  0.00     0.024 C 
ATOM     12  C   UNL A   1      31.727  26.555  22.052  1.00  0.00     0.039 C 
BRANCH   9  13
ATOM     13  C   UNL A   1      33.837  24.667  24.375  1.00  0.00     0.258 C 
ATOM     14  O   UNL A   1      34.819  25.206  24.867  1.00  0.00    -0.269 OA
BRANCH  13  15
ATOM     15  C   UNL A   1      33.341  23.342  24.729  1.00  0.00     0.080 A 
ATOM     16  N   UNL A   1      33.121  21.194  25.152  1.00  0.00    -0.269 N 
ATOM     17  N   UNL A   1      31.859  21.662  25.185  1.00  0.00    -0.180 NA
ATOM     18  C   UNL A   1      34.042  22.144  24.775  1.00  0.00     0.048 A 
ATOM     19  C   UNL A   1      32.000  22.962  24.965  1.00  0.00     0.149 A 
ATOM     20  C   UNL A   1      35.458  21.883  24.411  1.00  0.00     0.067 C 
BRANCH  16  21
ATOM     21  C   UNL A   1      33.312  19.799  25.492  1.00  0.00     0.144 C 
BRANCH  21  22
ATOM     22  C   UNL A   1      32.559  18.841  24.560  1.00  0.00     0.020 C 
ATOM     23  C   UNL A   1      32.379  17.433  25.121  1.00  0.00     0.006 C 
ENDBRANCH  21  22
ENDBRANCH  16  21
ENDBRANCH  13  15
ENDBRANCH   9  13
ENDBRANCH   6   8
ENDBRANCH   5   6
ENDBRANCH   4   5
ENDBRANCH   3   4
ENDBRANCH   2   3
ENDBRANCH   1   2
BRANCH   1  24
ATOM     24  C   UNL A   1      33.856  32.145  28.434  1.00  0.00     0.188 C 
BRANCH  24  25
ATOM     25  O   UNL A   1      34.240  33.484  28.198  1.00  0.00    -0.376 OA
BRANCH  25  26
ATOM     26  C   UNL A   1      35.207  34.246  28.898  1.00  0.00     0.202 C 
BRANCH  26  27
ATOM     27  C   UNL A   1      36.564  33.731  29.360  1.00  0.00     0.261 C 
BRANCH  27  28
ATOM     28  O   UNL A   1      36.616  33.365  30.711  1.00  0.00    -0.460 OA
BRANCH  28  29
ATOM     29  C   UNL A   1      36.618  32.032  30.901  1.00  0.00     0.338 C 
ATOM     30  O   UNL A   1      35.810  31.364  31.530  1.00  0.00    -0.246 OA
BRANCH  29  31
ATOM     31  C   UNL A   1      37.754  31.499  30.157  1.00  0.00     0.060 A 
ATOM     32  C   UNL A   1      37.599  30.247  29.559  1.00  0.00     0.016 A 
ATOM     33  C   UNL A   1      38.993  32.145  30.270  1.00  0.00     0.016 A 
ATOM     34  C   UNL A   1      38.732  29.517  29.318  1.00  0.00     0.010 A 
ATOM     35  C   UNL A   1      40.121  31.410  30.052  1.00  0.00     0.010 A 
ATOM     36  C   UNL A   1      39.956  30.077  29.692  1.00  0.00    -0.014 A 
BRANCH  36  37
ATOM     37  C   UNL A   1      41.102  29.209  29.751  1.00  0.00     0.031 A 
ATOM     38  C   UNL A   1      41.560  28.956  31.124  1.00  0.00     0.074 A 
ATOM     39  C   UNL A   1      41.578  28.644  28.625  1.00  0.00     0.049 A 
ATOM     40  N   UNL A   1      42.660  29.353  31.670  1.00  0.00    -0.248 NA
ATOM     41  C   UNL A   1      40.596  28.356  32.061  1.00  0.00     0.031 C 
ATOM     42  C   UNL A   1      40.966  28.650  27.289  1.00  0.00     0.029 A 
ATOM     43  N   UNL A   1      42.634  27.807  28.475  1.00  0.00    -0.354 N 
ATOM     44  C   UNL A   1      42.632  28.803  32.944  1.00  0.00     0.074 A 
ATOM     45  C   UNL A   1      41.269  28.427  33.208  1.00  0.00     0.031 C 
ATOM     46  C   UNL A   1      41.508  27.655  26.554  1.00  0.00     0.029 A 
ATOM     47  C   UNL A   1      42.577  27.037  27.319  1.00  0.00     0.049 A 
ATOM     48  H   UNL A   1      43.372  27.748  29.125  1.00  0.00     0.167 HD
ATOM     49  C   UNL A   1      43.776  28.388  33.545  1.00  0.00     0.034 A 
ATOM     50  C   UNL A   1      43.290  25.911  27.076  1.00  0.00     0.034 A 
ATOM     51  C   UNL A   1      44.946  28.966  32.938  1.00  0.00     0.049 A 
ATOM     52  C   UNL A   1      44.438  25.909  28.015  1.00  0.00     0.074 A 
ATOM     53  C   UNL A   1      45.379  30.254  32.700  1.00  0.00     0.029 A 
ATOM     54  N   UNL A   1      45.677  28.156  32.103  1.00  0.00    -0.354 N 
ATOM     55  N   UNL A   1      45.415  26.769  27.964  1.00  0.00    -0.248 NA
ATOM     56  C   UNL A   1      44.277  25.220  29.286  1.00  0.00     0.031 C 
ATOM     57  C   UNL A   1      46.017  30.202  31.428  1.00  0.00     0.029 A 
ATOM     58  C   UNL A   1      45.992  28.878  30.982  1.00  0.00     0.049 A 
ATOM     59  H   UNL A   1      45.931  27.221  32.280  1.00  0.00     0.167 HD
ATOM     60  C   UNL A   1      45.684  27.066  29.295  1.00  0.00     0.074 A 
ATOM     61  C   UNL A   1      45.042  25.997  30.058  1.00  0.00     0.031 C 
ATOM     62  C   UNL A   1      46.137  28.302  29.661  1.00  0.00     0.034 A 
BRANCH  49  63
ATOM     63  C   UNL A   1      43.839  27.166  34.421  1.00  0.00     0.023 A 
ATOM     64  C   UNL A   1      43.237  25.987  33.946  1.00  0.00     0.012 A 
ATOM     65  C   UNL A   1      44.244  27.185  35.777  1.00  0.00     0.148 A 
ATOM     66  C   UNL A   1      43.042  24.884  34.783  1.00  0.00     0.002 A 
ATOM     67  C   UNL A   1      44.146  26.054  36.573  1.00  0.00     0.091 A 
ATOM     68  F   UNL A   1      44.592  28.338  36.360  1.00  0.00    -0.205 F 
ATOM     69  C   UNL A   1      43.517  24.907  36.090  1.00  0.00     0.022 A 
BRANCH  67  70
ATOM     70  S   UNL A   1      44.826  26.024  38.236  1.00  0.00     0.127 S 
ATOM     71  O   UNL A   1      43.776  26.695  38.995  1.00  0.00    -0.237 OA
ATOM     72  O   UNL A   1      44.951  24.587  38.482  1.00  0.00    -0.237 OA
ATOM     73  O   UNL A   1      46.103  26.722  38.140  1.00  0.00    -0.744 OA
ENDBRANCH  67  70
ENDBRANCH  49  63
BRANCH  50  74
ATOM     74  C   UNL A   1      42.906  24.703  26.309  1.00  0.00     0.023 A 
ATOM     75  C   UNL A   1      43.744  24.247  25.273  1.00  0.00     0.012 A 
ATOM     76  C   UNL A   1      41.882  23.843  26.765  1.00  0.00     0.148 A 
ATOM     77  C   UNL A   1      43.591  22.965  24.731  1.00  0.00     0.002 A 
ATOM     78  C   UNL A   1      41.726  22.573  26.216  1.00  0.00     0.091 A 
ATOM     79  F   UNL A   1      41.122  24.229  27.798  1.00  0.00    -0.205 F 
ATOM     80  C   UNL A   1      42.588  22.125  25.208  1.00  0.00     0.022 A 
BRANCH  78  81
ATOM     81  S   UNL A   1      40.468  21.426  26.797  1.00  0.00     0.127 S 
ATOM     82  O   UNL A   1      40.836  20.194  26.097  1.00  0.00    -0.237 OA
ATOM     83  O   UNL A   1      40.715  21.409  28.236  1.00  0.00    -0.237 OA
ATOM     84  O   UNL A   1      39.190  21.991  26.380  1.00  0.00    -0.744 OA
ENDBRANCH  78  81
ENDBRANCH  50  74
BRANCH  62  85
ATOM     85  C   UNL A   1      46.586  29.243  28.568  1.00  0.00     0.023 A 
ATOM     86  C   UNL A   1      45.733  30.222  28.015  1.00  0.00     0.012 A 
ATOM     87  C   UNL A   1      47.945  29.253  28.211  1.00  0.00     0.148 A 
ATOM     88  C   UNL A   1      46.218  31.169  27.108  1.00  0.00     0.002 A 
ATOM     89  C   UNL A   1      48.434  30.224  27.348  1.00  0.00     0.091 A 
ATOM     90  F   UNL A   1      48.747  28.320  28.749  1.00  0.00    -0.205 F 
ATOM     91  C   UNL A   1      47.572  31.179  26.785  1.00  0.00     0.022 A 
BRANCH  89  92
ATOM     92  S   UNL A   1      50.188  30.368  26.994  1.00  0.00     0.127 S 
ATOM     93  O   UNL A   1      50.382  29.330  25.985  1.00  0.00    -0.237 OA
ATOM     94  O   UNL A   1      50.297  31.740  26.493  1.00  0.00    -0.237 OA
ATOM     95  O   UNL A   1      50.870  30.146  28.263  1.00  0.00    -0.744 OA
ENDBRANCH  89  92
ENDBRANCH  62  85
ENDBRANCH  36  37
ENDBRANCH  29  31
ENDBRANCH  28  29
ENDBRANCH  27  28
ENDBRANCH  26  27
ENDBRANCH  25  26
ENDBRANCH  24  25
ENDBRANCH   1  24
TORSDOF 24
ENDMDL
