MODEL 1
REMARK VINA RESULT:      -9.3      0.000      0.000
REMARK SMILES CC(C)C[N@@H+](C[C@@H](C)C(=O)OCCOCCOCCOC(=O)c1ccc(-c2c3nc(c(-c4cccc(S(=O)(=O)[O-])c4F)c4ccc([nH]4)c(-c4cccc(S(=O)(=O)[O-])c4F)c4nc(c(-c5cccc(S(=O)(=O)[O-])c5F)c5ccc2[nH]5)C=C4)C=C3)cc1)C1CCCC1
REMARK SMILES IDX 15 1 14 2 13 3 12 4 11 5 9 6 10 7 7 8 8 9 6 10 5 11 4 13
REMARK SMILES IDX 2 14 1 15 3 16 86 17 87 18 90 19 88 20 89 21 16 22 17 23
REMARK SMILES IDX 18 24 19 25 20 26 21 27 22 28 23 29 24 30 85 31 25 32 84 33
REMARK SMILES IDX 26 34 27 35 28 36 78 37 29 38 83 39 77 40 79 41 30 42 82 43
REMARK SMILES IDX 76 44 75 45 31 47 63 48 43 49 62 50 44 51 47 52 61 53 80 54
REMARK SMILES IDX 45 55 46 56 60 58 81 59 48 60 32 61 33 62 41 63 34 64 36 65
REMARK SMILES IDX 42 66 35 67 37 68 38 69 39 70 40 71 64 72 65 73 73 74 66 75
REMARK SMILES IDX 68 76 74 77 67 78 69 79 70 80 71 81 72 82 49 83 50 84 58 85
REMARK SMILES IDX 51 86 53 87 59 88 52 89 54 90 55 91 56 92 57 93
REMARK H PARENT 5 12 79 46 47 57
REMARK Flexibility Score: inf
ROOT
ATOM      1  C   UNL A   1      31.958  28.908  27.230  1.00  0.00     0.188 C 
ENDROOT
BRANCH   1   2
ATOM      2  O   UNL A   1      31.242  28.059  26.346  1.00  0.00    -0.376 OA
BRANCH   2   3
ATOM      3  C   UNL A   1      31.334  26.654  26.507  1.00  0.00     0.202 C 
BRANCH   3   4
ATOM      4  C   UNL A   1      31.394  25.752  25.260  1.00  0.00     0.261 C 
BRANCH   4   5
ATOM      5  O   UNL A   1      32.508  24.832  25.146  1.00  0.00    -0.463 OA
BRANCH   5   6
ATOM      6  C   UNL A   1      32.219  23.552  25.491  1.00  0.00     0.314 C 
ATOM      7  O   UNL A   1      31.410  23.257  26.368  1.00  0.00    -0.252 OA
BRANCH   6   8
ATOM      8  C   UNL A   1      33.002  22.460  24.758  1.00  0.00     0.151 C 
ATOM      9  C   UNL A   1      32.651  22.655  23.283  1.00  0.00     0.026 C 
BRANCH   8  10
ATOM     10  C   UNL A   1      32.909  20.997  25.295  1.00  0.00     0.277 C 
BRANCH  10  11
ATOM     11  N   UNL A   1      34.138  20.117  25.399  1.00  0.00    -0.332 N 
ATOM     12  H   UNL A   1      34.181  19.545  26.242  1.00  0.00     0.348 HD
BRANCH  11  13
ATOM     13  C   UNL A   1      35.320  21.009  25.526  1.00  0.00     0.265 C 
BRANCH  13  14
ATOM     14  C   UNL A   1      36.436  21.150  24.452  1.00  0.00     0.038 C 
ATOM     15  C   UNL A   1      36.580  22.557  23.875  1.00  0.00     0.013 C 
ATOM     16  C   UNL A   1      37.791  20.786  25.101  1.00  0.00     0.013 C 
ENDBRANCH  13  14
ENDBRANCH  11  13
BRANCH  11  17
ATOM     17  C   UNL A   1      34.112  19.054  24.384  1.00  0.00     0.184 C 
ATOM     18  C   UNL A   1      34.371  17.583  24.718  1.00  0.00     0.065 C 
ATOM     19  C   UNL A   1      32.708  18.903  23.743  1.00  0.00     0.065 C 
ATOM     20  C   UNL A   1      33.959  16.863  23.430  1.00  0.00     0.006 C 
ATOM     21  C   UNL A   1      32.787  17.655  22.877  1.00  0.00     0.006 C 
ENDBRANCH  11  17
ENDBRANCH  10  11
ENDBRANCH   8  10
ENDBRANCH   6   8
ENDBRANCH   5   6
ENDBRANCH   4   5
ENDBRANCH   3   4
ENDBRANCH   2   3
ENDBRANCH   1   2
BRANCH   1  22
ATOM     22  C   UNL A   1      32.462  30.266  26.722  1.00  0.00     0.188 C 
BRANCH  22  23
ATOM     23  O   UNL A   1      31.470  31.104  26.174  1.00  0.00    -0.376 OA
BRANCH  23  24
ATOM     24  C   UNL A   1      31.449  32.452  26.603  1.00  0.00     0.202 C 
BRANCH  24  25
ATOM     25  C   UNL A   1      32.540  32.829  27.621  1.00  0.00     0.261 C 
BRANCH  25  26
ATOM     26  O   UNL A   1      33.044  34.179  27.552  1.00  0.00    -0.460 OA
BRANCH  26  27
ATOM     27  C   UNL A   1      33.241  34.832  28.729  1.00  0.00     0.338 C 
ATOM     28  O   UNL A   1      32.493  35.641  29.234  1.00  0.00    -0.246 OA
BRANCH  27  29
ATOM     29  C   UNL A   1      34.379  34.171  29.434  1.00  0.00     0.060 A 
ATOM     30  C   UNL A   1      35.682  34.371  28.945  1.00  0.00     0.016 A 
ATOM     31  C   UNL A   1      34.182  33.405  30.584  1.00  0.00     0.016 A 
ATOM     32  C   UNL A   1      36.779  33.781  29.585  1.00  0.00     0.010 A 
ATOM     33  C   UNL A   1      35.280  32.796  31.208  1.00  0.00     0.010 A 
ATOM     34  C   UNL A   1      36.582  32.952  30.697  1.00  0.00    -0.014 A 
BRANCH  34  35
ATOM     35  C   UNL A   1      37.695  32.105  31.211  1.00  0.00     0.031 A 
ATOM     36  C   UNL A   1      38.238  32.394  32.589  1.00  0.00     0.074 A 
ATOM     37  C   UNL A   1      38.235  31.108  30.484  1.00  0.00     0.049 A 
ATOM     38  N   UNL A   1      39.238  31.839  33.224  1.00  0.00    -0.248 NA
ATOM     39  C   UNL A   1      37.558  33.455  33.352  1.00  0.00     0.031 C 
ATOM     40  C   UNL A   1      37.810  30.706  29.145  1.00  0.00     0.029 A 
ATOM     41  N   UNL A   1      39.287  30.267  30.769  1.00  0.00    -0.354 N 
ATOM     42  C   UNL A   1      39.330  32.503  34.443  1.00  0.00     0.074 A 
ATOM     43  C   UNL A   1      38.288  33.507  34.455  1.00  0.00     0.031 C 
ATOM     44  C   UNL A   1      38.616  29.720  28.709  1.00  0.00     0.029 A 
ATOM     45  C   UNL A   1      39.632  29.439  29.725  1.00  0.00     0.049 A 
ATOM     46  H   UNL A   1      39.750  30.259  31.637  1.00  0.00     0.167 HD
ATOM     47  C   UNL A   1      40.190  32.291  35.467  1.00  0.00     0.034 A 
ATOM     48  C   UNL A   1      40.662  28.577  29.590  1.00  0.00     0.034 A 
ATOM     49  C   UNL A   1      41.220  31.287  35.470  1.00  0.00     0.049 A 
ATOM     50  C   UNL A   1      41.634  28.388  30.732  1.00  0.00     0.074 A 
ATOM     51  C   UNL A   1      42.111  30.975  36.483  1.00  0.00     0.029 A 
ATOM     52  N   UNL A   1      41.513  30.447  34.409  1.00  0.00    -0.354 N 
ATOM     53  N   UNL A   1      41.636  28.944  31.919  1.00  0.00    -0.248 NA
ATOM     54  C   UNL A   1      42.730  27.428  30.522  1.00  0.00     0.031 C 
ATOM     55  C   UNL A   1      42.966  29.970  36.019  1.00  0.00     0.029 A 
ATOM     56  C   UNL A   1      42.579  29.625  34.736  1.00  0.00     0.049 A 
ATOM     57  H   UNL A   1      41.033  30.434  33.549  1.00  0.00     0.167 HD
ATOM     58  C   UNL A   1      42.703  28.373  32.609  1.00  0.00     0.074 A 
ATOM     59  C   UNL A   1      43.310  27.410  31.715  1.00  0.00     0.031 C 
ATOM     60  C   UNL A   1      43.147  28.631  33.864  1.00  0.00     0.034 A 
BRANCH  47  61
ATOM     61  C   UNL A   1      40.049  33.158  36.691  1.00  0.00     0.023 A 
ATOM     62  C   UNL A   1      40.689  34.413  36.739  1.00  0.00     0.012 A 
ATOM     63  C   UNL A   1      39.224  32.761  37.763  1.00  0.00     0.148 A 
ATOM     64  C   UNL A   1      40.536  35.246  37.845  1.00  0.00     0.002 A 
ATOM     65  C   UNL A   1      39.037  33.618  38.840  1.00  0.00     0.091 A 
ATOM     66  F   UNL A   1      38.639  31.557  37.706  1.00  0.00    -0.205 F 
ATOM     67  C   UNL A   1      39.701  34.854  38.889  1.00  0.00     0.022 A 
BRANCH  65  68
ATOM     68  S   UNL A   1      37.920  33.244  40.196  1.00  0.00     0.127 S 
ATOM     69  O   UNL A   1      36.664  33.005  39.486  1.00  0.00    -0.237 OA
ATOM     70  O   UNL A   1      38.531  32.045  40.772  1.00  0.00    -0.237 OA
ATOM     71  O   UNL A   1      37.932  34.412  41.064  1.00  0.00    -0.744 OA
ENDBRANCH  65  68
ENDBRANCH  47  61
BRANCH  48  72
ATOM     72  C   UNL A   1      40.842  27.805  28.324  1.00  0.00     0.023 A 
ATOM     73  C   UNL A   1      41.483  28.406  27.222  1.00  0.00     0.012 A 
ATOM     74  C   UNL A   1      40.353  26.490  28.198  1.00  0.00     0.148 A 
ATOM     75  C   UNL A   1      41.597  27.728  26.008  1.00  0.00     0.002 A 
ATOM     76  C   UNL A   1      40.522  25.800  27.003  1.00  0.00     0.091 A 
ATOM     77  F   UNL A   1      39.725  25.943  29.247  1.00  0.00    -0.205 F 
ATOM     78  C   UNL A   1      41.126  26.423  25.901  1.00  0.00     0.022 A 
BRANCH  76  79
ATOM     79  S   UNL A   1      40.052  24.077  26.810  1.00  0.00     0.127 S 
ATOM     80  O   UNL A   1      39.880  23.657  28.198  1.00  0.00    -0.237 OA
ATOM     81  O   UNL A   1      38.812  24.189  26.042  1.00  0.00    -0.237 OA
ATOM     82  O   UNL A   1      41.152  23.447  26.091  1.00  0.00    -0.744 OA
ENDBRANCH  76  79
ENDBRANCH  48  72
BRANCH  60  83
ATOM     83  C   UNL A   1      44.317  27.827  34.379  1.00  0.00     0.023 A 
ATOM     84  C   UNL A   1      45.633  28.302  34.209  1.00  0.00     0.012 A 
ATOM     85  C   UNL A   1      44.106  26.628  35.090  1.00  0.00     0.148 A 
ATOM     86  C   UNL A   1      46.720  27.577  34.699  1.00  0.00     0.002 A 
ATOM     87  C   UNL A   1      45.189  25.938  35.622  1.00  0.00     0.091 A 
ATOM     88  F   UNL A   1      42.849  26.183  35.233  1.00  0.00    -0.205 F 
ATOM     89  C   UNL A   1      46.498  26.402  35.413  1.00  0.00     0.022 A 
BRANCH  87  90
ATOM     90  S   UNL A   1      44.994  24.470  36.639  1.00  0.00     0.127 S 
ATOM     91  O   UNL A   1      44.163  24.973  37.733  1.00  0.00    -0.237 OA
ATOM     92  O   UNL A   1      44.311  23.551  35.729  1.00  0.00    -0.237 OA
ATOM     93  O   UNL A   1      46.339  24.059  37.017  1.00  0.00    -0.744 OA
ENDBRANCH  87  90
ENDBRANCH  60  83
ENDBRANCH  34  35
ENDBRANCH  27  29
ENDBRANCH  26  27
ENDBRANCH  25  26
ENDBRANCH  24  25
ENDBRANCH  23  24
ENDBRANCH  22  23
ENDBRANCH   1  22
TORSDOF 25
ENDMDL
MODEL 2
REMARK VINA RESULT:      -8.9      1.997      7.930
REMARK SMILES CC(C)C[N@@H+](C[C@@H](C)C(=O)OCCOCCOCCOC(=O)c1ccc(-c2c3nc(c(-c4cccc(S(=O)(=O)[O-])c4F)c4ccc([nH]4)c(-c4cccc(S(=O)(=O)[O-])c4F)c4nc(c(-c5cccc(S(=O)(=O)[O-])c5F)c5ccc2[nH]5)C=C4)C=C3)cc1)C1CCCC1
REMARK SMILES IDX 15 1 14 2 13 3 12 4 11 5 9 6 10 7 7 8 8 9 6 10 5 11 4 13
REMARK SMILES IDX 2 14 1 15 3 16 86 17 87 18 90 19 88 20 89 21 16 22 17 23
REMARK SMILES IDX 18 24 19 25 20 26 21 27 22 28 23 29 24 30 85 31 25 32 84 33
REMARK SMILES IDX 26 34 27 35 28 36 78 37 29 38 83 39 77 40 79 41 30 42 82 43
REMARK SMILES IDX 76 44 75 45 31 47 63 48 43 49 62 50 44 51 47 52 61 53 80 54
REMARK SMILES IDX 45 55 46 56 60 58 81 59 48 60 32 61 33 62 41 63 34 64 36 65
REMARK SMILES IDX 42 66 35 67 37 68 38 69 39 70 40 71 64 72 65 73 73 74 66 75
REMARK SMILES IDX 68 76 74 77 67 78 69 79 70 80 71 81 72 82 49 83 50 84 58 85
REMARK SMILES IDX 51 86 53 87 59 88 52 89 54 90 55 91 56 92 57 93
REMARK H PARENT 5 12 79 46 47 57
REMARK Flexibility Score: inf
ROOT
ATOM      1  C   UNL A   1      32.093  28.205  26.182  1.00  0.00     0.188 C 
ENDROOT
BRANCH   1   2
ATOM      2  O   UNL A   1      31.018  27.417  25.692  1.00  0.00    -0.376 OA
BRANCH   2   3
ATOM      3  C   UNL A   1      30.693  26.203  26.349  1.00  0.00     0.202 C 
BRANCH   3   4
ATOM      4  C   UNL A   1      29.791  25.177  25.638  1.00  0.00     0.261 C 
BRANCH   4   5
ATOM      5  O   UNL A   1      30.350  23.870  25.354  1.00  0.00    -0.463 OA
BRANCH   5   6
ATOM      6  C   UNL A   1      30.890  23.243  26.430  1.00  0.00     0.314 C 
ATOM      7  O   UNL A   1      30.286  23.083  27.489  1.00  0.00    -0.252 OA
BRANCH   6   8
ATOM      8  C   UNL A   1      32.340  22.775  26.284  1.00  0.00     0.151 C 
ATOM      9  C   UNL A   1      32.994  23.116  27.623  1.00  0.00     0.026 C 
BRANCH   8  10
ATOM     10  C   UNL A   1      33.130  23.204  25.008  1.00  0.00     0.277 C 
BRANCH  10  11
ATOM     11  N   UNL A   1      34.108  24.361  25.041  1.00  0.00    -0.332 N 
ATOM     12  H   UNL A   1      34.216  24.801  25.955  1.00  0.00     0.348 HD
BRANCH  11  13
ATOM     13  C   UNL A   1      33.546  25.449  24.198  1.00  0.00     0.265 C 
BRANCH  13  14
ATOM     14  C   UNL A   1      33.797  25.599  22.671  1.00  0.00     0.038 C 
ATOM     15  C   UNL A   1      32.903  24.722  21.798  1.00  0.00     0.013 C 
ATOM     16  C   UNL A   1      33.523  27.066  22.269  1.00  0.00     0.013 C 
ENDBRANCH  13  14
ENDBRANCH  11  13
BRANCH  11  17
ATOM     17  C   UNL A   1      35.486  23.892  24.832  1.00  0.00     0.184 C 
ATOM     18  C   UNL A   1      36.414  23.507  25.987  1.00  0.00     0.065 C 
ATOM     19  C   UNL A   1      35.527  22.558  24.045  1.00  0.00     0.065 C 
ATOM     20  C   UNL A   1      37.589  22.834  25.271  1.00  0.00     0.006 C 
ATOM     21  C   UNL A   1      36.980  22.106  24.084  1.00  0.00     0.006 C 
ENDBRANCH  11  17
ENDBRANCH  10  11
ENDBRANCH   8  10
ENDBRANCH   6   8
ENDBRANCH   5   6
ENDBRANCH   4   5
ENDBRANCH   3   4
ENDBRANCH   2   3
ENDBRANCH   1   2
BRANCH   1  22
ATOM     22  C   UNL A   1      32.204  29.674  25.748  1.00  0.00     0.188 C 
BRANCH  22  23
ATOM     23  O   UNL A   1      31.028  30.225  25.202  1.00  0.00    -0.376 OA
BRANCH  23  24
ATOM     24  C   UNL A   1      30.730  31.569  25.528  1.00  0.00     0.202 C 
BRANCH  24  25
ATOM     25  C   UNL A   1      31.381  32.086  26.823  1.00  0.00     0.261 C 
BRANCH  25  26
ATOM     26  O   UNL A   1      32.729  32.586  26.709  1.00  0.00    -0.460 OA
BRANCH  26  27
ATOM     27  C   UNL A   1      33.164  33.434  27.681  1.00  0.00     0.338 C 
ATOM     28  O   UNL A   1      32.533  34.346  28.171  1.00  0.00    -0.246 OA
BRANCH  27  29
ATOM     29  C   UNL A   1      34.426  32.872  28.247  1.00  0.00     0.060 A 
ATOM     30  C   UNL A   1      34.401  31.578  28.796  1.00  0.00     0.016 A 
ATOM     31  C   UNL A   1      35.628  33.580  28.199  1.00  0.00     0.016 A 
ATOM     32  C   UNL A   1      35.565  31.007  29.324  1.00  0.00     0.010 A 
ATOM     33  C   UNL A   1      36.787  33.015  28.751  1.00  0.00     0.010 A 
ATOM     34  C   UNL A   1      36.759  31.740  29.346  1.00  0.00    -0.014 A 
BRANCH  34  35
ATOM     35  C   UNL A   1      37.922  31.261  30.146  1.00  0.00     0.031 A 
ATOM     36  C   UNL A   1      38.839  30.232  29.532  1.00  0.00     0.074 A 
ATOM     37  C   UNL A   1      38.169  31.706  31.393  1.00  0.00     0.049 A 
ATOM     38  N   UNL A   1      39.872  29.621  30.052  1.00  0.00    -0.248 NA
ATOM     39  C   UNL A   1      38.546  29.839  28.143  1.00  0.00     0.031 C 
ATOM     40  C   UNL A   1      37.380  32.704  32.111  1.00  0.00     0.029 A 
ATOM     41  N   UNL A   1      39.149  31.345  32.289  1.00  0.00    -0.354 N 
ATOM     42  C   UNL A   1      40.332  28.750  29.070  1.00  0.00     0.074 A 
ATOM     43  C   UNL A   1      39.460  28.906  27.926  1.00  0.00     0.031 C 
ATOM     44  C   UNL A   1      37.885  32.851  33.350  1.00  0.00     0.029 A 
ATOM     45  C   UNL A   1      39.015  31.937  33.524  1.00  0.00     0.049 A 
ATOM     46  H   UNL A   1      39.878  30.722  32.068  1.00  0.00     0.167 HD
ATOM     47  C   UNL A   1      41.390  27.906  29.107  1.00  0.00     0.034 A 
ATOM     48  C   UNL A   1      39.701  31.745  34.671  1.00  0.00     0.034 A 
ATOM     49  C   UNL A   1      42.271  27.753  30.234  1.00  0.00     0.049 A 
ATOM     50  C   UNL A   1      40.853  30.767  34.698  1.00  0.00     0.074 A 
ATOM     51  C   UNL A   1      43.394  26.950  30.342  1.00  0.00     0.029 A 
ATOM     52  N   UNL A   1      42.121  28.396  31.451  1.00  0.00    -0.354 N 
ATOM     53  N   UNL A   1      41.343  30.036  33.726  1.00  0.00    -0.248 NA
ATOM     54  C   UNL A   1      41.564  30.610  35.977  1.00  0.00     0.031 C 
ATOM     55  C   UNL A   1      43.901  27.081  31.639  1.00  0.00     0.029 A 
ATOM     56  C   UNL A   1      43.122  27.999  32.322  1.00  0.00     0.049 A 
ATOM     57  H   UNL A   1      41.409  29.042  31.665  1.00  0.00     0.167 HD
ATOM     58  C   UNL A   1      42.441  29.368  34.264  1.00  0.00     0.074 A 
ATOM     59  C   UNL A   1      42.558  29.799  35.640  1.00  0.00     0.031 C 
ATOM     60  C   UNL A   1      43.268  28.470  33.675  1.00  0.00     0.034 A 
BRANCH  47  61
ATOM     61  C   UNL A   1      41.672  27.082  27.877  1.00  0.00     0.023 A 
ATOM     62  C   UNL A   1      42.109  27.713  26.695  1.00  0.00     0.012 A 
ATOM     63  C   UNL A   1      41.571  25.676  27.914  1.00  0.00     0.148 A 
ATOM     64  C   UNL A   1      42.413  26.963  25.560  1.00  0.00     0.002 A 
ATOM     65  C   UNL A   1      41.923  24.932  26.795  1.00  0.00     0.091 A 
ATOM     66  F   UNL A   1      41.136  25.097  29.041  1.00  0.00    -0.205 F 
ATOM     67  C   UNL A   1      42.332  25.574  25.614  1.00  0.00     0.022 A 
BRANCH  65  68
ATOM     68  S   UNL A   1      41.932  23.136  26.786  1.00  0.00     0.127 S 
ATOM     69  O   UNL A   1      40.819  22.832  27.685  1.00  0.00    -0.237 OA
ATOM     70  O   UNL A   1      41.675  22.837  25.377  1.00  0.00    -0.237 OA
ATOM     71  O   UNL A   1      43.246  22.735  27.266  1.00  0.00    -0.744 OA
ENDBRANCH  65  68
ENDBRANCH  47  61
BRANCH  48  72
ATOM     72  C   UNL A   1      39.336  32.498  35.907  1.00  0.00     0.023 A 
ATOM     73  C   UNL A   1      38.420  31.940  36.822  1.00  0.00     0.012 A 
ATOM     74  C   UNL A   1      39.867  33.778  36.164  1.00  0.00     0.148 A 
ATOM     75  C   UNL A   1      38.010  32.658  37.947  1.00  0.00     0.002 A 
ATOM     76  C   UNL A   1      39.498  34.462  37.317  1.00  0.00     0.091 A 
ATOM     77  F   UNL A   1      40.717  34.303  35.272  1.00  0.00    -0.205 F 
ATOM     78  C   UNL A   1      38.556  33.913  38.199  1.00  0.00     0.022 A 
BRANCH  76  79
ATOM     79  S   UNL A   1      40.235  36.031  37.784  1.00  0.00     0.127 S 
ATOM     80  O   UNL A   1      39.948  36.857  36.613  1.00  0.00    -0.237 OA
ATOM     81  O   UNL A   1      39.471  36.377  38.983  1.00  0.00    -0.237 OA
ATOM     82  O   UNL A   1      41.644  35.749  38.027  1.00  0.00    -0.744 OA
ENDBRANCH  76  79
ENDBRANCH  48  72
BRANCH  60  83
ATOM     83  C   UNL A   1      44.415  27.923  34.491  1.00  0.00     0.023 A 
ATOM     84  C   UNL A   1      45.639  28.620  34.550  1.00  0.00     0.012 A 
ATOM     85  C   UNL A   1      44.257  26.745  35.250  1.00  0.00     0.148 A 
ATOM     86  C   UNL A   1      46.698  28.133  35.317  1.00  0.00     0.002 A 
ATOM     87  C   UNL A   1      45.298  26.295  36.054  1.00  0.00     0.091 A 
ATOM     88  F   UNL A   1      43.092  26.087  35.173  1.00  0.00    -0.205 F 
ATOM     89  C   UNL A   1      46.525  26.978  36.076  1.00  0.00     0.022 A 
BRANCH  87  90
ATOM     90  S   UNL A   1      45.134  24.874  37.141  1.00  0.00     0.127 S 
ATOM     91  O   UNL A   1      43.925  25.210  37.891  1.00  0.00    -0.237 OA
ATOM     92  O   UNL A   1      44.974  23.774  36.190  1.00  0.00    -0.237 OA
ATOM     93  O   UNL A   1      46.360  24.822  37.925  1.00  0.00    -0.744 OA
ENDBRANCH  87  90
ENDBRANCH  60  83
ENDBRANCH  34  35
ENDBRANCH  27  29
ENDBRANCH  26  27
ENDBRANCH  25  26
ENDBRANCH  24  25
ENDBRANCH  23  24
ENDBRANCH  22  23
ENDBRANCH   1  22
TORSDOF 25
ENDMDL
MODEL 3
REMARK VINA RESULT:      -8.8      2.345      8.076
REMARK SMILES CC(C)C[N@@H+](C[C@@H](C)C(=O)OCCOCCOCCOC(=O)c1ccc(-c2c3nc(c(-c4cccc(S(=O)(=O)[O-])c4F)c4ccc([nH]4)c(-c4cccc(S(=O)(=O)[O-])c4F)c4nc(c(-c5cccc(S(=O)(=O)[O-])c5F)c5ccc2[nH]5)C=C4)C=C3)cc1)C1CCCC1
REMARK SMILES IDX 15 1 14 2 13 3 12 4 11 5 9 6 10 7 7 8 8 9 6 10 5 11 4 13
REMARK SMILES IDX 2 14 1 15 3 16 86 17 87 18 90 19 88 20 89 21 16 22 17 23
REMARK SMILES IDX 18 24 19 25 20 26 21 27 22 28 23 29 24 30 85 31 25 32 84 33
REMARK SMILES IDX 26 34 27 35 28 36 78 37 29 38 83 39 77 40 79 41 30 42 82 43
REMARK SMILES IDX 76 44 75 45 31 47 63 48 43 49 62 50 44 51 47 52 61 53 80 54
REMARK SMILES IDX 45 55 46 56 60 58 81 59 48 60 32 61 33 62 41 63 34 64 36 65
REMARK SMILES IDX 42 66 35 67 37 68 38 69 39 70 40 71 64 72 65 73 73 74 66 75
REMARK SMILES IDX 68 76 74 77 67 78 69 79 70 80 71 81 72 82 49 83 50 84 58 85
REMARK SMILES IDX 51 86 53 87 59 88 52 89 54 90 55 91 56 92 57 93
REMARK H PARENT 5 12 79 46 47 57
REMARK Flexibility Score: inf
ROOT
ATOM      1  C   UNL A   1      32.110  27.924  26.251  1.00  0.00     0.188 C 
ENDROOT
BRANCH   1   2
ATOM      2  O   UNL A   1      30.977  27.190  25.812  1.00  0.00    -0.376 OA
BRANCH   2   3
ATOM      3  C   UNL A   1      30.570  26.042  26.537  1.00  0.00     0.202 C 
BRANCH   3   4
ATOM      4  C   UNL A   1      29.686  24.986  25.848  1.00  0.00     0.261 C 
BRANCH   4   5
ATOM      5  O   UNL A   1      30.275  23.690  25.574  1.00  0.00    -0.463 OA
BRANCH   5   6
ATOM      6  C   UNL A   1      30.858  23.099  26.647  1.00  0.00     0.314 C 
ATOM      7  O   UNL A   1      30.263  22.874  27.699  1.00  0.00    -0.252 OA
BRANCH   6   8
ATOM      8  C   UNL A   1      32.345  22.760  26.508  1.00  0.00     0.151 C 
ATOM      9  C   UNL A   1      32.818  22.495  27.938  1.00  0.00     0.026 C 
BRANCH   8  10
ATOM     10  C   UNL A   1      33.243  23.710  25.656  1.00  0.00     0.277 C 
BRANCH  10  11
ATOM     11  N   UNL A   1      33.817  23.267  24.325  1.00  0.00    -0.332 N 
ATOM     12  H   UNL A   1      33.213  22.644  23.789  1.00  0.00     0.348 HD
BRANCH  11  13
ATOM     13  C   UNL A   1      35.013  22.430  24.607  1.00  0.00     0.265 C 
BRANCH  13  14
ATOM     14  C   UNL A   1      36.480  22.936  24.521  1.00  0.00     0.038 C 
ATOM     15  C   UNL A   1      36.983  23.629  25.785  1.00  0.00     0.013 C 
ATOM     16  C   UNL A   1      37.405  21.721  24.273  1.00  0.00     0.013 C 
ENDBRANCH  13  14
ENDBRANCH  11  13
BRANCH  11  17
ATOM     17  C   UNL A   1      33.900  24.394  23.386  1.00  0.00     0.184 C 
ATOM     18  C   UNL A   1      32.934  24.566  22.210  1.00  0.00     0.065 C 
ATOM     19  C   UNL A   1      33.652  25.752  24.092  1.00  0.00     0.065 C 
ATOM     20  C   UNL A   1      33.238  25.987  21.725  1.00  0.00     0.006 C 
ATOM     21  C   UNL A   1      33.570  26.783  22.976  1.00  0.00     0.006 C 
ENDBRANCH  11  17
ENDBRANCH  10  11
ENDBRANCH   8  10
ENDBRANCH   6   8
ENDBRANCH   5   6
ENDBRANCH   4   5
ENDBRANCH   3   4
ENDBRANCH   2   3
ENDBRANCH   1   2
BRANCH   1  22
ATOM     22  C   UNL A   1      32.279  29.383  25.804  1.00  0.00     0.188 C 
BRANCH  22  23
ATOM     23  O   UNL A   1      31.149  29.950  25.182  1.00  0.00    -0.376 OA
BRANCH  23  24
ATOM     24  C   UNL A   1      30.903  31.325  25.412  1.00  0.00     0.202 C 
BRANCH  24  25
ATOM     25  C   UNL A   1      31.533  31.894  26.695  1.00  0.00     0.261 C 
BRANCH  25  26
ATOM     26  O   UNL A   1      32.801  32.565  26.546  1.00  0.00    -0.460 OA
BRANCH  26  27
ATOM     27  C   UNL A   1      33.209  33.363  27.570  1.00  0.00     0.338 C 
ATOM     28  O   UNL A   1      32.559  34.242  28.095  1.00  0.00    -0.246 OA
BRANCH  27  29
ATOM     29  C   UNL A   1      34.466  32.785  28.129  1.00  0.00     0.060 A 
ATOM     30  C   UNL A   1      34.428  31.489  28.672  1.00  0.00     0.016 A 
ATOM     31  C   UNL A   1      35.675  33.480  28.081  1.00  0.00     0.016 A 
ATOM     32  C   UNL A   1      35.588  30.903  29.194  1.00  0.00     0.010 A 
ATOM     33  C   UNL A   1      36.830  32.900  28.626  1.00  0.00     0.010 A 
ATOM     34  C   UNL A   1      36.790  31.622  29.216  1.00  0.00    -0.014 A 
BRANCH  34  35
ATOM     35  C   UNL A   1      37.949  31.127  30.010  1.00  0.00     0.031 A 
ATOM     36  C   UNL A   1      38.850  30.087  29.390  1.00  0.00     0.074 A 
ATOM     37  C   UNL A   1      38.208  31.566  31.256  1.00  0.00     0.049 A 
ATOM     38  N   UNL A   1      39.878  29.462  29.904  1.00  0.00    -0.248 NA
ATOM     39  C   UNL A   1      38.547  29.701  28.001  1.00  0.00     0.031 C 
ATOM     40  C   UNL A   1      37.435  32.573  31.980  1.00  0.00     0.029 A 
ATOM     41  N   UNL A   1      39.186  31.190  32.148  1.00  0.00    -0.354 N 
ATOM     42  C   UNL A   1      40.323  28.587  28.919  1.00  0.00     0.074 A 
ATOM     43  C   UNL A   1      39.448  28.756  27.778  1.00  0.00     0.031 C 
ATOM     44  C   UNL A   1      37.946  32.710  33.217  1.00  0.00     0.029 A 
ATOM     45  C   UNL A   1      39.065  31.782  33.384  1.00  0.00     0.049 A 
ATOM     46  H   UNL A   1      39.906  30.558  31.922  1.00  0.00     0.167 HD
ATOM     47  C   UNL A   1      41.370  27.729  28.949  1.00  0.00     0.034 A 
ATOM     48  C   UNL A   1      39.754  31.579  34.528  1.00  0.00     0.034 A 
ATOM     49  C   UNL A   1      42.253  27.562  30.072  1.00  0.00     0.049 A 
ATOM     50  C   UNL A   1      40.893  30.585  34.548  1.00  0.00     0.074 A 
ATOM     51  C   UNL A   1      43.366  26.745  30.174  1.00  0.00     0.029 A 
ATOM     52  N   UNL A   1      42.117  28.205  31.291  1.00  0.00    -0.354 N 
ATOM     53  N   UNL A   1      41.369  29.850  33.572  1.00  0.00    -0.248 NA
ATOM     54  C   UNL A   1      41.608  30.417  35.824  1.00  0.00     0.031 C 
ATOM     55  C   UNL A   1      43.881  26.866  31.469  1.00  0.00     0.029 A 
ATOM     56  C   UNL A   1      43.116  27.793  32.157  1.00  0.00     0.049 A 
ATOM     57  H   UNL A   1      41.414  28.859  31.509  1.00  0.00     0.167 HD
ATOM     58  C   UNL A   1      42.461  29.167  34.104  1.00  0.00     0.074 A 
ATOM     59  C   UNL A   1      42.590  29.594  35.481  1.00  0.00     0.031 C 
ATOM     60  C   UNL A   1      43.274  28.259  33.510  1.00  0.00     0.034 A 
BRANCH  47  61
ATOM     61  C   UNL A   1      41.635  26.903  27.716  1.00  0.00     0.023 A 
ATOM     62  C   UNL A   1      42.164  27.517  26.563  1.00  0.00     0.012 A 
ATOM     63  C   UNL A   1      41.427  25.509  27.725  1.00  0.00     0.148 A 
ATOM     64  C   UNL A   1      42.455  26.762  25.428  1.00  0.00     0.002 A 
ATOM     65  C   UNL A   1      41.765  24.757  26.607  1.00  0.00     0.091 A 
ATOM     66  F   UNL A   1      40.906  24.948  28.825  1.00  0.00    -0.205 F 
ATOM     67  C   UNL A   1      42.266  25.382  25.454  1.00  0.00     0.022 A 
BRANCH  65  68
ATOM     68  S   UNL A   1      41.637  22.966  26.567  1.00  0.00     0.127 S 
ATOM     69  O   UNL A   1      42.245  22.656  25.274  1.00  0.00    -0.237 OA
ATOM     70  O   UNL A   1      42.440  22.577  27.727  1.00  0.00    -0.237 OA
ATOM     71  O   UNL A   1      40.218  22.659  26.677  1.00  0.00    -0.744 OA
ENDBRANCH  65  68
ENDBRANCH  47  61
BRANCH  48  72
ATOM     72  C   UNL A   1      39.404  32.334  35.767  1.00  0.00     0.023 A 
ATOM     73  C   UNL A   1      38.577  31.738  36.740  1.00  0.00     0.012 A 
ATOM     74  C   UNL A   1      39.860  33.651  35.971  1.00  0.00     0.148 A 
ATOM     75  C   UNL A   1      38.178  32.452  37.871  1.00  0.00     0.002 A 
ATOM     76  C   UNL A   1      39.507  34.336  37.128  1.00  0.00     0.091 A 
ATOM     77  F   UNL A   1      40.626  34.211  35.025  1.00  0.00    -0.205 F 
ATOM     78  C   UNL A   1      38.650  33.746  38.070  1.00  0.00     0.022 A 
BRANCH  76  79
ATOM     79  S   UNL A   1      40.160  35.961  37.525  1.00  0.00     0.127 S 
ATOM     80  O   UNL A   1      41.596  35.697  37.592  1.00  0.00    -0.237 OA
ATOM     81  O   UNL A   1      39.732  36.747  36.368  1.00  0.00    -0.237 OA
ATOM     82  O   UNL A   1      39.530  36.344  38.781  1.00  0.00    -0.744 OA
ENDBRANCH  76  79
ENDBRANCH  48  72
BRANCH  60  83
ATOM     83  C   UNL A   1      44.417  27.696  34.320  1.00  0.00     0.023 A 
ATOM     84  C   UNL A   1      44.249  26.502  35.049  1.00  0.00     0.012 A 
ATOM     85  C   UNL A   1      45.681  28.321  34.307  1.00  0.00     0.148 A 
ATOM     86  C   UNL A   1      45.305  25.963  35.785  1.00  0.00     0.002 A 
ATOM     87  C   UNL A   1      46.743  27.750  34.999  1.00  0.00     0.091 A 
ATOM     88  F   UNL A   1      45.823  29.463  33.620  1.00  0.00    -0.205 F 
ATOM     89  C   UNL A   1      46.552  26.580  35.752  1.00  0.00     0.022 A 
BRANCH  87  90
ATOM     90  S   UNL A   1      48.409  28.419  34.935  1.00  0.00     0.127 S 
ATOM     91  O   UNL A   1      48.210  29.767  35.465  1.00  0.00    -0.237 OA
ATOM     92  O   UNL A   1      49.140  27.517  35.825  1.00  0.00    -0.237 OA
ATOM     93  O   UNL A   1      48.818  28.352  33.539  1.00  0.00    -0.744 OA
ENDBRANCH  87  90
ENDBRANCH  60  83
ENDBRANCH  34  35
ENDBRANCH  27  29
ENDBRANCH  26  27
ENDBRANCH  25  26
ENDBRANCH  24  25
ENDBRANCH  23  24
ENDBRANCH  22  23
ENDBRANCH   1  22
TORSDOF 25
ENDMDL
