MODEL 1
REMARK VINA RESULT:     -10.6      0.000      0.000
REMARK SMILES C[C@@H](c1ccc(C(=O)OCCOCCOCCOC(=O)c2ccc(-c3c4nc(c(-c5cccc(S(=O)(=O)[O-])c5F)c5ccc([nH]5)c(-c5cccc(S(=O)(=O)[O-])c5F)c5nc(c(-c6cccc(S(=O)(=O)[O-])c6F)c6ccc3[nH]6)C=C5)C=C4)cc2)o1)[N@@H+](C)Cc1ccoc1
REMARK SMILES IDX 13 1 12 2 11 3 10 4 9 5 7 6 8 7 6 8 3 9 4 10 84 11 5 12 2 13
REMARK SMILES IDX 1 14 85 15 86 16 87 18 88 19 89 20 92 21 90 22 91 23 14 24
REMARK SMILES IDX 15 25 16 26 17 27 18 28 19 29 20 30 21 31 22 32 83 33 23 34
REMARK SMILES IDX 82 35 24 36 25 37 26 38 76 39 27 40 81 41 75 42 77 43 28 44
REMARK SMILES IDX 80 45 74 46 73 47 29 49 61 50 41 51 60 52 42 53 45 54 59 55
REMARK SMILES IDX 78 56 43 57 44 58 58 60 79 61 46 62 30 63 31 64 39 65 32 66
REMARK SMILES IDX 34 67 40 68 33 69 35 70 36 71 37 72 38 73 62 74 63 75 71 76
REMARK SMILES IDX 64 77 66 78 72 79 65 80 67 81 68 82 69 83 70 84 47 85 48 86
REMARK SMILES IDX 56 87 49 88 51 89 57 90 50 91 52 92 53 93 54 94 55 95
REMARK H PARENT 85 17 77 48 45 59
REMARK Flexibility Score: inf
ROOT
ATOM      1  C   UNL A   1      30.526  26.003  26.064  1.00  0.00     0.188 C 
ENDROOT
BRANCH   1   2
ATOM      2  O   UNL A   1      30.250  25.365  24.831  1.00  0.00    -0.376 OA
BRANCH   2   3
ATOM      3  C   UNL A   1      29.889  26.196  23.738  1.00  0.00     0.202 C 
BRANCH   3   4
ATOM      4  C   UNL A   1      30.906  26.356  22.598  1.00  0.00     0.261 C 
BRANCH   4   5
ATOM      5  O   UNL A   1      31.770  25.229  22.344  1.00  0.00    -0.457 OA
BRANCH   5   6
ATOM      6  C   UNL A   1      33.114  25.447  22.521  1.00  0.00     0.374 C 
ATOM      7  O   UNL A   1      33.828  26.056  21.724  1.00  0.00    -0.242 OA
BRANCH   6   8
ATOM      8  C   UNL A   1      33.558  24.901  23.782  1.00  0.00     0.212 A 
ATOM      9  C   UNL A   1      33.653  23.392  25.413  1.00  0.00     0.162 A 
ATOM     10  C   UNL A   1      34.389  24.488  25.825  1.00  0.00     0.053 A 
ATOM     11  O   UNL A   1      33.110  23.661  24.180  1.00  0.00    -0.448 OA
ATOM     12  C   UNL A   1      34.384  25.420  24.760  1.00  0.00     0.059 A 
BRANCH   9  13
ATOM     13  C   UNL A   1      33.322  22.061  26.053  1.00  0.00     0.248 C 
ATOM     14  C   UNL A   1      33.838  21.981  27.497  1.00  0.00     0.084 C 
BRANCH  13  15
ATOM     15  N   UNL A   1      33.736  20.862  25.308  1.00  0.00    -0.325 N 
ATOM     16  C   UNL A   1      35.155  20.781  25.022  1.00  0.00     0.333 C 
ATOM     17  H   UNL A   1      33.274  21.096  24.429  1.00  0.00     0.348 HD
BRANCH  15  18
ATOM     18  C   UNL A   1      33.047  19.586  25.484  1.00  0.00     0.302 C 
BRANCH  18  19
ATOM     19  C   UNL A   1      32.925  18.764  24.247  1.00  0.00     0.044 A 
ATOM     20  C   UNL A   1      32.245  19.087  23.045  1.00  0.00     0.051 A 
ATOM     21  C   UNL A   1      33.456  17.510  24.017  1.00  0.00     0.204 A 
ATOM     22  C   UNL A   1      32.419  18.040  22.177  1.00  0.00     0.195 A 
ATOM     23  O   UNL A   1      33.166  17.072  22.763  1.00  0.00    -0.472 OA
ENDBRANCH  18  19
ENDBRANCH  15  18
ENDBRANCH  13  15
ENDBRANCH   9  13
ENDBRANCH   6   8
ENDBRANCH   5   6
ENDBRANCH   4   5
ENDBRANCH   3   4
ENDBRANCH   2   3
ENDBRANCH   1   2
BRANCH   1  24
ATOM     24  C   UNL A   1      31.521  27.160  26.050  1.00  0.00     0.188 C 
BRANCH  24  25
ATOM     25  O   UNL A   1      31.021  28.475  25.846  1.00  0.00    -0.376 OA
BRANCH  25  26
ATOM     26  C   UNL A   1      31.877  29.295  25.037  1.00  0.00     0.202 C 
BRANCH  26  27
ATOM     27  C   UNL A   1      33.169  29.798  25.726  1.00  0.00     0.261 C 
BRANCH  27  28
ATOM     28  O   UNL A   1      33.044  30.264  27.094  1.00  0.00    -0.460 OA
BRANCH  28  29
ATOM     29  C   UNL A   1      33.651  31.429  27.421  1.00  0.00     0.338 C 
ATOM     30  O   UNL A   1      33.111  32.519  27.514  1.00  0.00    -0.246 OA
BRANCH  29  31
ATOM     31  C   UNL A   1      35.011  31.143  27.951  1.00  0.00     0.060 A 
ATOM     32  C   UNL A   1      35.263  29.835  28.378  1.00  0.00     0.016 A 
ATOM     33  C   UNL A   1      36.030  32.087  28.032  1.00  0.00     0.016 A 
ATOM     34  C   UNL A   1      36.492  29.464  28.906  1.00  0.00     0.010 A 
ATOM     35  C   UNL A   1      37.273  31.717  28.582  1.00  0.00     0.010 A 
ATOM     36  C   UNL A   1      37.507  30.406  29.044  1.00  0.00    -0.014 A 
BRANCH  36  37
ATOM     37  C   UNL A   1      38.728  30.034  29.809  1.00  0.00     0.031 A 
ATOM     38  C   UNL A   1      39.701  29.065  29.193  1.00  0.00     0.074 A 
ATOM     39  C   UNL A   1      39.033  30.611  30.989  1.00  0.00     0.049 A 
ATOM     40  N   UNL A   1      40.752  28.494  29.719  1.00  0.00    -0.248 NA
ATOM     41  C   UNL A   1      39.458  28.699  27.787  1.00  0.00     0.031 C 
ATOM     42  C   UNL A   1      38.255  31.660  31.648  1.00  0.00     0.029 A 
ATOM     43  N   UNL A   1      40.083  30.385  31.849  1.00  0.00    -0.354 N 
ATOM     44  C   UNL A   1      41.254  27.648  28.738  1.00  0.00     0.074 A 
ATOM     45  C   UNL A   1      40.403  27.796  27.577  1.00  0.00     0.031 C 
ATOM     46  C   UNL A   1      38.842  31.972  32.816  1.00  0.00     0.029 A 
ATOM     47  C   UNL A   1      39.992  31.096  33.024  1.00  0.00     0.049 A 
ATOM     48  H   UNL A   1      40.826  29.774  31.643  1.00  0.00     0.167 HD
ATOM     49  C   UNL A   1      42.324  26.821  28.798  1.00  0.00     0.034 A 
ATOM     50  C   UNL A   1      40.715  31.010  34.160  1.00  0.00     0.034 A 
ATOM     51  C   UNL A   1      43.192  26.707  29.939  1.00  0.00     0.049 A 
ATOM     52  C   UNL A   1      41.842  30.014  34.241  1.00  0.00     0.074 A 
ATOM     53  C   UNL A   1      44.302  25.895  30.097  1.00  0.00     0.029 A 
ATOM     54  N   UNL A   1      43.047  27.419  31.119  1.00  0.00    -0.354 N 
ATOM     55  N   UNL A   1      42.311  29.217  33.311  1.00  0.00    -0.248 NA
ATOM     56  C   UNL A   1      42.548  29.908  35.527  1.00  0.00     0.031 C 
ATOM     57  C   UNL A   1      44.804  26.089  31.387  1.00  0.00     0.029 A 
ATOM     58  C   UNL A   1      44.034  27.053  32.017  1.00  0.00     0.049 A 
ATOM     59  H   UNL A   1      42.344  28.087  31.293  1.00  0.00     0.167 HD
ATOM     60  C   UNL A   1      43.382  28.542  33.888  1.00  0.00     0.074 A 
ATOM     61  C   UNL A   1      43.506  29.036  35.243  1.00  0.00     0.031 C 
ATOM     62  C   UNL A   1      44.181  27.588  33.348  1.00  0.00     0.034 A 
BRANCH  49  63
ATOM     63  C   UNL A   1      42.595  25.948  27.601  1.00  0.00     0.023 A 
ATOM     64  C   UNL A   1      43.358  26.434  26.521  1.00  0.00     0.012 A 
ATOM     65  C   UNL A   1      42.105  24.628  27.563  1.00  0.00     0.148 A 
ATOM     66  C   UNL A   1      43.595  25.634  25.404  1.00  0.00     0.002 A 
ATOM     67  C   UNL A   1      42.386  23.819  26.468  1.00  0.00     0.091 A 
ATOM     68  F   UNL A   1      41.361  24.191  28.589  1.00  0.00    -0.205 F 
ATOM     69  C   UNL A   1      43.118  24.325  25.383  1.00  0.00     0.022 A 
BRANCH  67  70
ATOM     70  S   UNL A   1      41.882  22.098  26.383  1.00  0.00     0.127 S 
ATOM     71  O   UNL A   1      42.588  21.644  25.184  1.00  0.00    -0.237 OA
ATOM     72  O   UNL A   1      42.408  21.561  27.638  1.00  0.00    -0.237 OA
ATOM     73  O   UNL A   1      40.430  22.108  26.287  1.00  0.00    -0.744 OA
ENDBRANCH  67  70
ENDBRANCH  49  63
BRANCH  50  74
ATOM     74  C   UNL A   1      40.376  31.868  35.334  1.00  0.00     0.023 A 
ATOM     75  C   UNL A   1      41.182  32.980  35.644  1.00  0.00     0.012 A 
ATOM     76  C   UNL A   1      39.260  31.583  36.147  1.00  0.00     0.148 A 
ATOM     77  C   UNL A   1      40.897  33.778  36.755  1.00  0.00     0.002 A 
ATOM     78  C   UNL A   1      38.948  32.414  37.216  1.00  0.00     0.091 A 
ATOM     79  F   UNL A   1      38.520  30.505  35.853  1.00  0.00    -0.205 F 
ATOM     80  C   UNL A   1      39.775  33.502  37.532  1.00  0.00     0.022 A 
BRANCH  78  81
ATOM     81  S   UNL A   1      37.461  32.205  38.202  1.00  0.00     0.127 S 
ATOM     82  O   UNL A   1      37.843  32.846  39.457  1.00  0.00    -0.237 OA
ATOM     83  O   UNL A   1      36.472  32.937  37.412  1.00  0.00    -0.237 OA
ATOM     84  O   UNL A   1      37.234  30.768  38.274  1.00  0.00    -0.744 OA
ENDBRANCH  78  81
ENDBRANCH  50  74
BRANCH  62  85
ATOM     85  C   UNL A   1      45.298  27.040  34.199  1.00  0.00     0.023 A 
ATOM     86  C   UNL A   1      46.568  27.649  34.175  1.00  0.00     0.012 A 
ATOM     87  C   UNL A   1      45.060  25.973  35.089  1.00  0.00     0.148 A 
ATOM     88  C   UNL A   1      47.592  27.186  35.002  1.00  0.00     0.002 A 
ATOM     89  C   UNL A   1      46.068  25.552  35.947  1.00  0.00     0.091 A 
ATOM     90  F   UNL A   1      43.848  25.399  35.086  1.00  0.00    -0.205 F 
ATOM     91  C   UNL A   1      47.338  26.148  35.896  1.00  0.00     0.022 A 
BRANCH  89  92
ATOM     92  S   UNL A   1      45.808  24.291  37.200  1.00  0.00     0.127 S 
ATOM     93  O   UNL A   1      44.760  24.898  38.020  1.00  0.00    -0.237 OA
ATOM     94  O   UNL A   1      45.370  23.147  36.401  1.00  0.00    -0.237 OA
ATOM     95  O   UNL A   1      47.092  24.111  37.866  1.00  0.00    -0.744 OA
ENDBRANCH  89  92
ENDBRANCH  62  85
ENDBRANCH  36  37
ENDBRANCH  29  31
ENDBRANCH  28  29
ENDBRANCH  27  28
ENDBRANCH  26  27
ENDBRANCH  25  26
ENDBRANCH  24  25
ENDBRANCH   1  24
TORSDOF 24
ENDMDL
MODEL 2
REMARK VINA RESULT:     -10.0      1.828      2.113
REMARK SMILES C[C@@H](c1ccc(C(=O)OCCOCCOCCOC(=O)c2ccc(-c3c4nc(c(-c5cccc(S(=O)(=O)[O-])c5F)c5ccc([nH]5)c(-c5cccc(S(=O)(=O)[O-])c5F)c5nc(c(-c6cccc(S(=O)(=O)[O-])c6F)c6ccc3[nH]6)C=C5)C=C4)cc2)o1)[N@@H+](C)Cc1ccoc1
REMARK SMILES IDX 13 1 12 2 11 3 10 4 9 5 7 6 8 7 6 8 3 9 4 10 84 11 5 12 2 13
REMARK SMILES IDX 1 14 85 15 86 16 87 18 88 19 89 20 92 21 90 22 91 23 14 24
REMARK SMILES IDX 15 25 16 26 17 27 18 28 19 29 20 30 21 31 22 32 83 33 23 34
REMARK SMILES IDX 82 35 24 36 25 37 26 38 76 39 27 40 81 41 75 42 77 43 28 44
REMARK SMILES IDX 80 45 74 46 73 47 29 49 61 50 41 51 60 52 42 53 45 54 59 55
REMARK SMILES IDX 78 56 43 57 44 58 58 60 79 61 46 62 30 63 31 64 39 65 32 66
REMARK SMILES IDX 34 67 40 68 33 69 35 70 36 71 37 72 38 73 62 74 63 75 71 76
REMARK SMILES IDX 64 77 66 78 72 79 65 80 67 81 68 82 69 83 70 84 47 85 48 86
REMARK SMILES IDX 56 87 49 88 51 89 57 90 50 91 52 92 53 93 54 94 55 95
REMARK H PARENT 85 17 77 48 45 59
REMARK Flexibility Score: inf
ROOT
ATOM      1  C   UNL A   1      30.536  26.121  25.736  1.00  0.00     0.188 C 
ENDROOT
BRANCH   1   2
ATOM      2  O   UNL A   1      29.879  25.677  24.563  1.00  0.00    -0.376 OA
BRANCH   2   3
ATOM      3  C   UNL A   1      29.809  26.587  23.476  1.00  0.00     0.202 C 
BRANCH   3   4
ATOM      4  C   UNL A   1      30.920  26.519  22.417  1.00  0.00     0.261 C 
BRANCH   4   5
ATOM      5  O   UNL A   1      31.634  25.269  22.313  1.00  0.00    -0.457 OA
BRANCH   5   6
ATOM      6  C   UNL A   1      33.000  25.345  22.413  1.00  0.00     0.374 C 
ATOM      7  O   UNL A   1      33.733  25.826  21.549  1.00  0.00    -0.242 OA
BRANCH   6   8
ATOM      8  C   UNL A   1      33.449  24.821  23.682  1.00  0.00     0.212 A 
ATOM      9  C   UNL A   1      33.547  23.344  25.341  1.00  0.00     0.162 A 
ATOM     10  C   UNL A   1      34.289  24.445  25.729  1.00  0.00     0.053 A 
ATOM     11  O   UNL A   1      32.999  23.591  24.106  1.00  0.00    -0.448 OA
ATOM     12  C   UNL A   1      34.281  25.356  24.647  1.00  0.00     0.059 A 
BRANCH   9  13
ATOM     13  C   UNL A   1      33.214  22.026  26.008  1.00  0.00     0.248 C 
ATOM     14  C   UNL A   1      33.488  22.069  27.518  1.00  0.00     0.084 C 
BRANCH  13  15
ATOM     15  N   UNL A   1      33.833  20.828  25.422  1.00  0.00    -0.325 N 
ATOM     16  C   UNL A   1      35.283  20.842  25.394  1.00  0.00     0.333 C 
ATOM     17  H   UNL A   1      33.522  20.983  24.463  1.00  0.00     0.348 HD
BRANCH  15  18
ATOM     18  C   UNL A   1      33.211  19.513  25.553  1.00  0.00     0.302 C 
BRANCH  18  19
ATOM     19  C   UNL A   1      33.106  18.740  24.283  1.00  0.00     0.044 A 
ATOM     20  C   UNL A   1      32.220  18.958  23.196  1.00  0.00     0.051 A 
ATOM     21  C   UNL A   1      33.859  17.647  23.900  1.00  0.00     0.204 A 
ATOM     22  C   UNL A   1      32.498  18.016  22.240  1.00  0.00     0.195 A 
ATOM     23  O   UNL A   1      33.506  17.212  22.661  1.00  0.00    -0.472 OA
ENDBRANCH  18  19
ENDBRANCH  15  18
ENDBRANCH  13  15
ENDBRANCH   9  13
ENDBRANCH   6   8
ENDBRANCH   5   6
ENDBRANCH   4   5
ENDBRANCH   3   4
ENDBRANCH   2   3
ENDBRANCH   1   2
BRANCH   1  24
ATOM     24  C   UNL A   1      31.382  27.387  25.632  1.00  0.00     0.188 C 
BRANCH  24  25
ATOM     25  O   UNL A   1      30.746  28.589  25.218  1.00  0.00    -0.376 OA
BRANCH  25  26
ATOM     26  C   UNL A   1      31.651  29.556  24.666  1.00  0.00     0.202 C 
BRANCH  26  27
ATOM     27  C   UNL A   1      32.892  29.882  25.534  1.00  0.00     0.261 C 
BRANCH  27  28
ATOM     28  O   UNL A   1      32.644  30.345  26.886  1.00  0.00    -0.460 OA
BRANCH  28  29
ATOM     29  C   UNL A   1      33.172  31.536  27.252  1.00  0.00     0.338 C 
ATOM     30  O   UNL A   1      32.567  32.592  27.346  1.00  0.00    -0.246 OA
BRANCH  29  31
ATOM     31  C   UNL A   1      34.529  31.318  27.819  1.00  0.00     0.060 A 
ATOM     32  C   UNL A   1      34.836  30.024  28.251  1.00  0.00     0.016 A 
ATOM     33  C   UNL A   1      35.495  32.314  27.931  1.00  0.00     0.016 A 
ATOM     34  C   UNL A   1      36.068  29.715  28.813  1.00  0.00     0.010 A 
ATOM     35  C   UNL A   1      36.740  32.006  28.516  1.00  0.00     0.010 A 
ATOM     36  C   UNL A   1      37.028  30.708  28.981  1.00  0.00    -0.014 A 
BRANCH  36  37
ATOM     37  C   UNL A   1      38.245  30.396  29.780  1.00  0.00     0.031 A 
ATOM     38  C   UNL A   1      39.299  29.508  29.176  1.00  0.00     0.074 A 
ATOM     39  C   UNL A   1      38.472  30.962  30.983  1.00  0.00     0.049 A 
ATOM     40  N   UNL A   1      40.367  28.994  29.726  1.00  0.00    -0.248 NA
ATOM     41  C   UNL A   1      39.128  29.163  27.755  1.00  0.00     0.031 C 
ATOM     42  C   UNL A   1      37.605  31.942  31.638  1.00  0.00     0.029 A 
ATOM     43  N   UNL A   1      39.505  30.783  31.873  1.00  0.00    -0.354 N 
ATOM     44  C   UNL A   1      40.956  28.207  28.744  1.00  0.00     0.074 A 
ATOM     45  C   UNL A   1      40.137  28.328  27.557  1.00  0.00     0.031 C 
ATOM     46  C   UNL A   1      38.131  32.261  32.833  1.00  0.00     0.029 A 
ATOM     47  C   UNL A   1      39.328  31.457  33.061  1.00  0.00     0.049 A 
ATOM     48  H   UNL A   1      40.293  30.226  31.680  1.00  0.00     0.167 HD
ATOM     49  C   UNL A   1      42.076  27.449  28.822  1.00  0.00     0.034 A 
ATOM     50  C   UNL A   1      40.016  31.389  34.219  1.00  0.00     0.034 A 
ATOM     51  C   UNL A   1      42.911  27.363  29.990  1.00  0.00     0.049 A 
ATOM     52  C   UNL A   1      41.204  30.466  34.317  1.00  0.00     0.074 A 
ATOM     53  C   UNL A   1      44.065  26.621  30.168  1.00  0.00     0.029 A 
ATOM     54  N   UNL A   1      42.679  28.034  31.180  1.00  0.00    -0.354 N 
ATOM     55  N   UNL A   1      41.754  29.725  33.385  1.00  0.00    -0.248 NA
ATOM     56  C   UNL A   1      41.871  30.374  35.624  1.00  0.00     0.031 C 
ATOM     57  C   UNL A   1      44.510  26.814  31.479  1.00  0.00     0.029 A 
ATOM     58  C   UNL A   1      43.658  27.711  32.104  1.00  0.00     0.049 A 
ATOM     59  H   UNL A   1      41.929  28.650  31.345  1.00  0.00     0.167 HD
ATOM     60  C   UNL A   1      42.847  29.107  33.984  1.00  0.00     0.074 A 
ATOM     61  C   UNL A   1      42.893  29.573  35.354  1.00  0.00     0.031 C 
ATOM     62  C   UNL A   1      43.725  28.221  33.451  1.00  0.00     0.034 A 
BRANCH  49  63
ATOM     63  C   UNL A   1      42.443  26.626  27.616  1.00  0.00     0.023 A 
ATOM     64  C   UNL A   1      43.170  27.200  26.555  1.00  0.00     0.012 A 
ATOM     65  C   UNL A   1      42.081  25.266  27.550  1.00  0.00     0.148 A 
ATOM     66  C   UNL A   1      43.496  26.445  25.429  1.00  0.00     0.002 A 
ATOM     67  C   UNL A   1      42.451  24.506  26.448  1.00  0.00     0.091 A 
ATOM     68  F   UNL A   1      41.369  24.744  28.559  1.00  0.00    -0.205 F 
ATOM     69  C   UNL A   1      43.146  25.097  25.380  1.00  0.00     0.022 A 
BRANCH  67  70
ATOM     70  S   UNL A   1      42.114  22.747  26.329  1.00  0.00     0.127 S 
ATOM     71  O   UNL A   1      42.790  22.237  27.522  1.00  0.00    -0.237 OA
ATOM     72  O   UNL A   1      40.654  22.709  26.393  1.00  0.00    -0.237 OA
ATOM     73  O   UNL A   1      42.679  22.313  25.059  1.00  0.00    -0.744 OA
ENDBRANCH  67  70
ENDBRANCH  49  63
BRANCH  50  74
ATOM     74  C   UNL A   1      39.583  32.194  35.400  1.00  0.00     0.023 A 
ATOM     75  C   UNL A   1      38.748  31.615  36.374  1.00  0.00     0.012 A 
ATOM     76  C   UNL A   1      39.994  33.534  35.558  1.00  0.00     0.148 A 
ATOM     77  C   UNL A   1      38.310  32.360  37.471  1.00  0.00     0.002 A 
ATOM     78  C   UNL A   1      39.602  34.253  36.681  1.00  0.00     0.091 A 
ATOM     79  F   UNL A   1      40.766  34.076  34.607  1.00  0.00    -0.205 F 
ATOM     80  C   UNL A   1      38.746  33.674  37.630  1.00  0.00     0.022 A 
BRANCH  78  81
ATOM     81  S   UNL A   1      40.205  35.908  37.028  1.00  0.00     0.127 S 
ATOM     82  O   UNL A   1      41.642  35.681  37.160  1.00  0.00    -0.237 OA
ATOM     83  O   UNL A   1      39.804  36.632  35.822  1.00  0.00    -0.237 OA
ATOM     84  O   UNL A   1      39.522  36.331  38.242  1.00  0.00    -0.744 OA
ENDBRANCH  78  81
ENDBRANCH  50  74
BRANCH  62  85
ATOM     85  C   UNL A   1      44.847  27.724  34.327  1.00  0.00     0.023 A 
ATOM     86  C   UNL A   1      44.694  26.531  35.061  1.00  0.00     0.012 A 
ATOM     87  C   UNL A   1      46.085  28.397  34.352  1.00  0.00     0.148 A 
ATOM     88  C   UNL A   1      45.746  26.033  35.829  1.00  0.00     0.002 A 
ATOM     89  C   UNL A   1      47.145  27.866  35.077  1.00  0.00     0.091 A 
ATOM     90  F   UNL A   1      46.205  29.538  33.658  1.00  0.00    -0.205 F 
ATOM     91  C   UNL A   1      46.974  26.691  35.827  1.00  0.00     0.022 A 
BRANCH  89  92
ATOM     92  S   UNL A   1      48.790  28.588  35.055  1.00  0.00     0.127 S 
ATOM     93  O   UNL A   1      48.552  29.892  35.672  1.00  0.00    -0.237 OA
ATOM     94  O   UNL A   1      49.550  27.652  35.882  1.00  0.00    -0.237 OA
ATOM     95  O   UNL A   1      49.195  28.628  33.656  1.00  0.00    -0.744 OA
ENDBRANCH  89  92
ENDBRANCH  62  85
ENDBRANCH  36  37
ENDBRANCH  29  31
ENDBRANCH  28  29
ENDBRANCH  27  28
ENDBRANCH  26  27
ENDBRANCH  25  26
ENDBRANCH  24  25
ENDBRANCH   1  24
TORSDOF 24
ENDMDL
MODEL 3
REMARK VINA RESULT:      -9.9      1.815      2.259
REMARK SMILES C[C@@H](c1ccc(C(=O)OCCOCCOCCOC(=O)c2ccc(-c3c4nc(c(-c5cccc(S(=O)(=O)[O-])c5F)c5ccc([nH]5)c(-c5cccc(S(=O)(=O)[O-])c5F)c5nc(c(-c6cccc(S(=O)(=O)[O-])c6F)c6ccc3[nH]6)C=C5)C=C4)cc2)o1)[N@@H+](C)Cc1ccoc1
REMARK SMILES IDX 13 1 12 2 11 3 10 4 9 5 7 6 8 7 6 8 3 9 4 10 84 11 5 12 2 13
REMARK SMILES IDX 1 14 85 15 86 16 87 18 88 19 89 20 92 21 90 22 91 23 14 24
REMARK SMILES IDX 15 25 16 26 17 27 18 28 19 29 20 30 21 31 22 32 83 33 23 34
REMARK SMILES IDX 82 35 24 36 25 37 26 38 76 39 27 40 81 41 75 42 77 43 28 44
REMARK SMILES IDX 80 45 74 46 73 47 29 49 61 50 41 51 60 52 42 53 45 54 59 55
REMARK SMILES IDX 78 56 43 57 44 58 58 60 79 61 46 62 30 63 31 64 39 65 32 66
REMARK SMILES IDX 34 67 40 68 33 69 35 70 36 71 37 72 38 73 62 74 63 75 71 76
REMARK SMILES IDX 64 77 66 78 72 79 65 80 67 81 68 82 69 83 70 84 47 85 48 86
REMARK SMILES IDX 56 87 49 88 51 89 57 90 50 91 52 92 53 93 54 94 55 95
REMARK H PARENT 85 17 77 48 45 59
REMARK Flexibility Score: inf
ROOT
ATOM      1  C   UNL A   1      29.884  27.086  24.558  1.00  0.00     0.188 C 
ENDROOT
BRANCH   1   2
ATOM      2  O   UNL A   1      29.719  28.055  23.538  1.00  0.00    -0.376 OA
BRANCH   2   3
ATOM      3  C   UNL A   1      30.874  28.777  23.138  1.00  0.00     0.202 C 
BRANCH   3   4
ATOM      4  C   UNL A   1      31.822  28.104  22.132  1.00  0.00     0.261 C 
BRANCH   4   5
ATOM      5  O   UNL A   1      31.545  26.725  21.811  1.00  0.00    -0.457 OA
BRANCH   5   6
ATOM      6  C   UNL A   1      32.638  25.930  21.577  1.00  0.00     0.374 C 
ATOM      7  O   UNL A   1      33.096  25.690  20.459  1.00  0.00    -0.242 OA
BRANCH   6   8
ATOM      8  C   UNL A   1      33.195  25.449  22.820  1.00  0.00     0.212 A 
ATOM      9  C   UNL A   1      33.424  24.037  24.523  1.00  0.00     0.162 A 
ATOM     10  C   UNL A   1      34.214  25.139  24.796  1.00  0.00     0.053 A 
ATOM     11  O   UNL A   1      32.769  24.244  23.333  1.00  0.00    -0.448 OA
ATOM     12  C   UNL A   1      34.119  26.007  23.682  1.00  0.00     0.059 A 
BRANCH   9  13
ATOM     13  C   UNL A   1      33.136  22.752  25.270  1.00  0.00     0.248 C 
ATOM     14  C   UNL A   1      31.653  22.639  25.653  1.00  0.00     0.084 C 
BRANCH  13  15
ATOM     15  N   UNL A   1      33.977  22.482  26.446  1.00  0.00    -0.325 N 
ATOM     16  C   UNL A   1      33.652  21.265  27.163  1.00  0.00     0.333 C 
ATOM     17  H   UNL A   1      33.641  23.257  27.019  1.00  0.00     0.348 HD
BRANCH  15  18
ATOM     18  C   UNL A   1      35.379  22.888  26.483  1.00  0.00     0.302 C 
BRANCH  18  19
ATOM     19  C   UNL A   1      36.328  21.927  25.854  1.00  0.00     0.044 A 
ATOM     20  C   UNL A   1      36.033  20.684  25.236  1.00  0.00     0.051 A 
ATOM     21  C   UNL A   1      37.699  22.052  25.740  1.00  0.00     0.204 A 
ATOM     22  C   UNL A   1      37.215  20.158  24.782  1.00  0.00     0.195 A 
ATOM     23  O   UNL A   1      38.240  20.993  25.082  1.00  0.00    -0.472 OA
ENDBRANCH  18  19
ENDBRANCH  15  18
ENDBRANCH  13  15
ENDBRANCH   9  13
ENDBRANCH   6   8
ENDBRANCH   5   6
ENDBRANCH   4   5
ENDBRANCH   3   4
ENDBRANCH   2   3
ENDBRANCH   1   2
BRANCH   1  24
ATOM     24  C   UNL A   1      31.160  27.154  25.393  1.00  0.00     0.188 C 
BRANCH  24  25
ATOM     25  O   UNL A   1      31.042  27.090  26.808  1.00  0.00    -0.376 OA
BRANCH  25  26
ATOM     26  C   UNL A   1      31.622  28.215  27.483  1.00  0.00     0.202 C 
BRANCH  26  27
ATOM     27  C   UNL A   1      31.578  29.556  26.709  1.00  0.00     0.261 C 
BRANCH  27  28
ATOM     28  O   UNL A   1      32.853  30.141  26.338  1.00  0.00    -0.460 OA
BRANCH  28  29
ATOM     29  C   UNL A   1      33.221  31.291  26.950  1.00  0.00     0.338 C 
ATOM     30  O   UNL A   1      32.496  32.244  27.184  1.00  0.00    -0.246 OA
BRANCH  29  31
ATOM     31  C   UNL A   1      34.560  31.110  27.571  1.00  0.00     0.060 A 
ATOM     32  C   UNL A   1      34.952  29.800  27.863  1.00  0.00     0.016 A 
ATOM     33  C   UNL A   1      35.431  32.156  27.862  1.00  0.00     0.016 A 
ATOM     34  C   UNL A   1      36.174  29.519  28.460  1.00  0.00     0.010 A 
ATOM     35  C   UNL A   1      36.665  31.875  28.483  1.00  0.00     0.010 A 
ATOM     36  C   UNL A   1      37.037  30.555  28.806  1.00  0.00    -0.014 A 
BRANCH  36  37
ATOM     37  C   UNL A   1      38.232  30.241  29.636  1.00  0.00     0.031 A 
ATOM     38  C   UNL A   1      39.324  29.394  29.043  1.00  0.00     0.074 A 
ATOM     39  C   UNL A   1      38.405  30.773  30.864  1.00  0.00     0.049 A 
ATOM     40  N   UNL A   1      40.383  28.883  29.613  1.00  0.00    -0.248 NA
ATOM     41  C   UNL A   1      39.209  29.092  27.606  1.00  0.00     0.031 C 
ATOM     42  C   UNL A   1      37.497  31.714  31.519  1.00  0.00     0.029 A 
ATOM     43  N   UNL A   1      39.411  30.585  31.784  1.00  0.00    -0.354 N 
ATOM     44  C   UNL A   1      41.021  28.140  28.627  1.00  0.00     0.074 A 
ATOM     45  C   UNL A   1      40.241  28.283  27.417  1.00  0.00     0.031 C 
ATOM     46  C   UNL A   1      37.974  32.005  32.741  1.00  0.00     0.029 A 
ATOM     47  C   UNL A   1      39.180  31.217  32.985  1.00  0.00     0.049 A 
ATOM     48  H   UNL A   1      40.217  30.051  31.600  1.00  0.00     0.167 HD
ATOM     49  C   UNL A   1      42.153  27.403  28.721  1.00  0.00     0.034 A 
ATOM     50  C   UNL A   1      39.829  31.125  34.164  1.00  0.00     0.034 A 
ATOM     51  C   UNL A   1      42.949  27.295  29.914  1.00  0.00     0.049 A 
ATOM     52  C   UNL A   1      41.032  30.223  34.274  1.00  0.00     0.074 A 
ATOM     53  C   UNL A   1      44.112  26.570  30.108  1.00  0.00     0.029 A 
ATOM     54  N   UNL A   1      42.663  27.923  31.116  1.00  0.00    -0.354 N 
ATOM     55  N   UNL A   1      41.628  29.524  33.339  1.00  0.00    -0.248 NA
ATOM     56  C   UNL A   1      41.655  30.102  35.600  1.00  0.00     0.031 C 
ATOM     57  C   UNL A   1      44.508  26.730  31.439  1.00  0.00     0.029 A 
ATOM     58  C   UNL A   1      43.617  27.589  32.062  1.00  0.00     0.049 A 
ATOM     59  H   UNL A   1      41.896  28.519  31.274  1.00  0.00     0.167 HD
ATOM     60  C   UNL A   1      42.713  28.908  33.956  1.00  0.00     0.074 A 
ATOM     61  C   UNL A   1      42.702  29.331  35.340  1.00  0.00     0.031 C 
ATOM     62  C   UNL A   1      43.627  28.057  33.426  1.00  0.00     0.034 A 
BRANCH  49  63
ATOM     63  C   UNL A   1      42.578  26.626  27.503  1.00  0.00     0.023 A 
ATOM     64  C   UNL A   1      43.287  27.261  26.463  1.00  0.00     0.012 A 
ATOM     65  C   UNL A   1      42.290  25.250  27.404  1.00  0.00     0.148 A 
ATOM     66  C   UNL A   1      43.666  26.548  25.326  1.00  0.00     0.002 A 
ATOM     67  C   UNL A   1      42.714  24.535  26.291  1.00  0.00     0.091 A 
ATOM     68  F   UNL A   1      41.595  24.670  28.392  1.00  0.00    -0.205 F 
ATOM     69  C   UNL A   1      43.389  25.185  25.245  1.00  0.00     0.022 A 
BRANCH  67  70
ATOM     70  S   UNL A   1      42.473  22.763  26.131  1.00  0.00     0.127 S 
ATOM     71  O   UNL A   1      43.223  22.259  27.282  1.00  0.00    -0.237 OA
ATOM     72  O   UNL A   1      41.021  22.639  26.250  1.00  0.00    -0.237 OA
ATOM     73  O   UNL A   1      43.011  22.399  24.828  1.00  0.00    -0.744 OA
ENDBRANCH  67  70
ENDBRANCH  49  63
BRANCH  50  74
ATOM     74  C   UNL A   1      39.339  31.883  35.354  1.00  0.00     0.023 A 
ATOM     75  C   UNL A   1      38.431  31.279  36.244  1.00  0.00     0.012 A 
ATOM     76  C   UNL A   1      39.768  33.203  35.603  1.00  0.00     0.148 A 
ATOM     77  C   UNL A   1      37.941  31.982  37.347  1.00  0.00     0.002 A 
ATOM     78  C   UNL A   1      39.321  33.877  36.733  1.00  0.00     0.091 A 
ATOM     79  F   UNL A   1      40.611  33.772  34.730  1.00  0.00    -0.205 F 
ATOM     80  C   UNL A   1      38.394  33.275  37.598  1.00  0.00     0.022 A 
BRANCH  78  81
ATOM     81  S   UNL A   1      39.937  35.499  37.199  1.00  0.00     0.127 S 
ATOM     82  O   UNL A   1      39.191  35.760  38.427  1.00  0.00    -0.237 OA
ATOM     83  O   UNL A   1      41.363  35.234  37.389  1.00  0.00    -0.237 OA
ATOM     84  O   UNL A   1      39.628  36.375  36.078  1.00  0.00    -0.744 OA
ENDBRANCH  78  81
ENDBRANCH  50  74
BRANCH  62  85
ATOM     85  C   UNL A   1      44.728  27.554  34.325  1.00  0.00     0.023 A 
ATOM     86  C   UNL A   1      45.908  28.306  34.483  1.00  0.00     0.012 A 
ATOM     87  C   UNL A   1      44.551  26.379  35.082  1.00  0.00     0.148 A 
ATOM     88  C   UNL A   1      46.908  27.880  35.358  1.00  0.00     0.002 A 
ATOM     89  C   UNL A   1      45.527  25.988  35.990  1.00  0.00     0.091 A 
ATOM     90  F   UNL A   1      43.426  25.671  34.907  1.00  0.00    -0.205 F 
ATOM     91  C   UNL A   1      46.712  26.730  36.120  1.00  0.00     0.022 A 
BRANCH  89  92
ATOM     92  S   UNL A   1      45.322  24.580  37.086  1.00  0.00     0.127 S 
ATOM     93  O   UNL A   1      46.559  24.624  37.864  1.00  0.00    -0.237 OA
ATOM     94  O   UNL A   1      44.119  24.943  37.834  1.00  0.00    -0.237 OA
ATOM     95  O   UNL A   1      45.172  23.415  36.223  1.00  0.00    -0.744 OA
ENDBRANCH  89  92
ENDBRANCH  62  85
ENDBRANCH  36  37
ENDBRANCH  29  31
ENDBRANCH  28  29
ENDBRANCH  27  28
ENDBRANCH  26  27
ENDBRANCH  25  26
ENDBRANCH  24  25
ENDBRANCH   1  24
TORSDOF 24
ENDMDL
