MODEL 1
REMARK VINA RESULT:     -10.2      0.000      0.000
REMARK SMILES Cc1cc(Cl)c2c(c1)C=C(C(=O)OCCOCCOCCOC(=O)c1ccc(-c3c4nc(c(-c5cccc(S(=O)(=O)[O-])c5F)c5ccc([nH]5)c(-c5cccc(S(=O)(=O)[O-])c5F)c5nc(c(-c6cccc(S(=O)(=O)[O-])c6F)c6ccc3[nH]6)C=C5)C=C4)cc1)[C@@H](C(F)(F)F)O2
REMARK SMILES IDX 18 1 17 2 16 3 15 4 14 5 13 6 11 7 12 8 10 9 1 10 2 11 3 12
REMARK SMILES IDX 8 13 4 14 7 15 5 16 6 17 9 18 93 19 88 20 89 21 90 22 91 23
REMARK SMILES IDX 92 24 19 25 20 26 21 27 22 28 23 29 24 30 25 31 26 32 87 33
REMARK SMILES IDX 27 34 86 35 28 36 29 37 30 38 80 39 31 40 85 41 79 42 81 43
REMARK SMILES IDX 32 44 84 45 78 46 77 47 33 49 65 50 45 51 64 52 46 53 49 54
REMARK SMILES IDX 63 55 82 56 47 57 48 58 62 60 83 61 50 62 34 63 35 64 43 65
REMARK SMILES IDX 36 66 38 67 44 68 37 69 39 70 40 71 41 72 42 73 66 74 67 75
REMARK SMILES IDX 75 76 68 77 70 78 76 79 69 80 71 81 72 82 73 83 74 84 51 85
REMARK SMILES IDX 52 86 60 87 53 88 55 89 61 90 54 91 56 92 57 93 58 94 59 95
REMARK H PARENT 81 48 49 59
REMARK Flexibility Score: inf
ROOT
ATOM      1  C   UNL A   1      36.661  21.599  25.493  1.00  0.00     0.188 C 
ENDROOT
BRANCH   1   2
ATOM      2  C   UNL A   1      35.478  22.144  24.666  1.00  0.00     0.188 C 
BRANCH   2   3
ATOM      3  O   UNL A   1      34.221  21.594  24.977  1.00  0.00    -0.376 OA
BRANCH   3   4
ATOM      4  C   UNL A   1      33.479  22.017  26.104  1.00  0.00     0.202 C 
BRANCH   4   5
ATOM      5  C   UNL A   1      33.138  23.473  26.471  1.00  0.00     0.261 C 
BRANCH   5   6
ATOM      6  O   UNL A   1      32.121  24.126  25.714  1.00  0.00    -0.460 OA
BRANCH   6   7
ATOM      7  C   UNL A   1      32.545  24.808  24.624  1.00  0.00     0.338 C 
ATOM      8  O   UNL A   1      32.967  24.335  23.582  1.00  0.00    -0.246 OA
BRANCH   7   9
ATOM      9  C   UNL A   1      32.330  26.251  24.844  1.00  0.00     0.087 C 
ATOM     10  C   UNL A   1      34.373  30.984  28.224  1.00  0.00     0.044 C 
ATOM     11  C   UNL A   1      33.498  30.277  27.229  1.00  0.00    -0.049 A 
ATOM     12  C   UNL A   1      32.440  30.948  26.605  1.00  0.00     0.028 A 
ATOM     13  C   UNL A   1      33.753  28.943  26.887  1.00  0.00     0.015 A 
ATOM     14  C   UNL A   1      31.644  30.289  25.663  1.00  0.00     0.084 A 
ATOM     15  C   UNL A   1      32.939  28.272  25.963  1.00  0.00     0.019 A 
ATOM     16  Cl  UNL A   1      30.341  31.165  24.939  1.00  0.00    -0.080 Cl
ATOM     17  C   UNL A   1      31.889  28.948  25.335  1.00  0.00     0.146 A 
ATOM     18  C   UNL A   1      33.164  26.862  25.694  1.00  0.00     0.027 C 
ATOM     19  O   UNL A   1      31.078  28.361  24.403  1.00  0.00    -0.474 OA
ATOM     20  C   UNL A   1      31.213  26.945  24.117  1.00  0.00     0.316 C 
BRANCH  20  21
ATOM     21  C   UNL A   1      29.854  26.270  24.355  1.00  0.00     0.430 C 
ATOM     22  F   UNL A   1      29.661  25.996  25.668  1.00  0.00    -0.167 F 
ATOM     23  F   UNL A   1      28.824  27.063  23.976  1.00  0.00    -0.167 F 
ATOM     24  F   UNL A   1      29.738  25.106  23.678  1.00  0.00    -0.167 F 
ENDBRANCH  20  21
ENDBRANCH   7   9
ENDBRANCH   6   7
ENDBRANCH   5   6
ENDBRANCH   4   5
ENDBRANCH   3   4
ENDBRANCH   2   3
ENDBRANCH   1   2
BRANCH   1  25
ATOM     25  O   UNL A   1      37.967  21.554  24.933  1.00  0.00    -0.376 OA
BRANCH  25  26
ATOM     26  C   UNL A   1      39.084  21.407  25.802  1.00  0.00     0.202 C 
BRANCH  26  27
ATOM     27  C   UNL A   1      39.654  20.009  26.087  1.00  0.00     0.261 C 
BRANCH  27  28
ATOM     28  O   UNL A   1      40.875  19.709  25.395  1.00  0.00    -0.460 OA
BRANCH  28  29
ATOM     29  C   UNL A   1      41.966  19.547  26.186  1.00  0.00     0.338 C 
ATOM     30  O   UNL A   1      42.484  18.496  26.523  1.00  0.00    -0.246 OA
BRANCH  29  31
ATOM     31  C   UNL A   1      42.586  20.861  26.438  1.00  0.00     0.060 A 
ATOM     32  C   UNL A   1      42.681  21.304  27.765  1.00  0.00     0.016 A 
ATOM     33  C   UNL A   1      43.028  21.667  25.387  1.00  0.00     0.016 A 
ATOM     34  C   UNL A   1      43.201  22.565  28.046  1.00  0.00     0.010 A 
ATOM     35  C   UNL A   1      43.522  22.945  25.668  1.00  0.00     0.010 A 
ATOM     36  C   UNL A   1      43.584  23.408  26.995  1.00  0.00    -0.014 A 
BRANCH  36  37
ATOM     37  C   UNL A   1      43.869  24.834  27.274  1.00  0.00     0.031 A 
ATOM     38  C   UNL A   1      45.280  25.327  27.106  1.00  0.00     0.074 A 
ATOM     39  C   UNL A   1      42.895  25.680  27.656  1.00  0.00     0.049 A 
ATOM     40  N   UNL A   1      45.765  26.525  27.297  1.00  0.00    -0.248 NA
ATOM     41  C   UNL A   1      46.275  24.337  26.659  1.00  0.00     0.031 C 
ATOM     42  C   UNL A   1      41.489  25.323  27.833  1.00  0.00     0.029 A 
ATOM     43  N   UNL A   1      42.951  27.012  27.981  1.00  0.00    -0.354 N 
ATOM     44  C   UNL A   1      47.119  26.434  27.003  1.00  0.00     0.074 A 
ATOM     45  C   UNL A   1      47.385  25.060  26.638  1.00  0.00     0.031 C 
ATOM     46  C   UNL A   1      40.818  26.408  28.257  1.00  0.00     0.029 A 
ATOM     47  C   UNL A   1      41.748  27.527  28.402  1.00  0.00     0.049 A 
ATOM     48  H   UNL A   1      43.775  27.547  27.919  1.00  0.00     0.167 HD
ATOM     49  C   UNL A   1      48.056  27.409  27.015  1.00  0.00     0.034 A 
ATOM     50  C   UNL A   1      41.441  28.756  28.864  1.00  0.00     0.034 A 
ATOM     51  C   UNL A   1      47.792  28.775  27.376  1.00  0.00     0.049 A 
ATOM     52  C   UNL A   1      42.517  29.811  28.931  1.00  0.00     0.074 A 
ATOM     53  C   UNL A   1      48.672  29.841  27.399  1.00  0.00     0.029 A 
ATOM     54  N   UNL A   1      46.562  29.261  27.790  1.00  0.00    -0.354 N 
ATOM     55  N   UNL A   1      43.769  29.740  28.544  1.00  0.00    -0.248 NA
ATOM     56  C   UNL A   1      42.133  31.125  29.472  1.00  0.00     0.031 C 
ATOM     57  C   UNL A   1      47.980  30.968  27.849  1.00  0.00     0.029 A 
ATOM     58  C   UNL A   1      46.662  30.610  28.083  1.00  0.00     0.049 A 
ATOM     59  H   UNL A   1      45.739  28.726  27.865  1.00  0.00     0.167 HD
ATOM     60  C   UNL A   1      44.312  31.002  28.768  1.00  0.00     0.074 A 
ATOM     61  C   UNL A   1      43.249  31.826  29.302  1.00  0.00     0.031 C 
ATOM     62  C   UNL A   1      45.582  31.434  28.563  1.00  0.00     0.034 A 
BRANCH  49  63
ATOM     63  C   UNL A   1      49.451  27.046  26.585  1.00  0.00     0.023 A 
ATOM     64  C   UNL A   1      50.249  26.254  27.436  1.00  0.00     0.012 A 
ATOM     65  C   UNL A   1      49.943  27.419  25.321  1.00  0.00     0.148 A 
ATOM     66  C   UNL A   1      51.525  25.856  27.042  1.00  0.00     0.002 A 
ATOM     67  C   UNL A   1      51.200  26.984  24.918  1.00  0.00     0.091 A 
ATOM     68  F   UNL A   1      49.177  28.193  24.539  1.00  0.00    -0.205 F 
ATOM     69  C   UNL A   1      51.995  26.210  25.780  1.00  0.00     0.022 A 
BRANCH  67  70
ATOM     70  S   UNL A   1      51.866  27.320  23.284  1.00  0.00     0.127 S 
ATOM     71  O   UNL A   1      53.097  26.531  23.300  1.00  0.00    -0.237 OA
ATOM     72  O   UNL A   1      50.816  26.796  22.411  1.00  0.00    -0.237 OA
ATOM     73  O   UNL A   1      52.053  28.763  23.215  1.00  0.00    -0.744 OA
ENDBRANCH  67  70
ENDBRANCH  49  63
BRANCH  50  74
ATOM     74  C   UNL A   1      40.037  29.074  29.255  1.00  0.00     0.023 A 
ATOM     75  C   UNL A   1      39.063  29.244  28.252  1.00  0.00     0.012 A 
ATOM     76  C   UNL A   1      39.655  29.177  30.607  1.00  0.00     0.148 A 
ATOM     77  C   UNL A   1      37.739  29.531  28.587  1.00  0.00     0.002 A 
ATOM     78  C   UNL A   1      38.324  29.409  30.935  1.00  0.00     0.091 A 
ATOM     79  F   UNL A   1      40.601  29.033  31.547  1.00  0.00    -0.205 F 
ATOM     80  C   UNL A   1      37.368  29.601  29.927  1.00  0.00     0.022 A 
BRANCH  78  81
ATOM     81  S   UNL A   1      37.728  29.391  32.630  1.00  0.00     0.127 S 
ATOM     82  O   UNL A   1      36.428  30.043  32.497  1.00  0.00    -0.237 OA
ATOM     83  O   UNL A   1      37.673  27.956  32.912  1.00  0.00    -0.237 OA
ATOM     84  O   UNL A   1      38.722  30.119  33.405  1.00  0.00    -0.744 OA
ENDBRANCH  78  81
ENDBRANCH  50  74
BRANCH  62  85
ATOM     85  C   UNL A   1      45.912  32.867  28.899  1.00  0.00     0.023 A 
ATOM     86  C   UNL A   1      46.570  33.162  30.109  1.00  0.00     0.012 A 
ATOM     87  C   UNL A   1      45.688  33.897  27.964  1.00  0.00     0.148 A 
ATOM     88  C   UNL A   1      46.985  34.464  30.390  1.00  0.00     0.002 A 
ATOM     89  C   UNL A   1      46.149  35.182  28.229  1.00  0.00     0.091 A 
ATOM     90  F   UNL A   1      45.047  33.599  26.824  1.00  0.00    -0.205 F 
ATOM     91  C   UNL A   1      46.789  35.469  29.446  1.00  0.00     0.022 A 
BRANCH  89  92
ATOM     92  S   UNL A   1      46.038  36.516  27.030  1.00  0.00     0.127 S 
ATOM     93  O   UNL A   1      46.671  37.619  27.753  1.00  0.00    -0.237 OA
ATOM     94  O   UNL A   1      46.820  35.993  25.910  1.00  0.00    -0.237 OA
ATOM     95  O   UNL A   1      44.618  36.687  26.751  1.00  0.00    -0.744 OA
ENDBRANCH  89  92
ENDBRANCH  62  85
ENDBRANCH  36  37
ENDBRANCH  29  31
ENDBRANCH  28  29
ENDBRANCH  27  28
ENDBRANCH  26  27
ENDBRANCH  25  26
ENDBRANCH   1  25
TORSDOF 21
ENDMDL
MODEL 2
REMARK VINA RESULT:     -10.2      1.504      2.349
REMARK SMILES Cc1cc(Cl)c2c(c1)C=C(C(=O)OCCOCCOCCOC(=O)c1ccc(-c3c4nc(c(-c5cccc(S(=O)(=O)[O-])c5F)c5ccc([nH]5)c(-c5cccc(S(=O)(=O)[O-])c5F)c5nc(c(-c6cccc(S(=O)(=O)[O-])c6F)c6ccc3[nH]6)C=C5)C=C4)cc1)[C@@H](C(F)(F)F)O2
REMARK SMILES IDX 18 1 17 2 16 3 15 4 14 5 13 6 11 7 12 8 10 9 1 10 2 11 3 12
REMARK SMILES IDX 8 13 4 14 7 15 5 16 6 17 9 18 93 19 88 20 89 21 90 22 91 23
REMARK SMILES IDX 92 24 19 25 20 26 21 27 22 28 23 29 24 30 25 31 26 32 87 33
REMARK SMILES IDX 27 34 86 35 28 36 29 37 30 38 80 39 31 40 85 41 79 42 81 43
REMARK SMILES IDX 32 44 84 45 78 46 77 47 33 49 65 50 45 51 64 52 46 53 49 54
REMARK SMILES IDX 63 55 82 56 47 57 48 58 62 60 83 61 50 62 34 63 35 64 43 65
REMARK SMILES IDX 36 66 38 67 44 68 37 69 39 70 40 71 41 72 42 73 66 74 67 75
REMARK SMILES IDX 75 76 68 77 70 78 76 79 69 80 71 81 72 82 73 83 74 84 51 85
REMARK SMILES IDX 52 86 60 87 53 88 55 89 61 90 54 91 56 92 57 93 58 94 59 95
REMARK H PARENT 81 48 49 59
REMARK Flexibility Score: inf
ROOT
ATOM      1  C   UNL A   1      40.613  21.267  26.365  1.00  0.00     0.188 C 
ENDROOT
BRANCH   1   2
ATOM      2  C   UNL A   1      39.267  20.850  25.735  1.00  0.00     0.188 C 
BRANCH   2   3
ATOM      3  O   UNL A   1      38.256  21.827  25.770  1.00  0.00    -0.376 OA
BRANCH   3   4
ATOM      4  C   UNL A   1      37.322  21.974  24.718  1.00  0.00     0.202 C 
BRANCH   4   5
ATOM      5  C   UNL A   1      35.834  21.583  24.767  1.00  0.00     0.261 C 
BRANCH   5   6
ATOM      6  O   UNL A   1      34.876  22.582  24.419  1.00  0.00    -0.460 OA
BRANCH   6   7
ATOM      7  C   UNL A   1      33.984  22.904  25.386  1.00  0.00     0.338 C 
ATOM      8  O   UNL A   1      33.793  22.310  26.433  1.00  0.00    -0.246 OA
BRANCH   7   9
ATOM      9  C   UNL A   1      33.319  24.170  25.025  1.00  0.00     0.087 C 
ATOM     10  C   UNL A   1      32.333  29.884  27.116  1.00  0.00     0.044 C 
ATOM     11  C   UNL A   1      32.204  28.719  26.177  1.00  0.00    -0.049 A 
ATOM     12  C   UNL A   1      31.390  28.802  25.042  1.00  0.00     0.028 A 
ATOM     13  C   UNL A   1      32.929  27.543  26.409  1.00  0.00     0.015 A 
ATOM     14  C   UNL A   1      31.294  27.720  24.162  1.00  0.00     0.084 A 
ATOM     15  C   UNL A   1      32.813  26.447  25.542  1.00  0.00     0.019 A 
ATOM     16  Cl  UNL A   1      30.257  27.875  22.787  1.00  0.00    -0.080 Cl
ATOM     17  C   UNL A   1      32.005  26.537  24.405  1.00  0.00     0.146 A 
ATOM     18  C   UNL A   1      33.501  25.205  25.853  1.00  0.00     0.027 C 
ATOM     19  O   UNL A   1      31.872  25.516  23.504  1.00  0.00    -0.474 OA
ATOM     20  C   UNL A   1      32.491  24.231  23.771  1.00  0.00     0.316 C 
BRANCH  20  21
ATOM     21  C   UNL A   1      31.400  23.151  23.738  1.00  0.00     0.430 C 
ATOM     22  F   UNL A   1      30.998  22.816  24.989  1.00  0.00    -0.167 F 
ATOM     23  F   UNL A   1      30.293  23.572  23.082  1.00  0.00    -0.167 F 
ATOM     24  F   UNL A   1      31.822  22.018  23.133  1.00  0.00    -0.167 F 
ENDBRANCH  20  21
ENDBRANCH   7   9
ENDBRANCH   6   7
ENDBRANCH   5   6
ENDBRANCH   4   5
ENDBRANCH   3   4
ENDBRANCH   2   3
ENDBRANCH   1   2
BRANCH   1  25
ATOM     25  O   UNL A   1      41.835  20.759  25.846  1.00  0.00    -0.376 OA
BRANCH  25  26
ATOM     26  C   UNL A   1      42.020  19.349  25.778  1.00  0.00     0.202 C 
BRANCH  26  27
ATOM     27  C   UNL A   1      43.401  18.774  25.432  1.00  0.00     0.261 C 
BRANCH  27  28
ATOM     28  O   UNL A   1      43.939  19.223  24.179  1.00  0.00    -0.460 OA
BRANCH  28  29
ATOM     29  C   UNL A   1      45.161  19.809  24.249  1.00  0.00     0.338 C 
ATOM     30  O   UNL A   1      46.207  19.395  23.778  1.00  0.00    -0.246 OA
BRANCH  29  31
ATOM     31  C   UNL A   1      45.022  21.162  24.820  1.00  0.00     0.060 A 
ATOM     32  C   UNL A   1      44.686  22.213  23.955  1.00  0.00     0.016 A 
ATOM     33  C   UNL A   1      45.262  21.405  26.173  1.00  0.00     0.016 A 
ATOM     34  C   UNL A   1      44.607  23.517  24.438  1.00  0.00     0.010 A 
ATOM     35  C   UNL A   1      45.212  22.718  26.651  1.00  0.00     0.010 A 
ATOM     36  C   UNL A   1      44.911  23.781  25.779  1.00  0.00    -0.014 A 
BRANCH  36  37
ATOM     37  C   UNL A   1      45.099  25.182  26.220  1.00  0.00     0.031 A 
ATOM     38  C   UNL A   1      46.488  25.760  26.195  1.00  0.00     0.074 A 
ATOM     39  C   UNL A   1      44.059  25.933  26.624  1.00  0.00     0.049 A 
ATOM     40  N   UNL A   1      46.893  26.953  26.538  1.00  0.00    -0.248 NA
ATOM     41  C   UNL A   1      47.561  24.873  25.714  1.00  0.00     0.031 C 
ATOM     42  C   UNL A   1      42.667  25.491  26.673  1.00  0.00     0.029 A 
ATOM     43  N   UNL A   1      44.020  27.225  27.086  1.00  0.00    -0.354 N 
ATOM     44  C   UNL A   1      48.265  26.961  26.324  1.00  0.00     0.074 A 
ATOM     45  C   UNL A   1      48.629  25.648  25.839  1.00  0.00     0.031 C 
ATOM     46  C   UNL A   1      41.912  26.489  27.161  1.00  0.00     0.029 A 
ATOM     47  C   UNL A   1      42.768  27.632  27.479  1.00  0.00     0.049 A 
ATOM     48  H   UNL A   1      44.815  27.804  27.132  1.00  0.00     0.167 HD
ATOM     49  C   UNL A   1      49.143  27.975  26.496  1.00  0.00     0.034 A 
ATOM     50  C   UNL A   1      42.365  28.789  28.044  1.00  0.00     0.034 A 
ATOM     51  C   UNL A   1      48.781  29.280  26.977  1.00  0.00     0.049 A 
ATOM     52  C   UNL A   1      43.375  29.883  28.287  1.00  0.00     0.074 A 
ATOM     53  C   UNL A   1      49.598  30.380  27.165  1.00  0.00     0.029 A 
ATOM     54  N   UNL A   1      47.504  29.658  27.359  1.00  0.00    -0.354 N 
ATOM     55  N   UNL A   1      44.649  29.915  27.977  1.00  0.00    -0.248 NA
ATOM     56  C   UNL A   1      42.887  31.111  28.934  1.00  0.00     0.031 C 
ATOM     57  C   UNL A   1      48.818  31.418  27.683  1.00  0.00     0.029 A 
ATOM     58  C   UNL A   1      47.511  30.972  27.794  1.00  0.00     0.049 A 
ATOM     59  H   UNL A   1      46.709  29.078  27.325  1.00  0.00     0.167 HD
ATOM     60  C   UNL A   1      45.107  31.172  28.363  1.00  0.00     0.074 A 
ATOM     61  C   UNL A   1      43.969  31.881  28.909  1.00  0.00     0.031 C 
ATOM     62  C   UNL A   1      46.360  31.686  28.285  1.00  0.00     0.034 A 
BRANCH  49  63
ATOM     63  C   UNL A   1      50.579  27.729  26.122  1.00  0.00     0.023 A 
ATOM     64  C   UNL A   1      51.505  27.392  27.130  1.00  0.00     0.012 A 
ATOM     65  C   UNL A   1      50.996  27.756  24.778  1.00  0.00     0.148 A 
ATOM     66  C   UNL A   1      52.830  27.105  26.808  1.00  0.00     0.002 A 
ATOM     67  C   UNL A   1      52.308  27.429  24.460  1.00  0.00     0.091 A 
ATOM     68  F   UNL A   1      50.104  28.103  23.839  1.00  0.00    -0.205 F 
ATOM     69  C   UNL A   1      53.228  27.111  25.474  1.00  0.00     0.022 A 
BRANCH  67  70
ATOM     70  S   UNL A   1      52.902  27.333  22.768  1.00  0.00     0.127 S 
ATOM     71  O   UNL A   1      53.046  28.747  22.426  1.00  0.00    -0.237 OA
ATOM     72  O   UNL A   1      54.165  26.612  22.927  1.00  0.00    -0.237 OA
ATOM     73  O   UNL A   1      51.879  26.613  22.023  1.00  0.00    -0.744 OA
ENDBRANCH  67  70
ENDBRANCH  49  63
BRANCH  50  74
ATOM     74  C   UNL A   1      40.925  28.994  28.374  1.00  0.00     0.023 A 
ATOM     75  C   UNL A   1      40.012  29.270  27.338  1.00  0.00     0.012 A 
ATOM     76  C   UNL A   1      40.451  28.886  29.696  1.00  0.00     0.148 A 
ATOM     77  C   UNL A   1      38.657  29.454  27.614  1.00  0.00     0.002 A 
ATOM     78  C   UNL A   1      39.091  29.017  29.958  1.00  0.00     0.091 A 
ATOM     79  F   UNL A   1      41.339  28.643  30.672  1.00  0.00    -0.205 F 
ATOM     80  C   UNL A   1      38.195  29.316  28.921  1.00  0.00     0.022 A 
BRANCH  78  81
ATOM     81  S   UNL A   1      38.387  28.731  31.586  1.00  0.00     0.127 S 
ATOM     82  O   UNL A   1      36.978  29.044  31.361  1.00  0.00    -0.237 OA
ATOM     83  O   UNL A   1      38.680  27.313  31.793  1.00  0.00    -0.237 OA
ATOM     84  O   UNL A   1      39.097  29.630  32.485  1.00  0.00    -0.744 OA
ENDBRANCH  78  81
ENDBRANCH  50  74
BRANCH  62  85
ATOM     85  C   UNL A   1      46.589  33.090  28.787  1.00  0.00     0.023 A 
ATOM     86  C   UNL A   1      46.967  33.295  30.128  1.00  0.00     0.012 A 
ATOM     87  C   UNL A   1      46.556  34.186  27.902  1.00  0.00     0.148 A 
ATOM     88  C   UNL A   1      47.293  34.572  30.585  1.00  0.00     0.002 A 
ATOM     89  C   UNL A   1      46.929  35.448  28.352  1.00  0.00     0.091 A 
ATOM     90  F   UNL A   1      46.179  33.973  26.633  1.00  0.00    -0.205 F 
ATOM     91  C   UNL A   1      47.289  35.644  29.695  1.00  0.00     0.022 A 
BRANCH  89  92
ATOM     92  S   UNL A   1      47.059  36.866  27.256  1.00  0.00     0.127 S 
ATOM     93  O   UNL A   1      46.678  37.964  28.145  1.00  0.00    -0.237 OA
ATOM     94  O   UNL A   1      48.474  36.845  26.885  1.00  0.00    -0.237 OA
ATOM     95  O   UNL A   1      46.140  36.608  26.155  1.00  0.00    -0.744 OA
ENDBRANCH  89  92
ENDBRANCH  62  85
ENDBRANCH  36  37
ENDBRANCH  29  31
ENDBRANCH  28  29
ENDBRANCH  27  28
ENDBRANCH  26  27
ENDBRANCH  25  26
ENDBRANCH   1  25
TORSDOF 21
ENDMDL
MODEL 3
REMARK VINA RESULT:     -10.1      1.357      2.021
REMARK SMILES Cc1cc(Cl)c2c(c1)C=C(C(=O)OCCOCCOCCOC(=O)c1ccc(-c3c4nc(c(-c5cccc(S(=O)(=O)[O-])c5F)c5ccc([nH]5)c(-c5cccc(S(=O)(=O)[O-])c5F)c5nc(c(-c6cccc(S(=O)(=O)[O-])c6F)c6ccc3[nH]6)C=C5)C=C4)cc1)[C@@H](C(F)(F)F)O2
REMARK SMILES IDX 18 1 17 2 16 3 15 4 14 5 13 6 11 7 12 8 10 9 1 10 2 11 3 12
REMARK SMILES IDX 8 13 4 14 7 15 5 16 6 17 9 18 93 19 88 20 89 21 90 22 91 23
REMARK SMILES IDX 92 24 19 25 20 26 21 27 22 28 23 29 24 30 25 31 26 32 87 33
REMARK SMILES IDX 27 34 86 35 28 36 29 37 30 38 80 39 31 40 85 41 79 42 81 43
REMARK SMILES IDX 32 44 84 45 78 46 77 47 33 49 65 50 45 51 64 52 46 53 49 54
REMARK SMILES IDX 63 55 82 56 47 57 48 58 62 60 83 61 50 62 34 63 35 64 43 65
REMARK SMILES IDX 36 66 38 67 44 68 37 69 39 70 40 71 41 72 42 73 66 74 67 75
REMARK SMILES IDX 75 76 68 77 70 78 76 79 69 80 71 81 72 82 73 83 74 84 51 85
REMARK SMILES IDX 52 86 60 87 53 88 55 89 61 90 54 91 56 92 57 93 58 94 59 95
REMARK H PARENT 81 48 49 59
REMARK Flexibility Score: inf
ROOT
ATOM      1  C   UNL A   1      36.697  21.793  25.436  1.00  0.00     0.188 C 
ENDROOT
BRANCH   1   2
ATOM      2  C   UNL A   1      35.607  22.514  24.615  1.00  0.00     0.188 C 
BRANCH   2   3
ATOM      3  O   UNL A   1      34.341  21.902  24.625  1.00  0.00    -0.376 OA
BRANCH   3   4
ATOM      4  C   UNL A   1      33.398  22.151  25.649  1.00  0.00     0.202 C 
BRANCH   4   5
ATOM      5  C   UNL A   1      32.686  23.488  25.920  1.00  0.00     0.261 C 
BRANCH   5   6
ATOM      6  O   UNL A   1      31.800  23.982  24.917  1.00  0.00    -0.460 OA
BRANCH   6   7
ATOM      7  C   UNL A   1      32.357  24.795  23.989  1.00  0.00     0.338 C 
ATOM      8  O   UNL A   1      33.107  24.469  23.085  1.00  0.00    -0.246 OA
BRANCH   7   9
ATOM      9  C   UNL A   1      31.840  26.164  24.175  1.00  0.00     0.087 C 
ATOM     10  C   UNL A   1      28.040  30.290  21.619  1.00  0.00     0.044 C 
ATOM     11  C   UNL A   1      29.050  29.770  22.601  1.00  0.00    -0.049 A 
ATOM     12  C   UNL A   1      29.563  30.599  23.605  1.00  0.00     0.028 A 
ATOM     13  C   UNL A   1      29.467  28.434  22.544  1.00  0.00     0.015 A 
ATOM     14  C   UNL A   1      30.486  30.100  24.529  1.00  0.00     0.084 A 
ATOM     15  C   UNL A   1      30.412  27.939  23.453  1.00  0.00     0.019 A 
ATOM     16  Cl  UNL A   1      31.098  31.177  25.735  1.00  0.00    -0.080 Cl
ATOM     17  C   UNL A   1      30.916  28.767  24.460  1.00  0.00     0.146 A 
ATOM     18  C   UNL A   1      30.899  26.576  23.318  1.00  0.00     0.027 C 
ATOM     19  O   UNL A   1      31.817  28.338  25.396  1.00  0.00    -0.474 OA
ATOM     20  C   UNL A   1      32.382  27.006  25.296  1.00  0.00     0.316 C 
BRANCH  20  21
ATOM     21  C   UNL A   1      33.912  27.131  25.245  1.00  0.00     0.430 C 
ATOM     22  F   UNL A   1      34.323  27.703  24.087  1.00  0.00    -0.167 F 
ATOM     23  F   UNL A   1      34.388  27.911  26.245  1.00  0.00    -0.167 F 
ATOM     24  F   UNL A   1      34.525  25.930  25.343  1.00  0.00    -0.167 F 
ENDBRANCH  20  21
ENDBRANCH   7   9
ENDBRANCH   6   7
ENDBRANCH   5   6
ENDBRANCH   4   5
ENDBRANCH   3   4
ENDBRANCH   2   3
ENDBRANCH   1   2
BRANCH   1  25
ATOM     25  O   UNL A   1      38.034  21.735  24.956  1.00  0.00    -0.376 OA
BRANCH  25  26
ATOM     26  C   UNL A   1      39.082  21.442  25.873  1.00  0.00     0.202 C 
BRANCH  26  27
ATOM     27  C   UNL A   1      39.582  19.997  26.028  1.00  0.00     0.261 C 
BRANCH  27  28
ATOM     28  O   UNL A   1      40.760  19.688  25.267  1.00  0.00    -0.460 OA
BRANCH  28  29
ATOM     29  C   UNL A   1      41.890  19.506  25.996  1.00  0.00     0.338 C 
ATOM     30  O   UNL A   1      42.408  18.446  26.303  1.00  0.00    -0.246 OA
BRANCH  29  31
ATOM     31  C   UNL A   1      42.548  20.809  26.211  1.00  0.00     0.060 A 
ATOM     32  C   UNL A   1      42.769  21.227  27.531  1.00  0.00     0.016 A 
ATOM     33  C   UNL A   1      42.902  21.628  25.138  1.00  0.00     0.016 A 
ATOM     34  C   UNL A   1      43.329  22.477  27.784  1.00  0.00     0.010 A 
ATOM     35  C   UNL A   1      43.436  22.895  25.394  1.00  0.00     0.010 A 
ATOM     36  C   UNL A   1      43.625  23.334  26.717  1.00  0.00    -0.014 A 
BRANCH  36  37
ATOM     37  C   UNL A   1      43.952  24.752  26.992  1.00  0.00     0.031 A 
ATOM     38  C   UNL A   1      45.362  25.219  26.756  1.00  0.00     0.074 A 
ATOM     39  C   UNL A   1      43.016  25.613  27.430  1.00  0.00     0.049 A 
ATOM     40  N   UNL A   1      45.881  26.405  26.932  1.00  0.00    -0.248 NA
ATOM     41  C   UNL A   1      46.313  24.213  26.251  1.00  0.00     0.031 C 
ATOM     42  C   UNL A   1      41.614  25.283  27.676  1.00  0.00     0.029 A 
ATOM     43  N   UNL A   1      43.115  26.941  27.762  1.00  0.00    -0.354 N 
ATOM     44  C   UNL A   1      47.216  26.289  26.569  1.00  0.00     0.074 A 
ATOM     45  C   UNL A   1      47.436  24.914  26.180  1.00  0.00     0.031 C 
ATOM     46  C   UNL A   1      40.987  26.376  28.141  1.00  0.00     0.029 A 
ATOM     47  C   UNL A   1      41.946  27.475  28.248  1.00  0.00     0.049 A 
ATOM     48  H   UNL A   1      43.945  27.460  27.662  1.00  0.00     0.167 HD
ATOM     49  C   UNL A   1      48.172  27.246  26.541  1.00  0.00     0.034 A 
ATOM     50  C   UNL A   1      41.687  28.706  28.735  1.00  0.00     0.034 A 
ATOM     51  C   UNL A   1      47.953  28.614  26.926  1.00  0.00     0.049 A 
ATOM     52  C   UNL A   1      42.787  29.740  28.754  1.00  0.00     0.074 A 
ATOM     53  C   UNL A   1      48.855  29.662  26.911  1.00  0.00     0.029 A 
ATOM     54  N   UNL A   1      46.756  29.120  27.405  1.00  0.00    -0.354 N 
ATOM     55  N   UNL A   1      44.015  29.647  28.304  1.00  0.00    -0.248 NA
ATOM     56  C   UNL A   1      42.457  31.055  29.325  1.00  0.00     0.031 C 
ATOM     57  C   UNL A   1      48.209  30.798  27.405  1.00  0.00     0.029 A 
ATOM     58  C   UNL A   1      46.898  30.464  27.703  1.00  0.00     0.049 A 
ATOM     59  H   UNL A   1      45.927  28.601  27.518  1.00  0.00     0.167 HD
ATOM     60  C   UNL A   1      44.594  30.896  28.510  1.00  0.00     0.074 A 
ATOM     61  C   UNL A   1      43.576  31.736  29.104  1.00  0.00     0.031 C 
ATOM     62  C   UNL A   1      45.861  31.305  28.244  1.00  0.00     0.034 A 
BRANCH  49  63
ATOM     63  C   UNL A   1      49.536  26.859  26.038  1.00  0.00     0.023 A 
ATOM     64  C   UNL A   1      50.378  26.083  26.860  1.00  0.00     0.012 A 
ATOM     65  C   UNL A   1      49.953  27.195  24.736  1.00  0.00     0.148 A 
ATOM     66  C   UNL A   1      51.624  25.663  26.401  1.00  0.00     0.002 A 
ATOM     67  C   UNL A   1      51.180  26.738  24.270  1.00  0.00     0.091 A 
ATOM     68  F   UNL A   1      49.147  27.955  23.982  1.00  0.00    -0.205 F 
ATOM     69  C   UNL A   1      52.020  25.980  25.103  1.00  0.00     0.022 A 
BRANCH  67  70
ATOM     70  S   UNL A   1      51.749  27.026  22.591  1.00  0.00     0.127 S 
ATOM     71  O   UNL A   1      52.923  26.157  22.525  1.00  0.00    -0.237 OA
ATOM     72  O   UNL A   1      50.607  26.570  21.799  1.00  0.00    -0.237 OA
ATOM     73  O   UNL A   1      52.025  28.453  22.499  1.00  0.00    -0.744 OA
ENDBRANCH  67  70
ENDBRANCH  49  63
BRANCH  50  74
ATOM     74  C   UNL A   1      40.312  29.049  29.199  1.00  0.00     0.023 A 
ATOM     75  C   UNL A   1      39.351  29.470  28.259  1.00  0.00     0.012 A 
ATOM     76  C   UNL A   1      39.941  28.930  30.553  1.00  0.00     0.148 A 
ATOM     77  C   UNL A   1      38.052  29.786  28.661  1.00  0.00     0.002 A 
ATOM     78  C   UNL A   1      38.631  29.193  30.938  1.00  0.00     0.091 A 
ATOM     79  F   UNL A   1      40.875  28.547  31.436  1.00  0.00    -0.205 F 
ATOM     80  C   UNL A   1      37.690  29.636  29.997  1.00  0.00     0.022 A 
BRANCH  78  81
ATOM     81  S   UNL A   1      38.039  28.908  32.611  1.00  0.00     0.127 S 
ATOM     82  O   UNL A   1      38.914  29.780  33.390  1.00  0.00    -0.237 OA
ATOM     83  O   UNL A   1      36.649  29.353  32.515  1.00  0.00    -0.237 OA
ATOM     84  O   UNL A   1      38.199  27.480  32.847  1.00  0.00    -0.744 OA
ENDBRANCH  78  81
ENDBRANCH  50  74
BRANCH  62  85
ATOM     85  C   UNL A   1      46.236  32.728  28.574  1.00  0.00     0.023 A 
ATOM     86  C   UNL A   1      46.647  33.052  29.881  1.00  0.00     0.012 A 
ATOM     87  C   UNL A   1      46.306  33.708  27.564  1.00  0.00     0.148 A 
ATOM     88  C   UNL A   1      47.105  34.334  30.183  1.00  0.00     0.002 A 
ATOM     89  C   UNL A   1      46.810  34.970  27.860  1.00  0.00     0.091 A 
ATOM     90  F   UNL A   1      45.896  33.385  26.329  1.00  0.00    -0.205 F 
ATOM     91  C   UNL A   1      47.201  35.287  29.171  1.00  0.00     0.022 A 
BRANCH  89  92
ATOM     92  S   UNL A   1      47.072  36.227  26.603  1.00  0.00     0.127 S 
ATOM     93  O   UNL A   1      48.063  35.584  25.741  1.00  0.00    -0.237 OA
ATOM     94  O   UNL A   1      45.741  36.356  26.010  1.00  0.00    -0.237 OA
ATOM     95  O   UNL A   1      47.537  37.412  27.311  1.00  0.00    -0.744 OA
ENDBRANCH  89  92
ENDBRANCH  62  85
ENDBRANCH  36  37
ENDBRANCH  29  31
ENDBRANCH  28  29
ENDBRANCH  27  28
ENDBRANCH  26  27
ENDBRANCH  25  26
ENDBRANCH   1  25
TORSDOF 21
ENDMDL
