MODEL 1
REMARK VINA RESULT:     -10.7      0.000      0.000
REMARK SMILES O=C(C[C@H]1SC[C@@H](C(=O)OCCOCCOCCOC(=O)c2ccc(-c3c4nc(c(-c5cccc(S(=O)(=O)[O-])c5F)c5ccc([nH]5)c(-c5cccc(S(=O)(=O)[O-])c5F)c5nc(c(-c6cccc(S(=O)(=O)[O-])c6F)c6ccc3[nH]6)C=C5)C=C4)cc2)NC1=O)Nc1cccc(Cl)c1
REMARK SMILES IDX 14 1 13 2 12 3 11 4 10 5 8 6 9 7 7 8 4 9 5 10 86 11 6 12
REMARK SMILES IDX 85 13 87 14 3 16 2 17 1 18 88 19 89 21 90 22 95 23 91 24
REMARK SMILES IDX 93 25 92 26 94 27 15 28 16 29 17 30 18 31 19 32 20 33 21 34
REMARK SMILES IDX 22 35 23 36 84 37 24 38 83 39 25 40 26 41 27 42 77 43 28 44
REMARK SMILES IDX 82 45 76 46 78 47 29 48 81 49 75 50 74 51 30 53 62 54 42 55
REMARK SMILES IDX 61 56 43 57 46 58 60 59 79 60 44 61 45 62 59 64 80 65 47 66
REMARK SMILES IDX 31 67 32 68 40 69 33 70 35 71 41 72 34 73 36 74 37 75 38 76
REMARK SMILES IDX 39 77 63 78 64 79 72 80 65 81 67 82 73 83 66 84 68 85 69 86
REMARK SMILES IDX 70 87 71 88 48 89 49 90 57 91 50 92 52 93 58 94 51 95 53 96
REMARK SMILES IDX 54 97 55 98 56 99
REMARK H PARENT 85 15 88 20 78 52 46 63
REMARK Flexibility Score: inf
ROOT
ATOM      1  C   UNL A   1      33.470  28.913  25.202  1.00  0.00     0.188 C 
ENDROOT
BRANCH   1   2
ATOM      2  O   UNL A   1      33.618  29.341  23.869  1.00  0.00    -0.376 OA
BRANCH   2   3
ATOM      3  C   UNL A   1      33.188  28.501  22.818  1.00  0.00     0.202 C 
BRANCH   3   4
ATOM      4  C   UNL A   1      31.975  27.564  22.957  1.00  0.00     0.261 C 
BRANCH   4   5
ATOM      5  O   UNL A   1      32.227  26.197  23.316  1.00  0.00    -0.462 OA
BRANCH   5   6
ATOM      6  C   UNL A   1      31.430  25.666  24.279  1.00  0.00     0.329 C 
ATOM      7  O   UNL A   1      30.284  25.282  24.084  1.00  0.00    -0.250 OA
BRANCH   6   8
ATOM      8  C   UNL A   1      32.144  25.649  25.647  1.00  0.00     0.202 C 
ATOM      9  C   UNL A   1      32.004  22.645  25.985  1.00  0.00     0.145 C 
ATOM     10  S   UNL A   1      33.496  23.298  25.116  1.00  0.00    -0.145 SA
ATOM     11  C   UNL A   1      31.105  23.646  26.719  1.00  0.00     0.234 C 
ATOM     12  C   UNL A   1      33.519  25.004  25.683  1.00  0.00     0.107 C 
ATOM     13  N   UNL A   1      31.265  24.993  26.596  1.00  0.00    -0.341 N 
ATOM     14  O   UNL A   1      30.202  23.268  27.470  1.00  0.00    -0.274 OA
ATOM     15  H   UNL A   1      30.742  25.569  27.200  1.00  0.00     0.164 HD
BRANCH   9  16
ATOM     16  C   UNL A   1      31.179  21.776  25.024  1.00  0.00     0.124 C 
BRANCH  16  17
ATOM     17  C   UNL A   1      32.052  20.696  24.420  1.00  0.00     0.226 C 
ATOM     18  O   UNL A   1      32.154  20.586  23.201  1.00  0.00    -0.275 OA
ATOM     19  N   UNL A   1      32.560  19.830  25.373  1.00  0.00    -0.326 N 
ATOM     20  H   UNL A   1      32.500  20.112  26.314  1.00  0.00     0.169 HD
BRANCH  19  21
ATOM     21  C   UNL A   1      33.155  18.585  25.112  1.00  0.00     0.042 A 
ATOM     22  C   UNL A   1      34.469  18.593  24.628  1.00  0.00     0.026 A 
ATOM     23  C   UNL A   1      32.527  17.373  25.383  1.00  0.00     0.046 A 
ATOM     24  C   UNL A   1      35.174  17.399  24.481  1.00  0.00     0.004 A 
ATOM     25  C   UNL A   1      33.239  16.184  25.247  1.00  0.00     0.043 A 
ATOM     26  C   UNL A   1      34.561  16.191  24.803  1.00  0.00     0.020 A 
ATOM     27  Cl  UNL A   1      32.488  14.693  25.670  1.00  0.00    -0.084 Cl
ENDBRANCH  19  21
ENDBRANCH  16  17
ENDBRANCH   9  16
ENDBRANCH   6   8
ENDBRANCH   5   6
ENDBRANCH   4   5
ENDBRANCH   3   4
ENDBRANCH   2   3
ENDBRANCH   1   2
BRANCH   1  28
ATOM     28  C   UNL A   1      32.112  29.327  25.814  1.00  0.00     0.188 C 
BRANCH  28  29
ATOM     29  O   UNL A   1      32.054  30.299  26.849  1.00  0.00    -0.376 OA
BRANCH  29  30
ATOM     30  C   UNL A   1      31.030  31.281  26.818  1.00  0.00     0.202 C 
BRANCH  30  31
ATOM     31  C   UNL A   1      31.399  32.739  26.508  1.00  0.00     0.261 C 
BRANCH  31  32
ATOM     32  O   UNL A   1      32.798  33.058  26.594  1.00  0.00    -0.460 OA
BRANCH  32  33
ATOM     33  C   UNL A   1      33.196  33.659  27.747  1.00  0.00     0.338 C 
ATOM     34  O   UNL A   1      32.594  34.508  28.377  1.00  0.00    -0.246 OA
BRANCH  33  35
ATOM     35  C   UNL A   1      34.422  33.006  28.253  1.00  0.00     0.060 A 
ATOM     36  C   UNL A   1      34.333  31.703  28.766  1.00  0.00     0.016 A 
ATOM     37  C   UNL A   1      35.637  33.690  28.280  1.00  0.00     0.016 A 
ATOM     38  C   UNL A   1      35.460  31.084  29.315  1.00  0.00     0.010 A 
ATOM     39  C   UNL A   1      36.756  33.080  28.856  1.00  0.00     0.010 A 
ATOM     40  C   UNL A   1      36.670  31.783  29.394  1.00  0.00    -0.014 A 
BRANCH  40  41
ATOM     41  C   UNL A   1      37.815  31.226  30.160  1.00  0.00     0.031 A 
ATOM     42  C   UNL A   1      38.746  30.267  29.469  1.00  0.00     0.074 A 
ATOM     43  C   UNL A   1      37.983  31.520  31.462  1.00  0.00     0.049 A 
ATOM     44  N   UNL A   1      39.796  29.650  29.940  1.00  0.00    -0.248 NA
ATOM     45  C   UNL A   1      38.443  29.951  28.062  1.00  0.00     0.031 C 
ATOM     46  C   UNL A   1      37.127  32.417  32.232  1.00  0.00     0.029 A 
ATOM     47  N   UNL A   1      38.922  31.091  32.370  1.00  0.00    -0.354 N 
ATOM     48  C   UNL A   1      40.238  28.819  28.917  1.00  0.00     0.074 A 
ATOM     49  C   UNL A   1      39.365  29.040  27.785  1.00  0.00     0.031 C 
ATOM     50  C   UNL A   1      37.585  32.481  33.495  1.00  0.00     0.029 A 
ATOM     51  C   UNL A   1      38.753  31.612  33.637  1.00  0.00     0.049 A 
ATOM     52  H   UNL A   1      39.649  30.469  32.138  1.00  0.00     0.167 HD
ATOM     53  C   UNL A   1      41.266  27.939  28.926  1.00  0.00     0.034 A 
ATOM     54  C   UNL A   1      39.472  31.417  34.766  1.00  0.00     0.034 A 
ATOM     55  C   UNL A   1      42.145  27.738  30.046  1.00  0.00     0.049 A 
ATOM     56  C   UNL A   1      40.673  30.491  34.696  1.00  0.00     0.074 A 
ATOM     57  C   UNL A   1      43.234  26.890  30.142  1.00  0.00     0.029 A 
ATOM     58  N   UNL A   1      42.028  28.379  31.268  1.00  0.00    -0.354 N 
ATOM     59  N   UNL A   1      41.207  29.891  33.657  1.00  0.00    -0.248 NA
ATOM     60  C   UNL A   1      41.395  30.239  35.955  1.00  0.00     0.031 C 
ATOM     61  C   UNL A   1      43.759  26.998  31.433  1.00  0.00     0.029 A 
ATOM     62  C   UNL A   1      43.013  27.934  32.132  1.00  0.00     0.049 A 
ATOM     63  H   UNL A   1      41.346  29.054  31.489  1.00  0.00     0.167 HD
ATOM     64  C   UNL A   1      42.334  29.225  34.133  1.00  0.00     0.074 A 
ATOM     65  C   UNL A   1      42.454  29.563  35.535  1.00  0.00     0.031 C 
ATOM     66  C   UNL A   1      43.168  28.364  33.496  1.00  0.00     0.034 A 
BRANCH  53  67
ATOM     67  C   UNL A   1      41.500  27.111  27.691  1.00  0.00     0.023 A 
ATOM     68  C   UNL A   1      42.077  27.697  26.549  1.00  0.00     0.012 A 
ATOM     69  C   UNL A   1      41.215  25.730  27.694  1.00  0.00     0.148 A 
ATOM     70  C   UNL A   1      42.352  26.926  25.419  1.00  0.00     0.002 A 
ATOM     71  C   UNL A   1      41.532  24.960  26.582  1.00  0.00     0.091 A 
ATOM     72  F   UNL A   1      40.644  25.199  28.784  1.00  0.00    -0.205 F 
ATOM     73  C   UNL A   1      42.092  25.558  25.441  1.00  0.00     0.022 A 
BRANCH  71  74
ATOM     74  S   UNL A   1      41.308  23.178  26.539  1.00  0.00     0.127 S 
ATOM     75  O   UNL A   1      42.011  22.822  25.307  1.00  0.00    -0.237 OA
ATOM     76  O   UNL A   1      41.978  22.756  27.769  1.00  0.00    -0.237 OA
ATOM     77  O   UNL A   1      39.869  22.953  26.519  1.00  0.00    -0.744 OA
ENDBRANCH  71  74
ENDBRANCH  53  67
BRANCH  54  78
ATOM     78  C   UNL A   1      39.168  32.171  36.032  1.00  0.00     0.023 A 
ATOM     79  C   UNL A   1      39.759  33.438  36.234  1.00  0.00     0.012 A 
ATOM     80  C   UNL A   1      38.317  31.676  37.039  1.00  0.00     0.148 A 
ATOM     81  C   UNL A   1      39.544  34.171  37.403  1.00  0.00     0.002 A 
ATOM     82  C   UNL A   1      38.032  32.453  38.163  1.00  0.00     0.091 A 
ATOM     83  F   UNL A   1      37.797  30.450  36.889  1.00  0.00    -0.205 F 
ATOM     84  C   UNL A   1      38.661  33.689  38.357  1.00  0.00     0.022 A 
BRANCH  82  85
ATOM     85  S   UNL A   1      36.787  31.985  39.370  1.00  0.00     0.127 S 
ATOM     86  O   UNL A   1      35.595  32.647  38.849  1.00  0.00    -0.237 OA
ATOM     87  O   UNL A   1      36.784  30.526  39.253  1.00  0.00    -0.237 OA
ATOM     88  O   UNL A   1      37.276  32.482  40.651  1.00  0.00    -0.744 OA
ENDBRANCH  82  85
ENDBRANCH  54  78
BRANCH  66  89
ATOM     89  C   UNL A   1      44.288  27.744  34.300  1.00  0.00     0.023 A 
ATOM     90  C   UNL A   1      45.507  28.439  34.439  1.00  0.00     0.012 A 
ATOM     91  C   UNL A   1      44.114  26.519  34.977  1.00  0.00     0.148 A 
ATOM     92  C   UNL A   1      46.551  27.905  35.192  1.00  0.00     0.002 A 
ATOM     93  C   UNL A   1      45.141  26.020  35.772  1.00  0.00     0.091 A 
ATOM     94  F   UNL A   1      42.951  25.868  34.834  1.00  0.00    -0.205 F 
ATOM     95  C   UNL A   1      46.364  26.702  35.866  1.00  0.00     0.022 A 
BRANCH  93  96
ATOM     96  S   UNL A   1      44.964  24.534  36.768  1.00  0.00     0.127 S 
ATOM     97  O   UNL A   1      43.904  23.822  36.053  1.00  0.00    -0.237 OA
ATOM     98  O   UNL A   1      46.289  23.926  36.653  1.00  0.00    -0.237 OA
ATOM     99  O   UNL A   1      44.616  24.985  38.107  1.00  0.00    -0.744 OA
ENDBRANCH  93  96
ENDBRANCH  66  89
ENDBRANCH  40  41
ENDBRANCH  33  35
ENDBRANCH  32  33
ENDBRANCH  31  32
ENDBRANCH  30  31
ENDBRANCH  29  30
ENDBRANCH  28  29
ENDBRANCH   1  28
TORSDOF 23
ENDMDL
MODEL 2
REMARK VINA RESULT:     -10.2      2.056      8.029
REMARK SMILES O=C(C[C@H]1SC[C@@H](C(=O)OCCOCCOCCOC(=O)c2ccc(-c3c4nc(c(-c5cccc(S(=O)(=O)[O-])c5F)c5ccc([nH]5)c(-c5cccc(S(=O)(=O)[O-])c5F)c5nc(c(-c6cccc(S(=O)(=O)[O-])c6F)c6ccc3[nH]6)C=C5)C=C4)cc2)NC1=O)Nc1cccc(Cl)c1
REMARK SMILES IDX 14 1 13 2 12 3 11 4 10 5 8 6 9 7 7 8 4 9 5 10 86 11 6 12
REMARK SMILES IDX 85 13 87 14 3 16 2 17 1 18 88 19 89 21 90 22 95 23 91 24
REMARK SMILES IDX 93 25 92 26 94 27 15 28 16 29 17 30 18 31 19 32 20 33 21 34
REMARK SMILES IDX 22 35 23 36 84 37 24 38 83 39 25 40 26 41 27 42 77 43 28 44
REMARK SMILES IDX 82 45 76 46 78 47 29 48 81 49 75 50 74 51 30 53 62 54 42 55
REMARK SMILES IDX 61 56 43 57 46 58 60 59 79 60 44 61 45 62 59 64 80 65 47 66
REMARK SMILES IDX 31 67 32 68 40 69 33 70 35 71 41 72 34 73 36 74 37 75 38 76
REMARK SMILES IDX 39 77 63 78 64 79 72 80 65 81 67 82 73 83 66 84 68 85 69 86
REMARK SMILES IDX 70 87 71 88 48 89 49 90 57 91 50 92 52 93 58 94 51 95 53 96
REMARK SMILES IDX 54 97 55 98 56 99
REMARK H PARENT 85 15 88 20 78 52 46 63
REMARK Flexibility Score: inf
ROOT
ATOM      1  C   UNL A   1      32.578  28.355  27.113  1.00  0.00     0.188 C 
ENDROOT
BRANCH   1   2
ATOM      2  O   UNL A   1      33.654  27.859  26.352  1.00  0.00    -0.376 OA
BRANCH   2   3
ATOM      3  C   UNL A   1      33.695  26.486  26.019  1.00  0.00     0.202 C 
BRANCH   3   4
ATOM      4  C   UNL A   1      32.784  25.447  26.695  1.00  0.00     0.261 C 
BRANCH   4   5
ATOM      5  O   UNL A   1      32.324  24.346  25.897  1.00  0.00    -0.462 OA
BRANCH   5   6
ATOM      6  C   UNL A   1      31.901  23.245  26.570  1.00  0.00     0.329 C 
ATOM      7  O   UNL A   1      30.746  23.068  26.938  1.00  0.00    -0.250 OA
BRANCH   6   8
ATOM      8  C   UNL A   1      33.070  22.273  26.840  1.00  0.00     0.202 C 
ATOM      9  C   UNL A   1      33.327  21.359  23.968  1.00  0.00     0.145 C 
ATOM     10  S   UNL A   1      34.328  22.835  24.445  1.00  0.00    -0.145 SA
ATOM     11  C   UNL A   1      32.680  20.537  25.088  1.00  0.00     0.234 C 
ATOM     12  C   UNL A   1      34.411  22.644  26.231  1.00  0.00     0.107 C 
ATOM     13  N   UNL A   1      32.665  20.958  26.382  1.00  0.00    -0.341 N 
ATOM     14  O   UNL A   1      32.156  19.443  24.861  1.00  0.00    -0.274 OA
ATOM     15  H   UNL A   1      32.355  20.318  27.063  1.00  0.00     0.164 HD
BRANCH   9  16
ATOM     16  C   UNL A   1      32.284  21.756  22.912  1.00  0.00     0.124 C 
BRANCH  16  17
ATOM     17  C   UNL A   1      32.574  23.148  22.390  1.00  0.00     0.226 C 
ATOM     18  O   UNL A   1      33.506  23.341  21.615  1.00  0.00    -0.275 OA
ATOM     19  N   UNL A   1      31.782  24.113  22.988  1.00  0.00    -0.326 N 
ATOM     20  H   UNL A   1      30.998  23.802  23.494  1.00  0.00     0.169 HD
BRANCH  19  21
ATOM     21  C   UNL A   1      32.002  25.499  22.931  1.00  0.00     0.042 A 
ATOM     22  C   UNL A   1      33.237  25.931  22.434  1.00  0.00     0.026 A 
ATOM     23  C   UNL A   1      31.029  26.436  23.271  1.00  0.00     0.046 A 
ATOM     24  C   UNL A   1      33.474  27.289  22.215  1.00  0.00     0.004 A 
ATOM     25  C   UNL A   1      31.265  27.788  23.038  1.00  0.00     0.043 A 
ATOM     26  C   UNL A   1      32.481  28.218  22.507  1.00  0.00     0.020 A 
ATOM     27  Cl  UNL A   1      30.026  28.935  23.376  1.00  0.00    -0.084 Cl
ENDBRANCH  19  21
ENDBRANCH  16  17
ENDBRANCH   9  16
ENDBRANCH   6   8
ENDBRANCH   5   6
ENDBRANCH   4   5
ENDBRANCH   3   4
ENDBRANCH   2   3
ENDBRANCH   1   2
BRANCH   1  28
ATOM     28  C   UNL A   1      31.880  29.561  26.444  1.00  0.00     0.188 C 
BRANCH  28  29
ATOM     29  O   UNL A   1      32.308  30.887  26.723  1.00  0.00    -0.376 OA
BRANCH  29  30
ATOM     30  C   UNL A   1      31.401  31.961  26.527  1.00  0.00     0.202 C 
BRANCH  30  31
ATOM     31  C   UNL A   1      31.818  33.379  26.940  1.00  0.00     0.261 C 
BRANCH  31  32
ATOM     32  O   UNL A   1      33.231  33.590  27.105  1.00  0.00    -0.460 OA
BRANCH  32  33
ATOM     33  C   UNL A   1      33.636  33.914  28.361  1.00  0.00     0.338 C 
ATOM     34  O   UNL A   1      33.061  34.636  29.154  1.00  0.00    -0.246 OA
BRANCH  33  35
ATOM     35  C   UNL A   1      34.827  33.115  28.724  1.00  0.00     0.060 A 
ATOM     36  C   UNL A   1      34.643  31.829  29.252  1.00  0.00     0.016 A 
ATOM     37  C   UNL A   1      36.109  33.649  28.603  1.00  0.00     0.016 A 
ATOM     38  C   UNL A   1      35.744  31.075  29.669  1.00  0.00     0.010 A 
ATOM     39  C   UNL A   1      37.207  32.905  29.047  1.00  0.00     0.010 A 
ATOM     40  C   UNL A   1      37.030  31.624  29.601  1.00  0.00    -0.014 A 
BRANCH  40  41
ATOM     41  C   UNL A   1      38.182  30.928  30.230  1.00  0.00     0.031 A 
ATOM     42  C   UNL A   1      38.564  31.294  31.639  1.00  0.00     0.074 A 
ATOM     43  C   UNL A   1      38.911  30.034  29.537  1.00  0.00     0.049 A 
ATOM     44  N   UNL A   1      39.535  30.830  32.379  1.00  0.00    -0.248 NA
ATOM     45  C   UNL A   1      37.751  32.333  32.294  1.00  0.00     0.031 C 
ATOM     46  C   UNL A   1      38.641  29.625  28.161  1.00  0.00     0.029 A 
ATOM     47  N   UNL A   1      40.029  29.315  29.888  1.00  0.00    -0.354 N 
ATOM     48  C   UNL A   1      39.498  31.567  33.558  1.00  0.00     0.074 A 
ATOM     49  C   UNL A   1      38.383  32.482  33.450  1.00  0.00     0.031 C 
ATOM     50  C   UNL A   1      39.563  28.719  27.787  1.00  0.00     0.029 A 
ATOM     51  C   UNL A   1      40.506  28.498  28.882  1.00  0.00     0.049 A 
ATOM     52  H   UNL A   1      40.452  29.377  30.775  1.00  0.00     0.167 HD
ATOM     53  C   UNL A   1      40.328  31.498  34.624  1.00  0.00     0.034 A 
ATOM     54  C   UNL A   1      41.568  27.661  28.866  1.00  0.00     0.034 A 
ATOM     55  C   UNL A   1      41.421  30.572  34.736  1.00  0.00     0.049 A 
ATOM     56  C   UNL A   1      42.412  27.553  30.124  1.00  0.00     0.074 A 
ATOM     57  C   UNL A   1      42.302  30.407  35.791  1.00  0.00     0.029 A 
ATOM     58  N   UNL A   1      41.795  29.667  33.757  1.00  0.00    -0.354 N 
ATOM     59  N   UNL A   1      42.222  28.093  31.306  1.00  0.00    -0.248 NA
ATOM     60  C   UNL A   1      43.604  26.691  30.056  1.00  0.00     0.031 C 
ATOM     61  C   UNL A   1      43.225  29.419  35.437  1.00  0.00     0.029 A 
ATOM     62  C   UNL A   1      42.904  28.951  34.173  1.00  0.00     0.049 A 
ATOM     63  H   UNL A   1      41.337  29.548  32.894  1.00  0.00     0.167 HD
ATOM     64  C   UNL A   1      43.246  27.610  32.119  1.00  0.00     0.074 A 
ATOM     65  C   UNL A   1      44.003  26.673  31.319  1.00  0.00     0.031 C 
ATOM     66  C   UNL A   1      43.578  27.948  33.391  1.00  0.00     0.034 A 
BRANCH  53  67
ATOM     67  C   UNL A   1      40.100  32.459  35.761  1.00  0.00     0.023 A 
ATOM     68  C   UNL A   1      40.749  33.708  35.768  1.00  0.00     0.012 A 
ATOM     69  C   UNL A   1      39.178  32.150  36.782  1.00  0.00     0.148 A 
ATOM     70  C   UNL A   1      40.499  34.630  36.785  1.00  0.00     0.002 A 
ATOM     71  C   UNL A   1      38.903  33.089  37.767  1.00  0.00     0.091 A 
ATOM     72  F   UNL A   1      38.591  30.945  36.767  1.00  0.00    -0.205 F 
ATOM     73  C   UNL A   1      39.568  34.325  37.775  1.00  0.00     0.022 A 
BRANCH  71  74
ATOM     74  S   UNL A   1      37.664  32.824  39.042  1.00  0.00     0.127 S 
ATOM     75  O   UNL A   1      36.432  32.798  38.255  1.00  0.00    -0.237 OA
ATOM     76  O   UNL A   1      38.065  31.530  39.593  1.00  0.00    -0.237 OA
ATOM     77  O   UNL A   1      37.788  33.945  39.964  1.00  0.00    -0.744 OA
ENDBRANCH  71  74
ENDBRANCH  53  67
BRANCH  54  78
ATOM     78  C   UNL A   1      41.855  26.777  27.683  1.00  0.00     0.023 A 
ATOM     79  C   UNL A   1      42.545  27.316  26.575  1.00  0.00     0.012 A 
ATOM     80  C   UNL A   1      41.466  25.425  27.618  1.00  0.00     0.148 A 
ATOM     81  C   UNL A   1      42.810  26.557  25.434  1.00  0.00     0.002 A 
ATOM     82  C   UNL A   1      41.815  24.645  26.516  1.00  0.00     0.091 A 
ATOM     83  F   UNL A   1      40.758  24.915  28.636  1.00  0.00    -0.205 F 
ATOM     84  C   UNL A   1      42.467  25.214  25.414  1.00  0.00     0.022 A 
BRANCH  82  85
ATOM     85  S   UNL A   1      41.553  22.869  26.465  1.00  0.00     0.127 S 
ATOM     86  O   UNL A   1      42.289  22.488  25.264  1.00  0.00    -0.237 OA
ATOM     87  O   UNL A   1      42.162  22.437  27.725  1.00  0.00    -0.237 OA
ATOM     88  O   UNL A   1      40.108  22.686  26.405  1.00  0.00    -0.744 OA
ENDBRANCH  82  85
ENDBRANCH  54  78
BRANCH  66  89
ATOM     89  C   UNL A   1      44.794  27.290  34.001  1.00  0.00     0.023 A 
ATOM     90  C   UNL A   1      46.042  27.943  33.931  1.00  0.00     0.012 A 
ATOM     91  C   UNL A   1      44.694  26.073  34.706  1.00  0.00     0.148 A 
ATOM     92  C   UNL A   1      47.179  27.374  34.502  1.00  0.00     0.002 A 
ATOM     93  C   UNL A   1      45.822  25.539  35.322  1.00  0.00     0.091 A 
ATOM     94  F   UNL A   1      43.502  25.462  34.762  1.00  0.00    -0.205 F 
ATOM     95  C   UNL A   1      47.066  26.179  35.206  1.00  0.00     0.022 A 
BRANCH  93  96
ATOM     96  S   UNL A   1      45.763  24.061  36.343  1.00  0.00     0.127 S 
ATOM     97  O   UNL A   1      45.892  23.003  35.341  1.00  0.00    -0.237 OA
ATOM     98  O   UNL A   1      46.933  24.233  37.202  1.00  0.00    -0.237 OA
ATOM     99  O   UNL A   1      44.486  24.104  37.040  1.00  0.00    -0.744 OA
ENDBRANCH  93  96
ENDBRANCH  66  89
ENDBRANCH  40  41
ENDBRANCH  33  35
ENDBRANCH  32  33
ENDBRANCH  31  32
ENDBRANCH  30  31
ENDBRANCH  29  30
ENDBRANCH  28  29
ENDBRANCH   1  28
TORSDOF 23
ENDMDL
MODEL 3
REMARK VINA RESULT:      -9.4      7.011     13.342
REMARK SMILES O=C(C[C@H]1SC[C@@H](C(=O)OCCOCCOCCOC(=O)c2ccc(-c3c4nc(c(-c5cccc(S(=O)(=O)[O-])c5F)c5ccc([nH]5)c(-c5cccc(S(=O)(=O)[O-])c5F)c5nc(c(-c6cccc(S(=O)(=O)[O-])c6F)c6ccc3[nH]6)C=C5)C=C4)cc2)NC1=O)Nc1cccc(Cl)c1
REMARK SMILES IDX 14 1 13 2 12 3 11 4 10 5 8 6 9 7 7 8 4 9 5 10 86 11 6 12
REMARK SMILES IDX 85 13 87 14 3 16 2 17 1 18 88 19 89 21 90 22 95 23 91 24
REMARK SMILES IDX 93 25 92 26 94 27 15 28 16 29 17 30 18 31 19 32 20 33 21 34
REMARK SMILES IDX 22 35 23 36 84 37 24 38 83 39 25 40 26 41 27 42 77 43 28 44
REMARK SMILES IDX 82 45 76 46 78 47 29 48 81 49 75 50 74 51 30 53 62 54 42 55
REMARK SMILES IDX 61 56 43 57 46 58 60 59 79 60 44 61 45 62 59 64 80 65 47 66
REMARK SMILES IDX 31 67 32 68 40 69 33 70 35 71 41 72 34 73 36 74 37 75 38 76
REMARK SMILES IDX 39 77 63 78 64 79 72 80 65 81 67 82 73 83 66 84 68 85 69 86
REMARK SMILES IDX 70 87 71 88 48 89 49 90 57 91 50 92 52 93 58 94 51 95 53 96
REMARK SMILES IDX 54 97 55 98 56 99
REMARK H PARENT 85 15 88 20 78 52 46 63
REMARK Flexibility Score: inf
ROOT
ATOM      1  C   UNL A   1      44.231  18.778  24.203  1.00  0.00     0.188 C 
ENDROOT
BRANCH   1   2
ATOM      2  O   UNL A   1      45.577  18.534  24.536  1.00  0.00    -0.376 OA
BRANCH   2   3
ATOM      3  C   UNL A   1      46.327  19.544  25.180  1.00  0.00     0.202 C 
BRANCH   3   4
ATOM      4  C   UNL A   1      46.415  20.979  24.634  1.00  0.00     0.261 C 
BRANCH   4   5
ATOM      5  O   UNL A   1      46.488  22.051  25.586  1.00  0.00    -0.462 OA
BRANCH   5   6
ATOM      6  C   UNL A   1      46.063  23.269  25.162  1.00  0.00     0.329 C 
ATOM      7  O   UNL A   1      45.994  23.599  23.985  1.00  0.00    -0.250 OA
BRANCH   6   8
ATOM      8  C   UNL A   1      45.720  24.186  26.356  1.00  0.00     0.202 C 
ATOM      9  C   UNL A   1      47.849  26.244  25.736  1.00  0.00     0.145 C 
ATOM     10  S   UNL A   1      46.203  26.512  24.944  1.00  0.00    -0.145 SA
ATOM     11  C   UNL A   1      47.947  25.200  26.854  1.00  0.00     0.234 C 
ATOM     12  C   UNL A   1      45.132  25.545  26.017  1.00  0.00     0.107 C 
ATOM     13  N   UNL A   1      46.924  24.350  27.147  1.00  0.00    -0.341 N 
ATOM     14  O   UNL A   1      48.960  25.098  27.551  1.00  0.00    -0.274 OA
ATOM     15  H   UNL A   1      47.008  23.804  27.961  1.00  0.00     0.164 HD
BRANCH   9  16
ATOM     16  C   UNL A   1      48.911  25.987  24.657  1.00  0.00     0.124 C 
BRANCH  16  17
ATOM     17  C   UNL A   1      49.599  27.284  24.283  1.00  0.00     0.226 C 
ATOM     18  O   UNL A   1      49.298  28.333  24.845  1.00  0.00    -0.275 OA
ATOM     19  N   UNL A   1      50.445  27.141  23.197  1.00  0.00    -0.326 N 
ATOM     20  H   UNL A   1      50.683  26.224  22.929  1.00  0.00     0.169 HD
BRANCH  19  21
ATOM     21  C   UNL A   1      50.994  28.192  22.446  1.00  0.00     0.042 A 
ATOM     22  C   UNL A   1      50.226  28.690  21.386  1.00  0.00     0.026 A 
ATOM     23  C   UNL A   1      52.210  28.794  22.758  1.00  0.00     0.046 A 
ATOM     24  C   UNL A   1      50.640  29.824  20.686  1.00  0.00     0.004 A 
ATOM     25  C   UNL A   1      52.612  29.933  22.066  1.00  0.00     0.043 A 
ATOM     26  C   UNL A   1      51.831  30.454  21.035  1.00  0.00     0.020 A 
ATOM     27  Cl  UNL A   1      54.074  30.726  22.515  1.00  0.00    -0.084 Cl
ENDBRANCH  19  21
ENDBRANCH  16  17
ENDBRANCH   9  16
ENDBRANCH   6   8
ENDBRANCH   5   6
ENDBRANCH   4   5
ENDBRANCH   3   4
ENDBRANCH   2   3
ENDBRANCH   1   2
BRANCH   1  28
ATOM     28  C   UNL A   1      43.419  19.357  25.383  1.00  0.00     0.188 C 
BRANCH  28  29
ATOM     29  O   UNL A   1      42.007  19.205  25.430  1.00  0.00    -0.376 OA
BRANCH  29  30
ATOM     30  C   UNL A   1      41.289  19.759  26.522  1.00  0.00     0.202 C 
BRANCH  30  31
ATOM     31  C   UNL A   1      40.555  21.095  26.336  1.00  0.00     0.261 C 
BRANCH  31  32
ATOM     32  O   UNL A   1      41.078  22.202  27.090  1.00  0.00    -0.460 OA
BRANCH  32  33
ATOM     33  C   UNL A   1      41.856  23.073  26.395  1.00  0.00     0.338 C 
ATOM     34  O   UNL A   1      42.348  22.901  25.295  1.00  0.00    -0.246 OA
BRANCH  33  35
ATOM     35  C   UNL A   1      41.895  24.376  27.093  1.00  0.00     0.060 A 
ATOM     36  C   UNL A   1      41.648  25.545  26.358  1.00  0.00     0.016 A 
ATOM     37  C   UNL A   1      42.229  24.453  28.444  1.00  0.00     0.016 A 
ATOM     38  C   UNL A   1      41.745  26.797  26.973  1.00  0.00     0.010 A 
ATOM     39  C   UNL A   1      42.354  25.707  29.051  1.00  0.00     0.010 A 
ATOM     40  C   UNL A   1      42.133  26.885  28.316  1.00  0.00    -0.014 A 
BRANCH  40  41
ATOM     41  C   UNL A   1      42.445  28.204  28.925  1.00  0.00     0.031 A 
ATOM     42  C   UNL A   1      41.322  29.005  29.525  1.00  0.00     0.074 A 
ATOM     43  C   UNL A   1      43.694  28.703  28.888  1.00  0.00     0.049 A 
ATOM     44  N   UNL A   1      41.358  30.179  30.096  1.00  0.00    -0.248 NA
ATOM     45  C   UNL A   1      39.977  28.409  29.458  1.00  0.00     0.031 C 
ATOM     46  C   UNL A   1      44.849  28.020  28.311  1.00  0.00     0.029 A 
ATOM     47  N   UNL A   1      44.201  29.900  29.334  1.00  0.00    -0.354 N 
ATOM     48  C   UNL A   1      40.036  30.497  30.391  1.00  0.00     0.074 A 
ATOM     49  C   UNL A   1      39.227  29.373  29.973  1.00  0.00     0.031 C 
ATOM     50  C   UNL A   1      45.933  28.805  28.447  1.00  0.00     0.029 A 
ATOM     51  C   UNL A   1      45.552  30.058  29.097  1.00  0.00     0.049 A 
ATOM     52  H   UNL A   1      43.651  30.584  29.781  1.00  0.00     0.167 HD
ATOM     53  C   UNL A   1      39.542  31.628  30.945  1.00  0.00     0.034 A 
ATOM     54  C   UNL A   1      46.377  31.089  29.391  1.00  0.00     0.034 A 
ATOM     55  C   UNL A   1      40.352  32.733  31.379  1.00  0.00     0.049 A 
ATOM     56  C   UNL A   1      45.786  32.297  30.098  1.00  0.00     0.074 A 
ATOM     57  C   UNL A   1      39.945  33.913  31.979  1.00  0.00     0.029 A 
ATOM     58  N   UNL A   1      41.729  32.805  31.248  1.00  0.00    -0.354 N 
ATOM     59  N   UNL A   1      44.575  32.478  30.572  1.00  0.00    -0.248 NA
ATOM     60  C   UNL A   1      46.689  33.434  30.341  1.00  0.00     0.031 C 
ATOM     61  C   UNL A   1      41.076  34.709  32.185  1.00  0.00     0.029 A 
ATOM     62  C   UNL A   1      42.188  34.014  31.738  1.00  0.00     0.049 A 
ATOM     63  H   UNL A   1      42.297  32.098  30.865  1.00  0.00     0.167 HD
ATOM     64  C   UNL A   1      44.586  33.727  31.190  1.00  0.00     0.074 A 
ATOM     65  C   UNL A   1      45.943  34.220  31.104  1.00  0.00     0.031 C 
ATOM     66  C   UNL A   1      43.564  34.438  31.730  1.00  0.00     0.034 A 
BRANCH  53  67
ATOM     67  C   UNL A   1      38.050  31.742  31.107  1.00  0.00     0.023 A 
ATOM     68  C   UNL A   1      37.445  31.394  32.330  1.00  0.00     0.012 A 
ATOM     69  C   UNL A   1      37.258  32.271  30.067  1.00  0.00     0.148 A 
ATOM     70  C   UNL A   1      36.071  31.552  32.511  1.00  0.00     0.002 A 
ATOM     71  C   UNL A   1      35.898  32.466  30.269  1.00  0.00     0.091 A 
ATOM     72  F   UNL A   1      37.851  32.573  28.904  1.00  0.00    -0.205 F 
ATOM     73  C   UNL A   1      35.301  32.099  31.486  1.00  0.00     0.022 A 
BRANCH  71  74
ATOM     74  S   UNL A   1      34.833  33.234  29.042  1.00  0.00     0.127 S 
ATOM     75  O   UNL A   1      34.652  32.144  28.085  1.00  0.00    -0.237 OA
ATOM     76  O   UNL A   1      33.645  33.560  29.829  1.00  0.00    -0.237 OA
ATOM     77  O   UNL A   1      35.566  34.387  28.538  1.00  0.00    -0.744 OA
ENDBRANCH  71  74
ENDBRANCH  53  67
BRANCH  54  78
ATOM     78  C   UNL A   1      47.857  31.012  29.130  1.00  0.00     0.023 A 
ATOM     79  C   UNL A   1      48.662  30.220  29.977  1.00  0.00     0.012 A 
ATOM     80  C   UNL A   1      48.490  31.696  28.074  1.00  0.00     0.148 A 
ATOM     81  C   UNL A   1      50.045  30.135  29.808  1.00  0.00     0.002 A 
ATOM     82  C   UNL A   1      49.858  31.534  27.852  1.00  0.00     0.091 A 
ATOM     83  F   UNL A   1      47.748  32.499  27.299  1.00  0.00    -0.205 F 
ATOM     84  C   UNL A   1      50.640  30.773  28.730  1.00  0.00     0.022 A 
BRANCH  82  85
ATOM     85  S   UNL A   1      50.686  32.192  26.401  1.00  0.00     0.127 S 
ATOM     86  O   UNL A   1      51.798  32.929  26.994  1.00  0.00    -0.237 OA
ATOM     87  O   UNL A   1      51.067  30.969  25.690  1.00  0.00    -0.237 OA
ATOM     88  O   UNL A   1      49.689  33.000  25.710  1.00  0.00    -0.744 OA
ENDBRANCH  82  85
ENDBRANCH  54  78
BRANCH  66  89
ATOM     89  C   UNL A   1      43.874  35.809  32.283  1.00  0.00     0.023 A 
ATOM     90  C   UNL A   1      43.914  36.916  31.409  1.00  0.00     0.012 A 
ATOM     91  C   UNL A   1      44.049  36.020  33.667  1.00  0.00     0.148 A 
ATOM     92  C   UNL A   1      44.175  38.197  31.891  1.00  0.00     0.002 A 
ATOM     93  C   UNL A   1      44.254  37.310  34.146  1.00  0.00     0.091 A 
ATOM     94  F   UNL A   1      44.011  34.960  34.486  1.00  0.00    -0.205 F 
ATOM     95  C   UNL A   1      44.335  38.395  33.259  1.00  0.00     0.022 A 
BRANCH  93  96
ATOM     96  S   UNL A   1      44.364  37.688  35.900  1.00  0.00     0.127 S 
ATOM     97  O   UNL A   1      44.277  39.149  35.895  1.00  0.00    -0.237 OA
ATOM     98  O   UNL A   1      43.184  37.010  36.436  1.00  0.00    -0.237 OA
ATOM     99  O   UNL A   1      45.636  37.143  36.351  1.00  0.00    -0.744 OA
ENDBRANCH  93  96
ENDBRANCH  66  89
ENDBRANCH  40  41
ENDBRANCH  33  35
ENDBRANCH  32  33
ENDBRANCH  31  32
ENDBRANCH  30  31
ENDBRANCH  29  30
ENDBRANCH  28  29
ENDBRANCH   1  28
TORSDOF 23
ENDMDL
