MODEL 1
REMARK VINA RESULT:      -8.0      0.000      0.000
REMARK SMILES NS(=O)(=O)c1ccc(-n2nc(C(=O)NCCCC(=O)OCCOCCOCCOC(=O)c3ccc(-c4c5nc(c(-c6cccc(S(=O)(=O)[O-])c6F)c6ccc([nH]6)c(-c6cccc(S(=O)(=O)[O-])c6F)c6nc(c(-c7cccc(S(=O)(=O)[O-])c7F)c7ccc4[nH]7)C=C6)C=C5)cc3)cc2-c2ccccc2)cc1
REMARK SMILES IDX 22 1 21 2 20 3 18 4 19 5 17 6 16 7 15 8 14 9 12 10 13 11
REMARK SMILES IDX 11 13 9 14 10 15 96 16 95 17 8 18 5 19 6 20 104 21 7 22
REMARK SMILES IDX 103 23 2 24 3 25 4 26 1 27 97 30 98 31 102 32 99 33 101 34
REMARK SMILES IDX 100 35 23 36 24 37 25 38 26 39 27 40 28 41 29 42 30 43 31 44
REMARK SMILES IDX 32 45 33 46 94 47 34 48 93 49 35 50 36 51 37 52 87 53 38 54
REMARK SMILES IDX 92 55 86 56 88 57 39 58 91 59 85 60 84 61 40 63 72 64 52 65
REMARK SMILES IDX 71 66 53 67 56 68 70 69 89 70 54 71 55 72 69 74 90 75 57 76
REMARK SMILES IDX 41 77 42 78 50 79 43 80 45 81 51 82 44 83 46 84 47 85 48 86
REMARK SMILES IDX 49 87 73 88 74 89 82 90 75 91 77 92 83 93 76 94 78 95 79 96
REMARK SMILES IDX 80 97 81 98 58 99 59 100 67 101 60 102 62 103 68 104 61 105
REMARK SMILES IDX 63 106 64 107 65 108 66 109
REMARK H PARENT 14 12 1 28 1 29 88 62 56 73
REMARK Flexibility Score: inf
ROOT
ATOM      1  C   UNL A   1      45.404  19.174  25.415  1.00  0.00     0.202 C 
ENDROOT
BRANCH   1   2
ATOM      2  C   UNL A   1      45.711  20.421  24.568  1.00  0.00     0.261 C 
BRANCH   2   3
ATOM      3  O   UNL A   1      45.227  21.651  25.138  1.00  0.00    -0.463 OA
BRANCH   3   4
ATOM      4  C   UNL A   1      44.562  22.497  24.320  1.00  0.00     0.305 C 
ATOM      5  O   UNL A   1      44.469  22.361  23.104  1.00  0.00    -0.252 OA
BRANCH   4   6
ATOM      6  C   UNL A   1      43.861  23.636  25.037  1.00  0.00     0.124 C 
BRANCH   6   7
ATOM      7  C   UNL A   1      44.561  24.963  25.312  1.00  0.00     0.033 C 
BRANCH   7   8
ATOM      8  C   UNL A   1      45.756  24.970  26.253  1.00  0.00     0.117 C 
BRANCH   8   9
ATOM      9  N   UNL A   1      46.485  26.218  26.214  1.00  0.00    -0.351 N 
ATOM     10  C   UNL A   1      46.897  27.073  27.210  1.00  0.00     0.271 C 
ATOM     11  O   UNL A   1      47.406  28.131  26.826  1.00  0.00    -0.267 OA
ATOM     12  H   UNL A   1      46.734  26.509  25.307  1.00  0.00     0.163 HD
BRANCH  10  13
ATOM     13  C   UNL A   1      46.765  26.743  28.648  1.00  0.00     0.151 A 
ATOM     14  N   UNL A   1      47.414  26.534  30.685  1.00  0.00    -0.232 N 
ATOM     15  N   UNL A   1      47.722  27.136  29.516  1.00  0.00    -0.162 NA
ATOM     16  C   UNL A   1      46.143  25.989  30.674  1.00  0.00     0.075 A 
ATOM     17  C   UNL A   1      45.769  26.010  29.348  1.00  0.00     0.065 A 
BRANCH  14  18
ATOM     18  C   UNL A   1      48.345  26.508  31.751  1.00  0.00     0.065 A 
ATOM     19  C   UNL A   1      49.908  26.414  34.034  1.00  0.00     0.082 A 
ATOM     20  C   UNL A   1      49.656  25.234  33.332  1.00  0.00     0.024 A 
ATOM     21  C   UNL A   1      49.429  27.648  33.575  1.00  0.00     0.024 A 
ATOM     22  C   UNL A   1      48.862  25.280  32.192  1.00  0.00     0.030 A 
ATOM     23  C   UNL A   1      48.669  27.701  32.405  1.00  0.00     0.030 A 
BRANCH  19  24
ATOM     24  S   UNL A   1      50.861  26.338  35.517  1.00  0.00     0.238 S 
ATOM     25  O   UNL A   1      51.454  25.034  35.645  1.00  0.00    -0.207 OA
ATOM     26  O   UNL A   1      50.109  26.968  36.584  1.00  0.00    -0.207 OA
BRANCH  24  27
ATOM     27  N   UNL A   1      52.142  27.370  35.177  1.00  0.00    -0.225 NA
ATOM     28  H   UNL A   1      52.777  27.398  35.975  1.00  0.00     0.137 HD
ATOM     29  H   UNL A   1      51.784  28.308  34.994  1.00  0.00     0.137 HD
ENDBRANCH  24  27
ENDBRANCH  19  24
ENDBRANCH  14  18
BRANCH  16  30
ATOM     30  C   UNL A   1      45.381  25.548  31.846  1.00  0.00     0.000 A 
ATOM     31  C   UNL A   1      45.144  26.416  32.925  1.00  0.00     0.010 A 
ATOM     32  C   UNL A   1      44.843  24.258  31.890  1.00  0.00     0.010 A 
ATOM     33  C   UNL A   1      44.416  25.989  34.037  1.00  0.00     0.001 A 
ATOM     34  C   UNL A   1      44.105  23.834  32.998  1.00  0.00     0.001 A 
ATOM     35  C   UNL A   1      43.898  24.698  34.072  1.00  0.00     0.000 A 
ENDBRANCH  16  30
ENDBRANCH  10  13
ENDBRANCH   8   9
ENDBRANCH   7   8
ENDBRANCH   6   7
ENDBRANCH   4   6
ENDBRANCH   3   4
ENDBRANCH   2   3
ENDBRANCH   1   2
BRANCH   1  36
ATOM     36  O   UNL A   1      44.279  18.385  25.043  1.00  0.00    -0.376 OA
BRANCH  36  37
ATOM     37  C   UNL A   1      43.367  17.996  26.067  1.00  0.00     0.188 C 
BRANCH  37  38
ATOM     38  C   UNL A   1      42.345  19.042  26.534  1.00  0.00     0.188 C 
BRANCH  38  39
ATOM     39  O   UNL A   1      41.603  19.646  25.491  1.00  0.00    -0.376 OA
BRANCH  39  40
ATOM     40  C   UNL A   1      41.101  20.980  25.546  1.00  0.00     0.202 C 
BRANCH  40  41
ATOM     41  C   UNL A   1      39.739  21.431  26.089  1.00  0.00     0.261 C 
BRANCH  41  42
ATOM     42  O   UNL A   1      39.685  22.628  26.823  1.00  0.00    -0.460 OA
BRANCH  42  43
ATOM     43  C   UNL A   1      40.627  22.792  27.773  1.00  0.00     0.338 C 
ATOM     44  O   UNL A   1      41.079  21.938  28.515  1.00  0.00    -0.246 OA
BRANCH  43  45
ATOM     45  C   UNL A   1      41.029  24.204  27.728  1.00  0.00     0.060 A 
ATOM     46  C   UNL A   1      42.250  24.551  28.305  1.00  0.00     0.016 A 
ATOM     47  C   UNL A   1      40.092  25.169  27.322  1.00  0.00     0.016 A 
ATOM     48  C   UNL A   1      42.408  25.848  28.731  1.00  0.00     0.010 A 
ATOM     49  C   UNL A   1      40.235  26.451  27.776  1.00  0.00     0.010 A 
ATOM     50  C   UNL A   1      41.342  26.740  28.564  1.00  0.00    -0.014 A 
BRANCH  50  51
ATOM     51  C   UNL A   1      41.446  28.057  29.140  1.00  0.00     0.031 A 
ATOM     52  C   UNL A   1      42.619  28.779  28.607  1.00  0.00     0.074 A 
ATOM     53  C   UNL A   1      40.510  28.535  29.985  1.00  0.00     0.049 A 
ATOM     54  N   UNL A   1      43.715  29.025  29.241  1.00  0.00    -0.248 NA
ATOM     55  C   UNL A   1      42.702  29.016  27.156  1.00  0.00     0.031 C 
ATOM     56  C   UNL A   1      39.217  27.933  30.326  1.00  0.00     0.029 A 
ATOM     57  N   UNL A   1      40.452  29.737  30.619  1.00  0.00    -0.354 N 
ATOM     58  C   UNL A   1      44.493  29.736  28.336  1.00  0.00     0.074 A 
ATOM     59  C   UNL A   1      43.962  29.437  27.037  1.00  0.00     0.031 C 
ATOM     60  C   UNL A   1      38.413  28.885  30.854  1.00  0.00     0.029 A 
ATOM     61  C   UNL A   1      39.162  30.125  30.977  1.00  0.00     0.049 A 
ATOM     62  H   UNL A   1      41.248  30.284  30.807  1.00  0.00     0.167 HD
ATOM     63  C   UNL A   1      45.248  30.780  28.773  1.00  0.00     0.034 A 
ATOM     64  C   UNL A   1      38.735  31.389  31.246  1.00  0.00     0.034 A 
ATOM     65  C   UNL A   1      45.430  30.705  30.208  1.00  0.00     0.049 A 
ATOM     66  C   UNL A   1      39.938  32.205  31.546  1.00  0.00     0.074 A 
ATOM     67  C   UNL A   1      45.890  29.732  31.076  1.00  0.00     0.029 A 
ATOM     68  N   UNL A   1      44.701  31.585  30.971  1.00  0.00    -0.354 N 
ATOM     69  N   UNL A   1      40.670  32.029  32.609  1.00  0.00    -0.248 NA
ATOM     70  C   UNL A   1      40.604  32.853  30.424  1.00  0.00     0.031 C 
ATOM     71  C   UNL A   1      45.025  29.812  32.205  1.00  0.00     0.029 A 
ATOM     72  C   UNL A   1      44.164  30.894  32.022  1.00  0.00     0.049 A 
ATOM     73  H   UNL A   1      44.586  32.547  30.793  1.00  0.00     0.167 HD
ATOM     74  C   UNL A   1      41.972  32.060  32.126  1.00  0.00     0.074 A 
ATOM     75  C   UNL A   1      41.875  32.664  30.796  1.00  0.00     0.031 C 
ATOM     76  C   UNL A   1      42.952  31.299  32.695  1.00  0.00     0.034 A 
BRANCH  63  77
ATOM     77  C   UNL A   1      45.423  32.087  28.023  1.00  0.00     0.023 A 
ATOM     78  C   UNL A   1      46.755  32.479  27.758  1.00  0.00     0.012 A 
ATOM     79  C   UNL A   1      44.424  33.072  27.834  1.00  0.00     0.148 A 
ATOM     80  C   UNL A   1      47.084  33.797  27.432  1.00  0.00     0.002 A 
ATOM     81  C   UNL A   1      44.748  34.365  27.442  1.00  0.00     0.091 A 
ATOM     82  F   UNL A   1      43.151  32.819  28.132  1.00  0.00    -0.205 F 
ATOM     83  C   UNL A   1      46.080  34.743  27.278  1.00  0.00     0.022 A 
BRANCH  81  84
ATOM     84  S   UNL A   1      43.485  35.623  27.186  1.00  0.00     0.127 S 
ATOM     85  O   UNL A   1      44.274  36.848  27.269  1.00  0.00    -0.237 OA
ATOM     86  O   UNL A   1      43.001  35.282  25.849  1.00  0.00    -0.237 OA
ATOM     87  O   UNL A   1      42.504  35.431  28.247  1.00  0.00    -0.744 OA
ENDBRANCH  81  84
ENDBRANCH  63  77
BRANCH  64  88
ATOM     88  C   UNL A   1      37.415  32.025  30.973  1.00  0.00     0.023 A 
ATOM     89  C   UNL A   1      36.659  31.633  29.846  1.00  0.00     0.012 A 
ATOM     90  C   UNL A   1      36.766  32.814  31.949  1.00  0.00     0.148 A 
ATOM     91  C   UNL A   1      35.307  31.991  29.714  1.00  0.00     0.002 A 
ATOM     92  C   UNL A   1      35.430  33.180  31.807  1.00  0.00     0.091 A 
ATOM     93  F   UNL A   1      37.423  33.124  33.073  1.00  0.00    -0.205 F 
ATOM     94  C   UNL A   1      34.692  32.761  30.697  1.00  0.00     0.022 A 
BRANCH  92  95
ATOM     95  S   UNL A   1      34.583  34.157  33.057  1.00  0.00     0.127 S 
ATOM     96  O   UNL A   1      35.434  35.344  33.146  1.00  0.00    -0.237 OA
ATOM     97  O   UNL A   1      33.280  34.380  32.438  1.00  0.00    -0.237 OA
ATOM     98  O   UNL A   1      34.579  33.339  34.264  1.00  0.00    -0.744 OA
ENDBRANCH  92  95
ENDBRANCH  64  88
BRANCH  76  99
ATOM     99  C   UNL A   1      42.691  30.650  34.029  1.00  0.00     0.023 A 
ATOM    100  C   UNL A   1      42.508  29.262  34.197  1.00  0.00     0.012 A 
ATOM    101  C   UNL A   1      42.828  31.460  35.168  1.00  0.00     0.148 A 
ATOM    102  C   UNL A   1      42.446  28.703  35.478  1.00  0.00     0.002 A 
ATOM    103  C   UNL A   1      42.821  30.895  36.434  1.00  0.00     0.091 A 
ATOM    104  F   UNL A   1      42.998  32.780  34.990  1.00  0.00    -0.205 F 
ATOM    105  C   UNL A   1      42.619  29.518  36.597  1.00  0.00     0.022 A 
BRANCH 103 106
ATOM    106  S   UNL A   1      43.172  31.887  37.886  1.00  0.00     0.127 S 
ATOM    107  O   UNL A   1      41.836  32.310  38.295  1.00  0.00    -0.237 OA
ATOM    108  O   UNL A   1      43.812  30.921  38.782  1.00  0.00    -0.237 OA
ATOM    109  O   UNL A   1      44.060  32.952  37.436  1.00  0.00    -0.744 OA
ENDBRANCH 103 106
ENDBRANCH  76  99
ENDBRANCH  50  51
ENDBRANCH  43  45
ENDBRANCH  42  43
ENDBRANCH  41  42
ENDBRANCH  40  41
ENDBRANCH  39  40
ENDBRANCH  38  39
ENDBRANCH  37  38
ENDBRANCH  36  37
ENDBRANCH   1  36
TORSDOF 28
ENDMDL
MODEL 2
REMARK VINA RESULT:      -7.9      2.316      3.287
REMARK SMILES NS(=O)(=O)c1ccc(-n2nc(C(=O)NCCCC(=O)OCCOCCOCCOC(=O)c3ccc(-c4c5nc(c(-c6cccc(S(=O)(=O)[O-])c6F)c6ccc([nH]6)c(-c6cccc(S(=O)(=O)[O-])c6F)c6nc(c(-c7cccc(S(=O)(=O)[O-])c7F)c7ccc4[nH]7)C=C6)C=C5)cc3)cc2-c2ccccc2)cc1
REMARK SMILES IDX 22 1 21 2 20 3 18 4 19 5 17 6 16 7 15 8 14 9 12 10 13 11
REMARK SMILES IDX 11 13 9 14 10 15 96 16 95 17 8 18 5 19 6 20 104 21 7 22
REMARK SMILES IDX 103 23 2 24 3 25 4 26 1 27 97 30 98 31 102 32 99 33 101 34
REMARK SMILES IDX 100 35 23 36 24 37 25 38 26 39 27 40 28 41 29 42 30 43 31 44
REMARK SMILES IDX 32 45 33 46 94 47 34 48 93 49 35 50 36 51 37 52 87 53 38 54
REMARK SMILES IDX 92 55 86 56 88 57 39 58 91 59 85 60 84 61 40 63 72 64 52 65
REMARK SMILES IDX 71 66 53 67 56 68 70 69 89 70 54 71 55 72 69 74 90 75 57 76
REMARK SMILES IDX 41 77 42 78 50 79 43 80 45 81 51 82 44 83 46 84 47 85 48 86
REMARK SMILES IDX 49 87 73 88 74 89 82 90 75 91 77 92 83 93 76 94 78 95 79 96
REMARK SMILES IDX 80 97 81 98 58 99 59 100 67 101 60 102 62 103 68 104 61 105
REMARK SMILES IDX 63 106 64 107 65 108 66 109
REMARK H PARENT 14 12 1 28 1 29 88 62 56 73
REMARK Flexibility Score: inf
ROOT
ATOM      1  C   UNL A   1      44.489  18.473  25.296  1.00  0.00     0.202 C 
ENDROOT
BRANCH   1   2
ATOM      2  C   UNL A   1      44.550  19.451  24.110  1.00  0.00     0.261 C 
BRANCH   2   3
ATOM      3  O   UNL A   1      44.495  20.838  24.491  1.00  0.00    -0.463 OA
BRANCH   3   4
ATOM      4  C   UNL A   1      45.667  21.504  24.589  1.00  0.00     0.305 C 
ATOM      5  O   UNL A   1      46.763  20.968  24.718  1.00  0.00    -0.252 OA
BRANCH   4   6
ATOM      6  C   UNL A   1      45.542  23.011  24.466  1.00  0.00     0.124 C 
BRANCH   6   7
ATOM      7  C   UNL A   1      46.759  23.927  24.547  1.00  0.00     0.033 C 
BRANCH   7   8
ATOM      8  C   UNL A   1      46.716  25.104  25.510  1.00  0.00     0.117 C 
BRANCH   8   9
ATOM      9  N   UNL A   1      45.405  25.710  25.586  1.00  0.00    -0.351 N 
ATOM     10  C   UNL A   1      44.700  26.248  26.638  1.00  0.00     0.271 C 
ATOM     11  O   UNL A   1      43.538  26.583  26.384  1.00  0.00    -0.267 OA
ATOM     12  H   UNL A   1      44.929  25.745  24.724  1.00  0.00     0.163 HD
BRANCH  10  13
ATOM     13  C   UNL A   1      45.295  26.437  27.981  1.00  0.00     0.151 A 
ATOM     14  N   UNL A   1      45.308  26.562  30.126  1.00  0.00    -0.232 N 
ATOM     15  N   UNL A   1      44.585  26.104  29.081  1.00  0.00    -0.162 NA
ATOM     16  C   UNL A   1      46.587  26.934  29.755  1.00  0.00     0.075 A 
ATOM     17  C   UNL A   1      46.550  26.973  28.377  1.00  0.00     0.065 A 
BRANCH  14  18
ATOM     18  C   UNL A   1      44.745  26.622  31.423  1.00  0.00     0.065 A 
ATOM     19  C   UNL A   1      43.368  26.618  33.824  1.00  0.00     0.082 A 
ATOM     20  C   UNL A   1      44.114  25.493  33.465  1.00  0.00     0.024 A 
ATOM     21  C   UNL A   1      43.347  27.763  33.018  1.00  0.00     0.024 A 
ATOM     22  C   UNL A   1      44.796  25.491  32.254  1.00  0.00     0.030 A 
ATOM     23  C   UNL A   1      44.069  27.779  31.823  1.00  0.00     0.030 A 
BRANCH  19  24
ATOM     24  S   UNL A   1      42.451  26.588  35.332  1.00  0.00     0.238 S 
ATOM     25  O   UNL A   1      43.240  25.974  36.366  1.00  0.00    -0.207 OA
ATOM     26  O   UNL A   1      41.089  26.184  35.038  1.00  0.00    -0.207 OA
BRANCH  24  27
ATOM     27  N   UNL A   1      42.377  28.214  35.743  1.00  0.00    -0.225 NA
ATOM     28  H   UNL A   1      43.001  28.747  35.137  1.00  0.00     0.137 HD
ATOM     29  H   UNL A   1      42.664  28.332  36.716  1.00  0.00     0.137 HD
ENDBRANCH  24  27
ENDBRANCH  19  24
ENDBRANCH  14  18
BRANCH  16  30
ATOM     30  C   UNL A   1      47.716  27.173  30.659  1.00  0.00     0.000 A 
ATOM     31  C   UNL A   1      48.329  28.434  30.735  1.00  0.00     0.010 A 
ATOM     32  C   UNL A   1      48.178  26.148  31.492  1.00  0.00     0.010 A 
ATOM     33  C   UNL A   1      49.403  28.654  31.599  1.00  0.00     0.001 A 
ATOM     34  C   UNL A   1      49.246  26.372  32.365  1.00  0.00     0.001 A 
ATOM     35  C   UNL A   1      49.861  27.622  32.413  1.00  0.00     0.000 A 
ENDBRANCH  16  30
ENDBRANCH  10  13
ENDBRANCH   8   9
ENDBRANCH   7   8
ENDBRANCH   6   7
ENDBRANCH   4   6
ENDBRANCH   3   4
ENDBRANCH   2   3
ENDBRANCH   1   2
BRANCH   1  36
ATOM     36  O   UNL A   1      43.251  17.816  25.546  1.00  0.00    -0.376 OA
BRANCH  36  37
ATOM     37  C   UNL A   1      42.674  17.947  26.843  1.00  0.00     0.188 C 
BRANCH  37  38
ATOM     38  C   UNL A   1      42.411  19.369  27.355  1.00  0.00     0.188 C 
BRANCH  38  39
ATOM     39  O   UNL A   1      41.799  20.231  26.413  1.00  0.00    -0.376 OA
BRANCH  39  40
ATOM     40  C   UNL A   1      41.625  21.631  26.617  1.00  0.00     0.202 C 
BRANCH  40  41
ATOM     41  C   UNL A   1      40.357  22.341  27.111  1.00  0.00     0.261 C 
BRANCH  41  42
ATOM     42  O   UNL A   1      40.511  23.513  27.870  1.00  0.00    -0.460 OA
BRANCH  42  43
ATOM     43  C   UNL A   1      40.584  24.669  27.179  1.00  0.00     0.338 C 
ATOM     44  O   UNL A   1      40.825  24.802  25.993  1.00  0.00    -0.246 OA
BRANCH  43  45
ATOM     45  C   UNL A   1      40.294  25.749  28.132  1.00  0.00     0.060 A 
ATOM     46  C   UNL A   1      39.183  26.553  27.884  1.00  0.00     0.016 A 
ATOM     47  C   UNL A   1      41.249  26.072  29.110  1.00  0.00     0.016 A 
ATOM     48  C   UNL A   1      39.181  27.820  28.418  1.00  0.00     0.010 A 
ATOM     49  C   UNL A   1      41.264  27.344  29.613  1.00  0.00     0.010 A 
ATOM     50  C   UNL A   1      40.287  28.227  29.173  1.00  0.00    -0.014 A 
BRANCH  50  51
ATOM     51  C   UNL A   1      40.358  29.599  29.610  1.00  0.00     0.031 A 
ATOM     52  C   UNL A   1      41.647  30.211  29.229  1.00  0.00     0.074 A 
ATOM     53  C   UNL A   1      39.312  30.206  30.207  1.00  0.00     0.049 A 
ATOM     54  N   UNL A   1      42.622  30.491  30.026  1.00  0.00    -0.248 NA
ATOM     55  C   UNL A   1      42.006  30.271  27.802  1.00  0.00     0.031 C 
ATOM     56  C   UNL A   1      37.947  29.695  30.364  1.00  0.00     0.029 A 
ATOM     57  N   UNL A   1      39.208  31.476  30.682  1.00  0.00    -0.354 N 
ATOM     58  C   UNL A   1      43.590  31.062  29.210  1.00  0.00     0.074 A 
ATOM     59  C   UNL A   1      43.288  30.630  27.876  1.00  0.00     0.031 C 
ATOM     60  C   UNL A   1      37.115  30.731  30.624  1.00  0.00     0.029 A 
ATOM     61  C   UNL A   1      37.898  31.949  30.748  1.00  0.00     0.049 A 
ATOM     62  H   UNL A   1      39.986  32.014  30.954  1.00  0.00     0.167 HD
ATOM     63  C   UNL A   1      44.311  32.124  29.663  1.00  0.00     0.034 A 
ATOM     64  C   UNL A   1      37.502  33.250  30.791  1.00  0.00     0.034 A 
ATOM     65  C   UNL A   1      44.225  32.213  31.105  1.00  0.00     0.049 A 
ATOM     66  C   UNL A   1      38.675  34.053  31.219  1.00  0.00     0.074 A 
ATOM     67  C   UNL A   1      44.463  31.335  32.146  1.00  0.00     0.029 A 
ATOM     68  N   UNL A   1      43.420  33.203  31.617  1.00  0.00    -0.354 N 
ATOM     69  N   UNL A   1      39.190  33.979  32.413  1.00  0.00    -0.248 NA
ATOM     70  C   UNL A   1      39.569  34.540  30.177  1.00  0.00     0.031 C 
ATOM     71  C   UNL A   1      43.414  31.579  33.078  1.00  0.00     0.029 A 
ATOM     72  C   UNL A   1      42.663  32.662  32.618  1.00  0.00     0.049 A 
ATOM     73  H   UNL A   1      43.394  34.140  31.316  1.00  0.00     0.167 HD
ATOM     74  C   UNL A   1      40.557  33.908  32.182  1.00  0.00     0.074 A 
ATOM     75  C   UNL A   1      40.738  34.352  30.798  1.00  0.00     0.031 C 
ATOM     76  C   UNL A   1      41.374  33.185  33.005  1.00  0.00     0.034 A 
BRANCH  63  77
ATOM     77  C   UNL A   1      44.693  33.325  28.819  1.00  0.00     0.023 A 
ATOM     78  C   UNL A   1      46.071  33.635  28.765  1.00  0.00     0.012 A 
ATOM     79  C   UNL A   1      43.803  34.316  28.340  1.00  0.00     0.148 A 
ATOM     80  C   UNL A   1      46.527  34.893  28.363  1.00  0.00     0.002 A 
ATOM     81  C   UNL A   1      44.265  35.542  27.875  1.00  0.00     0.091 A 
ATOM     82  F   UNL A   1      42.484  34.146  28.422  1.00  0.00    -0.205 F 
ATOM     83  C   UNL A   1      45.624  35.849  27.921  1.00  0.00     0.022 A 
BRANCH  81  84
ATOM     84  S   UNL A   1      43.143  36.804  27.252  1.00  0.00     0.127 S 
ATOM     85  O   UNL A   1      44.058  37.918  27.021  1.00  0.00    -0.237 OA
ATOM     86  O   UNL A   1      42.623  36.163  26.045  1.00  0.00    -0.237 OA
ATOM     87  O   UNL A   1      42.148  37.012  28.298  1.00  0.00    -0.744 OA
ENDBRANCH  81  84
ENDBRANCH  63  77
BRANCH  64  88
ATOM     88  C   UNL A   1      36.292  33.895  30.207  1.00  0.00     0.023 A 
ATOM     89  C   UNL A   1      35.841  33.524  28.921  1.00  0.00     0.012 A 
ATOM     90  C   UNL A   1      35.418  34.670  31.004  1.00  0.00     0.148 A 
ATOM     91  C   UNL A   1      34.565  33.889  28.461  1.00  0.00     0.002 A 
ATOM     92  C   UNL A   1      34.160  35.043  30.539  1.00  0.00     0.091 A 
ATOM     93  F   UNL A   1      35.773  34.959  32.261  1.00  0.00    -0.205 F 
ATOM     94  C   UNL A   1      33.723  34.644  29.271  1.00  0.00     0.022 A 
BRANCH  92  95
ATOM     95  S   UNL A   1      33.026  36.002  31.554  1.00  0.00     0.127 S 
ATOM     96  O   UNL A   1      33.944  36.760  32.404  1.00  0.00    -0.237 OA
ATOM     97  O   UNL A   1      32.319  36.795  30.553  1.00  0.00    -0.237 OA
ATOM     98  O   UNL A   1      32.218  35.026  32.275  1.00  0.00    -0.744 OA
ENDBRANCH  92  95
ENDBRANCH  64  88
BRANCH  76  99
ATOM     99  C   UNL A   1      40.839  32.709  34.329  1.00  0.00     0.023 A 
ATOM    100  C   UNL A   1      40.278  31.430  34.529  1.00  0.00     0.012 A 
ATOM    101  C   UNL A   1      41.090  33.522  35.447  1.00  0.00     0.148 A 
ATOM    102  C   UNL A   1      39.963  30.985  35.817  1.00  0.00     0.002 A 
ATOM    103  C   UNL A   1      40.826  33.056  36.725  1.00  0.00     0.091 A 
ATOM    104  F   UNL A   1      41.619  34.739  35.238  1.00  0.00    -0.205 F 
ATOM    105  C   UNL A   1      40.252  31.792  36.917  1.00  0.00     0.022 A 
BRANCH 103 106
ATOM    106  S   UNL A   1      41.306  34.007  38.168  1.00  0.00     0.127 S 
ATOM    107  O   UNL A   1      42.665  34.417  37.823  1.00  0.00    -0.237 OA
ATOM    108  O   UNL A   1      40.321  35.091  38.174  1.00  0.00    -0.237 OA
ATOM    109  O   UNL A   1      41.191  33.097  39.301  1.00  0.00    -0.744 OA
ENDBRANCH 103 106
ENDBRANCH  76  99
ENDBRANCH  50  51
ENDBRANCH  43  45
ENDBRANCH  42  43
ENDBRANCH  41  42
ENDBRANCH  40  41
ENDBRANCH  39  40
ENDBRANCH  38  39
ENDBRANCH  37  38
ENDBRANCH  36  37
ENDBRANCH   1  36
TORSDOF 28
ENDMDL
MODEL 3
REMARK VINA RESULT:      -7.5      6.457     14.072
REMARK SMILES NS(=O)(=O)c1ccc(-n2nc(C(=O)NCCCC(=O)OCCOCCOCCOC(=O)c3ccc(-c4c5nc(c(-c6cccc(S(=O)(=O)[O-])c6F)c6ccc([nH]6)c(-c6cccc(S(=O)(=O)[O-])c6F)c6nc(c(-c7cccc(S(=O)(=O)[O-])c7F)c7ccc4[nH]7)C=C6)C=C5)cc3)cc2-c2ccccc2)cc1
REMARK SMILES IDX 22 1 21 2 20 3 18 4 19 5 17 6 16 7 15 8 14 9 12 10 13 11
REMARK SMILES IDX 11 13 9 14 10 15 96 16 95 17 8 18 5 19 6 20 104 21 7 22
REMARK SMILES IDX 103 23 2 24 3 25 4 26 1 27 97 30 98 31 102 32 99 33 101 34
REMARK SMILES IDX 100 35 23 36 24 37 25 38 26 39 27 40 28 41 29 42 30 43 31 44
REMARK SMILES IDX 32 45 33 46 94 47 34 48 93 49 35 50 36 51 37 52 87 53 38 54
REMARK SMILES IDX 92 55 86 56 88 57 39 58 91 59 85 60 84 61 40 63 72 64 52 65
REMARK SMILES IDX 71 66 53 67 56 68 70 69 89 70 54 71 55 72 69 74 90 75 57 76
REMARK SMILES IDX 41 77 42 78 50 79 43 80 45 81 51 82 44 83 46 84 47 85 48 86
REMARK SMILES IDX 49 87 73 88 74 89 82 90 75 91 77 92 83 93 76 94 78 95 79 96
REMARK SMILES IDX 80 97 81 98 58 99 59 100 67 101 60 102 62 103 68 104 61 105
REMARK SMILES IDX 63 106 64 107 65 108 66 109
REMARK H PARENT 14 12 1 28 1 29 88 62 56 73
REMARK Flexibility Score: inf
ROOT
ATOM      1  C   UNL A   1      42.466  41.397  25.139  1.00  0.00     0.202 C 
ENDROOT
BRANCH   1   2
ATOM      2  C   UNL A   1      41.540  41.614  23.930  1.00  0.00     0.261 C 
BRANCH   2   3
ATOM      3  O   UNL A   1      42.231  41.703  22.671  1.00  0.00    -0.463 OA
BRANCH   3   4
ATOM      4  C   UNL A   1      42.718  42.912  22.312  1.00  0.00     0.305 C 
ATOM      5  O   UNL A   1      42.240  43.987  22.662  1.00  0.00    -0.252 OA
BRANCH   4   6
ATOM      6  C   UNL A   1      43.976  42.853  21.465  1.00  0.00     0.124 C 
BRANCH   6   7
ATOM      7  C   UNL A   1      44.350  43.976  20.504  1.00  0.00     0.033 C 
BRANCH   7   8
ATOM      8  C   UNL A   1      45.824  44.212  20.205  1.00  0.00     0.117 C 
BRANCH   8   9
ATOM      9  N   UNL A   1      46.602  42.995  20.263  1.00  0.00    -0.351 N 
ATOM     10  C   UNL A   1      47.507  42.525  21.186  1.00  0.00     0.271 C 
ATOM     11  O   UNL A   1      48.094  41.483  20.874  1.00  0.00    -0.267 OA
ATOM     12  H   UNL A   1      46.456  42.390  19.500  1.00  0.00     0.163 HD
BRANCH  10  13
ATOM     13  C   UNL A   1      47.750  43.204  22.480  1.00  0.00     0.151 A 
ATOM     14  N   UNL A   1      47.352  43.750  24.519  1.00  0.00    -0.232 N 
ATOM     15  N   UNL A   1      47.043  42.839  23.571  1.00  0.00    -0.162 NA
ATOM     16  C   UNL A   1      48.440  44.526  24.164  1.00  0.00     0.075 A 
ATOM     17  C   UNL A   1      48.625  44.270  22.822  1.00  0.00     0.065 A 
BRANCH  14  18
ATOM     18  C   UNL A   1      46.596  43.835  25.713  1.00  0.00     0.065 A 
ATOM     19  C   UNL A   1      45.404  44.041  28.203  1.00  0.00     0.082 A 
ATOM     20  C   UNL A   1      45.580  45.193  27.435  1.00  0.00     0.024 A 
ATOM     21  C   UNL A   1      45.771  42.780  27.715  1.00  0.00     0.024 A 
ATOM     22  C   UNL A   1      46.189  45.091  26.189  1.00  0.00     0.030 A 
ATOM     23  C   UNL A   1      46.342  42.671  26.445  1.00  0.00     0.030 A 
BRANCH  19  24
ATOM     24  S   UNL A   1      44.692  44.187  29.810  1.00  0.00     0.238 S 
ATOM     25  O   UNL A   1      43.907  45.391  29.885  1.00  0.00    -0.207 OA
ATOM     26  O   UNL A   1      45.697  43.842  30.796  1.00  0.00    -0.207 OA
BRANCH  24  27
ATOM     27  N   UNL A   1      43.573  42.934  29.826  1.00  0.00    -0.225 NA
ATOM     28  H   UNL A   1      42.699  43.264  30.235  1.00  0.00     0.137 HD
ATOM     29  H   UNL A   1      43.938  42.160  30.382  1.00  0.00     0.137 HD
ENDBRANCH  24  27
ENDBRANCH  19  24
ENDBRANCH  14  18
BRANCH  16  30
ATOM     30  C   UNL A   1      49.226  45.378  25.063  1.00  0.00     0.000 A 
ATOM     31  C   UNL A   1      49.904  44.835  26.167  1.00  0.00     0.010 A 
ATOM     32  C   UNL A   1      49.342  46.748  24.809  1.00  0.00     0.010 A 
ATOM     33  C   UNL A   1      50.651  45.652  27.017  1.00  0.00     0.001 A 
ATOM     34  C   UNL A   1      50.098  47.564  25.654  1.00  0.00     0.001 A 
ATOM     35  C   UNL A   1      50.747  47.016  26.760  1.00  0.00     0.000 A 
ENDBRANCH  16  30
ENDBRANCH  10  13
ENDBRANCH   8   9
ENDBRANCH   7   8
ENDBRANCH   6   7
ENDBRANCH   4   6
ENDBRANCH   3   4
ENDBRANCH   2   3
ENDBRANCH   1   2
BRANCH   1  36
ATOM     36  O   UNL A   1      41.872  40.958  26.356  1.00  0.00    -0.376 OA
BRANCH  36  37
ATOM     37  C   UNL A   1      42.724  40.751  27.479  1.00  0.00     0.188 C 
BRANCH  37  38
ATOM     38  C   UNL A   1      42.675  39.373  28.155  1.00  0.00     0.188 C 
BRANCH  38  39
ATOM     39  O   UNL A   1      43.861  38.612  28.026  1.00  0.00    -0.376 OA
BRANCH  39  40
ATOM     40  C   UNL A   1      45.138  39.178  27.741  1.00  0.00     0.202 C 
BRANCH  40  41
ATOM     41  C   UNL A   1      46.507  38.620  28.155  1.00  0.00     0.261 C 
BRANCH  41  42
ATOM     42  O   UNL A   1      46.657  37.224  28.223  1.00  0.00    -0.460 OA
BRANCH  42  43
ATOM     43  C   UNL A   1      46.583  36.673  29.451  1.00  0.00     0.338 C 
ATOM     44  O   UNL A   1      47.450  36.663  30.306  1.00  0.00    -0.246 OA
BRANCH  43  45
ATOM     45  C   UNL A   1      45.235  36.102  29.575  1.00  0.00     0.060 A 
ATOM     46  C   UNL A   1      44.711  35.945  30.858  1.00  0.00     0.016 A 
ATOM     47  C   UNL A   1      44.626  35.534  28.443  1.00  0.00     0.016 A 
ATOM     48  C   UNL A   1      43.741  34.987  31.036  1.00  0.00     0.010 A 
ATOM     49  C   UNL A   1      43.686  34.559  28.627  1.00  0.00     0.010 A 
ATOM     50  C   UNL A   1      43.338  34.230  29.931  1.00  0.00    -0.014 A 
BRANCH  50  51
ATOM     51  C   UNL A   1      42.432  33.128  30.140  1.00  0.00     0.031 A 
ATOM     52  C   UNL A   1      41.093  33.610  30.533  1.00  0.00     0.074 A 
ATOM     53  C   UNL A   1      42.804  31.854  29.905  1.00  0.00     0.049 A 
ATOM     54  N   UNL A   1      40.571  33.534  31.711  1.00  0.00    -0.248 NA
ATOM     55  C   UNL A   1      40.365  34.502  29.615  1.00  0.00     0.031 C 
ATOM     56  C   UNL A   1      44.040  31.380  29.276  1.00  0.00     0.029 A 
ATOM     57  N   UNL A   1      42.089  30.705  30.052  1.00  0.00    -0.354 N 
ATOM     58  C   UNL A   1      39.309  34.095  31.574  1.00  0.00     0.074 A 
ATOM     59  C   UNL A   1      39.365  34.912  30.395  1.00  0.00     0.031 C 
ATOM     60  C   UNL A   1      43.859  30.109  28.848  1.00  0.00     0.029 A 
ATOM     61  C   UNL A   1      42.541  29.653  29.257  1.00  0.00     0.049 A 
ATOM     62  H   UNL A   1      41.323  30.624  30.664  1.00  0.00     0.167 HD
ATOM     63  C   UNL A   1      38.251  33.541  32.226  1.00  0.00     0.034 A 
ATOM     64  C   UNL A   1      41.834  28.551  28.883  1.00  0.00     0.034 A 
ATOM     65  C   UNL A   1      38.712  32.688  33.301  1.00  0.00     0.049 A 
ATOM     66  C   UNL A   1      40.690  28.425  29.821  1.00  0.00     0.074 A 
ATOM     67  C   UNL A   1      39.560  32.862  34.380  1.00  0.00     0.029 A 
ATOM     68  N   UNL A   1      38.632  31.332  33.094  1.00  0.00    -0.354 N 
ATOM     69  N   UNL A   1      40.833  28.132  31.083  1.00  0.00    -0.248 NA
ATOM     70  C   UNL A   1      39.458  29.120  29.472  1.00  0.00     0.031 C 
ATOM     71  C   UNL A   1      40.310  31.654  34.454  1.00  0.00     0.029 A 
ATOM     72  C   UNL A   1      39.809  30.768  33.500  1.00  0.00     0.049 A 
ATOM     73  H   UNL A   1      37.859  30.849  32.718  1.00  0.00     0.167 HD
ATOM     74  C   UNL A   1      39.998  29.034  31.729  1.00  0.00     0.074 A 
ATOM     75  C   UNL A   1      39.109  29.551  30.688  1.00  0.00     0.031 C 
ATOM     76  C   UNL A   1      40.316  29.527  32.963  1.00  0.00     0.034 A 
BRANCH  63  77
ATOM     77  C   UNL A   1      36.864  33.382  31.633  1.00  0.00     0.023 A 
ATOM     78  C   UNL A   1      36.746  32.469  30.561  1.00  0.00     0.012 A 
ATOM     79  C   UNL A   1      35.769  34.255  31.843  1.00  0.00     0.148 A 
ATOM     80  C   UNL A   1      35.657  32.497  29.686  1.00  0.00     0.002 A 
ATOM     81  C   UNL A   1      34.655  34.233  31.013  1.00  0.00     0.091 A 
ATOM     82  F   UNL A   1      35.820  35.200  32.780  1.00  0.00    -0.205 F 
ATOM     83  C   UNL A   1      34.612  33.382  29.909  1.00  0.00     0.022 A 
BRANCH  81  84
ATOM     84  S   UNL A   1      33.252  35.329  31.278  1.00  0.00     0.127 S 
ATOM     85  O   UNL A   1      32.484  35.120  30.054  1.00  0.00    -0.237 OA
ATOM     86  O   UNL A   1      32.663  34.761  32.489  1.00  0.00    -0.237 OA
ATOM     87  O   UNL A   1      33.811  36.665  31.452  1.00  0.00    -0.744 OA
ENDBRANCH  81  84
ENDBRANCH  63  77
BRANCH  64  88
ATOM     88  C   UNL A   1      41.886  27.774  27.613  1.00  0.00     0.023 A 
ATOM     89  C   UNL A   1      41.841  28.444  26.370  1.00  0.00     0.012 A 
ATOM     90  C   UNL A   1      42.251  26.409  27.603  1.00  0.00     0.148 A 
ATOM     91  C   UNL A   1      42.173  27.787  25.174  1.00  0.00     0.002 A 
ATOM     92  C   UNL A   1      42.564  25.756  26.414  1.00  0.00     0.091 A 
ATOM     93  F   UNL A   1      42.395  25.769  28.769  1.00  0.00    -0.205 F 
ATOM     94  C   UNL A   1      42.538  26.444  25.197  1.00  0.00     0.022 A 
BRANCH  92  95
ATOM     95  S   UNL A   1      43.061  24.028  26.391  1.00  0.00     0.127 S 
ATOM     96  O   UNL A   1      42.982  23.706  24.966  1.00  0.00    -0.237 OA
ATOM     97  O   UNL A   1      44.416  24.094  26.931  1.00  0.00    -0.237 OA
ATOM     98  O   UNL A   1      42.085  23.324  27.213  1.00  0.00    -0.744 OA
ENDBRANCH  92  95
ENDBRANCH  64  88
BRANCH  76  99
ATOM     99  C   UNL A   1      41.420  28.871  33.749  1.00  0.00     0.023 A 
ATOM    100  C   UNL A   1      41.237  27.710  34.529  1.00  0.00     0.012 A 
ATOM    101  C   UNL A   1      42.725  29.344  33.531  1.00  0.00     0.148 A 
ATOM    102  C   UNL A   1      42.336  27.051  35.091  1.00  0.00     0.002 A 
ATOM    103  C   UNL A   1      43.814  28.657  34.044  1.00  0.00     0.091 A 
ATOM    104  F   UNL A   1      42.880  30.453  32.790  1.00  0.00    -0.205 F 
ATOM    105  C   UNL A   1      43.626  27.515  34.835  1.00  0.00     0.022 A 
BRANCH 103 106
ATOM    106  S   UNL A   1      45.488  29.145  33.628  1.00  0.00     0.127 S 
ATOM    107  O   UNL A   1      46.280  28.124  34.308  1.00  0.00    -0.237 OA
ATOM    108  O   UNL A   1      45.490  29.050  32.166  1.00  0.00    -0.237 OA
ATOM    109  O   UNL A   1      45.645  30.504  34.132  1.00  0.00    -0.744 OA
ENDBRANCH 103 106
ENDBRANCH  76  99
ENDBRANCH  50  51
ENDBRANCH  43  45
ENDBRANCH  42  43
ENDBRANCH  41  42
ENDBRANCH  40  41
ENDBRANCH  39  40
ENDBRANCH  38  39
ENDBRANCH  37  38
ENDBRANCH  36  37
ENDBRANCH   1  36
TORSDOF 28
ENDMDL
