MODEL 1
REMARK VINA RESULT:      -9.1      0.000      0.000
REMARK SMILES C[C@H]1C[C@@H]1C(=O)NC[C@@H]1CC[C@H](C(=O)OCCOCCOCCOC(=O)c2ccc(-c3c4nc(c(-c5cccc(S(=O)(=O)[O-])c5F)c5ccc([nH]5)c(-c5cccc(S(=O)(=O)[O-])c5F)c5nc(c(-c6cccc(S(=O)(=O)[O-])c6F)c6ccc3[nH]6)C=C5)C=C4)cc2)O1
REMARK SMILES IDX 19 1 18 2 17 3 16 4 15 5 13 6 14 7 12 8 9 9 10 10 90 11
REMARK SMILES IDX 11 12 8 13 7 14 5 15 6 16 4 18 1 19 2 20 3 21 20 22 21 23
REMARK SMILES IDX 22 24 23 25 24 26 25 27 26 28 27 29 28 30 89 31 29 32 88 33
REMARK SMILES IDX 30 34 31 35 32 36 82 37 33 38 87 39 81 40 83 41 34 42 86 43
REMARK SMILES IDX 80 44 79 45 35 47 67 48 47 49 66 50 48 51 51 52 65 53 84 54
REMARK SMILES IDX 49 55 50 56 64 58 85 59 52 60 36 61 37 62 45 63 38 64 40 65
REMARK SMILES IDX 46 66 39 67 41 68 42 69 43 70 44 71 68 72 69 73 77 74 70 75
REMARK SMILES IDX 72 76 78 77 71 78 73 79 74 80 75 81 76 82 53 83 54 84 62 85
REMARK SMILES IDX 55 86 57 87 63 88 56 89 58 90 59 91 60 92 61 93
REMARK H PARENT 7 17 83 46 51 57
REMARK Flexibility Score: inf
ROOT
ATOM      1  C   UNL A   1      39.198  22.377  26.200  1.00  0.00     0.188 C 
ENDROOT
BRANCH   1   2
ATOM      2  O   UNL A   1      38.742  23.726  26.136  1.00  0.00    -0.376 OA
BRANCH   2   3
ATOM      3  C   UNL A   1      37.328  23.908  26.158  1.00  0.00     0.202 C 
BRANCH   3   4
ATOM      4  C   UNL A   1      36.611  23.676  24.822  1.00  0.00     0.261 C 
BRANCH   4   5
ATOM      5  O   UNL A   1      35.172  23.581  24.923  1.00  0.00    -0.461 OA
BRANCH   5   6
ATOM      6  C   UNL A   1      34.476  23.713  23.760  1.00  0.00     0.335 C 
ATOM      7  O   UNL A   1      34.784  23.162  22.708  1.00  0.00    -0.249 OA
BRANCH   6   8
ATOM      8  C   UNL A   1      33.197  24.564  23.900  1.00  0.00     0.228 C 
ATOM      9  C   UNL A   1      31.477  23.220  24.723  1.00  0.00     0.138 C 
ATOM     10  C   UNL A   1      31.342  23.283  23.202  1.00  0.00     0.037 C 
ATOM     11  O   UNL A   1      32.482  24.186  25.091  1.00  0.00    -0.361 OA
ATOM     12  C   UNL A   1      32.153  24.491  22.809  1.00  0.00     0.047 C 
BRANCH   9  13
ATOM     13  C   UNL A   1      31.859  21.837  25.294  1.00  0.00     0.147 C 
BRANCH  13  14
ATOM     14  N   UNL A   1      33.194  21.407  24.913  1.00  0.00    -0.353 N 
ATOM     15  C   UNL A   1      33.700  20.137  24.873  1.00  0.00     0.223 C 
ATOM     16  O   UNL A   1      34.909  19.972  24.742  1.00  0.00    -0.275 OA
ATOM     17  H   UNL A   1      33.815  22.123  24.648  1.00  0.00     0.163 HD
BRANCH  15  18
ATOM     18  C   UNL A   1      32.768  18.977  24.960  1.00  0.00     0.081 C 
ATOM     19  C   UNL A   1      32.598  16.428  25.531  1.00  0.00     0.008 C 
ATOM     20  C   UNL A   1      33.245  17.551  24.787  1.00  0.00    -0.001 C 
ATOM     21  C   UNL A   1      32.465  18.204  23.687  1.00  0.00     0.018 C 
ENDBRANCH  15  18
ENDBRANCH  13  14
ENDBRANCH   9  13
ENDBRANCH   6   8
ENDBRANCH   5   6
ENDBRANCH   4   5
ENDBRANCH   3   4
ENDBRANCH   2   3
ENDBRANCH   1   2
BRANCH   1  22
ATOM     22  C   UNL A   1      40.352  22.135  27.177  1.00  0.00     0.188 C 
BRANCH  22  23
ATOM     23  O   UNL A   1      40.629  20.774  27.492  1.00  0.00    -0.376 OA
BRANCH  23  24
ATOM     24  C   UNL A   1      40.586  19.851  26.398  1.00  0.00     0.202 C 
BRANCH  24  25
ATOM     25  C   UNL A   1      41.882  19.045  26.152  1.00  0.00     0.261 C 
BRANCH  25  26
ATOM     26  O   UNL A   1      42.618  19.423  24.971  1.00  0.00    -0.460 OA
BRANCH  26  27
ATOM     27  C   UNL A   1      43.913  19.779  25.152  1.00  0.00     0.338 C 
ATOM     28  O   UNL A   1      44.888  19.158  24.761  1.00  0.00    -0.246 OA
BRANCH  27  29
ATOM     29  C   UNL A   1      43.955  21.193  25.618  1.00  0.00     0.060 A 
ATOM     30  C   UNL A   1      43.747  22.196  24.658  1.00  0.00     0.016 A 
ATOM     31  C   UNL A   1      44.076  21.540  26.969  1.00  0.00     0.016 A 
ATOM     32  C   UNL A   1      43.736  23.540  25.033  1.00  0.00     0.010 A 
ATOM     33  C   UNL A   1      44.078  22.891  27.344  1.00  0.00     0.010 A 
ATOM     34  C   UNL A   1      43.964  23.897  26.368  1.00  0.00    -0.014 A 
BRANCH  34  35
ATOM     35  C   UNL A   1      44.393  25.287  26.666  1.00  0.00     0.031 A 
ATOM     36  C   UNL A   1      43.358  26.217  27.246  1.00  0.00     0.074 A 
ATOM     37  C   UNL A   1      45.655  25.718  26.485  1.00  0.00     0.049 A 
ATOM     38  N   UNL A   1      43.486  27.446  27.669  1.00  0.00    -0.248 NA
ATOM     39  C   UNL A   1      41.990  25.680  27.364  1.00  0.00     0.031 C 
ATOM     40  C   UNL A   1      46.754  24.934  25.927  1.00  0.00     0.029 A 
ATOM     41  N   UNL A   1      46.216  26.945  26.749  1.00  0.00    -0.354 N 
ATOM     42  C   UNL A   1      42.219  27.833  28.088  1.00  0.00     0.074 A 
ATOM     43  C   UNL A   1      41.330  26.721  27.847  1.00  0.00     0.031 C 
ATOM     44  C   UNL A   1      47.855  25.709  25.870  1.00  0.00     0.029 A 
ATOM     45  C   UNL A   1      47.537  27.042  26.383  1.00  0.00     0.049 A 
ATOM     46  H   UNL A   1      45.717  27.687  27.162  1.00  0.00     0.167 HD
ATOM     47  C   UNL A   1      41.825  28.999  28.647  1.00  0.00     0.034 A 
ATOM     48  C   UNL A   1      48.389  28.088  26.452  1.00  0.00     0.034 A 
ATOM     49  C   UNL A   1      42.699  30.109  28.901  1.00  0.00     0.049 A 
ATOM     50  C   UNL A   1      47.924  29.386  27.069  1.00  0.00     0.074 A 
ATOM     51  C   UNL A   1      42.401  31.320  29.500  1.00  0.00     0.029 A 
ATOM     52  N   UNL A   1      44.040  30.152  28.554  1.00  0.00    -0.354 N 
ATOM     53  N   UNL A   1      46.760  29.685  27.593  1.00  0.00    -0.248 NA
ATOM     54  C   UNL A   1      48.908  30.477  27.143  1.00  0.00     0.031 C 
ATOM     55  C   UNL A   1      43.558  32.105  29.494  1.00  0.00     0.029 A 
ATOM     56  C   UNL A   1      44.583  31.371  28.918  1.00  0.00     0.049 A 
ATOM     57  H   UNL A   1      44.533  29.422  28.115  1.00  0.00     0.167 HD
ATOM     58  C   UNL A   1      46.884  30.980  28.091  1.00  0.00     0.074 A 
ATOM     59  C   UNL A   1      48.244  31.399  27.827  1.00  0.00     0.031 C 
ATOM     60  C   UNL A   1      45.953  31.756  28.702  1.00  0.00     0.034 A 
BRANCH  47  61
ATOM     61  C   UNL A   1      40.379  29.117  29.042  1.00  0.00     0.023 A 
ATOM     62  C   UNL A   1      39.400  29.326  28.050  1.00  0.00     0.012 A 
ATOM     63  C   UNL A   1      39.987  29.001  30.389  1.00  0.00     0.148 A 
ATOM     64  C   UNL A   1      38.055  29.451  28.396  1.00  0.00     0.002 A 
ATOM     65  C   UNL A   1      38.642  29.082  30.721  1.00  0.00     0.091 A 
ATOM     66  F   UNL A   1      40.938  28.837  31.319  1.00  0.00    -0.205 F 
ATOM     67  C   UNL A   1      37.676  29.319  29.728  1.00  0.00     0.022 A 
BRANCH  65  68
ATOM     68  S   UNL A   1      38.047  28.851  32.399  1.00  0.00     0.127 S 
ATOM     69  O   UNL A   1      38.876  29.802  33.139  1.00  0.00    -0.237 OA
ATOM     70  O   UNL A   1      36.639  29.231  32.282  1.00  0.00    -0.237 OA
ATOM     71  O   UNL A   1      38.273  27.447  32.713  1.00  0.00    -0.744 OA
ENDBRANCH  65  68
ENDBRANCH  47  61
BRANCH  48  72
ATOM     72  C   UNL A   1      49.792  27.946  25.964  1.00  0.00     0.023 A 
ATOM     73  C   UNL A   1      50.068  28.061  24.588  1.00  0.00     0.012 A 
ATOM     74  C   UNL A   1      50.850  27.688  26.856  1.00  0.00     0.148 A 
ATOM     75  C   UNL A   1      51.366  27.889  24.105  1.00  0.00     0.002 A 
ATOM     76  C   UNL A   1      52.149  27.572  26.375  1.00  0.00     0.091 A 
ATOM     77  F   UNL A   1      50.564  27.561  28.160  1.00  0.00    -0.205 F 
ATOM     78  C   UNL A   1      52.407  27.655  24.999  1.00  0.00     0.022 A 
BRANCH  76  79
ATOM     79  S   UNL A   1      53.566  27.384  27.462  1.00  0.00     0.127 S 
ATOM     80  O   UNL A   1      53.333  26.060  28.033  1.00  0.00    -0.237 OA
ATOM     81  O   UNL A   1      54.681  27.461  26.517  1.00  0.00    -0.237 OA
ATOM     82  O   UNL A   1      53.495  28.498  28.398  1.00  0.00    -0.744 OA
ENDBRANCH  76  79
ENDBRANCH  48  72
BRANCH  60  83
ATOM     83  C   UNL A   1      46.374  33.127  29.169  1.00  0.00     0.023 A 
ATOM     84  C   UNL A   1      47.075  33.273  30.384  1.00  0.00     0.012 A 
ATOM     85  C   UNL A   1      46.139  34.263  28.368  1.00  0.00     0.148 A 
ATOM     86  C   UNL A   1      47.499  34.531  30.811  1.00  0.00     0.002 A 
ATOM     87  C   UNL A   1      46.609  35.506  28.777  1.00  0.00     0.091 A 
ATOM     88  F   UNL A   1      45.456  34.111  27.224  1.00  0.00    -0.205 F 
ATOM     89  C   UNL A   1      47.277  35.645  30.004  1.00  0.00     0.022 A 
BRANCH  87  90
ATOM     90  S   UNL A   1      46.452  36.971  27.748  1.00  0.00     0.127 S 
ATOM     91  O   UNL A   1      47.654  36.886  26.921  1.00  0.00    -0.237 OA
ATOM     92  O   UNL A   1      45.200  36.721  27.032  1.00  0.00    -0.237 OA
ATOM     93  O   UNL A   1      46.399  38.098  28.670  1.00  0.00    -0.744 OA
ENDBRANCH  87  90
ENDBRANCH  60  83
ENDBRANCH  34  35
ENDBRANCH  27  29
ENDBRANCH  26  27
ENDBRANCH  25  26
ENDBRANCH  24  25
ENDBRANCH  23  24
ENDBRANCH  22  23
ENDBRANCH   1  22
TORSDOF 23
ENDMDL
MODEL 2
REMARK VINA RESULT:      -9.0      2.611      8.579
REMARK SMILES C[C@H]1C[C@@H]1C(=O)NC[C@@H]1CC[C@H](C(=O)OCCOCCOCCOC(=O)c2ccc(-c3c4nc(c(-c5cccc(S(=O)(=O)[O-])c5F)c5ccc([nH]5)c(-c5cccc(S(=O)(=O)[O-])c5F)c5nc(c(-c6cccc(S(=O)(=O)[O-])c6F)c6ccc3[nH]6)C=C5)C=C4)cc2)O1
REMARK SMILES IDX 19 1 18 2 17 3 16 4 15 5 13 6 14 7 12 8 9 9 10 10 90 11
REMARK SMILES IDX 11 12 8 13 7 14 5 15 6 16 4 18 1 19 2 20 3 21 20 22 21 23
REMARK SMILES IDX 22 24 23 25 24 26 25 27 26 28 27 29 28 30 89 31 29 32 88 33
REMARK SMILES IDX 30 34 31 35 32 36 82 37 33 38 87 39 81 40 83 41 34 42 86 43
REMARK SMILES IDX 80 44 79 45 35 47 67 48 47 49 66 50 48 51 51 52 65 53 84 54
REMARK SMILES IDX 49 55 50 56 64 58 85 59 52 60 36 61 37 62 45 63 38 64 40 65
REMARK SMILES IDX 46 66 39 67 41 68 42 69 43 70 44 71 68 72 69 73 77 74 70 75
REMARK SMILES IDX 72 76 78 77 71 78 73 79 74 80 75 81 76 82 53 83 54 84 62 85
REMARK SMILES IDX 55 86 57 87 63 88 56 89 58 90 59 91 60 92 61 93
REMARK H PARENT 7 17 83 46 51 57
REMARK Flexibility Score: inf
ROOT
ATOM      1  C   UNL A   1      35.284  23.305  26.114  1.00  0.00     0.188 C 
ENDROOT
BRANCH   1   2
ATOM      2  O   UNL A   1      33.941  23.651  26.442  1.00  0.00    -0.376 OA
BRANCH   2   3
ATOM      3  C   UNL A   1      33.018  22.566  26.511  1.00  0.00     0.202 C 
BRANCH   3   4
ATOM      4  C   UNL A   1      31.903  22.580  25.457  1.00  0.00     0.261 C 
BRANCH   4   5
ATOM      5  O   UNL A   1      32.366  22.448  24.093  1.00  0.00    -0.461 OA
BRANCH   5   6
ATOM      6  C   UNL A   1      31.872  23.349  23.200  1.00  0.00     0.335 C 
ATOM      7  O   UNL A   1      30.678  23.599  23.063  1.00  0.00    -0.249 OA
BRANCH   6   8
ATOM      8  C   UNL A   1      32.965  24.103  22.415  1.00  0.00     0.228 C 
ATOM      9  C   UNL A   1      33.437  26.110  23.508  1.00  0.00     0.138 C 
ATOM     10  C   UNL A   1      32.442  26.404  22.386  1.00  0.00     0.037 C 
ATOM     11  O   UNL A   1      33.872  24.746  23.330  1.00  0.00    -0.361 OA
ATOM     12  C   UNL A   1      32.551  25.211  21.473  1.00  0.00     0.047 C 
BRANCH   9  13
ATOM     13  C   UNL A   1      32.888  26.291  24.940  1.00  0.00     0.147 C 
BRANCH  13  14
ATOM     14  N   UNL A   1      33.851  26.882  25.855  1.00  0.00    -0.353 N 
ATOM     15  C   UNL A   1      33.901  28.165  26.326  1.00  0.00     0.223 C 
ATOM     16  O   UNL A   1      34.905  28.553  26.915  1.00  0.00    -0.275 OA
ATOM     17  H   UNL A   1      34.558  26.280  26.179  1.00  0.00     0.163 HD
BRANCH  15  18
ATOM     18  C   UNL A   1      32.721  29.057  26.140  1.00  0.00     0.081 C 
ATOM     19  C   UNL A   1      31.711  31.394  26.748  1.00  0.00     0.008 C 
ATOM     20  C   UNL A   1      32.339  30.104  27.164  1.00  0.00    -0.001 C 
ATOM     21  C   UNL A   1      31.520  28.855  27.048  1.00  0.00     0.018 C 
ENDBRANCH  15  18
ENDBRANCH  13  14
ENDBRANCH   9  13
ENDBRANCH   6   8
ENDBRANCH   5   6
ENDBRANCH   4   5
ENDBRANCH   3   4
ENDBRANCH   2   3
ENDBRANCH   1   2
BRANCH   1  22
ATOM     22  C   UNL A   1      35.509  21.820  25.811  1.00  0.00     0.188 C 
BRANCH  22  23
ATOM     23  O   UNL A   1      36.331  21.529  24.685  1.00  0.00    -0.376 OA
BRANCH  23  24
ATOM     24  C   UNL A   1      37.559  20.843  24.959  1.00  0.00     0.202 C 
BRANCH  24  25
ATOM     25  C   UNL A   1      38.554  21.595  25.873  1.00  0.00     0.261 C 
BRANCH  25  26
ATOM     26  O   UNL A   1      39.899  21.077  25.860  1.00  0.00    -0.460 OA
BRANCH  26  27
ATOM     27  C   UNL A   1      40.547  21.044  27.050  1.00  0.00     0.338 C 
ATOM     28  O   UNL A   1      40.813  20.041  27.693  1.00  0.00    -0.246 OA
BRANCH  27  29
ATOM     29  C   UNL A   1      41.160  22.379  27.294  1.00  0.00     0.060 A 
ATOM     30  C   UNL A   1      41.621  22.651  28.591  1.00  0.00     0.016 A 
ATOM     31  C   UNL A   1      41.390  23.303  26.267  1.00  0.00     0.016 A 
ATOM     32  C   UNL A   1      42.239  23.869  28.879  1.00  0.00     0.010 A 
ATOM     33  C   UNL A   1      42.000  24.531  26.559  1.00  0.00     0.010 A 
ATOM     34  C   UNL A   1      42.375  24.839  27.879  1.00  0.00    -0.014 A 
BRANCH  34  35
ATOM     35  C   UNL A   1      42.606  26.249  28.287  1.00  0.00     0.031 A 
ATOM     36  C   UNL A   1      44.008  26.785  28.146  1.00  0.00     0.074 A 
ATOM     37  C   UNL A   1      41.620  27.056  28.721  1.00  0.00     0.049 A 
ATOM     38  N   UNL A   1      44.462  27.992  28.350  1.00  0.00    -0.248 NA
ATOM     39  C   UNL A   1      45.036  25.821  27.712  1.00  0.00     0.031 C 
ATOM     40  C   UNL A   1      40.225  26.671  28.914  1.00  0.00     0.029 A 
ATOM     41  N   UNL A   1      41.661  28.379  29.091  1.00  0.00    -0.354 N 
ATOM     42  C   UNL A   1      45.825  27.930  28.085  1.00  0.00     0.074 A 
ATOM     43  C   UNL A   1      46.131  26.564  27.730  1.00  0.00     0.031 C 
ATOM     44  C   UNL A   1      39.544  27.732  29.389  1.00  0.00     0.029 A 
ATOM     45  C   UNL A   1      40.456  28.867  29.536  1.00  0.00     0.049 A 
ATOM     46  H   UNL A   1      42.477  28.927  29.041  1.00  0.00     0.167 HD
ATOM     47  C   UNL A   1      46.744  28.921  28.110  1.00  0.00     0.034 A 
ATOM     48  C   UNL A   1      40.130  30.089  30.011  1.00  0.00     0.034 A 
ATOM     49  C   UNL A   1      46.453  30.284  28.452  1.00  0.00     0.049 A 
ATOM     50  C   UNL A   1      41.176  31.179  30.041  1.00  0.00     0.074 A 
ATOM     51  C   UNL A   1      47.311  31.369  28.468  1.00  0.00     0.029 A 
ATOM     52  N   UNL A   1      45.211  30.748  28.857  1.00  0.00    -0.354 N 
ATOM     53  N   UNL A   1      42.426  31.139  29.649  1.00  0.00    -0.248 NA
ATOM     54  C   UNL A   1      40.750  32.496  30.540  1.00  0.00     0.031 C 
ATOM     55  C   UNL A   1      46.592  32.486  28.906  1.00  0.00     0.029 A 
ATOM     56  C   UNL A   1      45.280  32.101  29.134  1.00  0.00     0.049 A 
ATOM     57  H   UNL A   1      44.401  30.195  28.936  1.00  0.00     0.167 HD
ATOM     58  C   UNL A   1      42.923  32.429  29.817  1.00  0.00     0.074 A 
ATOM     59  C   UNL A   1      41.832  33.232  30.325  1.00  0.00     0.031 C 
ATOM     60  C   UNL A   1      44.173  32.904  29.584  1.00  0.00     0.034 A 
BRANCH  47  61
ATOM     61  C   UNL A   1      48.154  28.560  27.731  1.00  0.00     0.023 A 
ATOM     62  C   UNL A   1      48.566  28.676  26.388  1.00  0.00     0.012 A 
ATOM     63  C   UNL A   1      49.074  28.126  28.704  1.00  0.00     0.148 A 
ATOM     64  C   UNL A   1      49.865  28.334  26.013  1.00  0.00     0.002 A 
ATOM     65  C   UNL A   1      50.378  27.831  28.330  1.00  0.00     0.091 A 
ATOM     66  F   UNL A   1      48.651  27.991  29.969  1.00  0.00    -0.205 F 
ATOM     67  C   UNL A   1      50.772  27.922  26.985  1.00  0.00     0.022 A 
BRANCH  65  68
ATOM     68  S   UNL A   1      51.639  27.363  29.520  1.00  0.00     0.127 S 
ATOM     69  O   UNL A   1      52.726  26.931  28.642  1.00  0.00    -0.237 OA
ATOM     70  O   UNL A   1      51.885  28.624  30.219  1.00  0.00    -0.237 OA
ATOM     71  O   UNL A   1      51.045  26.319  30.343  1.00  0.00    -0.744 OA
ENDBRANCH  65  68
ENDBRANCH  47  61
BRANCH  48  72
ATOM     72  C   UNL A   1      38.734  30.372  30.458  1.00  0.00     0.023 A 
ATOM     73  C   UNL A   1      38.288  29.886  31.703  1.00  0.00     0.012 A 
ATOM     74  C   UNL A   1      37.848  31.111  29.652  1.00  0.00     0.148 A 
ATOM     75  C   UNL A   1      36.973  30.102  32.121  1.00  0.00     0.002 A 
ATOM     76  C   UNL A   1      36.556  31.370  30.099  1.00  0.00     0.091 A 
ATOM     77  F   UNL A   1      38.285  31.547  28.462  1.00  0.00    -0.205 F 
ATOM     78  C   UNL A   1      36.112  30.852  31.325  1.00  0.00     0.022 A 
BRANCH  76  79
ATOM     79  S   UNL A   1      35.415  32.421  29.194  1.00  0.00     0.127 S 
ATOM     80  O   UNL A   1      36.178  33.661  29.078  1.00  0.00    -0.237 OA
ATOM     81  O   UNL A   1      35.251  31.678  27.944  1.00  0.00    -0.237 OA
ATOM     82  O   UNL A   1      34.213  32.492  30.013  1.00  0.00    -0.744 OA
ENDBRANCH  76  79
ENDBRANCH  48  72
BRANCH  60  83
ATOM     83  C   UNL A   1      44.430  34.369  29.833  1.00  0.00     0.023 A 
ATOM     84  C   UNL A   1      44.955  34.791  31.071  1.00  0.00     0.012 A 
ATOM     85  C   UNL A   1      44.220  35.319  28.814  1.00  0.00     0.148 A 
ATOM     86  C   UNL A   1      45.229  36.138  31.303  1.00  0.00     0.002 A 
ATOM     87  C   UNL A   1      44.543  36.654  29.035  1.00  0.00     0.091 A 
ATOM     88  F   UNL A   1      43.704  34.906  27.647  1.00  0.00    -0.205 F 
ATOM     89  C   UNL A   1      45.034  37.068  30.284  1.00  0.00     0.022 A 
BRANCH  87  90
ATOM     90  S   UNL A   1      44.416  37.894  27.742  1.00  0.00     0.127 S 
ATOM     91  O   UNL A   1      43.188  37.491  27.060  1.00  0.00    -0.237 OA
ATOM     92  O   UNL A   1      44.309  39.137  28.506  1.00  0.00    -0.237 OA
ATOM     93  O   UNL A   1      45.639  37.776  26.959  1.00  0.00    -0.744 OA
ENDBRANCH  87  90
ENDBRANCH  60  83
ENDBRANCH  34  35
ENDBRANCH  27  29
ENDBRANCH  26  27
ENDBRANCH  25  26
ENDBRANCH  24  25
ENDBRANCH  23  24
ENDBRANCH  22  23
ENDBRANCH   1  22
TORSDOF 23
ENDMDL
MODEL 3
REMARK VINA RESULT:      -9.0      2.978      8.621
REMARK SMILES C[C@H]1C[C@@H]1C(=O)NC[C@@H]1CC[C@H](C(=O)OCCOCCOCCOC(=O)c2ccc(-c3c4nc(c(-c5cccc(S(=O)(=O)[O-])c5F)c5ccc([nH]5)c(-c5cccc(S(=O)(=O)[O-])c5F)c5nc(c(-c6cccc(S(=O)(=O)[O-])c6F)c6ccc3[nH]6)C=C5)C=C4)cc2)O1
REMARK SMILES IDX 19 1 18 2 17 3 16 4 15 5 13 6 14 7 12 8 9 9 10 10 90 11
REMARK SMILES IDX 11 12 8 13 7 14 5 15 6 16 4 18 1 19 2 20 3 21 20 22 21 23
REMARK SMILES IDX 22 24 23 25 24 26 25 27 26 28 27 29 28 30 89 31 29 32 88 33
REMARK SMILES IDX 30 34 31 35 32 36 82 37 33 38 87 39 81 40 83 41 34 42 86 43
REMARK SMILES IDX 80 44 79 45 35 47 67 48 47 49 66 50 48 51 51 52 65 53 84 54
REMARK SMILES IDX 49 55 50 56 64 58 85 59 52 60 36 61 37 62 45 63 38 64 40 65
REMARK SMILES IDX 46 66 39 67 41 68 42 69 43 70 44 71 68 72 69 73 77 74 70 75
REMARK SMILES IDX 72 76 78 77 71 78 73 79 74 80 75 81 76 82 53 83 54 84 62 85
REMARK SMILES IDX 55 86 57 87 63 88 56 89 58 90 59 91 60 92 61 93
REMARK H PARENT 7 17 83 46 51 57
REMARK Flexibility Score: inf
ROOT
ATOM      1  C   UNL A   1      39.313  22.936  26.524  1.00  0.00     0.188 C 
ENDROOT
BRANCH   1   2
ATOM      2  O   UNL A   1      37.989  23.209  26.073  1.00  0.00    -0.376 OA
BRANCH   2   3
ATOM      3  C   UNL A   1      37.397  22.213  25.241  1.00  0.00     0.202 C 
BRANCH   3   4
ATOM      4  C   UNL A   1      36.390  22.730  24.207  1.00  0.00     0.261 C 
BRANCH   4   5
ATOM      5  O   UNL A   1      35.108  23.112  24.757  1.00  0.00    -0.461 OA
BRANCH   5   6
ATOM      6  C   UNL A   1      34.017  22.483  24.238  1.00  0.00     0.335 C 
ATOM      7  O   UNL A   1      33.778  22.399  23.038  1.00  0.00    -0.249 OA
BRANCH   6   8
ATOM      8  C   UNL A   1      33.134  21.801  25.303  1.00  0.00     0.228 C 
ATOM      9  C   UNL A   1      32.063  23.445  26.566  1.00  0.00     0.138 C 
ATOM     10  C   UNL A   1      33.311  23.000  27.328  1.00  0.00     0.037 C 
ATOM     11  O   UNL A   1      31.903  22.531  25.462  1.00  0.00    -0.361 OA
ATOM     12  C   UNL A   1      33.666  21.672  26.713  1.00  0.00     0.047 C 
BRANCH   9  13
ATOM     13  C   UNL A   1      32.098  24.894  26.033  1.00  0.00     0.147 C 
BRANCH  13  14
ATOM     14  N   UNL A   1      31.492  25.855  26.939  1.00  0.00    -0.353 N 
ATOM     15  C   UNL A   1      31.529  27.221  26.880  1.00  0.00     0.223 C 
ATOM     16  O   UNL A   1      31.152  27.878  27.846  1.00  0.00    -0.275 OA
ATOM     17  H   UNL A   1      30.988  25.474  27.694  1.00  0.00     0.163 HD
BRANCH  15  18
ATOM     18  C   UNL A   1      31.999  27.884  25.631  1.00  0.00     0.081 C 
ATOM     19  C   UNL A   1      33.935  27.965  23.869  1.00  0.00     0.008 C 
ATOM     20  C   UNL A   1      33.469  27.999  25.289  1.00  0.00    -0.001 C 
ATOM     21  C   UNL A   1      32.725  29.213  25.754  1.00  0.00     0.018 C 
ENDBRANCH  15  18
ENDBRANCH  13  14
ENDBRANCH   9  13
ENDBRANCH   6   8
ENDBRANCH   5   6
ENDBRANCH   4   5
ENDBRANCH   3   4
ENDBRANCH   2   3
ENDBRANCH   1   2
BRANCH   1  22
ATOM     22  C   UNL A   1      39.743  21.471  26.403  1.00  0.00     0.188 C 
BRANCH  22  23
ATOM     23  O   UNL A   1      40.418  20.923  27.531  1.00  0.00    -0.376 OA
BRANCH  23  24
ATOM     24  C   UNL A   1      41.511  20.041  27.247  1.00  0.00     0.202 C 
BRANCH  24  25
ATOM     25  C   UNL A   1      42.470  20.506  26.127  1.00  0.00     0.261 C 
BRANCH  25  26
ATOM     26  O   UNL A   1      43.234  21.689  26.435  1.00  0.00    -0.460 OA
BRANCH  26  27
ATOM     27  C   UNL A   1      43.178  22.698  25.532  1.00  0.00     0.338 C 
ATOM     28  O   UNL A   1      43.109  22.572  24.320  1.00  0.00    -0.246 OA
BRANCH  27  29
ATOM     29  C   UNL A   1      42.893  23.968  26.256  1.00  0.00     0.060 A 
ATOM     30  C   UNL A   1      42.655  25.114  25.483  1.00  0.00     0.016 A 
ATOM     31  C   UNL A   1      42.743  24.025  27.647  1.00  0.00     0.016 A 
ATOM     32  C   UNL A   1      42.346  26.328  26.097  1.00  0.00     0.010 A 
ATOM     33  C   UNL A   1      42.443  25.248  28.265  1.00  0.00     0.010 A 
ATOM     34  C   UNL A   1      42.300  26.415  27.495  1.00  0.00    -0.014 A 
BRANCH  34  35
ATOM     35  C   UNL A   1      42.421  27.754  28.125  1.00  0.00     0.031 A 
ATOM     36  C   UNL A   1      43.806  28.341  28.232  1.00  0.00     0.074 A 
ATOM     37  C   UNL A   1      41.358  28.463  28.547  1.00  0.00     0.049 A 
ATOM     38  N   UNL A   1      44.181  29.517  28.661  1.00  0.00    -0.248 NA
ATOM     39  C   UNL A   1      44.917  27.479  27.792  1.00  0.00     0.031 C 
ATOM     40  C   UNL A   1      39.967  28.019  28.513  1.00  0.00     0.029 A 
ATOM     41  N   UNL A   1      41.298  29.718  29.104  1.00  0.00    -0.354 N 
ATOM     42  C   UNL A   1      45.567  29.529  28.556  1.00  0.00     0.074 A 
ATOM     43  C   UNL A   1      45.970  28.238  28.049  1.00  0.00     0.031 C 
ATOM     44  C   UNL A   1      39.191  28.980  29.049  1.00  0.00     0.029 A 
ATOM     45  C   UNL A   1      40.030  30.105  29.466  1.00  0.00     0.049 A 
ATOM     46  H   UNL A   1      42.091  30.288  29.232  1.00  0.00     0.167 HD
ATOM     47  C   UNL A   1      46.434  30.529  28.834  1.00  0.00     0.034 A 
ATOM     48  C   UNL A   1      39.599  31.235  30.067  1.00  0.00     0.034 A 
ATOM     49  C   UNL A   1      46.046  31.819  29.329  1.00  0.00     0.049 A 
ATOM     50  C   UNL A   1      40.587  32.334  30.379  1.00  0.00     0.074 A 
ATOM     51  C   UNL A   1      46.849  32.912  29.603  1.00  0.00     0.029 A 
ATOM     52  N   UNL A   1      44.747  32.186  29.643  1.00  0.00    -0.354 N 
ATOM     53  N   UNL A   1      41.875  32.385  30.140  1.00  0.00    -0.248 NA
ATOM     54  C   UNL A   1      40.049  33.552  31.006  1.00  0.00     0.031 C 
ATOM     55  C   UNL A   1      46.036  33.933  30.106  1.00  0.00     0.029 A 
ATOM     56  C   UNL A   1      44.725  33.485  30.117  1.00  0.00     0.049 A 
ATOM     57  H   UNL A   1      43.957  31.607  29.543  1.00  0.00     0.167 HD
ATOM     58  C   UNL A   1      42.293  33.649  30.549  1.00  0.00     0.074 A 
ATOM     59  C   UNL A   1      41.116  34.340  31.031  1.00  0.00     0.031 C 
ATOM     60  C   UNL A   1      43.540  34.185  30.539  1.00  0.00     0.034 A 
BRANCH  47  61
ATOM     61  C   UNL A   1      47.892  30.264  28.580  1.00  0.00     0.023 A 
ATOM     62  C   UNL A   1      48.456  30.607  27.335  1.00  0.00     0.012 A 
ATOM     63  C   UNL A   1      48.706  29.696  29.578  1.00  0.00     0.148 A 
ATOM     64  C   UNL A   1      49.803  30.357  27.074  1.00  0.00     0.002 A 
ATOM     65  C   UNL A   1      50.056  29.492  29.327  1.00  0.00     0.091 A 
ATOM     66  F   UNL A   1      48.140  29.347  30.742  1.00  0.00    -0.205 F 
ATOM     67  C   UNL A   1      50.604  29.810  28.073  1.00  0.00     0.022 A 
BRANCH  65  68
ATOM     68  S   UNL A   1      51.183  28.862  30.573  1.00  0.00     0.127 S 
ATOM     69  O   UNL A   1      50.631  27.532  30.825  1.00  0.00    -0.237 OA
ATOM     70  O   UNL A   1      52.462  28.866  29.863  1.00  0.00    -0.237 OA
ATOM     71  O   UNL A   1      51.107  29.794  31.690  1.00  0.00    -0.744 OA
ENDBRANCH  65  68
ENDBRANCH  47  61
BRANCH  48  72
ATOM     72  C   UNL A   1      38.150  31.413  30.378  1.00  0.00     0.023 A 
ATOM     73  C   UNL A   1      37.612  30.844  31.549  1.00  0.00     0.012 A 
ATOM     74  C   UNL A   1      37.304  32.135  29.515  1.00  0.00     0.148 A 
ATOM     75  C   UNL A   1      36.251  30.962  31.837  1.00  0.00     0.002 A 
ATOM     76  C   UNL A   1      35.961  32.294  29.836  1.00  0.00     0.091 A 
ATOM     77  F   UNL A   1      37.830  32.650  28.395  1.00  0.00    -0.205 F 
ATOM     78  C   UNL A   1      35.429  31.694  30.987  1.00  0.00     0.022 A 
BRANCH  76  79
ATOM     79  S   UNL A   1      34.852  33.316  28.860  1.00  0.00     0.127 S 
ATOM     80  O   UNL A   1      35.611  34.559  28.748  1.00  0.00    -0.237 OA
ATOM     81  O   UNL A   1      34.744  32.545  27.621  1.00  0.00    -0.237 OA
ATOM     82  O   UNL A   1      33.616  33.398  29.626  1.00  0.00    -0.744 OA
ENDBRANCH  76  79
ENDBRANCH  48  72
BRANCH  60  83
ATOM     83  C   UNL A   1      43.703  35.603  31.024  1.00  0.00     0.023 A 
ATOM     84  C   UNL A   1      44.007  35.854  32.378  1.00  0.00     0.012 A 
ATOM     85  C   UNL A   1      43.627  36.684  30.123  1.00  0.00     0.148 A 
ATOM     86  C   UNL A   1      44.194  37.158  32.833  1.00  0.00     0.002 A 
ATOM     87  C   UNL A   1      43.864  37.978  30.575  1.00  0.00     0.091 A 
ATOM     88  F   UNL A   1      43.321  36.432  28.842  1.00  0.00    -0.205 F 
ATOM     89  C   UNL A   1      44.134  38.219  31.931  1.00  0.00     0.022 A 
BRANCH  87  90
ATOM     90  S   UNL A   1      43.905  39.386  29.459  1.00  0.00     0.127 S 
ATOM     91  O   UNL A   1      44.534  40.409  30.291  1.00  0.00    -0.237 OA
ATOM     92  O   UNL A   1      44.739  38.895  28.361  1.00  0.00    -0.237 OA
ATOM     93  O   UNL A   1      42.518  39.639  29.090  1.00  0.00    -0.744 OA
ENDBRANCH  87  90
ENDBRANCH  60  83
ENDBRANCH  34  35
ENDBRANCH  27  29
ENDBRANCH  26  27
ENDBRANCH  25  26
ENDBRANCH  24  25
ENDBRANCH  23  24
ENDBRANCH  22  23
ENDBRANCH   1  22
TORSDOF 23
ENDMDL
