MODEL 1
REMARK VINA RESULT:     -10.8      0.000      0.000
REMARK SMILES CC[C@H]1CC[C@@](C(=O)OCCOCCOCCOC(=O)c2ccc(-c3c4nc(c(-c5cccc(S(=O)(=O)[O-])c5F)c5ccc([nH]5)c(-c5cccc(S(=O)(=O)[O-])c5F)c5nc(c(-c6cccc(S(=O)(=O)[O-])c6F)c6ccc3[nH]6)C=C5)C=C4)cc2)(C2CCCC2)C1
REMARK SMILES IDX 14 1 13 2 12 3 11 4 10 5 9 6 7 7 8 8 6 9 3 10 4 11 89 12
REMARK SMILES IDX 5 13 2 14 1 15 84 16 85 17 88 18 86 19 87 20 15 21 16 22
REMARK SMILES IDX 17 23 18 24 19 25 20 26 21 27 22 28 83 29 23 30 82 31 24 32
REMARK SMILES IDX 25 33 26 34 76 35 27 36 81 37 75 38 77 39 28 40 80 41 74 42
REMARK SMILES IDX 73 43 29 45 61 46 41 47 60 48 42 49 45 50 59 51 78 52 43 53
REMARK SMILES IDX 44 54 58 56 79 57 46 58 30 59 31 60 39 61 32 62 34 63 40 64
REMARK SMILES IDX 33 65 35 66 36 67 37 68 38 69 62 70 63 71 71 72 64 73 66 74
REMARK SMILES IDX 72 75 65 76 67 77 68 78 69 79 70 80 47 81 48 82 56 83 49 84
REMARK SMILES IDX 51 85 57 86 50 87 52 88 53 89 54 90 55 91
REMARK H PARENT 77 44 45 55
REMARK Flexibility Score: inf
ROOT
ATOM      1  C   UNL A   1      43.257  21.122  25.894  1.00  0.00     0.188 C 
ENDROOT
BRANCH   1   2
ATOM      2  C   UNL A   1      41.757  20.883  26.104  1.00  0.00     0.188 C 
BRANCH   2   3
ATOM      3  O   UNL A   1      41.082  21.754  26.980  1.00  0.00    -0.376 OA
BRANCH   3   4
ATOM      4  C   UNL A   1      39.844  22.309  26.564  1.00  0.00     0.202 C 
BRANCH   4   5
ATOM      5  C   UNL A   1      38.746  21.544  25.792  1.00  0.00     0.261 C 
BRANCH   5   6
ATOM      6  O   UNL A   1      37.397  22.047  25.851  1.00  0.00    -0.463 OA
BRANCH   6   7
ATOM      7  C   UNL A   1      36.757  22.186  24.656  1.00  0.00     0.312 C 
ATOM      8  O   UNL A   1      37.294  21.941  23.579  1.00  0.00    -0.252 OA
BRANCH   7   9
ATOM      9  C   UNL A   1      35.294  22.708  24.732  1.00  0.00     0.071 C 
ATOM     10  C   UNL A   1      34.334  24.940  24.053  1.00  0.00    -0.010 C 
ATOM     11  C   UNL A   1      34.528  24.956  25.560  1.00  0.00     0.005 C 
ATOM     12  C   UNL A   1      35.208  23.766  23.592  1.00  0.00     0.022 C 
ATOM     13  C   UNL A   1      34.913  23.536  25.983  1.00  0.00     0.019 C 
BRANCH  10  14
ATOM     14  C   UNL A   1      32.863  24.843  23.628  1.00  0.00     0.000 C 
ATOM     15  C   UNL A   1      32.420  25.932  22.666  1.00  0.00     0.004 C 
ENDBRANCH  10  14
BRANCH   9  16
ATOM     16  C   UNL A   1      34.370  21.457  24.455  1.00  0.00     0.006 C 
ATOM     17  C   UNL A   1      34.873  20.073  24.897  1.00  0.00     0.005 C 
ATOM     18  C   UNL A   1      32.990  21.449  25.108  1.00  0.00     0.005 C 
ATOM     19  C   UNL A   1      33.652  19.156  24.789  1.00  0.00     0.000 C 
ATOM     20  C   UNL A   1      32.433  20.059  24.861  1.00  0.00     0.000 C 
ENDBRANCH   9  16
ENDBRANCH   7   9
ENDBRANCH   6   7
ENDBRANCH   5   6
ENDBRANCH   4   5
ENDBRANCH   3   4
ENDBRANCH   2   3
ENDBRANCH   1   2
BRANCH   1  21
ATOM     21  O   UNL A   1      43.972  20.429  24.896  1.00  0.00    -0.376 OA
BRANCH  21  22
ATOM     22  C   UNL A   1      44.781  21.158  23.988  1.00  0.00     0.202 C 
BRANCH  22  23
ATOM     23  C   UNL A   1      44.626  22.669  23.720  1.00  0.00     0.261 C 
BRANCH  23  24
ATOM     24  O   UNL A   1      43.900  23.446  24.679  1.00  0.00    -0.460 OA
BRANCH  24  25
ATOM     25  C   UNL A   1      44.538  24.557  25.126  1.00  0.00     0.338 C 
ATOM     26  O   UNL A   1      45.588  25.020  24.697  1.00  0.00    -0.246 OA
BRANCH  25  27
ATOM     27  C   UNL A   1      43.656  25.289  26.061  1.00  0.00     0.060 A 
ATOM     28  C   UNL A   1      43.713  26.691  26.053  1.00  0.00     0.016 A 
ATOM     29  C   UNL A   1      42.804  24.627  26.947  1.00  0.00     0.016 A 
ATOM     30  C   UNL A   1      42.940  27.432  26.944  1.00  0.00     0.010 A 
ATOM     31  C   UNL A   1      42.047  25.374  27.862  1.00  0.00     0.010 A 
ATOM     32  C   UNL A   1      42.128  26.778  27.880  1.00  0.00    -0.014 A 
BRANCH  32  33
ATOM     33  C   UNL A   1      41.557  27.568  29.000  1.00  0.00     0.031 A 
ATOM     34  C   UNL A   1      42.345  27.654  30.279  1.00  0.00     0.074 A 
ATOM     35  C   UNL A   1      40.396  28.238  28.887  1.00  0.00     0.049 A 
ATOM     36  N   UNL A   1      42.068  28.300  31.382  1.00  0.00    -0.248 NA
ATOM     37  C   UNL A   1      43.619  26.918  30.312  1.00  0.00     0.031 C 
ATOM     38  C   UNL A   1      39.548  28.266  27.699  1.00  0.00     0.029 A 
ATOM     39  N   UNL A   1      39.728  29.025  29.795  1.00  0.00    -0.354 N 
ATOM     40  C   UNL A   1      43.117  28.027  32.250  1.00  0.00     0.074 A 
ATOM     41  C   UNL A   1      44.037  27.159  31.545  1.00  0.00     0.031 C 
ATOM     42  C   UNL A   1      38.467  29.026  27.951  1.00  0.00     0.029 A 
ATOM     43  C   UNL A   1      38.525  29.504  29.332  1.00  0.00     0.049 A 
ATOM     44  H   UNL A   1      40.077  29.225  30.694  1.00  0.00     0.167 HD
ATOM     45  C   UNL A   1      43.304  28.456  33.519  1.00  0.00     0.034 A 
ATOM     46  C   UNL A   1      37.570  30.223  29.959  1.00  0.00     0.034 A 
ATOM     47  C   UNL A   1      42.389  29.303  34.233  1.00  0.00     0.049 A 
ATOM     48  C   UNL A   1      37.776  30.639  31.397  1.00  0.00     0.074 A 
ATOM     49  C   UNL A   1      42.501  29.793  35.522  1.00  0.00     0.029 A 
ATOM     50  N   UNL A   1      41.183  29.767  33.734  1.00  0.00    -0.354 N 
ATOM     51  N   UNL A   1      38.815  30.451  32.174  1.00  0.00    -0.248 NA
ATOM     52  C   UNL A   1      36.684  31.391  32.036  1.00  0.00     0.031 C 
ATOM     53  C   UNL A   1      41.343  30.519  35.817  1.00  0.00     0.029 A 
ATOM     54  C   UNL A   1      40.532  30.525  34.693  1.00  0.00     0.049 A 
ATOM     55  H   UNL A   1      40.838  29.584  32.829  1.00  0.00     0.167 HD
ATOM     56  C   UNL A   1      38.517  31.091  33.375  1.00  0.00     0.074 A 
ATOM     57  C   UNL A   1      37.210  31.691  33.215  1.00  0.00     0.031 C 
ATOM     58  C   UNL A   1      39.256  31.165  34.511  1.00  0.00     0.034 A 
BRANCH  45  59
ATOM     59  C   UNL A   1      44.548  27.992  34.227  1.00  0.00     0.023 A 
ATOM     60  C   UNL A   1      45.721  28.772  34.173  1.00  0.00     0.012 A 
ATOM     61  C   UNL A   1      44.545  26.795  34.968  1.00  0.00     0.148 A 
ATOM     62  C   UNL A   1      46.882  28.349  34.818  1.00  0.00     0.002 A 
ATOM     63  C   UNL A   1      45.690  26.405  35.647  1.00  0.00     0.091 A 
ATOM     64  F   UNL A   1      43.426  26.057  34.983  1.00  0.00    -0.205 F 
ATOM     65  C   UNL A   1      46.863  27.172  35.562  1.00  0.00     0.022 A 
BRANCH  63  66
ATOM     66  S   UNL A   1      45.744  24.948  36.695  1.00  0.00     0.127 S 
ATOM     67  O   UNL A   1      44.664  25.225  37.641  1.00  0.00    -0.237 OA
ATOM     68  O   UNL A   1      45.460  23.875  35.742  1.00  0.00    -0.237 OA
ATOM     69  O   UNL A   1      47.081  24.915  37.270  1.00  0.00    -0.744 OA
ENDBRANCH  63  66
ENDBRANCH  45  59
BRANCH  46  70
ATOM     70  C   UNL A   1      36.315  30.602  29.245  1.00  0.00     0.023 A 
ATOM     71  C   UNL A   1      35.585  29.624  28.541  1.00  0.00     0.012 A 
ATOM     72  C   UNL A   1      35.860  31.935  29.233  1.00  0.00     0.148 A 
ATOM     73  C   UNL A   1      34.451  29.973  27.805  1.00  0.00     0.002 A 
ATOM     74  C   UNL A   1      34.698  32.265  28.547  1.00  0.00     0.091 A 
ATOM     75  F   UNL A   1      36.579  32.856  29.890  1.00  0.00    -0.205 F 
ATOM     76  C   UNL A   1      34.002  31.291  27.815  1.00  0.00     0.022 A 
BRANCH  74  77
ATOM     77  S   UNL A   1      33.982  33.912  28.597  1.00  0.00     0.127 S 
ATOM     78  O   UNL A   1      35.008  34.705  27.925  1.00  0.00    -0.237 OA
ATOM     79  O   UNL A   1      32.748  33.725  27.834  1.00  0.00    -0.237 OA
ATOM     80  O   UNL A   1      33.779  34.212  30.008  1.00  0.00    -0.744 OA
ENDBRANCH  74  77
ENDBRANCH  46  70
BRANCH  58  81
ATOM     81  C   UNL A   1      38.704  31.969  35.664  1.00  0.00     0.023 A 
ATOM     82  C   UNL A   1      38.728  33.378  35.625  1.00  0.00     0.012 A 
ATOM     83  C   UNL A   1      38.095  31.322  36.758  1.00  0.00     0.148 A 
ATOM     84  C   UNL A   1      38.191  34.126  36.673  1.00  0.00     0.002 A 
ATOM     85  C   UNL A   1      37.514  32.073  37.772  1.00  0.00     0.091 A 
ATOM     86  F   UNL A   1      38.095  29.981  36.788  1.00  0.00    -0.205 F 
ATOM     87  C   UNL A   1      37.575  33.476  37.740  1.00  0.00     0.022 A 
BRANCH  85  88
ATOM     88  S   UNL A   1      36.610  31.323  39.132  1.00  0.00     0.127 S 
ATOM     89  O   UNL A   1      35.473  32.233  39.272  1.00  0.00    -0.237 OA
ATOM     90  O   UNL A   1      36.273  30.006  38.591  1.00  0.00    -0.237 OA
ATOM     91  O   UNL A   1      37.530  31.295  40.260  1.00  0.00    -0.744 OA
ENDBRANCH  85  88
ENDBRANCH  58  81
ENDBRANCH  32  33
ENDBRANCH  25  27
ENDBRANCH  24  25
ENDBRANCH  23  24
ENDBRANCH  22  23
ENDBRANCH  21  22
ENDBRANCH   1  21
TORSDOF 22
ENDMDL
MODEL 2
REMARK VINA RESULT:      -9.8      5.540     11.446
REMARK SMILES CC[C@H]1CC[C@@](C(=O)OCCOCCOCCOC(=O)c2ccc(-c3c4nc(c(-c5cccc(S(=O)(=O)[O-])c5F)c5ccc([nH]5)c(-c5cccc(S(=O)(=O)[O-])c5F)c5nc(c(-c6cccc(S(=O)(=O)[O-])c6F)c6ccc3[nH]6)C=C5)C=C4)cc2)(C2CCCC2)C1
REMARK SMILES IDX 14 1 13 2 12 3 11 4 10 5 9 6 7 7 8 8 6 9 3 10 4 11 89 12
REMARK SMILES IDX 5 13 2 14 1 15 84 16 85 17 88 18 86 19 87 20 15 21 16 22
REMARK SMILES IDX 17 23 18 24 19 25 20 26 21 27 22 28 83 29 23 30 82 31 24 32
REMARK SMILES IDX 25 33 26 34 76 35 27 36 81 37 75 38 77 39 28 40 80 41 74 42
REMARK SMILES IDX 73 43 29 45 61 46 41 47 60 48 42 49 45 50 59 51 78 52 43 53
REMARK SMILES IDX 44 54 58 56 79 57 46 58 30 59 31 60 39 61 32 62 34 63 40 64
REMARK SMILES IDX 33 65 35 66 36 67 37 68 38 69 62 70 63 71 71 72 64 73 66 74
REMARK SMILES IDX 72 75 65 76 67 77 68 78 69 79 70 80 47 81 48 82 56 83 49 84
REMARK SMILES IDX 51 85 57 86 50 87 52 88 53 89 54 90 55 91
REMARK H PARENT 77 44 45 55
REMARK Flexibility Score: inf
ROOT
ATOM      1  C   UNL A   1      34.752  35.384  33.658  1.00  0.00     0.188 C 
ENDROOT
BRANCH   1   2
ATOM      2  C   UNL A   1      33.729  34.823  32.663  1.00  0.00     0.188 C 
BRANCH   2   3
ATOM      3  O   UNL A   1      34.178  34.566  31.354  1.00  0.00    -0.376 OA
BRANCH   3   4
ATOM      4  C   UNL A   1      34.619  33.255  31.033  1.00  0.00     0.202 C 
BRANCH   4   5
ATOM      5  C   UNL A   1      34.595  32.636  29.617  1.00  0.00     0.261 C 
BRANCH   5   6
ATOM      6  O   UNL A   1      35.040  31.274  29.463  1.00  0.00    -0.463 OA
BRANCH   6   7
ATOM      7  C   UNL A   1      36.173  31.095  28.727  1.00  0.00     0.312 C 
ATOM      8  O   UNL A   1      36.197  31.197  27.503  1.00  0.00    -0.252 OA
BRANCH   7   9
ATOM      9  C   UNL A   1      37.449  30.721  29.535  1.00  0.00     0.071 C 
ATOM     10  C   UNL A   1      38.825  28.607  29.501  1.00  0.00    -0.010 C 
ATOM     11  C   UNL A   1      37.912  28.549  30.715  1.00  0.00     0.005 C 
ATOM     12  C   UNL A   1      38.187  29.694  28.625  1.00  0.00     0.022 C 
ATOM     13  C   UNL A   1      37.236  29.916  30.841  1.00  0.00     0.019 C 
BRANCH  10  14
ATOM     14  C   UNL A   1      40.296  28.857  29.855  1.00  0.00     0.000 C 
ATOM     15  C   UNL A   1      41.112  29.466  28.727  1.00  0.00     0.004 C 
ENDBRANCH  10  14
BRANCH   9  16
ATOM     16  C   UNL A   1      38.265  32.062  29.705  1.00  0.00     0.006 C 
ATOM     17  C   UNL A   1      37.863  33.269  28.842  1.00  0.00     0.005 C 
ATOM     18  C   UNL A   1      38.254  32.717  31.084  1.00  0.00     0.005 C 
ATOM     19  C   UNL A   1      38.602  34.459  29.459  1.00  0.00     0.000 C 
ATOM     20  C   UNL A   1      38.911  34.072  30.894  1.00  0.00     0.000 C 
ENDBRANCH   9  16
ENDBRANCH   7   9
ENDBRANCH   6   7
ENDBRANCH   5   6
ENDBRANCH   4   5
ENDBRANCH   3   4
ENDBRANCH   2   3
ENDBRANCH   1   2
BRANCH   1  21
ATOM     21  O   UNL A   1      36.136  35.313  33.397  1.00  0.00    -0.376 OA
BRANCH  21  22
ATOM     22  C   UNL A   1      36.957  34.501  34.218  1.00  0.00     0.202 C 
BRANCH  22  23
ATOM     23  C   UNL A   1      36.972  32.959  34.163  1.00  0.00     0.261 C 
BRANCH  23  24
ATOM     24  O   UNL A   1      36.890  32.246  35.402  1.00  0.00    -0.460 OA
BRANCH  24  25
ATOM     25  C   UNL A   1      38.046  32.178  36.109  1.00  0.00     0.338 C 
ATOM     26  O   UNL A   1      38.181  32.375  37.311  1.00  0.00    -0.246 OA
BRANCH  25  27
ATOM     27  C   UNL A   1      39.106  31.586  35.265  1.00  0.00     0.060 A 
ATOM     28  C   UNL A   1      40.431  31.979  35.505  1.00  0.00     0.016 A 
ATOM     29  C   UNL A   1      38.818  30.680  34.242  1.00  0.00     0.016 A 
ATOM     30  C   UNL A   1      41.466  31.489  34.711  1.00  0.00     0.010 A 
ATOM     31  C   UNL A   1      39.858  30.210  33.426  1.00  0.00     0.010 A 
ATOM     32  C   UNL A   1      41.183  30.629  33.643  1.00  0.00    -0.014 A 
BRANCH  32  33
ATOM     33  C   UNL A   1      42.247  30.368  32.640  1.00  0.00     0.031 A 
ATOM     34  C   UNL A   1      42.948  29.037  32.682  1.00  0.00     0.074 A 
ATOM     35  C   UNL A   1      42.562  31.256  31.680  1.00  0.00     0.049 A 
ATOM     36  N   UNL A   1      43.887  28.569  31.903  1.00  0.00    -0.248 NA
ATOM     37  C   UNL A   1      42.525  28.110  33.744  1.00  0.00     0.031 C 
ATOM     38  C   UNL A   1      41.944  32.566  31.505  1.00  0.00     0.029 A 
ATOM     39  N   UNL A   1      43.491  31.185  30.669  1.00  0.00    -0.354 N 
ATOM     40  C   UNL A   1      44.188  27.306  32.393  1.00  0.00     0.074 A 
ATOM     41  C   UNL A   1      43.330  27.079  33.537  1.00  0.00     0.031 C 
ATOM     42  C   UNL A   1      42.513  33.182  30.453  1.00  0.00     0.029 A 
ATOM     43  C   UNL A   1      43.566  32.327  29.906  1.00  0.00     0.049 A 
ATOM     44  H   UNL A   1      44.051  30.392  30.508  1.00  0.00     0.167 HD
ATOM     45  C   UNL A   1      45.095  26.410  31.938  1.00  0.00     0.034 A 
ATOM     46  C   UNL A   1      44.406  32.653  28.901  1.00  0.00     0.034 A 
ATOM     47  C   UNL A   1      45.962  26.633  30.815  1.00  0.00     0.049 A 
ATOM     48  C   UNL A   1      45.449  31.658  28.450  1.00  0.00     0.074 A 
ATOM     49  C   UNL A   1      46.908  25.777  30.279  1.00  0.00     0.029 A 
ATOM     50  N   UNL A   1      46.012  27.799  30.069  1.00  0.00    -0.354 N 
ATOM     51  N   UNL A   1      45.659  30.432  28.864  1.00  0.00    -0.248 NA
ATOM     52  C   UNL A   1      46.357  32.086  27.374  1.00  0.00     0.031 C 
ATOM     53  C   UNL A   1      47.558  26.442  29.235  1.00  0.00     0.029 A 
ATOM     54  C   UNL A   1      46.982  27.693  29.086  1.00  0.00     0.049 A 
ATOM     55  H   UNL A   1      45.440  28.588  30.215  1.00  0.00     0.167 HD
ATOM     56  C   UNL A   1      46.693  29.933  28.076  1.00  0.00     0.074 A 
ATOM     57  C   UNL A   1      47.052  30.981  27.145  1.00  0.00     0.031 C 
ATOM     58  C   UNL A   1      47.299  28.719  28.127  1.00  0.00     0.034 A 
BRANCH  45  59
ATOM     59  C   UNL A   1      45.205  25.106  32.679  1.00  0.00     0.023 A 
ATOM     60  C   UNL A   1      44.317  24.051  32.386  1.00  0.00     0.012 A 
ATOM     61  C   UNL A   1      46.210  24.917  33.648  1.00  0.00     0.148 A 
ATOM     62  C   UNL A   1      44.404  22.841  33.071  1.00  0.00     0.002 A 
ATOM     63  C   UNL A   1      46.322  23.692  34.291  1.00  0.00     0.091 A 
ATOM     64  F   UNL A   1      47.027  25.942  33.928  1.00  0.00    -0.205 F 
ATOM     65  C   UNL A   1      45.412  22.659  34.015  1.00  0.00     0.022 A 
BRANCH  63  66
ATOM     66  S   UNL A   1      47.632  23.333  35.465  1.00  0.00     0.127 S 
ATOM     67  O   UNL A   1      47.313  21.959  35.851  1.00  0.00    -0.237 OA
ATOM     68  O   UNL A   1      48.830  23.471  34.638  1.00  0.00    -0.237 OA
ATOM     69  O   UNL A   1      47.506  24.323  36.525  1.00  0.00    -0.744 OA
ENDBRANCH  63  66
ENDBRANCH  45  59
BRANCH  46  70
ATOM     70  C   UNL A   1      44.312  33.987  28.238  1.00  0.00     0.023 A 
ATOM     71  C   UNL A   1      43.540  34.138  27.069  1.00  0.00     0.012 A 
ATOM     72  C   UNL A   1      45.012  35.101  28.743  1.00  0.00     0.148 A 
ATOM     73  C   UNL A   1      43.501  35.359  26.393  1.00  0.00     0.002 A 
ATOM     74  C   UNL A   1      44.922  36.328  28.098  1.00  0.00     0.091 A 
ATOM     75  F   UNL A   1      45.759  34.933  29.843  1.00  0.00    -0.205 F 
ATOM     76  C   UNL A   1      44.183  36.456  26.912  1.00  0.00     0.022 A 
BRANCH  74  77
ATOM     77  S   UNL A   1      45.674  37.821  28.755  1.00  0.00     0.127 S 
ATOM     78  O   UNL A   1      47.079  37.628  28.405  1.00  0.00    -0.237 OA
ATOM     79  O   UNL A   1      44.986  38.863  27.992  1.00  0.00    -0.237 OA
ATOM     80  O   UNL A   1      45.375  37.820  30.180  1.00  0.00    -0.744 OA
ENDBRANCH  74  77
ENDBRANCH  46  70
BRANCH  58  81
ATOM     81  C   UNL A   1      48.378  28.422  27.114  1.00  0.00     0.023 A 
ATOM     82  C   UNL A   1      49.737  28.505  27.477  1.00  0.00     0.012 A 
ATOM     83  C   UNL A   1      48.039  27.987  25.817  1.00  0.00     0.148 A 
ATOM     84  C   UNL A   1      50.739  28.201  26.555  1.00  0.00     0.002 A 
ATOM     85  C   UNL A   1      49.040  27.633  24.921  1.00  0.00     0.091 A 
ATOM     86  F   UNL A   1      46.741  27.928  25.482  1.00  0.00    -0.205 F 
ATOM     87  C   UNL A   1      50.391  27.754  25.282  1.00  0.00     0.022 A 
BRANCH  85  88
ATOM     88  S   UNL A   1      48.683  26.952  23.296  1.00  0.00     0.127 S 
ATOM     89  O   UNL A   1      50.014  26.911  22.692  1.00  0.00    -0.237 OA
ATOM     90  O   UNL A   1      48.123  25.641  23.626  1.00  0.00    -0.237 OA
ATOM     91  O   UNL A   1      47.742  27.871  22.672  1.00  0.00    -0.744 OA
ENDBRANCH  85  88
ENDBRANCH  58  81
ENDBRANCH  32  33
ENDBRANCH  25  27
ENDBRANCH  24  25
ENDBRANCH  23  24
ENDBRANCH  22  23
ENDBRANCH  21  22
ENDBRANCH   1  21
TORSDOF 22
ENDMDL
MODEL 3
REMARK VINA RESULT:      -9.4      6.712     11.684
REMARK SMILES CC[C@H]1CC[C@@](C(=O)OCCOCCOCCOC(=O)c2ccc(-c3c4nc(c(-c5cccc(S(=O)(=O)[O-])c5F)c5ccc([nH]5)c(-c5cccc(S(=O)(=O)[O-])c5F)c5nc(c(-c6cccc(S(=O)(=O)[O-])c6F)c6ccc3[nH]6)C=C5)C=C4)cc2)(C2CCCC2)C1
REMARK SMILES IDX 14 1 13 2 12 3 11 4 10 5 9 6 7 7 8 8 6 9 3 10 4 11 89 12
REMARK SMILES IDX 5 13 2 14 1 15 84 16 85 17 88 18 86 19 87 20 15 21 16 22
REMARK SMILES IDX 17 23 18 24 19 25 20 26 21 27 22 28 83 29 23 30 82 31 24 32
REMARK SMILES IDX 25 33 26 34 76 35 27 36 81 37 75 38 77 39 28 40 80 41 74 42
REMARK SMILES IDX 73 43 29 45 61 46 41 47 60 48 42 49 45 50 59 51 78 52 43 53
REMARK SMILES IDX 44 54 58 56 79 57 46 58 30 59 31 60 39 61 32 62 34 63 40 64
REMARK SMILES IDX 33 65 35 66 36 67 37 68 38 69 62 70 63 71 71 72 64 73 66 74
REMARK SMILES IDX 72 75 65 76 67 77 68 78 69 79 70 80 47 81 48 82 56 83 49 84
REMARK SMILES IDX 51 85 57 86 50 87 52 88 53 89 54 90 55 91
REMARK H PARENT 77 44 45 55
REMARK Flexibility Score: inf
ROOT
ATOM      1  C   UNL A   1      50.851  20.273  36.788  1.00  0.00     0.188 C 
ENDROOT
BRANCH   1   2
ATOM      2  C   UNL A   1      49.414  19.954  37.216  1.00  0.00     0.188 C 
BRANCH   2   3
ATOM      3  O   UNL A   1      48.384  20.290  36.318  1.00  0.00    -0.376 OA
BRANCH   3   4
ATOM      4  C   UNL A   1      47.041  20.228  36.771  1.00  0.00     0.202 C 
BRANCH   4   5
ATOM      5  C   UNL A   1      46.091  21.440  36.889  1.00  0.00     0.261 C 
BRANCH   5   6
ATOM      6  O   UNL A   1      45.154  21.679  35.819  1.00  0.00    -0.463 OA
BRANCH   6   7
ATOM      7  C   UNL A   1      45.537  22.591  34.882  1.00  0.00     0.312 C 
ATOM      8  O   UNL A   1      46.697  22.700  34.492  1.00  0.00    -0.252 OA
BRANCH   7   9
ATOM      9  C   UNL A   1      44.409  23.518  34.345  1.00  0.00     0.071 C 
ATOM     10  C   UNL A   1      43.116  25.339  35.516  1.00  0.00    -0.010 C 
ATOM     11  C   UNL A   1      42.246  24.093  35.491  1.00  0.00     0.005 C 
ATOM     12  C   UNL A   1      44.523  24.801  35.222  1.00  0.00     0.022 C 
ATOM     13  C   UNL A   1      42.952  23.065  34.603  1.00  0.00     0.019 C 
BRANCH  10  14
ATOM     14  C   UNL A   1      42.641  26.435  34.554  1.00  0.00     0.000 C 
ATOM     15  C   UNL A   1      41.613  27.382  35.150  1.00  0.00     0.004 C 
ENDBRANCH  10  14
BRANCH   9  16
ATOM     16  C   UNL A   1      44.761  23.798  32.830  1.00  0.00     0.006 C 
ATOM     17  C   UNL A   1      43.774  23.315  31.756  1.00  0.00     0.005 C 
ATOM     18  C   UNL A   1      44.908  25.258  32.407  1.00  0.00     0.005 C 
ATOM     19  C   UNL A   1      44.224  24.007  30.466  1.00  0.00     0.000 C 
ATOM     20  C   UNL A   1      45.015  25.231  30.893  1.00  0.00     0.000 C 
ENDBRANCH   9  16
ENDBRANCH   7   9
ENDBRANCH   6   7
ENDBRANCH   5   6
ENDBRANCH   4   5
ENDBRANCH   3   4
ENDBRANCH   2   3
ENDBRANCH   1   2
BRANCH   1  21
ATOM     21  O   UNL A   1      51.734  19.251  36.383  1.00  0.00    -0.376 OA
BRANCH  21  22
ATOM     22  C   UNL A   1      53.015  19.597  35.885  1.00  0.00     0.202 C 
BRANCH  22  23
ATOM     23  C   UNL A   1      53.522  19.217  34.479  1.00  0.00     0.261 C 
BRANCH  23  24
ATOM     24  O   UNL A   1      52.733  19.620  33.353  1.00  0.00    -0.460 OA
BRANCH  24  25
ATOM     25  C   UNL A   1      53.145  20.755  32.735  1.00  0.00     0.338 C 
ATOM     26  O   UNL A   1      54.000  20.843  31.862  1.00  0.00    -0.246 OA
BRANCH  25  27
ATOM     27  C   UNL A   1      52.236  21.867  33.090  1.00  0.00     0.060 A 
ATOM     28  C   UNL A   1      50.890  21.560  33.333  1.00  0.00     0.016 A 
ATOM     29  C   UNL A   1      52.679  23.190  33.164  1.00  0.00     0.016 A 
ATOM     30  C   UNL A   1      49.979  22.573  33.627  1.00  0.00     0.010 A 
ATOM     31  C   UNL A   1      51.755  24.210  33.432  1.00  0.00     0.010 A 
ATOM     32  C   UNL A   1      50.397  23.909  33.643  1.00  0.00    -0.014 A 
BRANCH  32  33
ATOM     33  C   UNL A   1      49.365  24.977  33.656  1.00  0.00     0.031 A 
ATOM     34  C   UNL A   1      49.032  25.656  32.356  1.00  0.00     0.074 A 
ATOM     35  C   UNL A   1      48.695  25.314  34.773  1.00  0.00     0.049 A 
ATOM     36  N   UNL A   1      48.155  26.593  32.110  1.00  0.00    -0.248 NA
ATOM     37  C   UNL A   1      49.788  25.209  31.174  1.00  0.00     0.031 C 
ATOM     38  C   UNL A   1      48.895  24.718  36.090  1.00  0.00     0.029 A 
ATOM     39  N   UNL A   1      47.709  26.250  34.974  1.00  0.00    -0.354 N 
ATOM     40  C   UNL A   1      48.270  26.870  30.754  1.00  0.00     0.074 A 
ATOM     41  C   UNL A   1      49.300  25.999  30.229  1.00  0.00     0.031 C 
ATOM     42  C   UNL A   1      48.061  25.305  36.967  1.00  0.00     0.029 A 
ATOM     43  C   UNL A   1      47.299  26.350  36.283  1.00  0.00     0.049 A 
ATOM     44  H   UNL A   1      47.332  26.798  34.249  1.00  0.00     0.167 HD
ATOM     45  C   UNL A   1      47.584  27.766  30.008  1.00  0.00     0.034 A 
ATOM     46  C   UNL A   1      46.429  27.202  36.865  1.00  0.00     0.034 A 
ATOM     47  C   UNL A   1      46.572  28.646  30.522  1.00  0.00     0.049 A 
ATOM     48  C   UNL A   1      45.720  28.233  36.019  1.00  0.00     0.074 A 
ATOM     49  C   UNL A   1      45.819  29.583  29.836  1.00  0.00     0.029 A 
ATOM     50  N   UNL A   1      46.186  28.721  31.851  1.00  0.00    -0.354 N 
ATOM     51  N   UNL A   1      45.772  28.421  34.722  1.00  0.00    -0.248 NA
ATOM     52  C   UNL A   1      44.811  29.157  36.717  1.00  0.00     0.031 C 
ATOM     53  C   UNL A   1      45.008  30.252  30.757  1.00  0.00     0.029 A 
ATOM     54  C   UNL A   1      45.216  29.697  32.009  1.00  0.00     0.049 A 
ATOM     55  H   UNL A   1      46.547  28.160  32.576  1.00  0.00     0.167 HD
ATOM     56  C   UNL A   1      44.878  29.453  34.447  1.00  0.00     0.074 A 
ATOM     57  C   UNL A   1      44.282  29.836  35.709  1.00  0.00     0.031 C 
ATOM     58  C   UNL A   1      44.587  30.038  33.258  1.00  0.00     0.034 A 
BRANCH  45  59
ATOM     59  C   UNL A   1      47.927  27.850  28.545  1.00  0.00     0.023 A 
ATOM     60  C   UNL A   1      48.993  28.668  28.117  1.00  0.00     0.012 A 
ATOM     61  C   UNL A   1      47.210  27.094  27.598  1.00  0.00     0.148 A 
ATOM     62  C   UNL A   1      49.315  28.760  26.765  1.00  0.00     0.002 A 
ATOM     63  C   UNL A   1      47.569  27.153  26.259  1.00  0.00     0.091 A 
ATOM     64  F   UNL A   1      46.185  26.343  28.025  1.00  0.00    -0.205 F 
ATOM     65  C   UNL A   1      48.611  27.995  25.838  1.00  0.00     0.022 A 
BRANCH  63  66
ATOM     66  S   UNL A   1      46.775  26.148  25.000  1.00  0.00     0.127 S 
ATOM     67  O   UNL A   1      47.258  24.811  25.342  1.00  0.00    -0.237 OA
ATOM     68  O   UNL A   1      45.357  26.374  25.279  1.00  0.00    -0.237 OA
ATOM     69  O   UNL A   1      47.235  26.668  23.720  1.00  0.00    -0.744 OA
ENDBRANCH  63  66
ENDBRANCH  45  59
BRANCH  46  70
ATOM     70  C   UNL A   1      46.170  27.135  38.333  1.00  0.00     0.023 A 
ATOM     71  C   UNL A   1      45.117  26.338  38.825  1.00  0.00     0.012 A 
ATOM     72  C   UNL A   1      46.942  27.885  39.243  1.00  0.00     0.148 A 
ATOM     73  C   UNL A   1      44.811  26.322  40.187  1.00  0.00     0.002 A 
ATOM     74  C   UNL A   1      46.670  27.818  40.604  1.00  0.00     0.091 A 
ATOM     75  F   UNL A   1      47.925  28.654  38.755  1.00  0.00    -0.205 F 
ATOM     76  C   UNL A   1      45.592  27.054  41.077  1.00  0.00     0.022 A 
BRANCH  74  77
ATOM     77  S   UNL A   1      47.691  28.636  41.833  1.00  0.00     0.127 S 
ATOM     78  O   UNL A   1      49.016  28.104  41.525  1.00  0.00    -0.237 OA
ATOM     79  O   UNL A   1      47.498  30.046  41.493  1.00  0.00    -0.237 OA
ATOM     80  O   UNL A   1      47.142  28.247  43.125  1.00  0.00    -0.744 OA
ENDBRANCH  74  77
ENDBRANCH  46  70
BRANCH  58  81
ATOM     81  C   UNL A   1      43.535  31.121  33.240  1.00  0.00     0.023 A 
ATOM     82  C   UNL A   1      43.886  32.459  33.507  1.00  0.00     0.012 A 
ATOM     83  C   UNL A   1      42.205  30.817  32.884  1.00  0.00     0.148 A 
ATOM     84  C   UNL A   1      42.924  33.469  33.460  1.00  0.00     0.002 A 
ATOM     85  C   UNL A   1      41.264  31.835  32.786  1.00  0.00     0.091 A 
ATOM     86  F   UNL A   1      41.883  29.537  32.647  1.00  0.00    -0.205 F 
ATOM     87  C   UNL A   1      41.618  33.160  33.089  1.00  0.00     0.022 A 
BRANCH  85  88
ATOM     88  S   UNL A   1      39.585  31.545  32.216  1.00  0.00     0.127 S 
ATOM     89  O   UNL A   1      39.058  32.907  32.135  1.00  0.00    -0.237 OA
ATOM     90  O   UNL A   1      39.804  30.899  30.921  1.00  0.00    -0.237 OA
ATOM     91  O   UNL A   1      38.961  30.692  33.218  1.00  0.00    -0.744 OA
ENDBRANCH  85  88
ENDBRANCH  58  81
ENDBRANCH  32  33
ENDBRANCH  25  27
ENDBRANCH  24  25
ENDBRANCH  23  24
ENDBRANCH  22  23
ENDBRANCH  21  22
ENDBRANCH   1  21
TORSDOF 22
ENDMDL
