MODEL 1
REMARK VINA RESULT:     -10.5      0.000      0.000
REMARK SMILES CCCOc1ccccc1O[C@@H]1CC[C@@]([NH3+])(C(=O)OCCOCCOCCOC(=O)c2ccc(-c3c4nc(c(-c5cccc(S(=O)(=O)[O-])c5F)c5ccc([nH]5)c(-c5cccc(S(=O)(=O)[O-])c5F)c5nc(c(-c6cccc(S(=O)(=O)[O-])c6F)c6ccc3[nH]6)C=C5)C=C4)cc2)C1
REMARK SMILES IDX 23 1 22 2 21 3 20 4 19 5 17 6 18 7 15 8 12 9 13 10 94 11
REMARK SMILES IDX 14 12 11 13 10 14 5 15 6 16 7 17 9 18 8 19 4 20 3 21 2 22
REMARK SMILES IDX 1 23 16 24 24 28 25 29 26 30 27 31 28 32 29 33 30 34 31 35
REMARK SMILES IDX 32 36 93 37 33 38 92 39 34 40 35 41 36 42 86 43 37 44 91 45
REMARK SMILES IDX 85 46 87 47 38 48 90 49 84 50 83 51 39 53 71 54 51 55 70 56
REMARK SMILES IDX 52 57 55 58 69 59 88 60 53 61 54 62 68 64 89 65 56 66 40 67
REMARK SMILES IDX 41 68 49 69 42 70 44 71 50 72 43 73 45 74 46 75 47 76 48 77
REMARK SMILES IDX 72 78 73 79 81 80 74 81 76 82 82 83 75 84 77 85 78 86 79 87
REMARK SMILES IDX 80 88 57 89 58 90 66 91 59 92 61 93 67 94 60 95 62 96 63 97
REMARK SMILES IDX 64 98 65 99
REMARK H PARENT 16 25 16 26 16 27 87 52 55 63
REMARK Flexibility Score: inf
ROOT
ATOM      1  C   UNL A   1      39.788  21.798  26.427  1.00  0.00     0.188 C 
ENDROOT
BRANCH   1   2
ATOM      2  O   UNL A   1      38.578  21.086  26.316  1.00  0.00    -0.376 OA
BRANCH   2   3
ATOM      3  C   UNL A   1      38.090  20.836  25.007  1.00  0.00     0.202 C 
BRANCH   3   4
ATOM      4  C   UNL A   1      36.629  20.374  24.710  1.00  0.00     0.261 C 
BRANCH   4   5
ATOM      5  O   UNL A   1      35.620  20.509  25.741  1.00  0.00    -0.459 OA
BRANCH   5   6
ATOM      6  C   UNL A   1      35.050  21.747  26.004  1.00  0.00     0.368 C 
ATOM      7  O   UNL A   1      35.679  22.746  26.328  1.00  0.00    -0.245 OA
BRANCH   6   8
ATOM      8  C   UNL A   1      33.346  21.707  25.928  1.00  0.00     0.196 C 
ATOM      9  C   UNL A   1      31.445  24.314  25.221  1.00  0.00     0.180 C 
ATOM     10  C   UNL A   1      31.619  23.162  23.564  1.00  0.00     0.052 C 
ATOM     11  C   UNL A   1      32.384  23.306  26.747  1.00  0.00     0.126 C 
ATOM     12  C   UNL A   1      32.839  21.644  23.996  1.00  0.00     0.085 C 
BRANCH   9  13
ATOM     13  O   UNL A   1      30.357  25.184  25.401  1.00  0.00    -0.486 OA
BRANCH  13  14
ATOM     14  C   UNL A   1      30.724  26.464  25.487  1.00  0.00     0.161 A 
ATOM     15  C   UNL A   1      30.579  27.292  24.398  1.00  0.00     0.161 A 
ATOM     16  C   UNL A   1      31.069  28.585  24.472  1.00  0.00     0.050 A 
ATOM     17  C   UNL A   1      31.677  29.023  25.660  1.00  0.00     0.004 A 
ATOM     18  C   UNL A   1      31.356  26.862  26.657  1.00  0.00     0.050 A 
ATOM     19  C   UNL A   1      31.831  28.157  26.748  1.00  0.00     0.004 A 
BRANCH  15  20
ATOM     20  O   UNL A   1      30.247  26.704  23.215  1.00  0.00    -0.490 OA
BRANCH  20  21
ATOM     21  C   UNL A   1      31.295  26.501  22.120  1.00  0.00     0.229 C 
BRANCH  21  22
ATOM     22  C   UNL A   1      33.381  27.126  21.982  1.00  0.00     0.038 C 
ATOM     23  C   UNL A   1      34.260  28.483  22.715  1.00  0.00     0.007 C 
ENDBRANCH  21  22
ENDBRANCH  20  21
ENDBRANCH  15  20
ENDBRANCH  13  14
ENDBRANCH   9  13
BRANCH   8  24
ATOM     24  N   UNL A   1      33.091  20.378  26.558  1.00  0.00    -0.343 N 
ATOM     25  H   UNL A   1      33.904  19.777  26.425  1.00  0.00     0.345 HD
ATOM     26  H   UNL A   1      32.275  19.947  26.124  1.00  0.00     0.345 HD
ATOM     27  H   UNL A   1      32.919  20.502  27.556  1.00  0.00     0.345 HD
ENDBRANCH   8  24
ENDBRANCH   6   8
ENDBRANCH   5   6
ENDBRANCH   4   5
ENDBRANCH   3   4
ENDBRANCH   2   3
ENDBRANCH   1   2
BRANCH   1  28
ATOM     28  C   UNL A   1      41.090  21.029  26.684  1.00  0.00     0.188 C 
BRANCH  28  29
ATOM     29  O   UNL A   1      42.044  20.952  25.668  1.00  0.00    -0.376 OA
BRANCH  29  30
ATOM     30  C   UNL A   1      43.157  21.813  25.758  1.00  0.00     0.202 C 
BRANCH  30  31
ATOM     31  C   UNL A   1      43.663  22.729  24.611  1.00  0.00     0.261 C 
BRANCH  31  32
ATOM     32  O   UNL A   1      43.482  24.161  24.690  1.00  0.00    -0.460 OA
BRANCH  32  33
ATOM     33  C   UNL A   1      44.485  24.872  25.289  1.00  0.00     0.338 C 
ATOM     34  O   UNL A   1      45.645  24.928  24.911  1.00  0.00    -0.246 OA
BRANCH  33  35
ATOM     35  C   UNL A   1      43.940  25.786  26.334  1.00  0.00     0.060 A 
ATOM     36  C   UNL A   1      43.276  25.233  27.440  1.00  0.00     0.016 A 
ATOM     37  C   UNL A   1      44.022  27.172  26.218  1.00  0.00     0.016 A 
ATOM     38  C   UNL A   1      42.738  26.055  28.444  1.00  0.00     0.010 A 
ATOM     39  C   UNL A   1      43.459  27.996  27.215  1.00  0.00     0.010 A 
ATOM     40  C   UNL A   1      42.827  27.448  28.347  1.00  0.00    -0.014 A 
BRANCH  40  41
ATOM     41  C   UNL A   1      42.191  28.323  29.377  1.00  0.00     0.031 A 
ATOM     42  C   UNL A   1      42.896  28.569  30.682  1.00  0.00     0.074 A 
ATOM     43  C   UNL A   1      40.990  28.902  29.174  1.00  0.00     0.049 A 
ATOM     44  N   UNL A   1      42.458  29.162  31.763  1.00  0.00    -0.248 NA
ATOM     45  C   UNL A   1      44.280  28.081  30.778  1.00  0.00     0.031 C 
ATOM     46  C   UNL A   1      40.215  28.820  27.940  1.00  0.00     0.029 A 
ATOM     47  N   UNL A   1      40.198  29.656  30.015  1.00  0.00    -0.354 N 
ATOM     48  C   UNL A   1      43.488  29.070  32.691  1.00  0.00     0.074 A 
ATOM     49  C   UNL A   1      44.585  28.392  32.031  1.00  0.00     0.031 C 
ATOM     50  C   UNL A   1      39.053  29.477  28.107  1.00  0.00     0.029 A 
ATOM     51  C   UNL A   1      38.965  29.962  29.483  1.00  0.00     0.049 A 
ATOM     52  H   UNL A   1      40.488  29.948  30.909  1.00  0.00     0.167 HD
ATOM     53  C   UNL A   1      43.515  29.492  33.979  1.00  0.00     0.034 A 
ATOM     54  C   UNL A   1      37.866  30.508  30.051  1.00  0.00     0.034 A 
ATOM     55  C   UNL A   1      42.429  30.165  34.643  1.00  0.00     0.049 A 
ATOM     56  C   UNL A   1      37.890  30.890  31.513  1.00  0.00     0.074 A 
ATOM     57  C   UNL A   1      42.381  30.634  35.945  1.00  0.00     0.029 A 
ATOM     58  N   UNL A   1      41.195  30.439  34.078  1.00  0.00    -0.354 N 
ATOM     59  N   UNL A   1      38.885  30.841  32.365  1.00  0.00    -0.248 NA
ATOM     60  C   UNL A   1      36.637  31.404  32.093  1.00  0.00     0.031 C 
ATOM     61  C   UNL A   1      41.098  31.136  36.185  1.00  0.00     0.029 A 
ATOM     62  C   UNL A   1      40.369  31.042  35.012  1.00  0.00     0.049 A 
ATOM     63  H   UNL A   1      40.943  30.236  33.148  1.00  0.00     0.167 HD
ATOM     64  C   UNL A   1      38.387  31.338  33.567  1.00  0.00     0.074 A 
ATOM     65  C   UNL A   1      37.011  31.713  33.328  1.00  0.00     0.031 C 
ATOM     66  C   UNL A   1      39.010  31.454  34.766  1.00  0.00     0.034 A 
BRANCH  53  67
ATOM     67  C   UNL A   1      44.752  29.192  34.785  1.00  0.00     0.023 A 
ATOM     68  C   UNL A   1      45.808  30.122  34.844  1.00  0.00     0.012 A 
ATOM     69  C   UNL A   1      44.836  27.999  35.532  1.00  0.00     0.148 A 
ATOM     70  C   UNL A   1      46.946  29.851  35.604  1.00  0.00     0.002 A 
ATOM     71  C   UNL A   1      45.949  27.760  36.325  1.00  0.00     0.091 A 
ATOM     72  F   UNL A   1      43.825  27.122  35.449  1.00  0.00    -0.205 F 
ATOM     73  C   UNL A   1      47.012  28.677  36.352  1.00  0.00     0.022 A 
BRANCH  71  74
ATOM     74  S   UNL A   1      46.092  26.318  37.385  1.00  0.00     0.127 S 
ATOM     75  O   UNL A   1      44.996  26.534  38.327  1.00  0.00    -0.237 OA
ATOM     76  O   UNL A   1      45.878  25.222  36.438  1.00  0.00    -0.237 OA
ATOM     77  O   UNL A   1      47.427  26.371  37.965  1.00  0.00    -0.744 OA
ENDBRANCH  71  74
ENDBRANCH  53  67
BRANCH  54  78
ATOM     78  C   UNL A   1      36.605  30.678  29.264  1.00  0.00     0.023 A 
ATOM     79  C   UNL A   1      36.037  29.575  28.593  1.00  0.00     0.012 A 
ATOM     80  C   UNL A   1      35.990  31.939  29.142  1.00  0.00     0.148 A 
ATOM     81  C   UNL A   1      34.907  29.734  27.789  1.00  0.00     0.002 A 
ATOM     82  C   UNL A   1      34.827  32.077  28.393  1.00  0.00     0.091 A 
ATOM     83  F   UNL A   1      36.558  32.984  29.760  1.00  0.00    -0.205 F 
ATOM     84  C   UNL A   1      34.295  30.982  27.698  1.00  0.00     0.022 A 
BRANCH  82  85
ATOM     85  S   UNL A   1      33.908  33.618  28.314  1.00  0.00     0.127 S 
ATOM     86  O   UNL A   1      34.902  34.532  27.758  1.00  0.00    -0.237 OA
ATOM     87  O   UNL A   1      32.816  33.267  27.406  1.00  0.00    -0.237 OA
ATOM     88  O   UNL A   1      33.490  33.901  29.681  1.00  0.00    -0.744 OA
ENDBRANCH  82  85
ENDBRANCH  54  78
BRANCH  66  89
ATOM     89  C   UNL A   1      38.236  32.053  35.917  1.00  0.00     0.023 A 
ATOM     90  C   UNL A   1      37.915  33.425  35.919  1.00  0.00     0.012 A 
ATOM     91  C   UNL A   1      37.757  31.234  36.960  1.00  0.00     0.148 A 
ATOM     92  C   UNL A   1      37.162  33.978  36.957  1.00  0.00     0.002 A 
ATOM     93  C   UNL A   1      36.964  31.780  37.962  1.00  0.00     0.091 A 
ATOM     94  F   UNL A   1      38.080  29.932  36.949  1.00  0.00    -0.205 F 
ATOM     95  C   UNL A   1      36.677  33.155  37.971  1.00  0.00     0.022 A 
BRANCH  93  96
ATOM     96  S   UNL A   1      36.218  30.786  39.260  1.00  0.00     0.127 S 
ATOM     97  O   UNL A   1      35.853  29.572  38.533  1.00  0.00    -0.237 OA
ATOM     98  O   UNL A   1      37.327  30.625  40.199  1.00  0.00    -0.237 OA
ATOM     99  O   UNL A   1      35.095  31.562  39.770  1.00  0.00    -0.744 OA
ENDBRANCH  93  96
ENDBRANCH  66  89
ENDBRANCH  40  41
ENDBRANCH  33  35
ENDBRANCH  32  33
ENDBRANCH  31  32
ENDBRANCH  30  31
ENDBRANCH  29  30
ENDBRANCH  28  29
ENDBRANCH   1  28
TORSDOF 26
ENDMDL
MODEL 2
REMARK VINA RESULT:      -9.9      1.857      2.122
REMARK SMILES CCCOc1ccccc1O[C@@H]1CC[C@@]([NH3+])(C(=O)OCCOCCOCCOC(=O)c2ccc(-c3c4nc(c(-c5cccc(S(=O)(=O)[O-])c5F)c5ccc([nH]5)c(-c5cccc(S(=O)(=O)[O-])c5F)c5nc(c(-c6cccc(S(=O)(=O)[O-])c6F)c6ccc3[nH]6)C=C5)C=C4)cc2)C1
REMARK SMILES IDX 23 1 22 2 21 3 20 4 19 5 17 6 18 7 15 8 12 9 13 10 94 11
REMARK SMILES IDX 14 12 11 13 10 14 5 15 6 16 7 17 9 18 8 19 4 20 3 21 2 22
REMARK SMILES IDX 1 23 16 24 24 28 25 29 26 30 27 31 28 32 29 33 30 34 31 35
REMARK SMILES IDX 32 36 93 37 33 38 92 39 34 40 35 41 36 42 86 43 37 44 91 45
REMARK SMILES IDX 85 46 87 47 38 48 90 49 84 50 83 51 39 53 71 54 51 55 70 56
REMARK SMILES IDX 52 57 55 58 69 59 88 60 53 61 54 62 68 64 89 65 56 66 40 67
REMARK SMILES IDX 41 68 49 69 42 70 44 71 50 72 43 73 45 74 46 75 47 76 48 77
REMARK SMILES IDX 72 78 73 79 81 80 74 81 76 82 82 83 75 84 77 85 78 86 79 87
REMARK SMILES IDX 80 88 57 89 58 90 66 91 59 92 61 93 67 94 60 95 62 96 63 97
REMARK SMILES IDX 64 98 65 99
REMARK H PARENT 16 25 16 26 16 27 87 52 55 63
REMARK Flexibility Score: inf
ROOT
ATOM      1  C   UNL A   1      40.533  21.874  26.758  1.00  0.00     0.188 C 
ENDROOT
BRANCH   1   2
ATOM      2  O   UNL A   1      39.237  21.344  26.600  1.00  0.00    -0.376 OA
BRANCH   2   3
ATOM      3  C   UNL A   1      38.735  21.238  25.278  1.00  0.00     0.202 C 
BRANCH   3   4
ATOM      4  C   UNL A   1      37.253  20.880  24.949  1.00  0.00     0.261 C 
BRANCH   4   5
ATOM      5  O   UNL A   1      36.228  21.120  25.946  1.00  0.00    -0.459 OA
BRANCH   5   6
ATOM      6  C   UNL A   1      35.569  22.341  25.992  1.00  0.00     0.368 C 
ATOM      7  O   UNL A   1      36.122  23.422  26.145  1.00  0.00    -0.245 OA
BRANCH   6   8
ATOM      8  C   UNL A   1      33.874  22.167  25.915  1.00  0.00     0.196 C 
ATOM      9  C   UNL A   1      31.772  24.625  25.244  1.00  0.00     0.180 C 
ATOM     10  C   UNL A   1      32.034  23.513  23.572  1.00  0.00     0.052 C 
ATOM     11  C   UNL A   1      32.790  23.674  26.756  1.00  0.00     0.126 C 
ATOM     12  C   UNL A   1      33.371  22.090  23.983  1.00  0.00     0.085 C 
BRANCH   9  13
ATOM     13  O   UNL A   1      30.619  25.404  25.435  1.00  0.00    -0.486 OA
BRANCH  13  14
ATOM     14  C   UNL A   1      30.883  26.709  25.529  1.00  0.00     0.161 A 
ATOM     15  C   UNL A   1      30.629  27.537  24.460  1.00  0.00     0.161 A 
ATOM     16  C   UNL A   1      31.014  28.864  24.537  1.00  0.00     0.050 A 
ATOM     17  C   UNL A   1      31.630  29.335  25.708  1.00  0.00     0.004 A 
ATOM     18  C   UNL A   1      31.526  27.142  26.681  1.00  0.00     0.050 A 
ATOM     19  C   UNL A   1      31.896  28.471  26.776  1.00  0.00     0.004 A 
BRANCH  15  20
ATOM     20  O   UNL A   1      30.301  26.939  23.281  1.00  0.00    -0.490 OA
BRANCH  20  21
ATOM     21  C   UNL A   1      31.323  26.825  22.149  1.00  0.00     0.229 C 
BRANCH  21  22
ATOM     22  C   UNL A   1      33.411  27.446  22.020  1.00  0.00     0.038 C 
ATOM     23  C   UNL A   1      34.341  28.662  22.918  1.00  0.00     0.007 C 
ENDBRANCH  21  22
ENDBRANCH  20  21
ENDBRANCH  15  20
ENDBRANCH  13  14
ENDBRANCH   9  13
BRANCH   8  24
ATOM     24  N   UNL A   1      33.725  20.814  26.528  1.00  0.00    -0.343 N 
ATOM     25  H   UNL A   1      34.583  20.280  26.386  1.00  0.00     0.345 HD
ATOM     26  H   UNL A   1      32.945  20.326  26.087  1.00  0.00     0.345 HD
ATOM     27  H   UNL A   1      33.545  20.911  27.527  1.00  0.00     0.345 HD
ENDBRANCH   8  24
ENDBRANCH   6   8
ENDBRANCH   5   6
ENDBRANCH   4   5
ENDBRANCH   3   4
ENDBRANCH   2   3
ENDBRANCH   1   2
BRANCH   1  28
ATOM     28  C   UNL A   1      41.736  20.924  26.773  1.00  0.00     0.188 C 
BRANCH  28  29
ATOM     29  O   UNL A   1      42.494  20.770  25.611  1.00  0.00    -0.376 OA
BRANCH  29  30
ATOM     30  C   UNL A   1      43.640  21.580  25.474  1.00  0.00     0.202 C 
BRANCH  30  31
ATOM     31  C   UNL A   1      43.903  22.551  24.292  1.00  0.00     0.261 C 
BRANCH  31  32
ATOM     32  O   UNL A   1      43.786  23.979  24.486  1.00  0.00    -0.460 OA
BRANCH  32  33
ATOM     33  C   UNL A   1      44.897  24.626  24.952  1.00  0.00     0.338 C 
ATOM     34  O   UNL A   1      46.034  24.490  24.526  1.00  0.00    -0.246 OA
BRANCH  33  35
ATOM     35  C   UNL A   1      44.522  25.719  25.893  1.00  0.00     0.060 A 
ATOM     36  C   UNL A   1      44.143  25.388  27.203  1.00  0.00     0.016 A 
ATOM     37  C   UNL A   1      44.485  27.055  25.496  1.00  0.00     0.016 A 
ATOM     38  C   UNL A   1      43.773  26.383  28.121  1.00  0.00     0.010 A 
ATOM     39  C   UNL A   1      44.089  28.051  26.413  1.00  0.00     0.010 A 
ATOM     40  C   UNL A   1      43.745  27.729  27.740  1.00  0.00    -0.014 A 
BRANCH  40  41
ATOM     41  C   UNL A   1      43.280  28.780  28.694  1.00  0.00     0.031 A 
ATOM     42  C   UNL A   1      44.234  29.327  29.720  1.00  0.00     0.074 A 
ATOM     43  C   UNL A   1      42.019  29.256  28.668  1.00  0.00     0.049 A 
ATOM     44  N   UNL A   1      43.998  30.121  30.733  1.00  0.00    -0.248 NA
ATOM     45  C   UNL A   1      45.641  28.925  29.582  1.00  0.00     0.031 C 
ATOM     46  C   UNL A   1      40.998  28.883  27.694  1.00  0.00     0.029 A 
ATOM     47  N   UNL A   1      41.372  30.143  29.504  1.00  0.00    -0.354 N 
ATOM     48  C   UNL A   1      45.212  30.269  31.391  1.00  0.00     0.074 A 
ATOM     49  C   UNL A   1      46.190  29.508  30.640  1.00  0.00     0.031 C 
ATOM     50  C   UNL A   1      39.851  29.515  27.994  1.00  0.00     0.029 A 
ATOM     51  C   UNL A   1      40.029  30.281  29.228  1.00  0.00     0.049 A 
ATOM     52  H   UNL A   1      41.826  30.631  30.227  1.00  0.00     0.167 HD
ATOM     53  C   UNL A   1      45.488  30.959  32.525  1.00  0.00     0.034 A 
ATOM     54  C   UNL A   1      39.041  30.893  29.917  1.00  0.00     0.034 A 
ATOM     55  C   UNL A   1      44.523  31.717  33.278  1.00  0.00     0.049 A 
ATOM     56  C   UNL A   1      39.356  31.581  31.226  1.00  0.00     0.074 A 
ATOM     57  C   UNL A   1      44.725  32.452  34.434  1.00  0.00     0.029 A 
ATOM     58  N   UNL A   1      43.175  31.817  32.976  1.00  0.00    -0.354 N 
ATOM     59  N   UNL A   1      40.516  31.754  31.812  1.00  0.00    -0.248 NA
ATOM     60  C   UNL A   1      38.224  32.159  31.970  1.00  0.00     0.031 C 
ATOM     61  C   UNL A   1      43.489  32.945  34.864  1.00  0.00     0.029 A 
ATOM     62  C   UNL A   1      42.528  32.574  33.940  1.00  0.00     0.049 A 
ATOM     63  H   UNL A   1      42.741  31.409  32.192  1.00  0.00     0.167 HD
ATOM     64  C   UNL A   1      40.257  32.477  32.973  1.00  0.00     0.074 A 
ATOM     65  C   UNL A   1      38.834  32.740  32.994  1.00  0.00     0.031 C 
ATOM     66  C   UNL A   1      41.118  32.872  33.943  1.00  0.00     0.034 A 
BRANCH  53  67
ATOM     67  C   UNL A   1      46.894  30.886  33.061  1.00  0.00     0.023 A 
ATOM     68  C   UNL A   1      47.850  31.852  32.689  1.00  0.00     0.012 A 
ATOM     69  C   UNL A   1      47.247  29.880  33.983  1.00  0.00     0.148 A 
ATOM     70  C   UNL A   1      49.148  31.793  33.198  1.00  0.00     0.002 A 
ATOM     71  C   UNL A   1      48.526  29.859  34.523  1.00  0.00     0.091 A 
ATOM     72  F   UNL A   1      46.325  28.964  34.312  1.00  0.00    -0.205 F 
ATOM     73  C   UNL A   1      49.482  30.805  34.121  1.00  0.00     0.022 A 
BRANCH  71  74
ATOM     74  S   UNL A   1      49.028  28.677  35.778  1.00  0.00     0.127 S 
ATOM     75  O   UNL A   1      48.281  29.149  36.943  1.00  0.00    -0.237 OA
ATOM     76  O   UNL A   1      48.549  27.414  35.216  1.00  0.00    -0.237 OA
ATOM     77  O   UNL A   1      50.476  28.788  35.884  1.00  0.00    -0.744 OA
ENDBRANCH  71  74
ENDBRANCH  53  67
BRANCH  54  78
ATOM     78  C   UNL A   1      37.626  30.842  29.432  1.00  0.00     0.023 A 
ATOM     79  C   UNL A   1      36.972  29.601  29.293  1.00  0.00     0.012 A 
ATOM     80  C   UNL A   1      36.942  32.018  29.065  1.00  0.00     0.148 A 
ATOM     81  C   UNL A   1      35.681  29.530  28.766  1.00  0.00     0.002 A 
ATOM     82  C   UNL A   1      35.633  31.946  28.601  1.00  0.00     0.091 A 
ATOM     83  F   UNL A   1      37.588  33.187  29.172  1.00  0.00    -0.205 F 
ATOM     84  C   UNL A   1      35.007  30.703  28.430  1.00  0.00     0.022 A 
BRANCH  82  85
ATOM     85  S   UNL A   1      34.651  33.409  28.256  1.00  0.00     0.127 S 
ATOM     86  O   UNL A   1      35.475  34.096  27.265  1.00  0.00    -0.237 OA
ATOM     87  O   UNL A   1      33.418  32.822  27.733  1.00  0.00    -0.237 OA
ATOM     88  O   UNL A   1      34.500  34.095  29.533  1.00  0.00    -0.744 OA
ENDBRANCH  82  85
ENDBRANCH  54  78
BRANCH  66  89
ATOM     89  C   UNL A   1      40.570  33.674  35.100  1.00  0.00     0.023 A 
ATOM     90  C   UNL A   1      40.355  35.060  34.965  1.00  0.00     0.012 A 
ATOM     91  C   UNL A   1      40.193  33.034  36.299  1.00  0.00     0.148 A 
ATOM     92  C   UNL A   1      39.808  35.801  36.014  1.00  0.00     0.002 A 
ATOM     93  C   UNL A   1      39.601  33.768  37.320  1.00  0.00     0.091 A 
ATOM     94  F   UNL A   1      40.414  31.716  36.415  1.00  0.00    -0.205 F 
ATOM     95  C   UNL A   1      39.421  35.154  37.185  1.00  0.00     0.022 A 
BRANCH  93  96
ATOM     96  S   UNL A   1      38.985  33.010  38.828  1.00  0.00     0.127 S 
ATOM     97  O   UNL A   1      38.074  31.996  38.302  1.00  0.00    -0.237 OA
ATOM     98  O   UNL A   1      40.209  32.480  39.427  1.00  0.00    -0.237 OA
ATOM     99  O   UNL A   1      38.348  34.078  39.588  1.00  0.00    -0.744 OA
ENDBRANCH  93  96
ENDBRANCH  66  89
ENDBRANCH  40  41
ENDBRANCH  33  35
ENDBRANCH  32  33
ENDBRANCH  31  32
ENDBRANCH  30  31
ENDBRANCH  29  30
ENDBRANCH  28  29
ENDBRANCH   1  28
TORSDOF 26
ENDMDL
MODEL 3
REMARK VINA RESULT:      -9.4      5.049      7.632
REMARK SMILES CCCOc1ccccc1O[C@@H]1CC[C@@]([NH3+])(C(=O)OCCOCCOCCOC(=O)c2ccc(-c3c4nc(c(-c5cccc(S(=O)(=O)[O-])c5F)c5ccc([nH]5)c(-c5cccc(S(=O)(=O)[O-])c5F)c5nc(c(-c6cccc(S(=O)(=O)[O-])c6F)c6ccc3[nH]6)C=C5)C=C4)cc2)C1
REMARK SMILES IDX 23 1 22 2 21 3 20 4 19 5 17 6 18 7 15 8 12 9 13 10 94 11
REMARK SMILES IDX 14 12 11 13 10 14 5 15 6 16 7 17 9 18 8 19 4 20 3 21 2 22
REMARK SMILES IDX 1 23 16 24 24 28 25 29 26 30 27 31 28 32 29 33 30 34 31 35
REMARK SMILES IDX 32 36 93 37 33 38 92 39 34 40 35 41 36 42 86 43 37 44 91 45
REMARK SMILES IDX 85 46 87 47 38 48 90 49 84 50 83 51 39 53 71 54 51 55 70 56
REMARK SMILES IDX 52 57 55 58 69 59 88 60 53 61 54 62 68 64 89 65 56 66 40 67
REMARK SMILES IDX 41 68 49 69 42 70 44 71 50 72 43 73 45 74 46 75 47 76 48 77
REMARK SMILES IDX 72 78 73 79 81 80 74 81 76 82 82 83 75 84 77 85 78 86 79 87
REMARK SMILES IDX 80 88 57 89 58 90 66 91 59 92 61 93 67 94 60 95 62 96 63 97
REMARK SMILES IDX 64 98 65 99
REMARK H PARENT 16 25 16 26 16 27 87 52 55 63
REMARK Flexibility Score: inf
ROOT
ATOM      1  C   UNL A   1      40.627  21.821  27.096  1.00  0.00     0.188 C 
ENDROOT
BRANCH   1   2
ATOM      2  O   UNL A   1      40.389  22.946  27.909  1.00  0.00    -0.376 OA
BRANCH   2   3
ATOM      3  C   UNL A   1      41.090  24.137  27.590  1.00  0.00     0.202 C 
BRANCH   3   4
ATOM      4  C   UNL A   1      41.100  25.399  28.507  1.00  0.00     0.261 C 
BRANCH   4   5
ATOM      5  O   UNL A   1      41.003  26.714  27.904  1.00  0.00    -0.459 OA
BRANCH   5   6
ATOM      6  C   UNL A   1      40.049  27.619  28.349  1.00  0.00     0.368 C 
ATOM      7  O   UNL A   1      38.843  27.493  28.184  1.00  0.00    -0.245 OA
BRANCH   6   8
ATOM      8  C   UNL A   1      40.749  28.998  29.069  1.00  0.00     0.196 C 
ATOM      9  C   UNL A   1      39.249  30.894  31.319  1.00  0.00     0.180 C 
ATOM     10  C   UNL A   1      40.542  29.655  32.265  1.00  0.00     0.052 C 
ATOM     11  C   UNL A   1      39.512  30.601  29.302  1.00  0.00     0.126 C 
ATOM     12  C   UNL A   1      41.368  28.465  30.893  1.00  0.00     0.085 C 
BRANCH   9  13
ATOM     13  O   UNL A   1      38.842  32.110  31.895  1.00  0.00    -0.486 OA
BRANCH  13  14
ATOM     14  C   UNL A   1      37.552  32.379  31.682  1.00  0.00     0.161 A 
ATOM     15  C   UNL A   1      37.190  33.567  31.089  1.00  0.00     0.161 A 
ATOM     16  C   UNL A   1      35.845  33.875  30.980  1.00  0.00     0.050 A 
ATOM     17  C   UNL A   1      34.889  32.962  31.453  1.00  0.00     0.004 A 
ATOM     18  C   UNL A   1      36.627  31.479  32.193  1.00  0.00     0.050 A 
ATOM     19  C   UNL A   1      35.280  31.769  32.070  1.00  0.00     0.004 A 
BRANCH  15  20
ATOM     20  O   UNL A   1      38.169  34.500  30.929  1.00  0.00    -0.490 OA
BRANCH  20  21
ATOM     21  C   UNL A   1      38.901  34.647  29.594  1.00  0.00     0.229 C 
BRANCH  21  22
ATOM     22  C   UNL A   1      41.002  35.008  29.132  1.00  0.00     0.038 C 
ATOM     23  C   UNL A   1      41.847  36.438  28.505  1.00  0.00     0.007 C 
ENDBRANCH  21  22
ENDBRANCH  20  21
ENDBRANCH  15  20
ENDBRANCH  13  14
ENDBRANCH   9  13
BRANCH   8  24
ATOM     24  N   UNL A   1      41.928  29.187  28.174  1.00  0.00    -0.343 N 
ATOM     25  H   UNL A   1      42.746  28.741  28.589  1.00  0.00     0.345 HD
ATOM     26  H   UNL A   1      42.108  30.185  28.056  1.00  0.00     0.345 HD
ATOM     27  H   UNL A   1      41.735  28.767  27.264  1.00  0.00     0.345 HD
ENDBRANCH   8  24
ENDBRANCH   6   8
ENDBRANCH   5   6
ENDBRANCH   4   5
ENDBRANCH   3   4
ENDBRANCH   2   3
ENDBRANCH   1   2
BRANCH   1  28
ATOM     28  C   UNL A   1      41.769  21.861  26.073  1.00  0.00     0.188 C 
BRANCH  28  29
ATOM     29  O   UNL A   1      43.053  21.491  26.475  1.00  0.00    -0.376 OA
BRANCH  29  30
ATOM     30  C   UNL A   1      43.816  20.720  25.574  1.00  0.00     0.202 C 
BRANCH  30  31
ATOM     31  C   UNL A   1      44.739  21.303  24.470  1.00  0.00     0.261 C 
BRANCH  31  32
ATOM     32  O   UNL A   1      44.717  22.719  24.178  1.00  0.00    -0.460 OA
BRANCH  32  33
ATOM     33  C   UNL A   1      45.885  23.402  24.375  1.00  0.00     0.338 C 
ATOM     34  O   UNL A   1      46.888  23.316  23.684  1.00  0.00    -0.246 OA
BRANCH  33  35
ATOM     35  C   UNL A   1      45.711  24.469  25.402  1.00  0.00     0.060 A 
ATOM     36  C   UNL A   1      46.835  24.916  26.113  1.00  0.00     0.016 A 
ATOM     37  C   UNL A   1      44.459  24.997  25.715  1.00  0.00     0.016 A 
ATOM     38  C   UNL A   1      46.718  25.912  27.096  1.00  0.00     0.010 A 
ATOM     39  C   UNL A   1      44.341  25.979  26.719  1.00  0.00     0.010 A 
ATOM     40  C   UNL A   1      45.470  26.461  27.409  1.00  0.00    -0.014 A 
BRANCH  40  41
ATOM     41  C   UNL A   1      45.335  27.467  28.505  1.00  0.00     0.031 A 
ATOM     42  C   UNL A   1      45.081  27.004  29.913  1.00  0.00     0.074 A 
ATOM     43  C   UNL A   1      45.430  28.791  28.269  1.00  0.00     0.049 A 
ATOM     44  N   UNL A   1      44.780  27.705  30.976  1.00  0.00    -0.248 NA
ATOM     45  C   UNL A   1      45.182  25.557  30.152  1.00  0.00     0.031 C 
ATOM     46  C   UNL A   1      45.742  29.395  26.978  1.00  0.00     0.029 A 
ATOM     47  N   UNL A   1      45.247  29.872  29.107  1.00  0.00    -0.354 N 
ATOM     48  C   UNL A   1      44.597  26.785  32.000  1.00  0.00     0.074 A 
ATOM     49  C   UNL A   1      44.855  25.476  31.435  1.00  0.00     0.031 C 
ATOM     50  C   UNL A   1      45.711  30.734  27.099  1.00  0.00     0.029 A 
ATOM     51  C   UNL A   1      45.301  31.087  28.458  1.00  0.00     0.049 A 
ATOM     52  H   UNL A   1      45.094  29.784  30.074  1.00  0.00     0.167 HD
ATOM     53  C   UNL A   1      44.231  27.003  33.286  1.00  0.00     0.034 A 
ATOM     54  C   UNL A   1      44.993  32.333  28.884  1.00  0.00     0.034 A 
ATOM     55  C   UNL A   1      43.972  28.300  33.856  1.00  0.00     0.049 A 
ATOM     56  C   UNL A   1      44.502  32.541  30.298  1.00  0.00     0.074 A 
ATOM     57  C   UNL A   1      43.605  28.607  35.156  1.00  0.00     0.029 A 
ATOM     58  N   UNL A   1      44.020  29.499  33.165  1.00  0.00    -0.354 N 
ATOM     59  N   UNL A   1      44.379  31.668  31.269  1.00  0.00    -0.248 NA
ATOM     60  C   UNL A   1      44.106  33.908  30.676  1.00  0.00     0.031 C 
ATOM     61  C   UNL A   1      43.372  29.984  35.233  1.00  0.00     0.029 A 
ATOM     62  C   UNL A   1      43.660  30.543  34.001  1.00  0.00     0.049 A 
ATOM     63  H   UNL A   1      44.273  29.595  32.218  1.00  0.00     0.167 HD
ATOM     64  C   UNL A   1      43.918  32.382  32.372  1.00  0.00     0.074 A 
ATOM     65  C   UNL A   1      43.813  33.766  31.962  1.00  0.00     0.031 C 
ATOM     66  C   UNL A   1      43.593  31.928  33.607  1.00  0.00     0.034 A 
BRANCH  53  67
ATOM     67  C   UNL A   1      44.034  25.798  34.170  1.00  0.00     0.023 A 
ATOM     68  C   UNL A   1      42.750  25.249  34.351  1.00  0.00     0.012 A 
ATOM     69  C   UNL A   1      45.146  25.179  34.777  1.00  0.00     0.148 A 
ATOM     70  C   UNL A   1      42.571  24.123  35.157  1.00  0.00     0.002 A 
ATOM     71  C   UNL A   1      44.965  24.031  35.535  1.00  0.00     0.091 A 
ATOM     72  F   UNL A   1      46.357  25.728  34.602  1.00  0.00    -0.205 F 
ATOM     73  C   UNL A   1      43.678  23.509  35.738  1.00  0.00     0.022 A 
BRANCH  71  74
ATOM     74  S   UNL A   1      46.335  23.122  36.259  1.00  0.00     0.127 S 
ATOM     75  O   UNL A   1      47.133  22.802  35.077  1.00  0.00    -0.237 OA
ATOM     76  O   UNL A   1      46.931  24.124  37.145  1.00  0.00    -0.237 OA
ATOM     77  O   UNL A   1      45.748  21.977  36.940  1.00  0.00    -0.744 OA
ENDBRANCH  71  74
ENDBRANCH  53  67
BRANCH  54  78
ATOM     78  C   UNL A   1      45.072  33.499  27.950  1.00  0.00     0.023 A 
ATOM     79  C   UNL A   1      43.985  33.801  27.104  1.00  0.00     0.012 A 
ATOM     80  C   UNL A   1      46.239  34.284  27.866  1.00  0.00     0.148 A 
ATOM     81  C   UNL A   1      44.074  34.836  26.170  1.00  0.00     0.002 A 
ATOM     82  C   UNL A   1      46.296  35.354  26.980  1.00  0.00     0.091 A 
ATOM     83  F   UNL A   1      47.275  33.966  28.654  1.00  0.00    -0.205 F 
ATOM     84  C   UNL A   1      45.224  35.619  26.116  1.00  0.00     0.022 A 
BRANCH  82  85
ATOM     85  S   UNL A   1      47.690  36.485  26.923  1.00  0.00     0.127 S 
ATOM     86  O   UNL A   1      48.759  35.619  26.433  1.00  0.00    -0.237 OA
ATOM     87  O   UNL A   1      47.220  37.487  25.967  1.00  0.00    -0.237 OA
ATOM     88  O   UNL A   1      47.855  36.979  28.284  1.00  0.00    -0.744 OA
ENDBRANCH  82  85
ENDBRANCH  54  78
BRANCH  66  89
ATOM     89  C   UNL A   1      43.133  32.932  34.638  1.00  0.00     0.023 A 
ATOM     90  C   UNL A   1      44.073  33.604  35.444  1.00  0.00     0.012 A 
ATOM     91  C   UNL A   1      41.768  33.267  34.751  1.00  0.00     0.148 A 
ATOM     92  C   UNL A   1      43.660  34.565  36.368  1.00  0.00     0.002 A 
ATOM     93  C   UNL A   1      41.368  34.262  35.635  1.00  0.00     0.091 A 
ATOM     94  F   UNL A   1      40.884  32.610  33.983  1.00  0.00    -0.205 F 
ATOM     95  C   UNL A   1      42.311  34.902  36.456  1.00  0.00     0.022 A 
BRANCH  93  96
ATOM     96  S   UNL A   1      39.668  34.830  35.754  1.00  0.00     0.127 S 
ATOM     97  O   UNL A   1      38.986  33.629  36.234  1.00  0.00    -0.237 OA
ATOM     98  O   UNL A   1      39.772  35.907  36.737  1.00  0.00    -0.237 OA
ATOM     99  O   UNL A   1      39.289  35.262  34.415  1.00  0.00    -0.744 OA
ENDBRANCH  93  96
ENDBRANCH  66  89
ENDBRANCH  40  41
ENDBRANCH  33  35
ENDBRANCH  32  33
ENDBRANCH  31  32
ENDBRANCH  30  31
ENDBRANCH  29  30
ENDBRANCH  28  29
ENDBRANCH   1  28
TORSDOF 26
ENDMDL
