MODEL 1
REMARK VINA RESULT:     -10.0      0.000      0.000
REMARK SMILES O=C(OCCOCCOCCOC(=O)[C@H]1C[C@H](O)CN1S(=O)(=O)c1ccc2c(c1)OCCO2)c1ccc(-c2c3nc(c(-c4cccc(S(=O)(=O)[O-])c4F)c4ccc([nH]4)c(-c4cccc(S(=O)(=O)[O-])c4F)c4nc(c(-c5cccc(S(=O)(=O)[O-])c5F)c5ccc2[nH]5)C=C4)C=C3)cc1
REMARK SMILES IDX 7 1 6 2 5 3 4 4 3 5 2 6 1 7 34 8 35 9 96 10 36 11 95 12
REMARK SMILES IDX 37 13 38 14 39 15 89 16 40 17 94 18 88 19 90 20 41 21 93 22
REMARK SMILES IDX 87 23 86 24 42 26 74 27 54 28 73 29 55 30 58 31 72 32 91 33
REMARK SMILES IDX 56 34 57 35 71 37 92 38 59 39 43 40 44 41 52 42 45 43 47 44
REMARK SMILES IDX 53 45 46 46 48 47 49 48 50 49 51 50 75 51 76 52 84 53 77 54
REMARK SMILES IDX 79 55 85 56 78 57 80 58 81 59 82 60 83 61 60 62 61 63 69 64
REMARK SMILES IDX 62 65 64 66 70 67 63 68 65 69 66 70 67 71 68 72 8 73 9 74
REMARK SMILES IDX 10 75 11 76 12 77 13 78 14 79 15 80 16 81 20 82 17 83 19 84
REMARK SMILES IDX 21 85 22 86 23 87 24 88 25 89 29 90 26 91 28 92 27 93 30 94
REMARK SMILES IDX 33 95 31 96 32 97 18 98
REMARK H PARENT 90 25 58 36 18 99
REMARK Flexibility Score: inf
ROOT
ATOM      1  C   UNL A   1      37.416  21.305  25.325  1.00  0.00     0.188 C 
ENDROOT
BRANCH   1   2
ATOM      2  O   UNL A   1      38.581  22.121  25.254  1.00  0.00    -0.376 OA
BRANCH   2   3
ATOM      3  C   UNL A   1      39.352  22.212  26.454  1.00  0.00     0.202 C 
BRANCH   3   4
ATOM      4  C   UNL A   1      40.554  21.257  26.621  1.00  0.00     0.261 C 
BRANCH   4   5
ATOM      5  O   UNL A   1      41.553  21.352  25.594  1.00  0.00    -0.460 OA
BRANCH   5   6
ATOM      6  C   UNL A   1      42.613  22.198  25.569  1.00  0.00     0.338 C 
ATOM      7  O   UNL A   1      43.661  21.847  25.035  1.00  0.00    -0.246 OA
BRANCH   6   8
ATOM      8  C   UNL A   1      42.594  23.524  26.225  1.00  0.00     0.060 A 
ATOM      9  C   UNL A   1      42.318  25.069  25.442  1.00  0.00     0.016 A 
ATOM     10  C   UNL A   1      42.920  23.557  27.991  1.00  0.00     0.016 A 
ATOM     11  C   UNL A   1      42.293  26.634  26.279  1.00  0.00     0.010 A 
ATOM     12  C   UNL A   1      42.949  25.349  28.945  1.00  0.00     0.010 A 
ATOM     13  C   UNL A   1      42.589  26.827  27.984  1.00  0.00    -0.014 A 
BRANCH  13  14
ATOM     14  C   UNL A   1      42.840  28.223  28.377  1.00  0.00     0.031 A 
ATOM     15  C   UNL A   1      41.720  29.007  28.974  1.00  0.00     0.074 A 
ATOM     16  C   UNL A   1      44.108  28.657  28.495  1.00  0.00     0.049 A 
ATOM     17  N   UNL A   1      41.646  30.260  29.318  1.00  0.00    -0.248 NA
ATOM     18  C   UNL A   1      40.492  28.265  29.247  1.00  0.00     0.031 C 
ATOM     19  C   UNL A   1      45.306  27.889  28.156  1.00  0.00     0.029 A 
ATOM     20  N   UNL A   1      44.605  29.839  28.973  1.00  0.00    -0.354 N 
ATOM     21  C   UNL A   1      40.336  30.441  29.754  1.00  0.00     0.074 A 
ATOM     22  C   UNL A   1      39.634  29.203  29.585  1.00  0.00     0.031 C 
ATOM     23  C   UNL A   1      46.398  28.623  28.414  1.00  0.00     0.029 A 
ATOM     24  C   UNL A   1      45.972  29.939  28.860  1.00  0.00     0.049 A 
ATOM     25  H   UNL A   1      44.040  30.547  29.358  1.00  0.00     0.167 HD
ATOM     26  C   UNL A   1      39.780  31.530  30.317  1.00  0.00     0.034 A 
ATOM     27  C   UNL A   1      46.767  31.009  29.032  1.00  0.00     0.034 A 
ATOM     28  C   UNL A   1      40.532  32.716  30.565  1.00  0.00     0.049 A 
ATOM     29  C   UNL A   1      46.106  32.283  29.479  1.00  0.00     0.074 A 
ATOM     30  C   UNL A   1      40.098  33.933  31.041  1.00  0.00     0.029 A 
ATOM     31  N   UNL A   1      41.898  32.813  30.350  1.00  0.00    -0.354 N 
ATOM     32  N   UNL A   1      44.846  32.491  29.786  1.00  0.00    -0.248 NA
ATOM     33  C   UNL A   1      46.965  33.461  29.619  1.00  0.00     0.031 C 
ATOM     34  C   UNL A   1      41.199  34.792  31.049  1.00  0.00     0.029 A 
ATOM     35  C   UNL A   1      42.327  34.081  30.662  1.00  0.00     0.049 A 
ATOM     36  H   UNL A   1      42.473  32.084  30.025  1.00  0.00     0.167 HD
ATOM     37  C   UNL A   1      44.768  33.813  30.197  1.00  0.00     0.074 A 
ATOM     38  C   UNL A   1      46.115  34.347  30.118  1.00  0.00     0.031 C 
ATOM     39  C   UNL A   1      43.692  34.534  30.598  1.00  0.00     0.034 A 
BRANCH  26  40
ATOM     40  C   UNL A   1      38.307  31.484  30.606  1.00  0.00     0.023 A 
ATOM     41  C   UNL A   1      37.810  30.980  31.828  1.00  0.00     0.012 A 
ATOM     42  C   UNL A   1      37.407  31.902  29.612  1.00  0.00     0.148 A 
ATOM     43  C   UNL A   1      36.435  30.855  32.032  1.00  0.00     0.002 A 
ATOM     44  C   UNL A   1      36.042  31.833  29.846  1.00  0.00     0.091 A 
ATOM     45  F   UNL A   1      37.904  32.333  28.445  1.00  0.00    -0.205 F 
ATOM     46  C   UNL A   1      35.552  31.293  31.046  1.00  0.00     0.022 A 
BRANCH  44  47
ATOM     47  S   UNL A   1      34.837  32.438  28.665  1.00  0.00     0.127 S 
ATOM     48  O   UNL A   1      34.324  31.190  28.099  1.00  0.00    -0.237 OA
ATOM     49  O   UNL A   1      33.898  33.147  29.534  1.00  0.00    -0.237 OA
ATOM     50  O   UNL A   1      35.569  33.281  27.731  1.00  0.00    -0.744 OA
ENDBRANCH  44  47
ENDBRANCH  26  40
BRANCH  27  51
ATOM     51  C   UNL A   1      48.218  30.953  28.690  1.00  0.00     0.023 A 
ATOM     52  C   UNL A   1      48.663  31.230  27.385  1.00  0.00     0.012 A 
ATOM     53  C   UNL A   1      49.162  30.571  29.666  1.00  0.00     0.148 A 
ATOM     54  C   UNL A   1      50.010  31.076  27.045  1.00  0.00     0.002 A 
ATOM     55  C   UNL A   1      50.508  30.481  29.339  1.00  0.00     0.091 A 
ATOM     56  F   UNL A   1      48.724  30.298  30.903  1.00  0.00    -0.205 F 
ATOM     57  C   UNL A   1      50.933  30.707  28.022  1.00  0.00     0.022 A 
BRANCH  55  58
ATOM     58  S   UNL A   1      51.770  30.123  30.566  1.00  0.00     0.127 S 
ATOM     59  O   UNL A   1      51.452  28.744  30.928  1.00  0.00    -0.237 OA
ATOM     60  O   UNL A   1      52.999  30.292  29.790  1.00  0.00    -0.237 OA
ATOM     61  O   UNL A   1      51.590  31.110  31.623  1.00  0.00    -0.744 OA
ENDBRANCH  55  58
ENDBRANCH  27  51
BRANCH  39  62
ATOM     62  C   UNL A   1      43.948  35.933  31.061  1.00  0.00     0.023 A 
ATOM     63  C   UNL A   1      44.353  36.186  32.384  1.00  0.00     0.012 A 
ATOM     64  C   UNL A   1      43.849  36.990  30.137  1.00  0.00     0.148 A 
ATOM     65  C   UNL A   1      44.606  37.491  32.795  1.00  0.00     0.002 A 
ATOM     66  C   UNL A   1      44.175  38.274  30.535  1.00  0.00     0.091 A 
ATOM     67  F   UNL A   1      43.456  36.713  28.885  1.00  0.00    -0.205 F 
ATOM     68  C   UNL A   1      44.532  38.530  31.870  1.00  0.00     0.022 A 
BRANCH  66  69
ATOM     69  S   UNL A   1      44.217  39.646  29.383  1.00  0.00     0.127 S 
ATOM     70  O   UNL A   1      44.800  40.703  30.206  1.00  0.00    -0.237 OA
ATOM     71  O   UNL A   1      45.095  39.132  28.332  1.00  0.00    -0.237 OA
ATOM     72  O   UNL A   1      42.839  39.872  28.968  1.00  0.00    -0.744 OA
ENDBRANCH  66  69
ENDBRANCH  39  62
ENDBRANCH  13  14
ENDBRANCH   6   8
ENDBRANCH   5   6
ENDBRANCH   4   5
ENDBRANCH   3   4
ENDBRANCH   2   3
ENDBRANCH   1   2
BRANCH   1  73
ATOM     73  C   UNL A   1      36.136  22.015  25.764  1.00  0.00     0.188 C 
BRANCH  73  74
ATOM     74  O   UNL A   1      35.592  22.965  24.860  1.00  0.00    -0.376 OA
BRANCH  74  75
ATOM     75  C   UNL A   1      35.375  24.258  25.407  1.00  0.00     0.202 C 
BRANCH  75  76
ATOM     76  C   UNL A   1      34.448  25.262  24.678  1.00  0.00     0.261 C 
BRANCH  76  77
ATOM     77  O   UNL A   1      34.054  25.017  23.311  1.00  0.00    -0.462 OA
BRANCH  77  78
ATOM     78  C   UNL A   1      33.491  26.012  22.583  1.00  0.00     0.324 C 
ATOM     79  O   UNL A   1      33.609  26.032  21.358  1.00  0.00    -0.250 OA
BRANCH  78  80
ATOM     80  C   UNL A   1      32.824  27.174  23.376  1.00  0.00     0.185 C 
ATOM     81  C   UNL A   1      32.738  28.394  22.409  1.00  0.00     0.065 C 
ATOM     82  N   UNL A   1      31.473  27.251  24.206  1.00  0.00    -0.181 NA
ATOM     83  C   UNL A   1      31.275  28.772  22.379  1.00  0.00     0.131 C 
ATOM     84  C   UNL A   1      30.884  28.566  23.834  1.00  0.00     0.135 C 
BRANCH  82  85
ATOM     85  S   UNL A   1      30.522  25.850  24.074  1.00  0.00     0.244 S 
ATOM     86  O   UNL A   1      29.268  26.187  24.716  1.00  0.00    -0.207 OA
ATOM     87  O   UNL A   1      30.601  25.595  22.659  1.00  0.00    -0.207 OA
BRANCH  85  88
ATOM     88  C   UNL A   1      31.104  24.245  25.027  1.00  0.00     0.086 A 
ATOM     89  C   UNL A   1      31.853  23.756  26.857  1.00  0.00     0.026 A 
ATOM     90  C   UNL A   1      31.309  22.981  23.735  1.00  0.00     0.072 A 
ATOM     91  C   UNL A   1      32.658  22.166  27.093  1.00  0.00     0.052 A 
ATOM     92  C   UNL A   1      32.099  21.462  24.152  1.00  0.00     0.162 A 
ATOM     93  C   UNL A   1      32.741  21.092  25.750  1.00  0.00     0.161 A 
ATOM     94  O   UNL A   1      32.278  20.526  23.161  1.00  0.00    -0.486 OA
ATOM     95  O   UNL A   1      33.398  19.911  25.976  1.00  0.00    -0.486 OA
ATOM     96  C   UNL A   1      32.536  19.245  23.763  1.00  0.00     0.271 C 
ATOM     97  C   UNL A   1      33.713  19.269  24.740  1.00  0.00     0.271 C 
ENDBRANCH  85  88
ENDBRANCH  82  85
BRANCH  83  98
ATOM     98  O   UNL A   1      31.074  30.094  21.906  1.00  0.00    -0.392 OA
ATOM     99  H   UNL A   1      31.018  30.085  20.938  1.00  0.00     0.211 HD
ENDBRANCH  83  98
ENDBRANCH  78  80
ENDBRANCH  77  78
ENDBRANCH  76  77
ENDBRANCH  75  76
ENDBRANCH  74  75
ENDBRANCH  73  74
ENDBRANCH   1  73
TORSDOF 23
ENDMDL
MODEL 2
REMARK VINA RESULT:     -10.0      1.353      7.663
REMARK SMILES O=C(OCCOCCOCCOC(=O)[C@H]1C[C@H](O)CN1S(=O)(=O)c1ccc2c(c1)OCCO2)c1ccc(-c2c3nc(c(-c4cccc(S(=O)(=O)[O-])c4F)c4ccc([nH]4)c(-c4cccc(S(=O)(=O)[O-])c4F)c4nc(c(-c5cccc(S(=O)(=O)[O-])c5F)c5ccc2[nH]5)C=C4)C=C3)cc1
REMARK SMILES IDX 7 1 6 2 5 3 4 4 3 5 2 6 1 7 34 8 35 9 96 10 36 11 95 12
REMARK SMILES IDX 37 13 38 14 39 15 89 16 40 17 94 18 88 19 90 20 41 21 93 22
REMARK SMILES IDX 87 23 86 24 42 26 74 27 54 28 73 29 55 30 58 31 72 32 91 33
REMARK SMILES IDX 56 34 57 35 71 37 92 38 59 39 43 40 44 41 52 42 45 43 47 44
REMARK SMILES IDX 53 45 46 46 48 47 49 48 50 49 51 50 75 51 76 52 84 53 77 54
REMARK SMILES IDX 79 55 85 56 78 57 80 58 81 59 82 60 83 61 60 62 61 63 69 64
REMARK SMILES IDX 62 65 64 66 70 67 63 68 65 69 66 70 67 71 68 72 8 73 9 74
REMARK SMILES IDX 10 75 11 76 12 77 13 78 14 79 15 80 16 81 20 82 17 83 19 84
REMARK SMILES IDX 21 85 22 86 23 87 24 88 25 89 29 90 26 91 28 92 27 93 30 94
REMARK SMILES IDX 33 95 31 96 32 97 18 98
REMARK H PARENT 90 25 58 36 18 99
REMARK Flexibility Score: inf
ROOT
ATOM      1  C   UNL A   1      38.146  21.058  25.299  1.00  0.00     0.188 C 
ENDROOT
BRANCH   1   2
ATOM      2  O   UNL A   1      38.494  22.022  26.287  1.00  0.00    -0.376 OA
BRANCH   2   3
ATOM      3  C   UNL A   1      39.893  22.245  26.475  1.00  0.00     0.202 C 
BRANCH   3   4
ATOM      4  C   UNL A   1      40.843  21.033  26.374  1.00  0.00     0.261 C 
BRANCH   4   5
ATOM      5  O   UNL A   1      41.993  21.228  25.537  1.00  0.00    -0.460 OA
BRANCH   5   6
ATOM      6  C   UNL A   1      43.050  22.040  25.787  1.00  0.00     0.338 C 
ATOM      7  O   UNL A   1      44.180  21.689  25.460  1.00  0.00    -0.246 OA
BRANCH   6   8
ATOM      8  C   UNL A   1      42.918  23.325  26.511  1.00  0.00     0.060 A 
ATOM      9  C   UNL A   1      42.500  24.876  25.809  1.00  0.00     0.016 A 
ATOM     10  C   UNL A   1      43.255  23.296  28.275  1.00  0.00     0.016 A 
ATOM     11  C   UNL A   1      42.343  26.389  26.725  1.00  0.00     0.010 A 
ATOM     12  C   UNL A   1      43.133  25.034  29.319  1.00  0.00     0.010 A 
ATOM     13  C   UNL A   1      42.634  26.521  28.437  1.00  0.00    -0.014 A 
BRANCH  13  14
ATOM     14  C   UNL A   1      42.764  27.912  28.899  1.00  0.00     0.031 A 
ATOM     15  C   UNL A   1      44.094  28.580  28.780  1.00  0.00     0.074 A 
ATOM     16  C   UNL A   1      41.656  28.644  29.108  1.00  0.00     0.049 A 
ATOM     17  N   UNL A   1      44.498  29.748  29.186  1.00  0.00    -0.248 NA
ATOM     18  C   UNL A   1      45.129  27.827  28.077  1.00  0.00     0.031 C 
ATOM     19  C   UNL A   1      40.281  28.150  29.026  1.00  0.00     0.029 A 
ATOM     20  N   UNL A   1      41.506  29.973  29.394  1.00  0.00    -0.354 N 
ATOM     21  C   UNL A   1      45.851  29.799  28.856  1.00  0.00     0.074 A 
ATOM     22  C   UNL A   1      46.216  28.541  28.273  1.00  0.00     0.031 C 
ATOM     23  C   UNL A   1      39.428  29.153  29.277  1.00  0.00     0.029 A 
ATOM     24  C   UNL A   1      40.198  30.338  29.615  1.00  0.00     0.049 A 
ATOM     25  H   UNL A   1      42.259  30.606  29.438  1.00  0.00     0.167 HD
ATOM     26  C   UNL A   1      46.704  30.834  28.965  1.00  0.00     0.034 A 
ATOM     27  C   UNL A   1      39.703  31.487  30.109  1.00  0.00     0.034 A 
ATOM     28  C   UNL A   1      46.286  32.106  29.457  1.00  0.00     0.049 A 
ATOM     29  C   UNL A   1      40.691  32.578  30.410  1.00  0.00     0.074 A 
ATOM     30  C   UNL A   1      47.043  33.227  29.715  1.00  0.00     0.029 A 
ATOM     31  N   UNL A   1      44.968  32.412  29.760  1.00  0.00    -0.354 N 
ATOM     32  N   UNL A   1      41.988  32.593  30.204  1.00  0.00    -0.248 NA
ATOM     33  C   UNL A   1      40.157  33.812  30.993  1.00  0.00     0.031 C 
ATOM     34  C   UNL A   1      46.187  34.194  30.243  1.00  0.00     0.029 A 
ATOM     35  C   UNL A   1      44.888  33.702  30.228  1.00  0.00     0.049 A 
ATOM     36  H   UNL A   1      44.206  31.798  29.656  1.00  0.00     0.167 HD
ATOM     37  C   UNL A   1      42.420  33.852  30.593  1.00  0.00     0.074 A 
ATOM     38  C   UNL A   1      41.240  34.575  31.026  1.00  0.00     0.031 C 
ATOM     39  C   UNL A   1      43.672  34.373  30.605  1.00  0.00     0.034 A 
BRANCH  26  40
ATOM     40  C   UNL A   1      48.144  30.583  28.622  1.00  0.00     0.023 A 
ATOM     41  C   UNL A   1      48.648  30.825  27.326  1.00  0.00     0.012 A 
ATOM     42  C   UNL A   1      48.991  30.042  29.604  1.00  0.00     0.148 A 
ATOM     43  C   UNL A   1      49.964  30.488  27.006  1.00  0.00     0.002 A 
ATOM     44  C   UNL A   1      50.315  29.769  29.296  1.00  0.00     0.091 A 
ATOM     45  F   UNL A   1      48.477  29.780  30.813  1.00  0.00    -0.205 F 
ATOM     46  C   UNL A   1      50.800  29.972  27.994  1.00  0.00     0.022 A 
BRANCH  44  47
ATOM     47  S   UNL A   1      51.479  29.171  30.522  1.00  0.00     0.127 S 
ATOM     48  O   UNL A   1      52.614  28.778  29.687  1.00  0.00    -0.237 OA
ATOM     49  O   UNL A   1      51.700  30.368  31.332  1.00  0.00    -0.237 OA
ATOM     50  O   UNL A   1      50.815  28.074  31.212  1.00  0.00    -0.744 OA
ENDBRANCH  44  47
ENDBRANCH  26  40
BRANCH  27  51
ATOM     51  C   UNL A   1      38.255  31.622  30.436  1.00  0.00     0.023 A 
ATOM     52  C   UNL A   1      37.718  31.029  31.594  1.00  0.00     0.012 A 
ATOM     53  C   UNL A   1      37.390  32.310  29.560  1.00  0.00     0.148 A 
ATOM     54  C   UNL A   1      36.344  31.072  31.844  1.00  0.00     0.002 A 
ATOM     55  C   UNL A   1      36.034  32.404  29.844  1.00  0.00     0.091 A 
ATOM     56  F   UNL A   1      37.910  32.860  28.454  1.00  0.00    -0.205 F 
ATOM     57  C   UNL A   1      35.502  31.763  30.973  1.00  0.00     0.022 A 
BRANCH  55  58
ATOM     58  S   UNL A   1      34.908  33.370  28.834  1.00  0.00     0.127 S 
ATOM     59  O   UNL A   1      34.836  32.567  27.616  1.00  0.00    -0.237 OA
ATOM     60  O   UNL A   1      33.694  33.366  29.651  1.00  0.00    -0.237 OA
ATOM     61  O   UNL A   1      35.527  34.682  28.690  1.00  0.00    -0.744 OA
ENDBRANCH  55  58
ENDBRANCH  27  51
BRANCH  39  62
ATOM     62  C   UNL A   1      43.805  35.807  31.011  1.00  0.00     0.023 A 
ATOM     63  C   UNL A   1      43.922  36.818  30.040  1.00  0.00     0.012 A 
ATOM     64  C   UNL A   1      43.740  36.142  32.376  1.00  0.00     0.148 A 
ATOM     65  C   UNL A   1      44.026  38.149  30.432  1.00  0.00     0.002 A 
ATOM     66  C   UNL A   1      43.770  37.473  32.752  1.00  0.00     0.091 A 
ATOM     67  F   UNL A   1      43.634  35.152  33.275  1.00  0.00    -0.205 F 
ATOM     68  C   UNL A   1      43.935  38.477  31.783  1.00  0.00     0.022 A 
BRANCH  66  69
ATOM     69  S   UNL A   1      43.544  37.986  34.454  1.00  0.00     0.127 S 
ATOM     70  O   UNL A   1      43.674  39.437  34.343  1.00  0.00    -0.237 OA
ATOM     71  O   UNL A   1      42.190  37.511  34.737  1.00  0.00    -0.237 OA
ATOM     72  O   UNL A   1      44.592  37.326  35.222  1.00  0.00    -0.744 OA
ENDBRANCH  66  69
ENDBRANCH  39  62
ENDBRANCH  13  14
ENDBRANCH   6   8
ENDBRANCH   5   6
ENDBRANCH   4   5
ENDBRANCH   3   4
ENDBRANCH   2   3
ENDBRANCH   1   2
BRANCH   1  73
ATOM     73  C   UNL A   1      37.105  21.506  24.273  1.00  0.00     0.188 C 
BRANCH  73  74
ATOM     74  O   UNL A   1      36.031  22.295  24.759  1.00  0.00    -0.376 OA
BRANCH  74  75
ATOM     75  C   UNL A   1      35.971  23.616  24.237  1.00  0.00     0.202 C 
BRANCH  75  76
ATOM     76  C   UNL A   1      34.611  24.218  23.806  1.00  0.00     0.261 C 
BRANCH  76  77
ATOM     77  O   UNL A   1      34.303  25.594  24.114  1.00  0.00    -0.462 OA
BRANCH  77  78
ATOM     78  C   UNL A   1      33.656  26.360  23.202  1.00  0.00     0.324 C 
ATOM     79  O   UNL A   1      33.885  26.226  22.000  1.00  0.00    -0.250 OA
BRANCH  78  80
ATOM     80  C   UNL A   1      32.736  27.487  23.756  1.00  0.00     0.185 C 
ATOM     81  C   UNL A   1      32.757  28.646  22.713  1.00  0.00     0.065 C 
ATOM     82  N   UNL A   1      31.235  27.470  24.274  1.00  0.00    -0.181 NA
ATOM     83  C   UNL A   1      31.308  28.876  22.348  1.00  0.00     0.131 C 
ATOM     84  C   UNL A   1      30.630  28.702  23.698  1.00  0.00     0.135 C 
BRANCH  82  85
ATOM     85  S   UNL A   1      30.459  25.978  24.038  1.00  0.00     0.244 S 
ATOM     86  O   UNL A   1      29.127  26.159  24.579  1.00  0.00    -0.207 OA
ATOM     87  O   UNL A   1      30.681  25.771  22.630  1.00  0.00    -0.207 OA
BRANCH  85  88
ATOM     88  C   UNL A   1      31.136  24.421  25.008  1.00  0.00     0.086 A 
ATOM     89  C   UNL A   1      32.033  24.018  26.793  1.00  0.00     0.026 A 
ATOM     90  C   UNL A   1      31.258  23.107  23.757  1.00  0.00     0.072 A 
ATOM     91  C   UNL A   1      32.876  22.448  27.030  1.00  0.00     0.052 A 
ATOM     92  C   UNL A   1      32.099  21.615  24.173  1.00  0.00     0.162 A 
ATOM     93  C   UNL A   1      32.869  21.319  25.730  1.00  0.00     0.161 A 
ATOM     94  O   UNL A   1      32.214  20.640  23.210  1.00  0.00    -0.486 OA
ATOM     95  O   UNL A   1      33.559  20.157  25.952  1.00  0.00    -0.486 OA
ATOM     96  C   UNL A   1      32.536  19.388  23.843  1.00  0.00     0.271 C 
ATOM     97  C   UNL A   1      33.785  19.467  24.723  1.00  0.00     0.271 C 
ENDBRANCH  85  88
ENDBRANCH  82  85
BRANCH  83  98
ATOM     98  O   UNL A   1      31.103  30.148  21.755  1.00  0.00    -0.392 OA
ATOM     99  H   UNL A   1      30.227  30.484  22.007  1.00  0.00     0.211 HD
ENDBRANCH  83  98
ENDBRANCH  78  80
ENDBRANCH  77  78
ENDBRANCH  76  77
ENDBRANCH  75  76
ENDBRANCH  74  75
ENDBRANCH  73  74
ENDBRANCH   1  73
TORSDOF 23
ENDMDL
MODEL 3
REMARK VINA RESULT:      -9.8      4.487      9.671
REMARK SMILES O=C(OCCOCCOCCOC(=O)[C@H]1C[C@H](O)CN1S(=O)(=O)c1ccc2c(c1)OCCO2)c1ccc(-c2c3nc(c(-c4cccc(S(=O)(=O)[O-])c4F)c4ccc([nH]4)c(-c4cccc(S(=O)(=O)[O-])c4F)c4nc(c(-c5cccc(S(=O)(=O)[O-])c5F)c5ccc2[nH]5)C=C4)C=C3)cc1
REMARK SMILES IDX 7 1 6 2 5 3 4 4 3 5 2 6 1 7 34 8 35 9 96 10 36 11 95 12
REMARK SMILES IDX 37 13 38 14 39 15 89 16 40 17 94 18 88 19 90 20 41 21 93 22
REMARK SMILES IDX 87 23 86 24 42 26 74 27 54 28 73 29 55 30 58 31 72 32 91 33
REMARK SMILES IDX 56 34 57 35 71 37 92 38 59 39 43 40 44 41 52 42 45 43 47 44
REMARK SMILES IDX 53 45 46 46 48 47 49 48 50 49 51 50 75 51 76 52 84 53 77 54
REMARK SMILES IDX 79 55 85 56 78 57 80 58 81 59 82 60 83 61 60 62 61 63 69 64
REMARK SMILES IDX 62 65 64 66 70 67 63 68 65 69 66 70 67 71 68 72 8 73 9 74
REMARK SMILES IDX 10 75 11 76 12 77 13 78 14 79 15 80 16 81 20 82 17 83 19 84
REMARK SMILES IDX 21 85 22 86 23 87 24 88 25 89 29 90 26 91 28 92 27 93 30 94
REMARK SMILES IDX 33 95 31 96 32 97 18 98
REMARK H PARENT 90 25 58 36 18 99
REMARK Flexibility Score: inf
ROOT
ATOM      1  C   UNL A   1      35.573  33.333  28.288  1.00  0.00     0.188 C 
ENDROOT
BRANCH   1   2
ATOM      2  O   UNL A   1      34.512  34.260  28.080  1.00  0.00    -0.376 OA
BRANCH   2   3
ATOM      3  C   UNL A   1      33.602  34.421  29.171  1.00  0.00     0.202 C 
BRANCH   3   4
ATOM      4  C   UNL A   1      34.176  34.416  30.604  1.00  0.00     0.261 C 
BRANCH   4   5
ATOM      5  O   UNL A   1      34.206  33.132  31.243  1.00  0.00    -0.460 OA
BRANCH   5   6
ATOM      6  C   UNL A   1      35.076  32.722  32.200  1.00  0.00     0.338 C 
ATOM      7  O   UNL A   1      34.807  32.896  33.384  1.00  0.00    -0.246 OA
BRANCH   6   8
ATOM      8  C   UNL A   1      36.391  32.123  31.881  1.00  0.00     0.060 A 
ATOM      9  C   UNL A   1      36.917  30.496  32.270  1.00  0.00     0.016 A 
ATOM     10  C   UNL A   1      37.578  33.181  31.043  1.00  0.00     0.016 A 
ATOM     11  C   UNL A   1      38.505  29.822  31.853  1.00  0.00     0.010 A 
ATOM     12  C   UNL A   1      39.417  32.434  30.615  1.00  0.00     0.010 A 
ATOM     13  C   UNL A   1      39.758  30.720  31.043  1.00  0.00    -0.014 A 
BRANCH  13  14
ATOM     14  C   UNL A   1      41.075  30.066  31.104  1.00  0.00     0.031 A 
ATOM     15  C   UNL A   1      41.992  30.418  32.228  1.00  0.00     0.074 A 
ATOM     16  C   UNL A   1      41.299  28.963  30.369  1.00  0.00     0.049 A 
ATOM     17  N   UNL A   1      43.221  30.063  32.466  1.00  0.00    -0.248 NA
ATOM     18  C   UNL A   1      41.437  31.290  33.259  1.00  0.00     0.031 C 
ATOM     19  C   UNL A   1      40.372  28.386  29.394  1.00  0.00     0.029 A 
ATOM     20  N   UNL A   1      42.362  28.102  30.353  1.00  0.00    -0.354 N 
ATOM     21  C   UNL A   1      43.581  30.754  33.621  1.00  0.00     0.074 A 
ATOM     22  C   UNL A   1      42.478  31.584  34.007  1.00  0.00     0.031 C 
ATOM     23  C   UNL A   1      40.912  27.282  28.859  1.00  0.00     0.029 A 
ATOM     24  C   UNL A   1      42.253  27.120  29.396  1.00  0.00     0.049 A 
ATOM     25  H   UNL A   1      43.129  28.178  30.966  1.00  0.00     0.167 HD
ATOM     26  C   UNL A   1      44.713  30.652  34.343  1.00  0.00     0.034 A 
ATOM     27  C   UNL A   1      43.176  26.244  28.962  1.00  0.00     0.034 A 
ATOM     28  C   UNL A   1      45.752  29.742  33.989  1.00  0.00     0.049 A 
ATOM     29  C   UNL A   1      44.512  26.267  29.650  1.00  0.00     0.074 A 
ATOM     30  C   UNL A   1      46.996  29.583  34.559  1.00  0.00     0.029 A 
ATOM     31  N   UNL A   1      45.646  28.827  32.953  1.00  0.00    -0.354 N 
ATOM     32  N   UNL A   1      44.898  26.997  30.672  1.00  0.00    -0.248 NA
ATOM     33  C   UNL A   1      45.533  25.346  29.145  1.00  0.00     0.031 C 
ATOM     34  C   UNL A   1      47.671  28.611  33.818  1.00  0.00     0.029 A 
ATOM     35  C   UNL A   1      46.813  28.109  32.848  1.00  0.00     0.049 A 
ATOM     36  H   UNL A   1      44.854  28.709  32.381  1.00  0.00     0.167 HD
ATOM     37  C   UNL A   1      46.193  26.593  30.960  1.00  0.00     0.074 A 
ATOM     38  C   UNL A   1      46.513  25.539  30.016  1.00  0.00     0.031 C 
ATOM     39  C   UNL A   1      47.051  27.045  31.908  1.00  0.00     0.034 A 
BRANCH  26  40
ATOM     40  C   UNL A   1      44.882  31.593  35.501  1.00  0.00     0.023 A 
ATOM     41  C   UNL A   1      45.578  32.814  35.365  1.00  0.00     0.012 A 
ATOM     42  C   UNL A   1      44.383  31.217  36.759  1.00  0.00     0.148 A 
ATOM     43  C   UNL A   1      45.809  33.622  36.479  1.00  0.00     0.002 A 
ATOM     44  C   UNL A   1      44.562  32.056  37.849  1.00  0.00     0.091 A 
ATOM     45  F   UNL A   1      43.767  30.033  36.870  1.00  0.00    -0.205 F 
ATOM     46  C   UNL A   1      45.290  33.248  37.717  1.00  0.00     0.022 A 
BRANCH  44  47
ATOM     47  S   UNL A   1      43.869  31.689  39.461  1.00  0.00     0.127 S 
ATOM     48  O   UNL A   1      44.529  30.425  39.787  1.00  0.00    -0.237 OA
ATOM     49  O   UNL A   1      44.322  32.836  40.247  1.00  0.00    -0.237 OA
ATOM     50  O   UNL A   1      42.428  31.600  39.275  1.00  0.00    -0.744 OA
ENDBRANCH  44  47
ENDBRANCH  26  40
BRANCH  27  51
ATOM     51  C   UNL A   1      42.912  25.369  27.784  1.00  0.00     0.023 A 
ATOM     52  C   UNL A   1      43.135  25.833  26.475  1.00  0.00     0.012 A 
ATOM     53  C   UNL A   1      42.387  24.072  27.967  1.00  0.00     0.148 A 
ATOM     54  C   UNL A   1      42.790  25.046  25.372  1.00  0.00     0.002 A 
ATOM     55  C   UNL A   1      42.104  23.270  26.870  1.00  0.00     0.091 A 
ATOM     56  F   UNL A   1      42.167  23.645  29.218  1.00  0.00    -0.205 F 
ATOM     57  C   UNL A   1      42.279  23.764  25.568  1.00  0.00     0.022 A 
BRANCH  55  58
ATOM     58  S   UNL A   1      41.553  21.571  27.042  1.00  0.00     0.127 S 
ATOM     59  O   UNL A   1      42.564  21.017  27.938  1.00  0.00    -0.237 OA
ATOM     60  O   UNL A   1      40.227  21.744  27.637  1.00  0.00    -0.237 OA
ATOM     61  O   UNL A   1      41.534  21.019  25.693  1.00  0.00    -0.744 OA
ENDBRANCH  55  58
ENDBRANCH  27  51
BRANCH  39  62
ATOM     62  C   UNL A   1      48.367  26.343  32.021  1.00  0.00     0.023 A 
ATOM     63  C   UNL A   1      49.465  26.753  31.245  1.00  0.00     0.012 A 
ATOM     64  C   UNL A   1      48.515  25.311  32.967  1.00  0.00     0.148 A 
ATOM     65  C   UNL A   1      50.689  26.103  31.374  1.00  0.00     0.002 A 
ATOM     66  C   UNL A   1      49.754  24.720  33.140  1.00  0.00     0.091 A 
ATOM     67  F   UNL A   1      47.445  24.943  33.686  1.00  0.00    -0.205 F 
ATOM     68  C   UNL A   1      50.837  25.099  32.330  1.00  0.00     0.022 A 
BRANCH  66  69
ATOM     69  S   UNL A   1      50.057  23.506  34.423  1.00  0.00     0.127 S 
ATOM     70  O   UNL A   1      49.416  22.319  33.861  1.00  0.00    -0.237 OA
ATOM     71  O   UNL A   1      51.519  23.457  34.454  1.00  0.00    -0.237 OA
ATOM     72  O   UNL A   1      49.441  24.030  35.635  1.00  0.00    -0.744 OA
ENDBRANCH  66  69
ENDBRANCH  39  62
ENDBRANCH  13  14
ENDBRANCH   6   8
ENDBRANCH   5   6
ENDBRANCH   4   5
ENDBRANCH   3   4
ENDBRANCH   2   3
ENDBRANCH   1   2
BRANCH   1  73
ATOM     73  C   UNL A   1      35.357  31.938  27.703  1.00  0.00     0.188 C 
BRANCH  73  74
ATOM     74  O   UNL A   1      34.069  31.368  27.873  1.00  0.00    -0.376 OA
BRANCH  74  75
ATOM     75  C   UNL A   1      33.994  29.969  27.636  1.00  0.00     0.202 C 
BRANCH  75  76
ATOM     76  C   UNL A   1      32.674  29.338  27.128  1.00  0.00     0.261 C 
BRANCH  76  77
ATOM     77  O   UNL A   1      32.589  28.834  25.778  1.00  0.00    -0.462 OA
BRANCH  77  78
ATOM     78  C   UNL A   1      32.150  27.572  25.556  1.00  0.00     0.324 C 
ATOM     79  O   UNL A   1      32.486  26.654  26.305  1.00  0.00    -0.250 OA
BRANCH  78  80
ATOM     80  C   UNL A   1      31.333  27.329  24.253  1.00  0.00     0.185 C 
ATOM     81  C   UNL A   1      30.775  28.712  23.801  1.00  0.00     0.065 C 
ATOM     82  N   UNL A   1      31.706  26.606  22.890  1.00  0.00    -0.181 NA
ATOM     83  C   UNL A   1      31.274  28.898  22.387  1.00  0.00     0.131 C 
ATOM     84  C   UNL A   1      31.136  27.488  21.835  1.00  0.00     0.135 C 
BRANCH  82  85
ATOM     85  S   UNL A   1      33.340  26.151  22.795  1.00  0.00     0.244 S 
ATOM     86  O   UNL A   1      33.528  25.715  21.426  1.00  0.00    -0.207 OA
ATOM     87  O   UNL A   1      33.985  27.332  23.306  1.00  0.00    -0.207 OA
BRANCH  85  88
ATOM     88  C   UNL A   1      33.934  24.614  23.847  1.00  0.00     0.086 A 
ATOM     89  C   UNL A   1      35.584  24.038  24.894  1.00  0.00     0.026 A 
ATOM     90  C   UNL A   1      32.771  23.280  23.424  1.00  0.00     0.072 A 
ATOM     91  C   UNL A   1      35.806  22.307  25.322  1.00  0.00     0.052 A 
ATOM     92  C   UNL A   1      33.135  21.639  23.953  1.00  0.00     0.162 A 
ATOM     93  C   UNL A   1      34.585  21.190  24.847  1.00  0.00     0.161 A 
ATOM     94  O   UNL A   1      32.266  20.632  23.600  1.00  0.00    -0.486 OA
ATOM     95  O   UNL A   1      34.824  19.880  25.166  1.00  0.00    -0.486 OA
ATOM     96  C   UNL A   1      32.496  19.494  24.449  1.00  0.00     0.271 C 
ATOM     97  C   UNL A   1      33.950  19.019  24.435  1.00  0.00     0.271 C 
ENDBRANCH  85  88
ENDBRANCH  82  85
BRANCH  83  98
ATOM     98  O   UNL A   1      30.526  29.873  21.680  1.00  0.00    -0.392 OA
ATOM     99  H   UNL A   1      30.900  30.752  21.849  1.00  0.00     0.211 HD
ENDBRANCH  83  98
ENDBRANCH  78  80
ENDBRANCH  77  78
ENDBRANCH  76  77
ENDBRANCH  75  76
ENDBRANCH  74  75
ENDBRANCH  73  74
ENDBRANCH   1  73
TORSDOF 23
ENDMDL
