MODEL 1
REMARK VINA RESULT:     -10.2      0.000      0.000
REMARK SMILES Cc1cc(NC(=O)Nc2sc(C)c(C)c2C(=O)OCCOCCOCCOC(=O)c2ccc(-c3c4nc(c(-c5cccc(S(=O)(=O)[O-])c5F)c5ccc([nH]5)c(-c5cccc(S(=O)(=O)[O-])c5F)c5nc(c(-c6cccc(S(=O)(=O)[O-])c6F)c6ccc3[nH]6)C=C5)C=C4)cc2)ccn1
REMARK SMILES IDX 23 1 22 2 21 3 20 4 19 5 18 6 16 7 17 8 15 9 9 10 10 11
REMARK SMILES IDX 11 12 13 13 12 14 14 15 8 16 5 17 6 18 7 20 4 22 1 23 2 24
REMARK SMILES IDX 3 25 95 26 94 27 93 28 24 29 25 30 26 31 27 32 28 33 29 34
REMARK SMILES IDX 30 35 31 36 92 37 32 38 91 39 33 40 34 41 35 42 85 43 36 44
REMARK SMILES IDX 90 45 84 46 86 47 37 48 89 49 83 50 82 51 38 53 70 54 50 55
REMARK SMILES IDX 69 56 51 57 54 58 68 59 87 60 52 61 53 62 67 64 88 65 55 66
REMARK SMILES IDX 39 67 40 68 48 69 41 70 43 71 49 72 42 73 44 74 45 75 46 76
REMARK SMILES IDX 47 77 71 78 72 79 80 80 73 81 75 82 81 83 74 84 76 85 77 86
REMARK SMILES IDX 78 87 79 88 56 89 57 90 65 91 58 92 60 93 66 94 59 95 61 96
REMARK SMILES IDX 62 97 63 98 64 99
REMARK H PARENT 5 19 8 21 86 52 54 63
REMARK Flexibility Score: inf
ROOT
ATOM      1  C   UNL A   1      36.407  20.443  25.135  1.00  0.00     0.188 C 
ENDROOT
BRANCH   1   2
ATOM      2  C   UNL A   1      35.076  20.970  24.576  1.00  0.00     0.188 C 
BRANCH   2   3
ATOM      3  O   UNL A   1      34.448  22.116  25.143  1.00  0.00    -0.376 OA
BRANCH   3   4
ATOM      4  C   UNL A   1      34.772  23.419  24.691  1.00  0.00     0.202 C 
BRANCH   4   5
ATOM      5  C   UNL A   1      34.331  23.762  23.267  1.00  0.00     0.261 C 
BRANCH   5   6
ATOM      6  O   UNL A   1      32.924  24.044  23.150  1.00  0.00    -0.460 OA
BRANCH   6   7
ATOM      7  C   UNL A   1      32.612  25.376  23.127  1.00  0.00     0.341 C 
ATOM      8  O   UNL A   1      33.340  26.232  22.636  1.00  0.00    -0.246 OA
BRANCH   7   9
ATOM      9  C   UNL A   1      31.324  25.714  23.740  1.00  0.00     0.098 A 
ATOM     10  C   UNL A   1      30.382  26.626  23.281  1.00  0.00     0.112 A 
ATOM     11  S   UNL A   1      28.856  26.301  23.975  1.00  0.00    -0.122 S 
ATOM     12  C   UNL A   1      29.582  25.542  25.316  1.00  0.00     0.007 A 
ATOM     13  C   UNL A   1      30.907  25.231  25.056  1.00  0.00    -0.021 A 
ATOM     14  C   UNL A   1      28.785  25.293  26.552  1.00  0.00     0.057 C 
ATOM     15  C   UNL A   1      31.825  24.544  26.025  1.00  0.00     0.046 C 
BRANCH  10  16
ATOM     16  N   UNL A   1      30.496  27.599  22.306  1.00  0.00    -0.298 N 
ATOM     17  N   UNL A   1      31.015  29.625  23.492  1.00  0.00    -0.308 N 
ATOM     18  C   UNL A   1      30.533  28.953  22.414  1.00  0.00     0.324 C 
ATOM     19  H   UNL A   1      30.636  30.529  23.585  1.00  0.00     0.171 HD
ATOM     20  O   UNL A   1      30.125  29.627  21.460  1.00  0.00    -0.248 OA
ATOM     21  H   UNL A   1      30.561  27.257  21.385  1.00  0.00     0.172 HD
BRANCH  17  22
ATOM     22  C   UNL A   1      31.943  29.306  24.509  1.00  0.00     0.046 A 
ATOM     23  C   UNL A   1      31.831  28.024  28.077  1.00  0.00     0.067 C 
ATOM     24  C   UNL A   1      32.328  28.504  26.748  1.00  0.00     0.039 A 
ATOM     25  C   UNL A   1      31.440  28.913  25.753  1.00  0.00     0.049 A 
ATOM     26  N   UNL A   1      33.662  28.458  26.551  1.00  0.00    -0.261 NA
ATOM     27  C   UNL A   1      34.123  28.877  25.359  1.00  0.00     0.113 A 
ATOM     28  C   UNL A   1      33.319  29.352  24.341  1.00  0.00     0.046 A 
ENDBRANCH  17  22
ENDBRANCH  10  16
ENDBRANCH   7   9
ENDBRANCH   6   7
ENDBRANCH   5   6
ENDBRANCH   4   5
ENDBRANCH   3   4
ENDBRANCH   2   3
ENDBRANCH   1   2
BRANCH   1  29
ATOM     29  O   UNL A   1      37.545  21.175  24.700  1.00  0.00    -0.376 OA
BRANCH  29  30
ATOM     30  C   UNL A   1      38.616  21.260  25.633  1.00  0.00     0.202 C 
BRANCH  30  31
ATOM     31  C   UNL A   1      39.373  19.935  25.745  1.00  0.00     0.261 C 
BRANCH  31  32
ATOM     32  O   UNL A   1      40.289  19.883  26.850  1.00  0.00    -0.460 OA
BRANCH  32  33
ATOM     33  C   UNL A   1      41.549  20.303  26.596  1.00  0.00     0.338 C 
ATOM     34  O   UNL A   1      42.438  19.667  26.059  1.00  0.00    -0.246 OA
BRANCH  33  35
ATOM     35  C   UNL A   1      41.629  21.741  26.912  1.00  0.00     0.060 A 
ATOM     36  C   UNL A   1      41.710  22.645  25.848  1.00  0.00     0.016 A 
ATOM     37  C   UNL A   1      41.643  22.194  28.232  1.00  0.00     0.016 A 
ATOM     38  C   UNL A   1      41.819  24.013  26.100  1.00  0.00     0.010 A 
ATOM     39  C   UNL A   1      41.778  23.560  28.485  1.00  0.00     0.010 A 
ATOM     40  C   UNL A   1      41.889  24.473  27.422  1.00  0.00    -0.014 A 
BRANCH  40  41
ATOM     41  C   UNL A   1      42.239  25.884  27.703  1.00  0.00     0.031 A 
ATOM     42  C   UNL A   1      43.626  26.362  27.377  1.00  0.00     0.074 A 
ATOM     43  C   UNL A   1      41.352  26.718  28.273  1.00  0.00     0.049 A 
ATOM     44  N   UNL A   1      44.160  27.540  27.561  1.00  0.00    -0.248 NA
ATOM     45  C   UNL A   1      44.533  25.376  26.764  1.00  0.00     0.031 C 
ATOM     46  C   UNL A   1      39.982  26.373  28.646  1.00  0.00     0.029 A 
ATOM     47  N   UNL A   1      41.491  28.026  28.664  1.00  0.00    -0.354 N 
ATOM     48  C   UNL A   1      45.465  27.439  27.098  1.00  0.00     0.074 A 
ATOM     49  C   UNL A   1      45.649  26.079  26.638  1.00  0.00     0.031 C 
ATOM     50  C   UNL A   1      39.413  27.437  29.241  1.00  0.00     0.029 A 
ATOM     51  C   UNL A   1      40.382  28.531  29.302  1.00  0.00     0.049 A 
ATOM     52  H   UNL A   1      42.306  28.555  28.503  1.00  0.00     0.167 HD
ATOM     53  C   UNL A   1      46.420  28.395  27.039  1.00  0.00     0.034 A 
ATOM     54  C   UNL A   1      40.182  29.731  29.881  1.00  0.00     0.034 A 
ATOM     55  C   UNL A   1      46.243  29.748  27.492  1.00  0.00     0.049 A 
ATOM     56  C   UNL A   1      41.279  30.766  29.843  1.00  0.00     0.074 A 
ATOM     57  C   UNL A   1      47.142  30.798  27.436  1.00  0.00     0.029 A 
ATOM     58  N   UNL A   1      45.095  30.233  28.098  1.00  0.00    -0.354 N 
ATOM     59  N   UNL A   1      42.457  30.701  29.273  1.00  0.00    -0.248 NA
ATOM     60  C   UNL A   1      41.004  32.051  30.505  1.00  0.00     0.031 C 
ATOM     61  C   UNL A   1      46.540  31.918  28.021  1.00  0.00     0.029 A 
ATOM     62  C   UNL A   1      45.264  31.564  28.432  1.00  0.00     0.049 A 
ATOM     63  H   UNL A   1      44.280  29.707  28.265  1.00  0.00     0.167 HD
ATOM     64  C   UNL A   1      43.050  31.943  29.476  1.00  0.00     0.074 A 
ATOM     65  C   UNL A   1      42.093  32.747  30.208  1.00  0.00     0.031 C 
ATOM     66  C   UNL A   1      44.282  32.374  29.106  1.00  0.00     0.034 A 
BRANCH  53  67
ATOM     67  C   UNL A   1      47.735  28.016  26.418  1.00  0.00     0.023 A 
ATOM     68  C   UNL A   1      48.842  27.765  27.256  1.00  0.00     0.012 A 
ATOM     69  C   UNL A   1      47.874  27.877  25.025  1.00  0.00     0.148 A 
ATOM     70  C   UNL A   1      50.074  27.406  26.713  1.00  0.00     0.002 A 
ATOM     71  C   UNL A   1      49.098  27.486  24.493  1.00  0.00     0.091 A 
ATOM     72  F   UNL A   1      46.820  28.154  24.244  1.00  0.00    -0.205 F 
ATOM     73  C   UNL A   1      50.200  27.256  25.334  1.00  0.00     0.022 A 
BRANCH  71  74
ATOM     74  S   UNL A   1      49.331  27.214  22.733  1.00  0.00     0.127 S 
ATOM     75  O   UNL A   1      48.468  26.059  22.496  1.00  0.00    -0.237 OA
ATOM     76  O   UNL A   1      48.843  28.468  22.155  1.00  0.00    -0.237 OA
ATOM     77  O   UNL A   1      50.758  26.986  22.556  1.00  0.00    -0.744 OA
ENDBRANCH  71  74
ENDBRANCH  53  67
BRANCH  54  78
ATOM     78  C   UNL A   1      38.866  30.046  30.506  1.00  0.00     0.023 A 
ATOM     79  C   UNL A   1      38.600  29.589  31.811  1.00  0.00     0.012 A 
ATOM     80  C   UNL A   1      37.889  30.796  29.826  1.00  0.00     0.148 A 
ATOM     81  C   UNL A   1      37.374  29.855  32.420  1.00  0.00     0.002 A 
ATOM     82  C   UNL A   1      36.688  31.099  30.457  1.00  0.00     0.091 A 
ATOM     83  F   UNL A   1      38.154  31.201  28.575  1.00  0.00    -0.205 F 
ATOM     84  C   UNL A   1      36.422  30.618  31.748  1.00  0.00     0.022 A 
BRANCH  82  85
ATOM     85  S   UNL A   1      35.452  32.167  29.708  1.00  0.00     0.127 S 
ATOM     86  O   UNL A   1      34.965  31.336  28.609  1.00  0.00    -0.237 OA
ATOM     87  O   UNL A   1      34.503  32.351  30.807  1.00  0.00    -0.237 OA
ATOM     88  O   UNL A   1      36.165  33.377  29.323  1.00  0.00    -0.744 OA
ENDBRANCH  82  85
ENDBRANCH  54  78
BRANCH  66  89
ATOM     89  C   UNL A   1      44.670  33.785  29.462  1.00  0.00     0.023 A 
ATOM     90  C   UNL A   1      45.302  34.042  30.694  1.00  0.00     0.012 A 
ATOM     91  C   UNL A   1      44.494  34.839  28.543  1.00  0.00     0.148 A 
ATOM     92  C   UNL A   1      45.732  35.328  31.017  1.00  0.00     0.002 A 
ATOM     93  C   UNL A   1      44.961  36.111  28.855  1.00  0.00     0.091 A 
ATOM     94  F   UNL A   1      43.871  34.581  27.383  1.00  0.00    -0.205 F 
ATOM     95  C   UNL A   1      45.574  36.359  30.093  1.00  0.00     0.022 A 
BRANCH  93  96
ATOM     96  S   UNL A   1      44.877  37.473  27.684  1.00  0.00     0.127 S 
ATOM     97  O   UNL A   1      45.682  36.964  26.576  1.00  0.00    -0.237 OA
ATOM     98  O   UNL A   1      43.443  37.562  27.405  1.00  0.00    -0.237 OA
ATOM     99  O   UNL A   1      45.424  38.628  28.383  1.00  0.00    -0.744 OA
ENDBRANCH  93  96
ENDBRANCH  66  89
ENDBRANCH  40  41
ENDBRANCH  33  35
ENDBRANCH  32  33
ENDBRANCH  31  32
ENDBRANCH  30  31
ENDBRANCH  29  30
ENDBRANCH   1  29
TORSDOF 22
ENDMDL
MODEL 2
REMARK VINA RESULT:     -10.2      2.482      7.968
REMARK SMILES Cc1cc(NC(=O)Nc2sc(C)c(C)c2C(=O)OCCOCCOCCOC(=O)c2ccc(-c3c4nc(c(-c5cccc(S(=O)(=O)[O-])c5F)c5ccc([nH]5)c(-c5cccc(S(=O)(=O)[O-])c5F)c5nc(c(-c6cccc(S(=O)(=O)[O-])c6F)c6ccc3[nH]6)C=C5)C=C4)cc2)ccn1
REMARK SMILES IDX 23 1 22 2 21 3 20 4 19 5 18 6 16 7 17 8 15 9 9 10 10 11
REMARK SMILES IDX 11 12 13 13 12 14 14 15 8 16 5 17 6 18 7 20 4 22 1 23 2 24
REMARK SMILES IDX 3 25 95 26 94 27 93 28 24 29 25 30 26 31 27 32 28 33 29 34
REMARK SMILES IDX 30 35 31 36 92 37 32 38 91 39 33 40 34 41 35 42 85 43 36 44
REMARK SMILES IDX 90 45 84 46 86 47 37 48 89 49 83 50 82 51 38 53 70 54 50 55
REMARK SMILES IDX 69 56 51 57 54 58 68 59 87 60 52 61 53 62 67 64 88 65 55 66
REMARK SMILES IDX 39 67 40 68 48 69 41 70 43 71 49 72 42 73 44 74 45 75 46 76
REMARK SMILES IDX 47 77 71 78 72 79 80 80 73 81 75 82 81 83 74 84 76 85 77 86
REMARK SMILES IDX 78 87 79 88 56 89 57 90 65 91 58 92 60 93 66 94 59 95 61 96
REMARK SMILES IDX 62 97 63 98 64 99
REMARK H PARENT 5 19 8 21 86 52 54 63
REMARK Flexibility Score: inf
ROOT
ATOM      1  C   UNL A   1      35.287  20.459  24.975  1.00  0.00     0.188 C 
ENDROOT
BRANCH   1   2
ATOM      2  C   UNL A   1      33.870  20.768  25.484  1.00  0.00     0.188 C 
BRANCH   2   3
ATOM      3  O   UNL A   1      32.887  21.321  24.615  1.00  0.00    -0.376 OA
BRANCH   3   4
ATOM      4  C   UNL A   1      32.413  22.642  24.802  1.00  0.00     0.202 C 
BRANCH   4   5
ATOM      5  C   UNL A   1      33.385  23.762  24.428  1.00  0.00     0.261 C 
BRANCH   5   6
ATOM      6  O   UNL A   1      33.507  24.782  25.438  1.00  0.00    -0.460 OA
BRANCH   6   7
ATOM      7  C   UNL A   1      33.540  26.060  24.952  1.00  0.00     0.341 C 
ATOM      8  O   UNL A   1      34.152  26.383  23.940  1.00  0.00    -0.246 OA
BRANCH   7   9
ATOM      9  C   UNL A   1      32.778  27.034  25.740  1.00  0.00     0.098 A 
ATOM     10  C   UNL A   1      31.740  26.778  26.628  1.00  0.00     0.112 A 
ATOM     11  S   UNL A   1      31.533  28.097  27.692  1.00  0.00    -0.122 S 
ATOM     12  C   UNL A   1      32.221  29.170  26.562  1.00  0.00     0.007 A 
ATOM     13  C   UNL A   1      32.908  28.481  25.574  1.00  0.00    -0.021 A 
ATOM     14  C   UNL A   1      32.042  30.641  26.727  1.00  0.00     0.057 C 
ATOM     15  C   UNL A   1      33.639  29.132  24.436  1.00  0.00     0.046 C 
BRANCH  10  16
ATOM     16  N   UNL A   1      31.008  25.622  26.822  1.00  0.00    -0.298 N 
ATOM     17  N   UNL A   1      29.275  25.683  25.157  1.00  0.00    -0.308 N 
ATOM     18  C   UNL A   1      29.791  25.260  26.340  1.00  0.00     0.324 C 
ATOM     19  H   UNL A   1      28.292  25.657  25.132  1.00  0.00     0.171 HD
ATOM     20  O   UNL A   1      29.109  24.473  27.008  1.00  0.00    -0.248 OA
ATOM     21  H   UNL A   1      31.438  24.952  27.402  1.00  0.00     0.172 HD
BRANCH  17  22
ATOM     22  C   UNL A   1      29.848  26.153  23.953  1.00  0.00     0.046 A 
ATOM     23  C   UNL A   1      30.251  29.480  22.176  1.00  0.00     0.067 C 
ATOM     24  C   UNL A   1      30.334  28.023  22.513  1.00  0.00     0.039 A 
ATOM     25  C   UNL A   1      29.703  27.510  23.647  1.00  0.00     0.049 A 
ATOM     26  N   UNL A   1      31.096  27.259  21.702  1.00  0.00    -0.261 NA
ATOM     27  C   UNL A   1      31.187  25.950  21.998  1.00  0.00     0.113 A 
ATOM     28  C   UNL A   1      30.549  25.350  23.066  1.00  0.00     0.046 A 
ENDBRANCH  17  22
ENDBRANCH  10  16
ENDBRANCH   7   9
ENDBRANCH   6   7
ENDBRANCH   5   6
ENDBRANCH   4   5
ENDBRANCH   3   4
ENDBRANCH   2   3
ENDBRANCH   1   2
BRANCH   1  29
ATOM     29  O   UNL A   1      36.307  21.219  25.610  1.00  0.00    -0.376 OA
BRANCH  29  30
ATOM     30  C   UNL A   1      35.867  22.382  26.302  1.00  0.00     0.202 C 
BRANCH  30  31
ATOM     31  C   UNL A   1      36.870  23.530  26.170  1.00  0.00     0.261 C 
BRANCH  31  32
ATOM     32  O   UNL A   1      38.115  23.145  25.567  1.00  0.00    -0.460 OA
BRANCH  32  33
ATOM     33  C   UNL A   1      39.161  22.993  26.410  1.00  0.00     0.338 C 
ATOM     34  O   UNL A   1      39.852  21.999  26.546  1.00  0.00    -0.246 OA
BRANCH  33  35
ATOM     35  C   UNL A   1      39.457  24.302  27.021  1.00  0.00     0.060 A 
ATOM     36  C   UNL A   1      40.068  25.277  26.226  1.00  0.00     0.016 A 
ATOM     37  C   UNL A   1      39.156  24.562  28.359  1.00  0.00     0.016 A 
ATOM     38  C   UNL A   1      40.395  26.519  26.771  1.00  0.00     0.010 A 
ATOM     39  C   UNL A   1      39.506  25.795  28.911  1.00  0.00     0.010 A 
ATOM     40  C   UNL A   1      40.147  26.770  28.127  1.00  0.00    -0.014 A 
BRANCH  40  41
ATOM     41  C   UNL A   1      40.696  27.983  28.774  1.00  0.00     0.031 A 
ATOM     42  C   UNL A   1      39.745  29.061  29.212  1.00  0.00     0.074 A 
ATOM     43  C   UNL A   1      42.022  28.143  28.935  1.00  0.00     0.049 A 
ATOM     44  N   UNL A   1      40.002  30.214  29.771  1.00  0.00    -0.248 NA
ATOM     45  C   UNL A   1      38.312  28.803  28.986  1.00  0.00     0.031 C 
ATOM     46  C   UNL A   1      43.046  27.178  28.543  1.00  0.00     0.029 A 
ATOM     47  N   UNL A   1      42.730  29.200  29.450  1.00  0.00    -0.354 N 
ATOM     48  C   UNL A   1      38.769  30.825  29.955  1.00  0.00     0.074 A 
ATOM     49  C   UNL A   1      37.764  29.923  29.435  1.00  0.00     0.031 C 
ATOM     50  C   UNL A   1      44.258  27.700  28.805  1.00  0.00     0.029 A 
ATOM     51  C   UNL A   1      44.094  29.040  29.369  1.00  0.00     0.049 A 
ATOM     52  H   UNL A   1      42.304  29.997  29.840  1.00  0.00     0.167 HD
ATOM     53  C   UNL A   1      38.492  32.020  30.526  1.00  0.00     0.034 A 
ATOM     54  C   UNL A   1      45.090  29.885  29.699  1.00  0.00     0.034 A 
ATOM     55  C   UNL A   1      39.485  32.919  31.048  1.00  0.00     0.049 A 
ATOM     56  C   UNL A   1      44.756  31.232  30.291  1.00  0.00     0.074 A 
ATOM     57  C   UNL A   1      39.296  34.135  31.680  1.00  0.00     0.029 A 
ATOM     58  N   UNL A   1      40.852  32.708  30.983  1.00  0.00    -0.354 N 
ATOM     59  N   UNL A   1      43.584  31.735  30.592  1.00  0.00    -0.248 NA
ATOM     60  C   UNL A   1      45.888  32.114  30.616  1.00  0.00     0.031 C 
ATOM     61  C   UNL A   1      40.554  34.666  31.988  1.00  0.00     0.029 A 
ATOM     62  C   UNL A   1      41.523  33.774  31.553  1.00  0.00     0.049 A 
ATOM     63  H   UNL A   1      41.283  31.915  30.589  1.00  0.00     0.167 HD
ATOM     64  C   UNL A   1      43.836  32.974  31.171  1.00  0.00     0.074 A 
ATOM     65  C   UNL A   1      45.275  33.139  31.195  1.00  0.00     0.031 C 
ATOM     66  C   UNL A   1      42.956  33.901  31.627  1.00  0.00     0.034 A 
BRANCH  53  67
ATOM     67  C   UNL A   1      37.044  32.401  30.656  1.00  0.00     0.023 A 
ATOM     68  C   UNL A   1      36.375  32.148  31.872  1.00  0.00     0.012 A 
ATOM     69  C   UNL A   1      36.355  33.030  29.603  1.00  0.00     0.148 A 
ATOM     70  C   UNL A   1      35.034  32.494  32.028  1.00  0.00     0.002 A 
ATOM     71  C   UNL A   1      35.027  33.402  29.778  1.00  0.00     0.091 A 
ATOM     72  F   UNL A   1      36.999  33.230  28.444  1.00  0.00    -0.205 F 
ATOM     73  C   UNL A   1      34.363  33.130  30.986  1.00  0.00     0.022 A 
BRANCH  71  74
ATOM     74  S   UNL A   1      34.105  34.277  28.509  1.00  0.00     0.127 S 
ATOM     75  O   UNL A   1      34.891  35.501  28.363  1.00  0.00    -0.237 OA
ATOM     76  O   UNL A   1      34.190  33.360  27.371  1.00  0.00    -0.237 OA
ATOM     77  O   UNL A   1      32.762  34.447  29.044  1.00  0.00    -0.744 OA
ENDBRANCH  71  74
ENDBRANCH  53  67
BRANCH  54  78
ATOM     78  C   UNL A   1      46.509  29.466  29.525  1.00  0.00     0.023 A 
ATOM     79  C   UNL A   1      47.202  28.919  30.621  1.00  0.00     0.012 A 
ATOM     80  C   UNL A   1      47.169  29.596  28.289  1.00  0.00     0.148 A 
ATOM     81  C   UNL A   1      48.536  28.528  30.496  1.00  0.00     0.002 A 
ATOM     82  C   UNL A   1      48.483  29.161  28.158  1.00  0.00     0.091 A 
ATOM     83  F   UNL A   1      46.499  30.143  27.264  1.00  0.00    -0.205 F 
ATOM     84  C   UNL A   1      49.172  28.640  29.263  1.00  0.00     0.022 A 
BRANCH  82  85
ATOM     85  S   UNL A   1      49.344  29.167  26.581  1.00  0.00     0.127 S 
ATOM     86  O   UNL A   1      50.340  28.117  26.780  1.00  0.00    -0.237 OA
ATOM     87  O   UNL A   1      48.269  28.828  25.647  1.00  0.00    -0.237 OA
ATOM     88  O   UNL A   1      49.866  30.518  26.427  1.00  0.00    -0.744 OA
ENDBRANCH  82  85
ENDBRANCH  54  78
BRANCH  66  89
ATOM     89  C   UNL A   1      43.513  35.172  32.213  1.00  0.00     0.023 A 
ATOM     90  C   UNL A   1      43.949  35.185  33.552  1.00  0.00     0.012 A 
ATOM     91  C   UNL A   1      43.689  36.321  31.417  1.00  0.00     0.148 A 
ATOM     92  C   UNL A   1      44.531  36.329  34.097  1.00  0.00     0.002 A 
ATOM     93  C   UNL A   1      44.307  37.445  31.955  1.00  0.00     0.091 A 
ATOM     94  F   UNL A   1      43.249  36.297  30.150  1.00  0.00    -0.205 F 
ATOM     95  C   UNL A   1      44.721  37.453  33.296  1.00  0.00     0.022 A 
BRANCH  93  96
ATOM     96  S   UNL A   1      44.671  38.900  30.966  1.00  0.00     0.127 S 
ATOM     97  O   UNL A   1      44.153  39.974  31.811  1.00  0.00    -0.237 OA
ATOM     98  O   UNL A   1      46.130  38.856  30.862  1.00  0.00    -0.237 OA
ATOM     99  O   UNL A   1      43.976  38.702  29.701  1.00  0.00    -0.744 OA
ENDBRANCH  93  96
ENDBRANCH  66  89
ENDBRANCH  40  41
ENDBRANCH  33  35
ENDBRANCH  32  33
ENDBRANCH  31  32
ENDBRANCH  30  31
ENDBRANCH  29  30
ENDBRANCH   1  29
TORSDOF 22
ENDMDL
MODEL 3
REMARK VINA RESULT:      -9.9      2.346      7.847
REMARK SMILES Cc1cc(NC(=O)Nc2sc(C)c(C)c2C(=O)OCCOCCOCCOC(=O)c2ccc(-c3c4nc(c(-c5cccc(S(=O)(=O)[O-])c5F)c5ccc([nH]5)c(-c5cccc(S(=O)(=O)[O-])c5F)c5nc(c(-c6cccc(S(=O)(=O)[O-])c6F)c6ccc3[nH]6)C=C5)C=C4)cc2)ccn1
REMARK SMILES IDX 23 1 22 2 21 3 20 4 19 5 18 6 16 7 17 8 15 9 9 10 10 11
REMARK SMILES IDX 11 12 13 13 12 14 14 15 8 16 5 17 6 18 7 20 4 22 1 23 2 24
REMARK SMILES IDX 3 25 95 26 94 27 93 28 24 29 25 30 26 31 27 32 28 33 29 34
REMARK SMILES IDX 30 35 31 36 92 37 32 38 91 39 33 40 34 41 35 42 85 43 36 44
REMARK SMILES IDX 90 45 84 46 86 47 37 48 89 49 83 50 82 51 38 53 70 54 50 55
REMARK SMILES IDX 69 56 51 57 54 58 68 59 87 60 52 61 53 62 67 64 88 65 55 66
REMARK SMILES IDX 39 67 40 68 48 69 41 70 43 71 49 72 42 73 44 74 45 75 46 76
REMARK SMILES IDX 47 77 71 78 72 79 80 80 73 81 75 82 81 83 74 84 76 85 77 86
REMARK SMILES IDX 78 87 79 88 56 89 57 90 65 91 58 92 60 93 66 94 59 95 61 96
REMARK SMILES IDX 62 97 63 98 64 99
REMARK H PARENT 5 19 8 21 86 52 54 63
REMARK Flexibility Score: inf
ROOT
ATOM      1  C   UNL A   1      37.099  20.481  25.020  1.00  0.00     0.188 C 
ENDROOT
BRANCH   1   2
ATOM      2  C   UNL A   1      35.824  21.135  24.467  1.00  0.00     0.188 C 
BRANCH   2   3
ATOM      3  O   UNL A   1      34.938  21.848  25.324  1.00  0.00    -0.376 OA
BRANCH   3   4
ATOM      4  C   UNL A   1      35.404  22.929  26.111  1.00  0.00     0.202 C 
BRANCH   4   5
ATOM      5  C   UNL A   1      35.606  24.255  25.376  1.00  0.00     0.261 C 
BRANCH   5   6
ATOM      6  O   UNL A   1      34.894  25.358  25.968  1.00  0.00    -0.460 OA
BRANCH   6   7
ATOM      7  C   UNL A   1      33.999  25.969  25.133  1.00  0.00     0.341 C 
ATOM      8  O   UNL A   1      33.951  25.762  23.926  1.00  0.00    -0.246 OA
BRANCH   7   9
ATOM      9  C   UNL A   1      33.084  26.905  25.795  1.00  0.00     0.098 A 
ATOM     10  C   UNL A   1      32.022  26.599  26.636  1.00  0.00     0.112 A 
ATOM     11  S   UNL A   1      31.603  27.959  27.580  1.00  0.00    -0.122 S 
ATOM     12  C   UNL A   1      32.247  29.018  26.412  1.00  0.00     0.007 A 
ATOM     13  C   UNL A   1      33.070  28.342  25.525  1.00  0.00    -0.021 A 
ATOM     14  C   UNL A   1      31.900  30.468  26.451  1.00  0.00     0.057 C 
ATOM     15  C   UNL A   1      33.803  28.988  24.385  1.00  0.00     0.046 C 
BRANCH  10  16
ATOM     16  N   UNL A   1      31.407  25.384  26.877  1.00  0.00    -0.298 N 
ATOM     17  N   UNL A   1      29.571  25.289  25.328  1.00  0.00    -0.308 N 
ATOM     18  C   UNL A   1      30.197  24.917  26.475  1.00  0.00     0.324 C 
ATOM     19  H   UNL A   1      28.593  25.179  25.367  1.00  0.00     0.171 HD
ATOM     20  O   UNL A   1      29.630  24.077  27.185  1.00  0.00    -0.248 OA
ATOM     21  H   UNL A   1      31.930  24.757  27.426  1.00  0.00     0.172 HD
BRANCH  17  22
ATOM     22  C   UNL A   1      30.020  25.802  24.091  1.00  0.00     0.046 A 
ATOM     23  C   UNL A   1      30.215  29.184  22.383  1.00  0.00     0.067 C 
ATOM     24  C   UNL A   1      30.346  27.719  22.668  1.00  0.00     0.039 A 
ATOM     25  C   UNL A   1      29.832  27.165  23.840  1.00  0.00     0.049 A 
ATOM     26  N   UNL A   1      31.037  26.990  21.766  1.00  0.00    -0.261 NA
ATOM     27  C   UNL A   1      31.171  25.674  22.012  1.00  0.00     0.113 A 
ATOM     28  C   UNL A   1      30.644  25.034  23.118  1.00  0.00     0.046 A 
ENDBRANCH  17  22
ENDBRANCH  10  16
ENDBRANCH   7   9
ENDBRANCH   6   7
ENDBRANCH   5   6
ENDBRANCH   4   5
ENDBRANCH   3   4
ENDBRANCH   2   3
ENDBRANCH   1   2
BRANCH   1  29
ATOM     29  O   UNL A   1      38.200  21.372  25.139  1.00  0.00    -0.376 OA
BRANCH  29  30
ATOM     30  C   UNL A   1      39.185  21.009  26.099  1.00  0.00     0.202 C 
BRANCH  30  31
ATOM     31  C   UNL A   1      39.809  19.648  25.781  1.00  0.00     0.261 C 
BRANCH  31  32
ATOM     32  O   UNL A   1      41.001  19.369  26.530  1.00  0.00    -0.460 OA
BRANCH  32  33
ATOM     33  C   UNL A   1      42.160  19.808  25.988  1.00  0.00     0.338 C 
ATOM     34  O   UNL A   1      42.861  19.217  25.186  1.00  0.00    -0.246 OA
BRANCH  33  35
ATOM     35  C   UNL A   1      42.352  21.214  26.384  1.00  0.00     0.060 A 
ATOM     36  C   UNL A   1      42.430  22.179  25.374  1.00  0.00     0.016 A 
ATOM     37  C   UNL A   1      42.474  21.580  27.726  1.00  0.00     0.016 A 
ATOM     38  C   UNL A   1      42.644  23.518  25.701  1.00  0.00     0.010 A 
ATOM     39  C   UNL A   1      42.712  22.916  28.052  1.00  0.00     0.010 A 
ATOM     40  C   UNL A   1      42.821  23.886  27.041  1.00  0.00    -0.014 A 
BRANCH  40  41
ATOM     41  C   UNL A   1      43.279  25.252  27.385  1.00  0.00     0.031 A 
ATOM     42  C   UNL A   1      42.281  26.230  27.937  1.00  0.00     0.074 A 
ATOM     43  C   UNL A   1      44.552  25.630  27.174  1.00  0.00     0.049 A 
ATOM     44  N   UNL A   1      42.449  27.480  28.280  1.00  0.00    -0.248 NA
ATOM     45  C   UNL A   1      40.907  25.731  28.123  1.00  0.00     0.031 C 
ATOM     46  C   UNL A   1      45.611  24.780  26.635  1.00  0.00     0.029 A 
ATOM     47  N   UNL A   1      45.159  26.846  27.367  1.00  0.00    -0.354 N 
ATOM     48  C   UNL A   1      41.206  27.922  28.712  1.00  0.00     0.074 A 
ATOM     49  C   UNL A   1      40.288  26.812  28.575  1.00  0.00     0.031 C 
ATOM     50  C   UNL A   1      46.734  25.510  26.512  1.00  0.00     0.029 A 
ATOM     51  C   UNL A   1      46.469  26.880  26.950  1.00  0.00     0.049 A 
ATOM     52  H   UNL A   1      44.701  27.621  27.766  1.00  0.00     0.167 HD
ATOM     53  C   UNL A   1      40.861  29.135  29.202  1.00  0.00     0.034 A 
ATOM     54  C   UNL A   1      47.343  27.904  26.913  1.00  0.00     0.034 A 
ATOM     55  C   UNL A   1      41.769  30.240  29.344  1.00  0.00     0.049 A 
ATOM     56  C   UNL A   1      46.922  29.261  27.422  1.00  0.00     0.074 A 
ATOM     57  C   UNL A   1      41.519  31.496  29.867  1.00  0.00     0.029 A 
ATOM     58  N   UNL A   1      43.096  30.227  28.946  1.00  0.00    -0.354 N 
ATOM     59  N   UNL A   1      45.785  29.623  27.962  1.00  0.00    -0.248 NA
ATOM     60  C   UNL A   1      47.918  30.340  27.341  1.00  0.00     0.031 C 
ATOM     61  C   UNL A   1      42.696  32.249  29.775  1.00  0.00     0.029 A 
ATOM     62  C   UNL A   1      43.678  31.456  29.201  1.00  0.00     0.049 A 
ATOM     63  H   UNL A   1      43.557  29.457  28.542  1.00  0.00     0.167 HD
ATOM     64  C   UNL A   1      45.938  30.960  28.316  1.00  0.00     0.074 A 
ATOM     65  C   UNL A   1      47.286  31.338  27.944  1.00  0.00     0.031 C 
ATOM     66  C   UNL A   1      45.039  31.804  28.883  1.00  0.00     0.034 A 
BRANCH  53  67
ATOM     67  C   UNL A   1      39.442  29.312  29.664  1.00  0.00     0.023 A 
ATOM     68  C   UNL A   1      39.110  28.987  30.996  1.00  0.00     0.012 A 
ATOM     69  C   UNL A   1      38.451  29.821  28.806  1.00  0.00     0.148 A 
ATOM     70  C   UNL A   1      37.805  29.144  31.459  1.00  0.00     0.002 A 
ATOM     71  C   UNL A   1      37.158  30.006  29.285  1.00  0.00     0.091 A 
ATOM     72  F   UNL A   1      38.779  30.090  27.535  1.00  0.00    -0.205 F 
ATOM     73  C   UNL A   1      36.832  29.663  30.608  1.00  0.00     0.022 A 
BRANCH  71  74
ATOM     74  S   UNL A   1      35.858  30.723  28.274  1.00  0.00     0.127 S 
ATOM     75  O   UNL A   1      35.662  29.683  27.265  1.00  0.00    -0.237 OA
ATOM     76  O   UNL A   1      34.757  30.860  29.229  1.00  0.00    -0.237 OA
ATOM     77  O   UNL A   1      36.391  31.986  27.785  1.00  0.00    -0.744 OA
ENDBRANCH  71  74
ENDBRANCH  53  67
BRANCH  54  78
ATOM     78  C   UNL A   1      48.732  27.680  26.420  1.00  0.00     0.023 A 
ATOM     79  C   UNL A   1      48.968  27.633  25.033  1.00  0.00     0.012 A 
ATOM     80  C   UNL A   1      49.812  27.523  27.309  1.00  0.00     0.148 A 
ATOM     81  C   UNL A   1      50.254  27.411  24.539  1.00  0.00     0.002 A 
ATOM     82  C   UNL A   1      51.098  27.350  26.809  1.00  0.00     0.091 A 
ATOM     83  F   UNL A   1      49.561  27.546  28.626  1.00  0.00    -0.205 F 
ATOM     84  C   UNL A   1      51.319  27.280  25.426  1.00  0.00     0.022 A 
BRANCH  82  85
ATOM     85  S   UNL A   1      52.542  27.282  27.877  1.00  0.00     0.127 S 
ATOM     86  O   UNL A   1      53.626  27.536  26.931  1.00  0.00    -0.237 OA
ATOM     87  O   UNL A   1      52.276  28.373  28.816  1.00  0.00    -0.237 OA
ATOM     88  O   UNL A   1      52.519  25.956  28.478  1.00  0.00    -0.744 OA
ENDBRANCH  82  85
ENDBRANCH  54  78
BRANCH  66  89
ATOM     89  C   UNL A   1      45.479  33.217  29.160  1.00  0.00     0.023 A 
ATOM     90  C   UNL A   1      45.265  34.214  28.188  1.00  0.00     0.012 A 
ATOM     91  C   UNL A   1      46.017  33.577  30.412  1.00  0.00     0.148 A 
ATOM     92  C   UNL A   1      45.600  35.542  28.449  1.00  0.00     0.002 A 
ATOM     93  C   UNL A   1      46.312  34.909  30.679  1.00  0.00     0.091 A 
ATOM     94  F   UNL A   1      46.233  32.611  31.318  1.00  0.00    -0.205 F 
ATOM     95  C   UNL A   1      46.111  35.891  29.697  1.00  0.00     0.022 A 
BRANCH  93  96
ATOM     96  S   UNL A   1      46.888  35.455  32.292  1.00  0.00     0.127 S 
ATOM     97  O   UNL A   1      48.074  34.623  32.483  1.00  0.00    -0.237 OA
ATOM     98  O   UNL A   1      47.167  36.873  32.064  1.00  0.00    -0.237 OA
ATOM     99  O   UNL A   1      45.786  35.203  33.211  1.00  0.00    -0.744 OA
ENDBRANCH  93  96
ENDBRANCH  66  89
ENDBRANCH  40  41
ENDBRANCH  33  35
ENDBRANCH  32  33
ENDBRANCH  31  32
ENDBRANCH  30  31
ENDBRANCH  29  30
ENDBRANCH   1  29
TORSDOF 22
ENDMDL
