MODEL 1
REMARK VINA RESULT:     -10.0      0.000      0.000
REMARK SMILES O=C(CC[N@H+]1CCC[C@H](c2nccn2Cc2cscn2)C1)OCCOCCOCCOC(=O)c1ccc(-c2c3nc(c(-c4cccc(S(=O)(=O)[O-])c4F)c4ccc([nH]4)c(-c4cccc(S(=O)(=O)[O-])c4F)c4nc(c(-c5cccc(S(=O)(=O)[O-])c5F)c5ccc2[nH]5)C=C4)C=C3)cc1
REMARK SMILES IDX 26 1 25 2 24 3 23 4 22 5 2 6 1 7 3 8 4 9 5 10 6 11 21 12
REMARK SMILES IDX 7 14 9 15 8 16 10 17 11 18 14 19 12 20 13 21 15 22 16 23
REMARK SMILES IDX 17 24 20 25 18 26 19 27 27 28 28 29 29 30 30 31 31 32 32 33
REMARK SMILES IDX 33 34 34 35 35 36 96 37 36 38 95 39 37 40 38 41 39 42 89 43
REMARK SMILES IDX 40 44 94 45 88 46 90 47 41 48 93 49 87 50 86 51 42 53 74 54
REMARK SMILES IDX 54 55 73 56 55 57 58 58 72 59 91 60 56 61 57 62 71 64 92 65
REMARK SMILES IDX 59 66 43 67 44 68 52 69 45 70 47 71 53 72 46 73 48 74 49 75
REMARK SMILES IDX 50 76 51 77 75 78 76 79 84 80 77 81 79 82 85 83 78 84 80 85
REMARK SMILES IDX 81 86 82 87 83 88 60 89 61 90 69 91 62 92 64 93 70 94 63 95
REMARK SMILES IDX 65 96 66 97 67 98 68 99
REMARK H PARENT 5 13 90 52 58 63
REMARK Flexibility Score: inf
ROOT
ATOM      1  C   UNL A   1      33.121  35.641  30.327  1.00  0.00     0.188 C 
ENDROOT
BRANCH   1   2
ATOM      2  O   UNL A   1      33.212  34.575  29.404  1.00  0.00    -0.376 OA
BRANCH   2   3
ATOM      3  C   UNL A   1      34.424  33.896  29.167  1.00  0.00     0.202 C 
BRANCH   3   4
ATOM      4  C   UNL A   1      34.525  32.907  28.004  1.00  0.00     0.261 C 
BRANCH   4   5
ATOM      5  O   UNL A   1      33.390  32.072  27.640  1.00  0.00    -0.463 OA
BRANCH   5   6
ATOM      6  C   UNL A   1      33.209  30.805  27.217  1.00  0.00     0.311 C 
ATOM      7  O   UNL A   1      34.208  30.122  26.978  1.00  0.00    -0.252 OA
BRANCH   6   8
ATOM      8  C   UNL A   1      31.836  30.250  26.950  1.00  0.00     0.184 C 
BRANCH   8   9
ATOM      9  C   UNL A   1      31.554  29.901  25.478  1.00  0.00     0.274 C 
BRANCH   9  10
ATOM     10  N   UNL A   1      32.003  28.605  24.925  1.00  0.00    -0.334 N 
ATOM     11  C   UNL A   1      32.916  28.676  23.805  1.00  0.00     0.262 C 
ATOM     12  C   UNL A   1      32.285  27.584  25.924  1.00  0.00     0.273 C 
ATOM     13  H   UNL A   1      31.169  28.243  24.466  1.00  0.00     0.348 HD
ATOM     14  C   UNL A   1      33.833  27.522  23.411  1.00  0.00     0.062 C 
ATOM     15  C   UNL A   1      32.811  26.287  25.308  1.00  0.00     0.111 C 
ATOM     16  C   UNL A   1      34.142  26.636  24.604  1.00  0.00     0.023 C 
BRANCH  15  17
ATOM     17  C   UNL A   1      31.944  25.525  24.307  1.00  0.00     0.117 A 
ATOM     18  N   UNL A   1      30.677  25.898  24.161  1.00  0.00    -0.241 NA
ATOM     19  N   UNL A   1      32.145  24.306  23.660  1.00  0.00    -0.328 N 
ATOM     20  C   UNL A   1      30.021  24.870  23.567  1.00  0.00     0.131 A 
ATOM     21  C   UNL A   1      30.901  23.879  23.236  1.00  0.00     0.108 A 
BRANCH  19  22
ATOM     22  C   UNL A   1      33.374  23.624  23.246  1.00  0.00     0.180 C 
BRANCH  22  23
ATOM     23  C   UNL A   1      34.021  22.785  24.324  1.00  0.00     0.071 A 
ATOM     24  C   UNL A   1      35.331  22.335  24.361  1.00  0.00     0.092 A 
ATOM     25  N   UNL A   1      33.315  22.487  25.484  1.00  0.00    -0.248 NA
ATOM     26  S   UNL A   1      35.644  21.460  25.803  1.00  0.00    -0.130 S 
ATOM     27  C   UNL A   1      34.049  21.788  26.320  1.00  0.00     0.175 A 
ENDBRANCH  22  23
ENDBRANCH  19  22
ENDBRANCH  15  17
ENDBRANCH   9  10
ENDBRANCH   8   9
ENDBRANCH   6   8
ENDBRANCH   5   6
ENDBRANCH   4   5
ENDBRANCH   3   4
ENDBRANCH   2   3
ENDBRANCH   1   2
BRANCH   1  28
ATOM     28  C   UNL A   1      33.745  35.440  31.714  1.00  0.00     0.188 C 
BRANCH  28  29
ATOM     29  O   UNL A   1      33.002  34.706  32.682  1.00  0.00    -0.376 OA
BRANCH  29  30
ATOM     30  C   UNL A   1      33.494  33.428  33.075  1.00  0.00     0.202 C 
BRANCH  30  31
ATOM     31  C   UNL A   1      35.025  33.349  33.172  1.00  0.00     0.261 C 
BRANCH  31  32
ATOM     32  O   UNL A   1      35.562  32.267  32.424  1.00  0.00    -0.460 OA
BRANCH  32  33
ATOM     33  C   UNL A   1      36.560  32.644  31.604  1.00  0.00     0.338 C 
ATOM     34  O   UNL A   1      37.058  33.771  31.507  1.00  0.00    -0.246 OA
BRANCH  33  35
ATOM     35  C   UNL A   1      36.982  31.538  30.752  1.00  0.00     0.060 A 
ATOM     36  C   UNL A   1      36.922  30.264  31.325  1.00  0.00     0.016 A 
ATOM     37  C   UNL A   1      37.705  31.804  29.582  1.00  0.00     0.016 A 
ATOM     38  C   UNL A   1      37.838  29.331  30.912  1.00  0.00     0.010 A 
ATOM     39  C   UNL A   1      38.627  30.870  29.171  1.00  0.00     0.010 A 
ATOM     40  C   UNL A   1      38.767  29.715  29.941  1.00  0.00    -0.014 A 
BRANCH  40  41
ATOM     41  C   UNL A   1      40.024  28.998  29.962  1.00  0.00     0.031 A 
ATOM     42  C   UNL A   1      40.673  28.868  31.273  1.00  0.00     0.074 A 
ATOM     43  C   UNL A   1      40.542  28.497  28.824  1.00  0.00     0.049 A 
ATOM     44  N   UNL A   1      41.813  29.350  31.643  1.00  0.00    -0.248 NA
ATOM     45  C   UNL A   1      39.909  28.196  32.328  1.00  0.00     0.031 C 
ATOM     46  C   UNL A   1      39.867  28.328  27.530  1.00  0.00     0.029 A 
ATOM     47  N   UNL A   1      41.748  27.900  28.628  1.00  0.00    -0.354 N 
ATOM     48  C   UNL A   1      42.005  28.864  32.929  1.00  0.00     0.074 A 
ATOM     49  C   UNL A   1      40.750  28.292  33.355  1.00  0.00     0.031 C 
ATOM     50  C   UNL A   1      40.568  27.450  26.782  1.00  0.00     0.029 A 
ATOM     51  C   UNL A   1      41.792  27.112  27.488  1.00  0.00     0.049 A 
ATOM     52  H   UNL A   1      42.515  28.016  29.235  1.00  0.00     0.167 HD
ATOM     53  C   UNL A   1      43.238  28.758  33.486  1.00  0.00     0.034 A 
ATOM     54  C   UNL A   1      42.722  26.173  27.200  1.00  0.00     0.034 A 
ATOM     55  C   UNL A   1      44.230  29.540  32.807  1.00  0.00     0.049 A 
ATOM     56  C   UNL A   1      43.915  26.448  28.030  1.00  0.00     0.074 A 
ATOM     57  C   UNL A   1      44.409  30.886  32.558  1.00  0.00     0.029 A 
ATOM     58  N   UNL A   1      45.087  28.878  31.963  1.00  0.00    -0.354 N 
ATOM     59  N   UNL A   1      44.698  27.479  27.870  1.00  0.00    -0.248 NA
ATOM     60  C   UNL A   1      44.052  25.754  29.301  1.00  0.00     0.031 C 
ATOM     61  C   UNL A   1      45.061  30.953  31.292  1.00  0.00     0.029 A 
ATOM     62  C   UNL A   1      45.244  29.645  30.838  1.00  0.00     0.049 A 
ATOM     63  H   UNL A   1      45.513  28.008  32.136  1.00  0.00     0.167 HD
ATOM     64  C   UNL A   1      45.107  27.814  29.155  1.00  0.00     0.074 A 
ATOM     65  C   UNL A   1      44.800  26.639  29.963  1.00  0.00     0.031 C 
ATOM     66  C   UNL A   1      45.385  29.108  29.497  1.00  0.00     0.034 A 
BRANCH  53  67
ATOM     67  C   UNL A   1      43.582  27.708  34.497  1.00  0.00     0.023 A 
ATOM     68  C   UNL A   1      43.963  28.111  35.790  1.00  0.00     0.012 A 
ATOM     69  C   UNL A   1      43.734  26.341  34.171  1.00  0.00     0.148 A 
ATOM     70  C   UNL A   1      44.449  27.188  36.722  1.00  0.00     0.002 A 
ATOM     71  C   UNL A   1      44.119  25.414  35.129  1.00  0.00     0.091 A 
ATOM     72  F   UNL A   1      43.623  25.942  32.897  1.00  0.00    -0.205 F 
ATOM     73  C   UNL A   1      44.500  25.834  36.403  1.00  0.00     0.022 A 
BRANCH  71  74
ATOM     74  S   UNL A   1      44.064  23.659  34.762  1.00  0.00     0.127 S 
ATOM     75  O   UNL A   1      44.863  23.580  33.544  1.00  0.00    -0.237 OA
ATOM     76  O   UNL A   1      44.685  23.072  35.950  1.00  0.00    -0.237 OA
ATOM     77  O   UNL A   1      42.642  23.358  34.633  1.00  0.00    -0.744 OA
ENDBRANCH  71  74
ENDBRANCH  53  67
BRANCH  54  78
ATOM     78  C   UNL A   1      42.549  24.913  26.445  1.00  0.00     0.023 A 
ATOM     79  C   UNL A   1      43.462  24.582  25.428  1.00  0.00     0.012 A 
ATOM     80  C   UNL A   1      41.638  23.921  26.877  1.00  0.00     0.148 A 
ATOM     81  C   UNL A   1      43.482  23.298  24.871  1.00  0.00     0.002 A 
ATOM     82  C   UNL A   1      41.650  22.652  26.307  1.00  0.00     0.091 A 
ATOM     83  F   UNL A   1      40.826  24.187  27.909  1.00  0.00    -0.205 F 
ATOM     84  C   UNL A   1      42.579  22.333  25.310  1.00  0.00     0.022 A 
BRANCH  82  85
ATOM     85  S   UNL A   1      40.510  21.363  26.832  1.00  0.00     0.127 S 
ATOM     86  O   UNL A   1      40.751  21.309  28.275  1.00  0.00    -0.237 OA
ATOM     87  O   UNL A   1      39.220  21.925  26.447  1.00  0.00    -0.237 OA
ATOM     88  O   UNL A   1      40.922  20.160  26.117  1.00  0.00    -0.744 OA
ENDBRANCH  82  85
ENDBRANCH  54  78
BRANCH  66  89
ATOM     89  C   UNL A   1      45.520  30.123  28.383  1.00  0.00     0.023 A 
ATOM     90  C   UNL A   1      44.388  30.657  27.731  1.00  0.00     0.012 A 
ATOM     91  C   UNL A   1      46.781  30.686  28.110  1.00  0.00     0.148 A 
ATOM     92  C   UNL A   1      44.509  31.698  26.809  1.00  0.00     0.002 A 
ATOM     93  C   UNL A   1      46.892  31.757  27.226  1.00  0.00     0.091 A 
ATOM     94  F   UNL A   1      47.854  30.183  28.739  1.00  0.00    -0.205 F 
ATOM     95  C   UNL A   1      45.760  32.258  26.565  1.00  0.00     0.022 A 
BRANCH  93  96
ATOM     96  S   UNL A   1      48.453  32.613  26.981  1.00  0.00     0.127 S 
ATOM     97  O   UNL A   1      48.062  33.728  26.121  1.00  0.00    -0.237 OA
ATOM     98  O   UNL A   1      48.825  32.998  28.344  1.00  0.00    -0.237 OA
ATOM     99  O   UNL A   1      49.348  31.632  26.380  1.00  0.00    -0.744 OA
ENDBRANCH  93  96
ENDBRANCH  66  89
ENDBRANCH  40  41
ENDBRANCH  33  35
ENDBRANCH  32  33
ENDBRANCH  31  32
ENDBRANCH  30  31
ENDBRANCH  29  30
ENDBRANCH  28  29
ENDBRANCH   1  28
TORSDOF 25
ENDMDL
MODEL 2
REMARK VINA RESULT:      -9.7      2.561      3.890
REMARK SMILES O=C(CC[N@H+]1CCC[C@H](c2nccn2Cc2cscn2)C1)OCCOCCOCCOC(=O)c1ccc(-c2c3nc(c(-c4cccc(S(=O)(=O)[O-])c4F)c4ccc([nH]4)c(-c4cccc(S(=O)(=O)[O-])c4F)c4nc(c(-c5cccc(S(=O)(=O)[O-])c5F)c5ccc2[nH]5)C=C4)C=C3)cc1
REMARK SMILES IDX 26 1 25 2 24 3 23 4 22 5 2 6 1 7 3 8 4 9 5 10 6 11 21 12
REMARK SMILES IDX 7 14 9 15 8 16 10 17 11 18 14 19 12 20 13 21 15 22 16 23
REMARK SMILES IDX 17 24 20 25 18 26 19 27 27 28 28 29 29 30 30 31 31 32 32 33
REMARK SMILES IDX 33 34 34 35 35 36 96 37 36 38 95 39 37 40 38 41 39 42 89 43
REMARK SMILES IDX 40 44 94 45 88 46 90 47 41 48 93 49 87 50 86 51 42 53 74 54
REMARK SMILES IDX 54 55 73 56 55 57 58 58 72 59 91 60 56 61 57 62 71 64 92 65
REMARK SMILES IDX 59 66 43 67 44 68 52 69 45 70 47 71 53 72 46 73 48 74 49 75
REMARK SMILES IDX 50 76 51 77 75 78 76 79 84 80 77 81 79 82 85 83 78 84 80 85
REMARK SMILES IDX 81 86 82 87 83 88 60 89 61 90 69 91 62 92 64 93 70 94 63 95
REMARK SMILES IDX 65 96 66 97 67 98 68 99
REMARK H PARENT 5 13 90 52 58 63
REMARK Flexibility Score: inf
ROOT
ATOM      1  C   UNL A   1      32.981  29.418  24.770  1.00  0.00     0.188 C 
ENDROOT
BRANCH   1   2
ATOM      2  O   UNL A   1      31.610  29.287  25.087  1.00  0.00    -0.376 OA
BRANCH   2   3
ATOM      3  C   UNL A   1      30.635  30.150  24.550  1.00  0.00     0.202 C 
BRANCH   3   4
ATOM      4  C   UNL A   1      29.867  29.739  23.292  1.00  0.00     0.261 C 
BRANCH   4   5
ATOM      5  O   UNL A   1      29.320  28.397  23.163  1.00  0.00    -0.463 OA
BRANCH   5   6
ATOM      6  C   UNL A   1      29.752  27.142  23.399  1.00  0.00     0.311 C 
ATOM      7  O   UNL A   1      30.718  26.728  22.754  1.00  0.00    -0.252 OA
BRANCH   6   8
ATOM      8  C   UNL A   1      29.034  26.225  24.351  1.00  0.00     0.184 C 
BRANCH   8   9
ATOM      9  C   UNL A   1      29.821  25.866  25.624  1.00  0.00     0.274 C 
BRANCH   9  10
ATOM     10  N   UNL A   1      30.858  24.812  25.579  1.00  0.00    -0.334 N 
ATOM     11  C   UNL A   1      32.219  25.253  25.797  1.00  0.00     0.262 C 
ATOM     12  C   UNL A   1      30.476  23.558  26.211  1.00  0.00     0.273 C 
ATOM     13  H   UNL A   1      30.896  24.562  24.591  1.00  0.00     0.348 HD
ATOM     14  C   UNL A   1      33.331  24.310  26.248  1.00  0.00     0.062 C 
ATOM     15  C   UNL A   1      31.605  22.526  26.199  1.00  0.00     0.111 C 
ATOM     16  C   UNL A   1      32.769  23.129  27.017  1.00  0.00     0.023 C 
BRANCH  15  17
ATOM     17  C   UNL A   1      32.174  22.050  24.863  1.00  0.00     0.117 A 
ATOM     18  N   UNL A   1      31.704  22.600  23.748  1.00  0.00    -0.241 NA
ATOM     19  N   UNL A   1      32.948  20.937  24.540  1.00  0.00    -0.328 N 
ATOM     20  C   UNL A   1      32.030  21.772  22.724  1.00  0.00     0.131 A 
ATOM     21  C   UNL A   1      32.806  20.745  23.179  1.00  0.00     0.108 A 
BRANCH  19  22
ATOM     22  C   UNL A   1      33.928  20.181  25.325  1.00  0.00     0.180 C 
BRANCH  22  23
ATOM     23  C   UNL A   1      35.359  20.639  25.152  1.00  0.00     0.071 A 
ATOM     24  C   UNL A   1      35.848  21.927  25.299  1.00  0.00     0.092 A 
ATOM     25  N   UNL A   1      36.361  19.703  24.929  1.00  0.00    -0.248 NA
ATOM     26  S   UNL A   1      37.546  21.974  25.061  1.00  0.00    -0.130 S 
ATOM     27  C   UNL A   1      37.539  20.278  24.847  1.00  0.00     0.175 A 
ENDBRANCH  22  23
ENDBRANCH  19  22
ENDBRANCH  15  17
ENDBRANCH   9  10
ENDBRANCH   8   9
ENDBRANCH   6   8
ENDBRANCH   5   6
ENDBRANCH   4   5
ENDBRANCH   3   4
ENDBRANCH   2   3
ENDBRANCH   1   2
BRANCH   1  28
ATOM     28  C   UNL A   1      33.920  28.274  25.174  1.00  0.00     0.188 C 
BRANCH  28  29
ATOM     29  O   UNL A   1      34.330  28.194  26.536  1.00  0.00    -0.376 OA
BRANCH  29  30
ATOM     30  C   UNL A   1      34.605  29.410  27.225  1.00  0.00     0.202 C 
BRANCH  30  31
ATOM     31  C   UNL A   1      36.102  29.709  27.394  1.00  0.00     0.261 C 
BRANCH  31  32
ATOM     32  O   UNL A   1      36.562  29.449  28.713  1.00  0.00    -0.460 OA
BRANCH  32  33
ATOM     33  C   UNL A   1      36.690  30.566  29.451  1.00  0.00     0.338 C 
ATOM     34  O   UNL A   1      36.057  31.621  29.322  1.00  0.00    -0.246 OA
BRANCH  33  35
ATOM     35  C   UNL A   1      37.752  30.421  30.440  1.00  0.00     0.060 A 
ATOM     36  C   UNL A   1      38.957  31.068  30.146  1.00  0.00     0.016 A 
ATOM     37  C   UNL A   1      37.652  29.427  31.421  1.00  0.00     0.016 A 
ATOM     38  C   UNL A   1      40.118  30.503  30.606  1.00  0.00     0.010 A 
ATOM     39  C   UNL A   1      38.817  28.856  31.879  1.00  0.00     0.010 A 
ATOM     40  C   UNL A   1      40.019  29.319  31.342  1.00  0.00    -0.014 A 
BRANCH  40  41
ATOM     41  C   UNL A   1      41.178  28.453  31.290  1.00  0.00     0.031 A 
ATOM     42  C   UNL A   1      41.925  28.294  32.545  1.00  0.00     0.074 A 
ATOM     43  C   UNL A   1      41.524  27.847  30.138  1.00  0.00     0.049 A 
ATOM     44  N   UNL A   1      43.143  28.645  32.790  1.00  0.00    -0.248 NA
ATOM     45  C   UNL A   1      41.186  27.764  33.694  1.00  0.00     0.031 C 
ATOM     46  C   UNL A   1      40.717  27.713  28.917  1.00  0.00     0.029 A 
ATOM     47  N   UNL A   1      42.627  27.098  29.868  1.00  0.00    -0.354 N 
ATOM     48  C   UNL A   1      43.393  28.189  34.077  1.00  0.00     0.074 A 
ATOM     49  C   UNL A   1      42.123  27.795  34.638  1.00  0.00     0.031 C 
ATOM     50  C   UNL A   1      41.237  26.727  28.156  1.00  0.00     0.029 A 
ATOM     51  C   UNL A   1      42.471  26.267  28.769  1.00  0.00     0.049 A 
ATOM     52  H   UNL A   1      43.455  27.142  30.400  1.00  0.00     0.167 HD
ATOM     53  C   UNL A   1      44.651  27.953  34.529  1.00  0.00     0.034 A 
ATOM     54  C   UNL A   1      43.250  25.209  28.449  1.00  0.00     0.034 A 
ATOM     55  C   UNL A   1      45.662  28.579  33.728  1.00  0.00     0.049 A 
ATOM     56  C   UNL A   1      44.540  25.366  29.158  1.00  0.00     0.074 A 
ATOM     57  C   UNL A   1      45.978  29.881  33.399  1.00  0.00     0.029 A 
ATOM     58  N   UNL A   1      46.353  27.783  32.848  1.00  0.00    -0.354 N 
ATOM     59  N   UNL A   1      45.422  26.285  28.879  1.00  0.00    -0.248 NA
ATOM     60  C   UNL A   1      44.709  24.711  30.444  1.00  0.00     0.031 C 
ATOM     61  C   UNL A   1      46.513  29.818  32.079  1.00  0.00     0.029 A 
ATOM     62  C   UNL A   1      46.495  28.480  31.676  1.00  0.00     0.049 A 
ATOM     63  H   UNL A   1      46.685  26.875  33.027  1.00  0.00     0.167 HD
ATOM     64  C   UNL A   1      45.986  26.617  30.105  1.00  0.00     0.074 A 
ATOM     65  C   UNL A   1      45.615  25.522  30.995  1.00  0.00     0.031 C 
ATOM     66  C   UNL A   1      46.447  27.879  30.357  1.00  0.00     0.034 A 
BRANCH  53  67
ATOM     67  C   UNL A   1      44.958  26.909  35.558  1.00  0.00     0.023 A 
ATOM     68  C   UNL A   1      45.351  27.319  36.845  1.00  0.00     0.012 A 
ATOM     69  C   UNL A   1      45.064  25.532  35.254  1.00  0.00     0.148 A 
ATOM     70  C   UNL A   1      45.805  26.396  37.792  1.00  0.00     0.002 A 
ATOM     71  C   UNL A   1      45.416  24.608  36.228  1.00  0.00     0.091 A 
ATOM     72  F   UNL A   1      44.941  25.116  33.987  1.00  0.00    -0.205 F 
ATOM     73  C   UNL A   1      45.811  25.036  37.496  1.00  0.00     0.022 A 
BRANCH  71  74
ATOM     74  S   UNL A   1      45.302  22.850  35.889  1.00  0.00     0.127 S 
ATOM     75  O   UNL A   1      43.924  22.720  35.432  1.00  0.00    -0.237 OA
ATOM     76  O   UNL A   1      46.320  22.665  34.853  1.00  0.00    -0.237 OA
ATOM     77  O   UNL A   1      45.635  22.213  37.159  1.00  0.00    -0.744 OA
ENDBRANCH  71  74
ENDBRANCH  53  67
BRANCH  54  78
ATOM     78  C   UNL A   1      42.859  23.952  27.775  1.00  0.00     0.023 A 
ATOM     79  C   UNL A   1      41.524  23.515  27.842  1.00  0.00     0.012 A 
ATOM     80  C   UNL A   1      43.732  23.306  26.869  1.00  0.00     0.148 A 
ATOM     81  C   UNL A   1      41.066  22.480  27.017  1.00  0.00     0.002 A 
ATOM     82  C   UNL A   1      43.276  22.267  26.065  1.00  0.00     0.091 A 
ATOM     83  F   UNL A   1      44.980  23.771  26.724  1.00  0.00    -0.205 F 
ATOM     84  C   UNL A   1      41.939  21.858  26.128  1.00  0.00     0.022 A 
BRANCH  82  85
ATOM     85  S   UNL A   1      44.354  21.424  24.898  1.00  0.00     0.127 S 
ATOM     86  O   UNL A   1      43.670  20.143  24.717  1.00  0.00    -0.237 OA
ATOM     87  O   UNL A   1      44.303  22.314  23.742  1.00  0.00    -0.237 OA
ATOM     88  O   UNL A   1      45.648  21.317  25.565  1.00  0.00    -0.744 OA
ENDBRANCH  82  85
ENDBRANCH  54  78
BRANCH  66  89
ATOM     89  C   UNL A   1      46.600  28.825  29.186  1.00  0.00     0.023 A 
ATOM     90  C   UNL A   1      47.771  28.836  28.397  1.00  0.00     0.012 A 
ATOM     91  C   UNL A   1      45.493  29.581  28.757  1.00  0.00     0.148 A 
ATOM     92  C   UNL A   1      47.849  29.603  27.233  1.00  0.00     0.002 A 
ATOM     93  C   UNL A   1      45.559  30.306  27.570  1.00  0.00     0.091 A 
ATOM     94  F   UNL A   1      44.379  29.560  29.505  1.00  0.00    -0.205 F 
ATOM     95  C   UNL A   1      46.739  30.329  26.812  1.00  0.00     0.022 A 
BRANCH  93  96
ATOM     96  S   UNL A   1      44.117  31.144  26.902  1.00  0.00     0.127 S 
ATOM     97  O   UNL A   1      43.668  31.943  28.040  1.00  0.00    -0.237 OA
ATOM     98  O   UNL A   1      44.680  31.921  25.796  1.00  0.00    -0.237 OA
ATOM     99  O   UNL A   1      43.210  30.084  26.475  1.00  0.00    -0.744 OA
ENDBRANCH  93  96
ENDBRANCH  66  89
ENDBRANCH  40  41
ENDBRANCH  33  35
ENDBRANCH  32  33
ENDBRANCH  31  32
ENDBRANCH  30  31
ENDBRANCH  29  30
ENDBRANCH  28  29
ENDBRANCH   1  28
TORSDOF 25
ENDMDL
MODEL 3
REMARK VINA RESULT:      -8.5      5.052      9.899
REMARK SMILES O=C(CC[N@H+]1CCC[C@H](c2nccn2Cc2cscn2)C1)OCCOCCOCCOC(=O)c1ccc(-c2c3nc(c(-c4cccc(S(=O)(=O)[O-])c4F)c4ccc([nH]4)c(-c4cccc(S(=O)(=O)[O-])c4F)c4nc(c(-c5cccc(S(=O)(=O)[O-])c5F)c5ccc2[nH]5)C=C4)C=C3)cc1
REMARK SMILES IDX 26 1 25 2 24 3 23 4 22 5 2 6 1 7 3 8 4 9 5 10 6 11 21 12
REMARK SMILES IDX 7 14 9 15 8 16 10 17 11 18 14 19 12 20 13 21 15 22 16 23
REMARK SMILES IDX 17 24 20 25 18 26 19 27 27 28 28 29 29 30 30 31 31 32 32 33
REMARK SMILES IDX 33 34 34 35 35 36 96 37 36 38 95 39 37 40 38 41 39 42 89 43
REMARK SMILES IDX 40 44 94 45 88 46 90 47 41 48 93 49 87 50 86 51 42 53 74 54
REMARK SMILES IDX 54 55 73 56 55 57 58 58 72 59 91 60 56 61 57 62 71 64 92 65
REMARK SMILES IDX 59 66 43 67 44 68 52 69 45 70 47 71 53 72 46 73 48 74 49 75
REMARK SMILES IDX 50 76 51 77 75 78 76 79 84 80 77 81 79 82 85 83 78 84 80 85
REMARK SMILES IDX 81 86 82 87 83 88 60 89 61 90 69 91 62 92 64 93 70 94 63 95
REMARK SMILES IDX 65 96 66 97 67 98 68 99
REMARK H PARENT 5 13 90 52 58 63
REMARK Flexibility Score: inf
ROOT
ATOM      1  C   UNL A   1      31.780  30.387  25.098  1.00  0.00     0.188 C 
ENDROOT
BRANCH   1   2
ATOM      2  O   UNL A   1      30.604  31.109  25.403  1.00  0.00    -0.376 OA
BRANCH   2   3
ATOM      3  C   UNL A   1      29.852  31.763  24.407  1.00  0.00     0.202 C 
BRANCH   3   4
ATOM      4  C   UNL A   1      28.683  31.037  23.737  1.00  0.00     0.261 C 
BRANCH   4   5
ATOM      5  O   UNL A   1      28.849  29.689  23.216  1.00  0.00    -0.463 OA
BRANCH   5   6
ATOM      6  C   UNL A   1      29.731  29.055  22.418  1.00  0.00     0.311 C 
ATOM      7  O   UNL A   1      30.121  29.637  21.403  1.00  0.00    -0.252 OA
BRANCH   6   8
ATOM      8  C   UNL A   1      30.169  27.641  22.689  1.00  0.00     0.184 C 
BRANCH   8   9
ATOM      9  C   UNL A   1      30.333  27.288  24.178  1.00  0.00     0.274 C 
BRANCH   9  10
ATOM     10  N   UNL A   1      31.082  26.075  24.572  1.00  0.00    -0.334 N 
ATOM     11  C   UNL A   1      32.424  26.293  25.068  1.00  0.00     0.262 C 
ATOM     12  C   UNL A   1      30.290  25.072  25.267  1.00  0.00     0.273 C 
ATOM     13  H   UNL A   1      31.283  25.623  23.680  1.00  0.00     0.348 HD
ATOM     14  C   UNL A   1      33.159  25.275  25.937  1.00  0.00     0.062 C 
ATOM     15  C   UNL A   1      31.124  23.870  25.713  1.00  0.00     0.111 C 
ATOM     16  C   UNL A   1      32.183  24.404  26.704  1.00  0.00     0.023 C 
BRANCH  15  17
ATOM     17  C   UNL A   1      31.853  23.030  24.665  1.00  0.00     0.117 A 
ATOM     18  N   UNL A   1      31.566  23.237  23.384  1.00  0.00    -0.241 NA
ATOM     19  N   UNL A   1      32.617  21.871  24.787  1.00  0.00    -0.328 N 
ATOM     20  C   UNL A   1      31.995  22.150  22.695  1.00  0.00     0.131 A 
ATOM     21  C   UNL A   1      32.658  21.296  23.531  1.00  0.00     0.108 A 
BRANCH  19  22
ATOM     22  C   UNL A   1      33.446  21.372  25.888  1.00  0.00     0.180 C 
BRANCH  22  23
ATOM     23  C   UNL A   1      34.934  21.541  25.680  1.00  0.00     0.071 A 
ATOM     24  C   UNL A   1      35.805  20.636  25.094  1.00  0.00     0.092 A 
ATOM     25  N   UNL A   1      35.541  22.752  25.986  1.00  0.00    -0.248 NA
ATOM     26  S   UNL A   1      37.397  21.269  25.019  1.00  0.00    -0.130 S 
ATOM     27  C   UNL A   1      36.823  22.727  25.702  1.00  0.00     0.175 A 
ENDBRANCH  22  23
ENDBRANCH  19  22
ENDBRANCH  15  17
ENDBRANCH   9  10
ENDBRANCH   8   9
ENDBRANCH   6   8
ENDBRANCH   5   6
ENDBRANCH   4   5
ENDBRANCH   3   4
ENDBRANCH   2   3
ENDBRANCH   1   2
BRANCH   1  28
ATOM     28  C   UNL A   1      32.487  29.656  26.247  1.00  0.00     0.188 C 
BRANCH  28  29
ATOM     29  O   UNL A   1      32.490  30.272  27.531  1.00  0.00    -0.376 OA
BRANCH  29  30
ATOM     30  C   UNL A   1      33.290  31.437  27.713  1.00  0.00     0.202 C 
BRANCH  30  31
ATOM     31  C   UNL A   1      34.785  31.219  27.435  1.00  0.00     0.261 C 
BRANCH  31  32
ATOM     32  O   UNL A   1      35.597  31.520  28.561  1.00  0.00    -0.460 OA
BRANCH  32  33
ATOM     33  C   UNL A   1      36.105  30.421  29.147  1.00  0.00     0.338 C 
ATOM     34  O   UNL A   1      36.271  29.311  28.629  1.00  0.00    -0.246 OA
BRANCH  33  35
ATOM     35  C   UNL A   1      36.405  30.668  30.552  1.00  0.00     0.060 A 
ATOM     36  C   UNL A   1      36.100  31.947  31.029  1.00  0.00     0.016 A 
ATOM     37  C   UNL A   1      37.246  29.788  31.245  1.00  0.00     0.016 A 
ATOM     38  C   UNL A   1      36.880  32.463  32.031  1.00  0.00     0.010 A 
ATOM     39  C   UNL A   1      38.034  30.307  32.247  1.00  0.00     0.010 A 
ATOM     40  C   UNL A   1      37.929  31.673  32.512  1.00  0.00    -0.014 A 
BRANCH  40  41
ATOM     41  C   UNL A   1      39.049  32.397  33.073  1.00  0.00     0.031 A 
ATOM     42  C   UNL A   1      39.929  33.074  32.112  1.00  0.00     0.074 A 
ATOM     43  C   UNL A   1      39.245  32.423  34.406  1.00  0.00     0.049 A 
ATOM     44  N   UNL A   1      41.177  32.837  31.879  1.00  0.00    -0.248 NA
ATOM     45  C   UNL A   1      39.312  34.076  31.238  1.00  0.00     0.031 C 
ATOM     46  C   UNL A   1      38.301  32.025  35.458  1.00  0.00     0.029 A 
ATOM     47  N   UNL A   1      40.289  32.947  35.103  1.00  0.00    -0.354 N 
ATOM     48  C   UNL A   1      41.559  33.808  30.963  1.00  0.00     0.074 A 
ATOM     49  C   UNL A   1      40.351  34.441  30.492  1.00  0.00     0.031 C 
ATOM     50  C   UNL A   1      38.702  32.560  36.631  1.00  0.00     0.029 A 
ATOM     51  C   UNL A   1      39.984  33.212  36.430  1.00  0.00     0.049 A 
ATOM     52  H   UNL A   1      41.172  33.123  34.705  1.00  0.00     0.167 HD
ATOM     53  C   UNL A   1      42.853  34.187  30.809  1.00  0.00     0.034 A 
ATOM     54  C   UNL A   1      40.692  34.000  37.271  1.00  0.00     0.034 A 
ATOM     55  C   UNL A   1      43.784  33.247  31.361  1.00  0.00     0.049 A 
ATOM     56  C   UNL A   1      42.058  34.139  36.718  1.00  0.00     0.074 A 
ATOM     57  C   UNL A   1      44.097  31.925  31.116  1.00  0.00     0.029 A 
ATOM     58  N   UNL A   1      44.347  33.554  32.575  1.00  0.00    -0.354 N 
ATOM     59  N   UNL A   1      42.929  33.170  36.662  1.00  0.00    -0.248 NA
ATOM     60  C   UNL A   1      42.354  35.291  35.882  1.00  0.00     0.031 C 
ATOM     61  C   UNL A   1      44.476  31.386  32.380  1.00  0.00     0.029 A 
ATOM     62  C   UNL A   1      44.375  32.408  33.327  1.00  0.00     0.049 A 
ATOM     63  H   UNL A   1      44.672  34.440  32.855  1.00  0.00     0.167 HD
ATOM     64  C   UNL A   1      43.637  33.399  35.489  1.00  0.00     0.074 A 
ATOM     65  C   UNL A   1      43.340  34.784  35.138  1.00  0.00     0.031 C 
ATOM     66  C   UNL A   1      44.159  32.367  34.761  1.00  0.00     0.034 A 
BRANCH  53  67
ATOM     67  C   UNL A   1      43.246  35.571  30.389  1.00  0.00     0.023 A 
ATOM     68  C   UNL A   1      43.462  35.829  29.023  1.00  0.00     0.012 A 
ATOM     69  C   UNL A   1      43.603  36.585  31.307  1.00  0.00     0.148 A 
ATOM     70  C   UNL A   1      43.986  37.053  28.592  1.00  0.00     0.002 A 
ATOM     71  C   UNL A   1      44.024  37.832  30.869  1.00  0.00     0.091 A 
ATOM     72  F   UNL A   1      43.651  36.313  32.618  1.00  0.00    -0.205 F 
ATOM     73  C   UNL A   1      44.240  38.066  29.511  1.00  0.00     0.022 A 
BRANCH  71  74
ATOM     74  S   UNL A   1      44.230  39.178  32.037  1.00  0.00     0.127 S 
ATOM     75  O   UNL A   1      45.424  38.765  32.766  1.00  0.00    -0.237 OA
ATOM     76  O   UNL A   1      44.411  40.332  31.154  1.00  0.00    -0.237 OA
ATOM     77  O   UNL A   1      42.980  39.203  32.788  1.00  0.00    -0.744 OA
ENDBRANCH  71  74
ENDBRANCH  53  67
BRANCH  54  78
ATOM     78  C   UNL A   1      40.192  34.840  38.380  1.00  0.00     0.023 A 
ATOM     79  C   UNL A   1      39.969  36.212  38.167  1.00  0.00     0.012 A 
ATOM     80  C   UNL A   1      39.704  34.259  39.574  1.00  0.00     0.148 A 
ATOM     81  C   UNL A   1      39.264  36.979  39.103  1.00  0.00     0.002 A 
ATOM     82  C   UNL A   1      39.021  35.030  40.509  1.00  0.00     0.091 A 
ATOM     83  F   UNL A   1      39.824  32.937  39.751  1.00  0.00    -0.205 F 
ATOM     84  C   UNL A   1      38.789  36.389  40.271  1.00  0.00     0.022 A 
BRANCH  82  85
ATOM     85  S   UNL A   1      38.383  34.327  42.037  1.00  0.00     0.127 S 
ATOM     86  O   UNL A   1      37.466  33.298  41.542  1.00  0.00    -0.237 OA
ATOM     87  O   UNL A   1      39.597  33.815  42.665  1.00  0.00    -0.237 OA
ATOM     88  O   UNL A   1      37.721  35.428  42.729  1.00  0.00    -0.744 OA
ENDBRANCH  82  85
ENDBRANCH  54  78
BRANCH  66  89
ATOM     89  C   UNL A   1      44.205  30.997  35.403  1.00  0.00     0.023 A 
ATOM     90  C   UNL A   1      45.274  30.612  36.241  1.00  0.00     0.012 A 
ATOM     91  C   UNL A   1      43.081  30.155  35.317  1.00  0.00     0.148 A 
ATOM     92  C   UNL A   1      45.240  29.408  36.947  1.00  0.00     0.002 A 
ATOM     93  C   UNL A   1      43.030  28.979  36.061  1.00  0.00     0.091 A 
ATOM     94  F   UNL A   1      42.062  30.529  34.528  1.00  0.00    -0.205 F 
ATOM     95  C   UNL A   1      44.112  28.596  36.868  1.00  0.00     0.022 A 
BRANCH  93  96
ATOM     96  S   UNL A   1      41.547  27.965  36.112  1.00  0.00     0.127 S 
ATOM     97  O   UNL A   1      40.506  28.953  36.385  1.00  0.00    -0.237 OA
ATOM     98  O   UNL A   1      41.504  27.390  34.766  1.00  0.00    -0.237 OA
ATOM     99  O   UNL A   1      41.780  26.982  37.165  1.00  0.00    -0.744 OA
ENDBRANCH  93  96
ENDBRANCH  66  89
ENDBRANCH  40  41
ENDBRANCH  33  35
ENDBRANCH  32  33
ENDBRANCH  31  32
ENDBRANCH  30  31
ENDBRANCH  29  30
ENDBRANCH  28  29
ENDBRANCH   1  28
TORSDOF 25
ENDMDL
