MODEL 1
REMARK VINA RESULT:     -11.8      0.000      0.000
REMARK SMILES O=C(OCCOCCOCCOC(=O)c1ccc(N2C(=O)[C@@H]3CC=CC[C@H]3C2=O)cc1Cl)c1ccc(-c2c3nc(c(-c4cccc(S(=O)(=O)[O-])c4F)c4ccc([nH]4)c(-c4cccc(S(=O)(=O)[O-])c4F)c4nc(c(-c5cccc(S(=O)(=O)[O-])c5F)c5ccc2[nH]5)C=C4)C=C3)cc1
REMARK SMILES IDX 7 1 6 2 5 3 4 4 3 5 2 6 1 7 33 8 34 9 95 10 35 11 94 12
REMARK SMILES IDX 36 13 37 14 38 15 88 16 39 17 93 18 87 19 89 20 40 21 92 22
REMARK SMILES IDX 86 23 85 24 41 26 73 27 53 28 72 29 54 30 57 31 71 32 90 33
REMARK SMILES IDX 55 34 56 35 70 37 91 38 58 39 42 40 43 41 51 42 44 43 46 44
REMARK SMILES IDX 52 45 45 46 47 47 48 48 49 49 50 50 74 51 75 52 83 53 76 54
REMARK SMILES IDX 78 55 84 56 77 57 79 58 80 59 81 60 82 61 59 62 60 63 68 64
REMARK SMILES IDX 61 65 63 66 69 67 62 68 64 69 65 70 66 71 67 72 8 73 9 74
REMARK SMILES IDX 10 75 11 76 12 77 13 78 14 79 15 80 16 81 31 82 17 83 30 84
REMARK SMILES IDX 32 85 18 86 19 87 20 88 28 89 21 90 22 91 27 92 29 93 23 94
REMARK SMILES IDX 26 95 24 96 25 97
REMARK H PARENT 89 25 57 36
REMARK Flexibility Score: inf
ROOT
ATOM      1  C   UNL A   1      34.377  23.766  26.069  1.00  0.00     0.188 C 
ENDROOT
BRANCH   1   2
ATOM      2  O   UNL A   1      35.497  23.105  25.472  1.00  0.00    -0.376 OA
BRANCH   2   3
ATOM      3  C   UNL A   1      35.742  21.797  26.007  1.00  0.00     0.202 C 
BRANCH   3   4
ATOM      4  C   UNL A   1      36.492  20.838  25.068  1.00  0.00     0.261 C 
BRANCH   4   5
ATOM      5  O   UNL A   1      37.862  21.218  24.858  1.00  0.00    -0.460 OA
BRANCH   5   6
ATOM      6  C   UNL A   1      38.875  21.265  25.762  1.00  0.00     0.338 C 
ATOM      7  O   UNL A   1      39.472  20.219  26.015  1.00  0.00    -0.246 OA
BRANCH   6   8
ATOM      8  C   UNL A   1      39.315  22.513  26.467  1.00  0.00     0.060 A 
ATOM      9  C   UNL A   1      38.743  23.773  26.302  1.00  0.00     0.016 A 
ATOM     10  C   UNL A   1      40.376  22.396  27.385  1.00  0.00     0.016 A 
ATOM     11  C   UNL A   1      39.293  24.903  26.885  1.00  0.00     0.010 A 
ATOM     12  C   UNL A   1      40.900  23.522  28.030  1.00  0.00     0.010 A 
ATOM     13  C   UNL A   1      40.398  24.789  27.722  1.00  0.00    -0.014 A 
BRANCH  13  14
ATOM     14  C   UNL A   1      41.090  26.039  28.084  1.00  0.00     0.031 A 
ATOM     15  C   UNL A   1      42.462  26.275  27.523  1.00  0.00     0.074 A 
ATOM     16  C   UNL A   1      40.420  27.008  28.732  1.00  0.00     0.049 A 
ATOM     17  N   UNL A   1      43.218  27.336  27.605  1.00  0.00    -0.248 NA
ATOM     18  C   UNL A   1      43.055  25.176  26.737  1.00  0.00     0.031 C 
ATOM     19  C   UNL A   1      39.043  26.895  29.220  1.00  0.00     0.029 A 
ATOM     20  N   UNL A   1      40.788  28.286  29.054  1.00  0.00    -0.354 N 
ATOM     21  C   UNL A   1      44.387  27.017  26.929  1.00  0.00     0.074 A 
ATOM     22  C   UNL A   1      44.243  25.671  26.428  1.00  0.00     0.031 C 
ATOM     23  C   UNL A   1      38.675  28.067  29.760  1.00  0.00     0.029 A 
ATOM     24  C   UNL A   1      39.806  28.989  29.708  1.00  0.00     0.049 A 
ATOM     25  H   UNL A   1      41.671  28.664  28.838  1.00  0.00     0.167 HD
ATOM     26  C   UNL A   1      45.486  27.782  26.744  1.00  0.00     0.034 A 
ATOM     27  C   UNL A   1      39.835  30.233  30.224  1.00  0.00     0.034 A 
ATOM     28  C   UNL A   1      45.604  29.125  27.235  1.00  0.00     0.049 A 
ATOM     29  C   UNL A   1      41.087  31.046  30.046  1.00  0.00     0.074 A 
ATOM     30  C   UNL A   1      46.677  29.989  27.139  1.00  0.00     0.029 A 
ATOM     31  N   UNL A   1      44.604  29.794  27.927  1.00  0.00    -0.354 N 
ATOM     32  N   UNL A   1      42.179  30.742  29.385  1.00  0.00    -0.248 NA
ATOM     33  C   UNL A   1      41.110  32.376  30.667  1.00  0.00     0.031 C 
ATOM     34  C   UNL A   1      46.335  31.174  27.801  1.00  0.00     0.029 A 
ATOM     35  C   UNL A   1      45.037  31.060  28.276  1.00  0.00     0.049 A 
ATOM     36  H   UNL A   1      43.717  29.423  28.137  1.00  0.00     0.167 HD
ATOM     37  C   UNL A   1      43.007  31.852  29.481  1.00  0.00     0.074 A 
ATOM     38  C   UNL A   1      42.278  32.844  30.249  1.00  0.00     0.031 C 
ATOM     39  C   UNL A   1      44.260  32.036  28.998  1.00  0.00     0.034 A 
BRANCH  26  40
ATOM     40  C   UNL A   1      46.647  27.154  26.020  1.00  0.00     0.023 A 
ATOM     41  C   UNL A   1      47.422  26.157  26.647  1.00  0.00     0.012 A 
ATOM     42  C   UNL A   1      46.980  27.575  24.719  1.00  0.00     0.148 A 
ATOM     43  C   UNL A   1      48.538  25.619  26.003  1.00  0.00     0.002 A 
ATOM     44  C   UNL A   1      48.068  27.006  24.069  1.00  0.00     0.091 A 
ATOM     45  F   UNL A   1      46.249  28.545  24.154  1.00  0.00    -0.205 F 
ATOM     46  C   UNL A   1      48.855  26.038  24.713  1.00  0.00     0.022 A 
BRANCH  44  47
ATOM     47  S   UNL A   1      48.522  27.438  22.386  1.00  0.00     0.127 S 
ATOM     48  O   UNL A   1      49.785  28.143  22.593  1.00  0.00    -0.237 OA
ATOM     49  O   UNL A   1      48.652  26.123  21.757  1.00  0.00    -0.237 OA
ATOM     50  O   UNL A   1      47.429  28.252  21.872  1.00  0.00    -0.744 OA
ENDBRANCH  44  47
ENDBRANCH  26  40
BRANCH  27  51
ATOM     51  C   UNL A   1      38.651  30.766  30.953  1.00  0.00     0.023 A 
ATOM     52  C   UNL A   1      38.587  30.699  32.357  1.00  0.00     0.012 A 
ATOM     53  C   UNL A   1      37.592  31.372  30.252  1.00  0.00     0.148 A 
ATOM     54  C   UNL A   1      37.481  31.206  33.044  1.00  0.00     0.002 A 
ATOM     55  C   UNL A   1      36.529  31.937  30.942  1.00  0.00     0.091 A 
ATOM     56  F   UNL A   1      37.645  31.403  28.911  1.00  0.00    -0.205 F 
ATOM     57  C   UNL A   1      36.458  31.839  32.339  1.00  0.00     0.022 A 
BRANCH  55  58
ATOM     58  S   UNL A   1      35.295  32.913  30.079  1.00  0.00     0.127 S 
ATOM     59  O   UNL A   1      36.107  33.957  29.464  1.00  0.00    -0.237 OA
ATOM     60  O   UNL A   1      34.722  31.943  29.148  1.00  0.00    -0.237 OA
ATOM     61  O   UNL A   1      34.369  33.350  31.124  1.00  0.00    -0.744 OA
ENDBRANCH  55  58
ENDBRANCH  27  51
BRANCH  39  62
ATOM     62  C   UNL A   1      44.905  33.371  29.246  1.00  0.00     0.023 A 
ATOM     63  C   UNL A   1      45.688  33.569  30.399  1.00  0.00     0.012 A 
ATOM     64  C   UNL A   1      44.800  34.397  28.289  1.00  0.00     0.148 A 
ATOM     65  C   UNL A   1      46.333  34.787  30.611  1.00  0.00     0.002 A 
ATOM     66  C   UNL A   1      45.489  35.587  28.481  1.00  0.00     0.091 A 
ATOM     67  F   UNL A   1      44.030  34.192  27.210  1.00  0.00    -0.205 F 
ATOM     68  C   UNL A   1      46.246  35.788  29.647  1.00  0.00     0.022 A 
BRANCH  66  69
ATOM     69  S   UNL A   1      45.517  36.880  27.236  1.00  0.00     0.127 S 
ATOM     70  O   UNL A   1      46.264  36.239  26.156  1.00  0.00    -0.237 OA
ATOM     71  O   UNL A   1      44.093  37.078  26.960  1.00  0.00    -0.237 OA
ATOM     72  O   UNL A   1      46.172  38.021  27.863  1.00  0.00    -0.744 OA
ENDBRANCH  66  69
ENDBRANCH  39  62
ENDBRANCH  13  14
ENDBRANCH   6   8
ENDBRANCH   5   6
ENDBRANCH   4   5
ENDBRANCH   3   4
ENDBRANCH   2   3
ENDBRANCH   1   2
BRANCH   1  73
ATOM     73  C   UNL A   1      34.241  25.226  25.637  1.00  0.00     0.188 C 
BRANCH  73  74
ATOM     74  O   UNL A   1      33.251  25.996  26.313  1.00  0.00    -0.376 OA
BRANCH  74  75
ATOM     75  C   UNL A   1      33.341  27.413  26.202  1.00  0.00     0.202 C 
BRANCH  75  76
ATOM     76  C   UNL A   1      32.868  28.072  24.898  1.00  0.00     0.261 C 
BRANCH  76  77
ATOM     77  O   UNL A   1      31.487  27.868  24.551  1.00  0.00    -0.460 OA
BRANCH  77  78
ATOM     78  C   UNL A   1      31.292  27.553  23.246  1.00  0.00     0.339 C 
ATOM     79  O   UNL A   1      31.121  28.332  22.321  1.00  0.00    -0.246 OA
BRANCH  78  80
ATOM     80  C   UNL A   1      31.305  26.101  23.029  1.00  0.00     0.078 A 
ATOM     81  C   UNL A   1      30.309  25.302  23.612  1.00  0.00     0.019 A 
ATOM     82  C   UNL A   1      32.445  25.518  22.479  1.00  0.00     0.057 A 
ATOM     83  C   UNL A   1      30.487  23.914  23.691  1.00  0.00     0.028 A 
ATOM     84  C   UNL A   1      32.644  24.146  22.616  1.00  0.00     0.048 A 
ATOM     85  Cl  UNL A   1      33.644  26.447  21.653  1.00  0.00    -0.083 Cl
ATOM     86  C   UNL A   1      31.690  23.344  23.259  1.00  0.00     0.053 A 
BRANCH  86  87
ATOM     87  N   UNL A   1      32.019  22.000  23.520  1.00  0.00    -0.250 N 
ATOM     88  C   UNL A   1      32.129  20.982  22.584  1.00  0.00     0.238 C 
ATOM     89  C   UNL A   1      32.038  21.497  24.819  1.00  0.00     0.238 C 
ATOM     90  O   UNL A   1      31.771  20.956  21.427  1.00  0.00    -0.274 OA
ATOM     91  C   UNL A   1      32.817  19.863  23.328  1.00  0.00     0.096 C 
ATOM     92  C   UNL A   1      32.153  20.007  24.686  1.00  0.00     0.096 C 
ATOM     93  O   UNL A   1      31.702  22.065  25.852  1.00  0.00    -0.274 OA
ATOM     94  C   UNL A   1      32.694  18.433  22.841  1.00  0.00     0.041 C 
ATOM     95  C   UNL A   1      32.898  19.234  25.750  1.00  0.00     0.041 C 
ATOM     96  C   UNL A   1      33.080  17.474  23.952  1.00  0.00    -0.030 C 
ATOM     97  C   UNL A   1      33.198  17.839  25.243  1.00  0.00    -0.030 C 
ENDBRANCH  86  87
ENDBRANCH  78  80
ENDBRANCH  77  78
ENDBRANCH  76  77
ENDBRANCH  75  76
ENDBRANCH  74  75
ENDBRANCH  73  74
ENDBRANCH   1  73
TORSDOF 21
ENDMDL
MODEL 2
REMARK VINA RESULT:     -11.1      1.363      7.417
REMARK SMILES O=C(OCCOCCOCCOC(=O)c1ccc(N2C(=O)[C@@H]3CC=CC[C@H]3C2=O)cc1Cl)c1ccc(-c2c3nc(c(-c4cccc(S(=O)(=O)[O-])c4F)c4ccc([nH]4)c(-c4cccc(S(=O)(=O)[O-])c4F)c4nc(c(-c5cccc(S(=O)(=O)[O-])c5F)c5ccc2[nH]5)C=C4)C=C3)cc1
REMARK SMILES IDX 7 1 6 2 5 3 4 4 3 5 2 6 1 7 33 8 34 9 95 10 35 11 94 12
REMARK SMILES IDX 36 13 37 14 38 15 88 16 39 17 93 18 87 19 89 20 40 21 92 22
REMARK SMILES IDX 86 23 85 24 41 26 73 27 53 28 72 29 54 30 57 31 71 32 90 33
REMARK SMILES IDX 55 34 56 35 70 37 91 38 58 39 42 40 43 41 51 42 44 43 46 44
REMARK SMILES IDX 52 45 45 46 47 47 48 48 49 49 50 50 74 51 75 52 83 53 76 54
REMARK SMILES IDX 78 55 84 56 77 57 79 58 80 59 81 60 82 61 59 62 60 63 68 64
REMARK SMILES IDX 61 65 63 66 69 67 62 68 64 69 65 70 66 71 67 72 8 73 9 74
REMARK SMILES IDX 10 75 11 76 12 77 13 78 14 79 15 80 16 81 31 82 17 83 30 84
REMARK SMILES IDX 32 85 18 86 19 87 20 88 28 89 21 90 22 91 27 92 29 93 23 94
REMARK SMILES IDX 26 95 24 96 25 97
REMARK H PARENT 89 25 57 36
REMARK Flexibility Score: inf
ROOT
ATOM      1  C   UNL A   1      34.075  24.366  25.756  1.00  0.00     0.188 C 
ENDROOT
BRANCH   1   2
ATOM      2  O   UNL A   1      35.148  23.525  25.322  1.00  0.00    -0.376 OA
BRANCH   2   3
ATOM      3  C   UNL A   1      35.129  22.219  25.914  1.00  0.00     0.202 C 
BRANCH   3   4
ATOM      4  C   UNL A   1      35.913  21.142  25.147  1.00  0.00     0.261 C 
BRANCH   4   5
ATOM      5  O   UNL A   1      37.240  21.563  24.791  1.00  0.00    -0.460 OA
BRANCH   5   6
ATOM      6  C   UNL A   1      38.369  21.530  25.547  1.00  0.00     0.338 C 
ATOM      7  O   UNL A   1      38.926  20.445  25.705  1.00  0.00    -0.246 OA
BRANCH   6   8
ATOM      8  C   UNL A   1      38.981  22.735  26.195  1.00  0.00     0.060 A 
ATOM      9  C   UNL A   1      38.350  23.967  26.360  1.00  0.00     0.016 A 
ATOM     10  C   UNL A   1      40.290  22.604  26.696  1.00  0.00     0.016 A 
ATOM     11  C   UNL A   1      39.028  25.072  26.845  1.00  0.00     0.010 A 
ATOM     12  C   UNL A   1      40.966  23.699  27.247  1.00  0.00     0.010 A 
ATOM     13  C   UNL A   1      40.352  24.954  27.256  1.00  0.00    -0.014 A 
BRANCH  13  14
ATOM     14  C   UNL A   1      41.088  26.208  27.500  1.00  0.00     0.031 A 
ATOM     15  C   UNL A   1      40.438  27.253  28.359  1.00  0.00     0.074 A 
ATOM     16  C   UNL A   1      42.375  26.309  27.123  1.00  0.00     0.049 A 
ATOM     17  N   UNL A   1      40.928  28.379  28.804  1.00  0.00    -0.248 NA
ATOM     18  C   UNL A   1      39.057  26.983  28.801  1.00  0.00     0.031 C 
ATOM     19  C   UNL A   1      43.113  25.289  26.375  1.00  0.00     0.029 A 
ATOM     20  N   UNL A   1      43.297  27.292  27.352  1.00  0.00    -0.354 N 
ATOM     21  C   UNL A   1      39.904  28.970  29.532  1.00  0.00     0.074 A 
ATOM     22  C   UNL A   1      38.769  28.079  29.485  1.00  0.00     0.031 C 
ATOM     23  C   UNL A   1      44.384  25.692  26.226  1.00  0.00     0.029 A 
ATOM     24  C   UNL A   1      44.532  27.020  26.817  1.00  0.00     0.049 A 
ATOM     25  H   UNL A   1      43.096  28.116  27.852  1.00  0.00     0.167 HD
ATOM     26  C   UNL A   1      39.912  30.155  30.183  1.00  0.00     0.034 A 
ATOM     27  C   UNL A   1      45.647  27.775  26.791  1.00  0.00     0.034 A 
ATOM     28  C   UNL A   1      41.056  31.020  30.232  1.00  0.00     0.049 A 
ATOM     29  C   UNL A   1      45.614  29.111  27.481  1.00  0.00     0.074 A 
ATOM     30  C   UNL A   1      41.177  32.259  30.830  1.00  0.00     0.029 A 
ATOM     31  N   UNL A   1      42.280  30.729  29.646  1.00  0.00    -0.354 N 
ATOM     32  N   UNL A   1      44.648  29.650  28.186  1.00  0.00    -0.248 NA
ATOM     33  C   UNL A   1      46.825  29.937  27.389  1.00  0.00     0.031 C 
ATOM     34  C   UNL A   1      42.471  32.732  30.580  1.00  0.00     0.029 A 
ATOM     35  C   UNL A   1      43.164  31.771  29.858  1.00  0.00     0.049 A 
ATOM     36  H   UNL A   1      42.489  29.904  29.152  1.00  0.00     0.167 HD
ATOM     37  C   UNL A   1      45.142  30.862  28.649  1.00  0.00     0.074 A 
ATOM     38  C   UNL A   1      46.504  30.966  28.159  1.00  0.00     0.031 C 
ATOM     39  C   UNL A   1      44.528  31.813  29.396  1.00  0.00     0.034 A 
BRANCH  26  40
ATOM     40  C   UNL A   1      38.630  30.585  30.842  1.00  0.00     0.023 A 
ATOM     41  C   UNL A   1      38.318  30.149  32.146  1.00  0.00     0.012 A 
ATOM     42  C   UNL A   1      37.721  31.408  30.152  1.00  0.00     0.148 A 
ATOM     43  C   UNL A   1      37.100  30.493  32.736  1.00  0.00     0.002 A 
ATOM     44  C   UNL A   1      36.529  31.781  30.761  1.00  0.00     0.091 A 
ATOM     45  F   UNL A   1      38.023  31.786  28.902  1.00  0.00    -0.205 F 
ATOM     46  C   UNL A   1      36.211  31.314  32.046  1.00  0.00     0.022 A 
BRANCH  44  47
ATOM     47  S   UNL A   1      35.346  32.880  29.976  1.00  0.00     0.127 S 
ATOM     48  O   UNL A   1      35.015  32.139  28.761  1.00  0.00    -0.237 OA
ATOM     49  O   UNL A   1      34.273  32.933  30.970  1.00  0.00    -0.237 OA
ATOM     50  O   UNL A   1      36.044  34.141  29.769  1.00  0.00    -0.744 OA
ENDBRANCH  44  47
ENDBRANCH  26  40
BRANCH  27  51
ATOM     51  C   UNL A   1      46.864  27.286  26.087  1.00  0.00     0.023 A 
ATOM     52  C   UNL A   1      47.056  27.555  24.719  1.00  0.00     0.012 A 
ATOM     53  C   UNL A   1      47.856  26.573  26.786  1.00  0.00     0.148 A 
ATOM     54  C   UNL A   1      48.202  27.104  24.059  1.00  0.00     0.002 A 
ATOM     55  C   UNL A   1      49.024  26.188  26.143  1.00  0.00     0.091 A 
ATOM     56  F   UNL A   1      47.652  26.291  28.082  1.00  0.00    -0.205 F 
ATOM     57  C   UNL A   1      49.194  26.434  24.773  1.00  0.00     0.022 A 
BRANCH  55  58
ATOM     58  S   UNL A   1      50.391  25.488  27.072  1.00  0.00     0.127 S 
ATOM     59  O   UNL A   1      50.684  26.549  28.029  1.00  0.00    -0.237 OA
ATOM     60  O   UNL A   1      49.796  24.283  27.646  1.00  0.00    -0.237 OA
ATOM     61  O   UNL A   1      51.423  25.221  26.072  1.00  0.00    -0.744 OA
ENDBRANCH  55  58
ENDBRANCH  27  51
BRANCH  39  62
ATOM     62  C   UNL A   1      45.336  33.026  29.764  1.00  0.00     0.023 A 
ATOM     63  C   UNL A   1      46.114  33.023  30.937  1.00  0.00     0.012 A 
ATOM     64  C   UNL A   1      45.384  34.134  28.897  1.00  0.00     0.148 A 
ATOM     65  C   UNL A   1      46.907  34.123  31.259  1.00  0.00     0.002 A 
ATOM     66  C   UNL A   1      46.218  35.203  29.197  1.00  0.00     0.091 A 
ATOM     67  F   UNL A   1      44.616  34.123  27.798  1.00  0.00    -0.205 F 
ATOM     68  C   UNL A   1      46.970  35.205  30.383  1.00  0.00     0.022 A 
BRANCH  66  69
ATOM     69  S   UNL A   1      46.438  36.581  28.068  1.00  0.00     0.127 S 
ATOM     70  O   UNL A   1      46.914  35.906  26.863  1.00  0.00    -0.237 OA
ATOM     71  O   UNL A   1      45.083  37.125  27.971  1.00  0.00    -0.237 OA
ATOM     72  O   UNL A   1      47.397  37.471  28.711  1.00  0.00    -0.744 OA
ENDBRANCH  66  69
ENDBRANCH  39  62
ENDBRANCH  13  14
ENDBRANCH   6   8
ENDBRANCH   5   6
ENDBRANCH   4   5
ENDBRANCH   3   4
ENDBRANCH   2   3
ENDBRANCH   1   2
BRANCH   1  73
ATOM     73  C   UNL A   1      34.163  25.787  25.200  1.00  0.00     0.188 C 
BRANCH  73  74
ATOM     74  O   UNL A   1      34.158  26.841  26.158  1.00  0.00    -0.376 OA
BRANCH  74  75
ATOM     75  C   UNL A   1      33.589  28.083  25.754  1.00  0.00     0.202 C 
BRANCH  75  76
ATOM     76  C   UNL A   1      32.898  28.158  24.385  1.00  0.00     0.261 C 
BRANCH  76  77
ATOM     77  O   UNL A   1      31.539  27.690  24.336  1.00  0.00    -0.460 OA
BRANCH  77  78
ATOM     78  C   UNL A   1      31.136  27.311  23.098  1.00  0.00     0.339 C 
ATOM     79  O   UNL A   1      30.800  28.041  22.179  1.00  0.00    -0.246 OA
BRANCH  78  80
ATOM     80  C   UNL A   1      31.139  25.850  22.949  1.00  0.00     0.078 A 
ATOM     81  C   UNL A   1      30.235  25.074  23.691  1.00  0.00     0.019 A 
ATOM     82  C   UNL A   1      32.207  25.247  22.286  1.00  0.00     0.057 A 
ATOM     83  C   UNL A   1      30.438  23.692  23.811  1.00  0.00     0.028 A 
ATOM     84  C   UNL A   1      32.439  23.886  22.461  1.00  0.00     0.048 A 
ATOM     85  Cl  UNL A   1      33.280  26.143  21.272  1.00  0.00    -0.083 Cl
ATOM     86  C   UNL A   1      31.583  23.109  23.257  1.00  0.00     0.053 A 
BRANCH  86  87
ATOM     87  N   UNL A   1      31.959  21.781  23.537  1.00  0.00    -0.250 N 
ATOM     88  C   UNL A   1      32.107  20.755  22.615  1.00  0.00     0.238 C 
ATOM     89  C   UNL A   1      31.994  21.297  24.843  1.00  0.00     0.238 C 
ATOM     90  O   UNL A   1      31.753  20.701  21.458  1.00  0.00    -0.274 OA
ATOM     91  C   UNL A   1      32.833  19.672  23.376  1.00  0.00     0.096 C 
ATOM     92  C   UNL A   1      32.161  19.811  24.730  1.00  0.00     0.096 C 
ATOM     93  O   UNL A   1      31.635  21.866  25.868  1.00  0.00    -0.274 OA
ATOM     94  C   UNL A   1      32.762  18.232  22.907  1.00  0.00     0.041 C 
ATOM     95  C   UNL A   1      32.931  19.078  25.806  1.00  0.00     0.041 C 
ATOM     96  C   UNL A   1      33.180  17.302  24.032  1.00  0.00    -0.030 C 
ATOM     97  C   UNL A   1      33.281  17.689  25.319  1.00  0.00    -0.030 C 
ENDBRANCH  86  87
ENDBRANCH  78  80
ENDBRANCH  77  78
ENDBRANCH  76  77
ENDBRANCH  75  76
ENDBRANCH  74  75
ENDBRANCH  73  74
ENDBRANCH   1  73
TORSDOF 21
ENDMDL
MODEL 3
REMARK VINA RESULT:     -11.0      1.894      2.373
REMARK SMILES O=C(OCCOCCOCCOC(=O)c1ccc(N2C(=O)[C@@H]3CC=CC[C@H]3C2=O)cc1Cl)c1ccc(-c2c3nc(c(-c4cccc(S(=O)(=O)[O-])c4F)c4ccc([nH]4)c(-c4cccc(S(=O)(=O)[O-])c4F)c4nc(c(-c5cccc(S(=O)(=O)[O-])c5F)c5ccc2[nH]5)C=C4)C=C3)cc1
REMARK SMILES IDX 7 1 6 2 5 3 4 4 3 5 2 6 1 7 33 8 34 9 95 10 35 11 94 12
REMARK SMILES IDX 36 13 37 14 38 15 88 16 39 17 93 18 87 19 89 20 40 21 92 22
REMARK SMILES IDX 86 23 85 24 41 26 73 27 53 28 72 29 54 30 57 31 71 32 90 33
REMARK SMILES IDX 55 34 56 35 70 37 91 38 58 39 42 40 43 41 51 42 44 43 46 44
REMARK SMILES IDX 52 45 45 46 47 47 48 48 49 49 50 50 74 51 75 52 83 53 76 54
REMARK SMILES IDX 78 55 84 56 77 57 79 58 80 59 81 60 82 61 59 62 60 63 68 64
REMARK SMILES IDX 61 65 63 66 69 67 62 68 64 69 65 70 66 71 67 72 8 73 9 74
REMARK SMILES IDX 10 75 11 76 12 77 13 78 14 79 15 80 16 81 31 82 17 83 30 84
REMARK SMILES IDX 32 85 18 86 19 87 20 88 28 89 21 90 22 91 27 92 29 93 23 94
REMARK SMILES IDX 26 95 24 96 25 97
REMARK H PARENT 89 25 57 36
REMARK Flexibility Score: inf
ROOT
ATOM      1  C   UNL A   1      34.607  24.452  25.689  1.00  0.00     0.188 C 
ENDROOT
BRANCH   1   2
ATOM      2  O   UNL A   1      35.812  23.759  25.351  1.00  0.00    -0.376 OA
BRANCH   2   3
ATOM      3  C   UNL A   1      36.024  22.568  26.120  1.00  0.00     0.202 C 
BRANCH   3   4
ATOM      4  C   UNL A   1      36.817  21.461  25.406  1.00  0.00     0.261 C 
BRANCH   4   5
ATOM      5  O   UNL A   1      38.199  21.803  25.205  1.00  0.00    -0.460 OA
BRANCH   5   6
ATOM      6  C   UNL A   1      39.196  21.871  26.126  1.00  0.00     0.338 C 
ATOM      7  O   UNL A   1      39.751  20.823  26.452  1.00  0.00    -0.246 OA
BRANCH   6   8
ATOM      8  C   UNL A   1      39.665  23.143  26.763  1.00  0.00     0.060 A 
ATOM      9  C   UNL A   1      39.152  24.412  26.500  1.00  0.00     0.016 A 
ATOM     10  C   UNL A   1      40.692  23.045  27.722  1.00  0.00     0.016 A 
ATOM     11  C   UNL A   1      39.730  25.554  27.028  1.00  0.00     0.010 A 
ATOM     12  C   UNL A   1      41.243  24.188  28.311  1.00  0.00     0.010 A 
ATOM     13  C   UNL A   1      40.803  25.452  27.906  1.00  0.00    -0.014 A 
BRANCH  13  14
ATOM     14  C   UNL A   1      41.536  26.694  28.211  1.00  0.00     0.031 A 
ATOM     15  C   UNL A   1      42.904  26.871  27.620  1.00  0.00     0.074 A 
ATOM     16  C   UNL A   1      40.903  27.705  28.832  1.00  0.00     0.049 A 
ATOM     17  N   UNL A   1      43.690  27.913  27.651  1.00  0.00    -0.248 NA
ATOM     18  C   UNL A   1      43.454  25.727  26.868  1.00  0.00     0.031 C 
ATOM     19  C   UNL A   1      39.531  27.649  29.344  1.00  0.00     0.029 A 
ATOM     20  N   UNL A   1      41.310  28.983  29.100  1.00  0.00    -0.354 N 
ATOM     21  C   UNL A   1      44.839  27.536  26.970  1.00  0.00     0.074 A 
ATOM     22  C   UNL A   1      44.650  26.176  26.523  1.00  0.00     0.031 C 
ATOM     23  C   UNL A   1      39.204  28.850  29.845  1.00  0.00     0.029 A 
ATOM     24  C   UNL A   1      40.359  29.738  29.741  1.00  0.00     0.049 A 
ATOM     25  H   UNL A   1      42.200  29.329  28.856  1.00  0.00     0.167 HD
ATOM     26  C   UNL A   1      45.956  28.262  26.740  1.00  0.00     0.034 A 
ATOM     27  C   UNL A   1      40.430  30.999  30.210  1.00  0.00     0.034 A 
ATOM     28  C   UNL A   1      46.118  29.618  27.178  1.00  0.00     0.049 A 
ATOM     29  C   UNL A   1      41.701  31.769  29.982  1.00  0.00     0.074 A 
ATOM     30  C   UNL A   1      47.213  30.448  27.034  1.00  0.00     0.029 A 
ATOM     31  N   UNL A   1      45.148  30.341  27.859  1.00  0.00    -0.354 N 
ATOM     32  N   UNL A   1      42.774  31.410  29.317  1.00  0.00    -0.248 NA
ATOM     33  C   UNL A   1      41.771  33.120  30.553  1.00  0.00     0.031 C 
ATOM     34  C   UNL A   1      46.914  31.666  27.656  1.00  0.00     0.029 A 
ATOM     35  C   UNL A   1      45.621  31.606  28.154  1.00  0.00     0.049 A 
ATOM     36  H   UNL A   1      44.254  30.003  28.097  1.00  0.00     0.167 HD
ATOM     37  C   UNL A   1      43.634  32.500  29.359  1.00  0.00     0.074 A 
ATOM     38  C   UNL A   1      42.945  33.539  30.100  1.00  0.00     0.031 C 
ATOM     39  C   UNL A   1      44.883  32.630  28.850  1.00  0.00     0.034 A 
BRANCH  26  40
ATOM     40  C   UNL A   1      47.086  27.575  26.023  1.00  0.00     0.023 A 
ATOM     41  C   UNL A   1      47.106  27.514  24.615  1.00  0.00     0.012 A 
ATOM     42  C   UNL A   1      48.123  26.968  26.757  1.00  0.00     0.148 A 
ATOM     43  C   UNL A   1      48.119  26.821  23.950  1.00  0.00     0.002 A 
ATOM     44  C   UNL A   1      49.150  26.315  26.087  1.00  0.00     0.091 A 
ATOM     45  F   UNL A   1      48.068  27.011  28.095  1.00  0.00    -0.205 F 
ATOM     46  C   UNL A   1      49.143  26.229  24.685  1.00  0.00     0.022 A 
BRANCH  44  47
ATOM     47  S   UNL A   1      50.542  25.572  26.943  1.00  0.00     0.127 S 
ATOM     48  O   UNL A   1      49.904  24.448  27.625  1.00  0.00    -0.237 OA
ATOM     49  O   UNL A   1      51.418  25.194  25.832  1.00  0.00    -0.237 OA
ATOM     50  O   UNL A   1      51.079  26.608  27.814  1.00  0.00    -0.744 OA
ENDBRANCH  44  47
ENDBRANCH  26  40
BRANCH  27  51
ATOM     51  C   UNL A   1      39.274  31.591  30.936  1.00  0.00     0.023 A 
ATOM     52  C   UNL A   1      38.170  32.101  30.227  1.00  0.00     0.012 A 
ATOM     53  C   UNL A   1      39.252  31.622  32.343  1.00  0.00     0.148 A 
ATOM     54  C   UNL A   1      37.080  32.650  30.908  1.00  0.00     0.002 A 
ATOM     55  C   UNL A   1      38.137  32.103  33.015  1.00  0.00     0.091 A 
ATOM     56  F   UNL A   1      40.322  31.164  33.012  1.00  0.00    -0.205 F 
ATOM     57  C   UNL A   1      37.055  32.637  32.301  1.00  0.00     0.022 A 
BRANCH  55  58
ATOM     58  S   UNL A   1      38.001  31.934  34.797  1.00  0.00     0.127 S 
ATOM     59  O   UNL A   1      38.144  30.494  34.978  1.00  0.00    -0.237 OA
ATOM     60  O   UNL A   1      39.126  32.734  35.275  1.00  0.00    -0.237 OA
ATOM     61  O   UNL A   1      36.692  32.497  35.124  1.00  0.00    -0.744 OA
ENDBRANCH  55  58
ENDBRANCH  27  51
BRANCH  39  62
ATOM     62  C   UNL A   1      45.568  33.954  29.039  1.00  0.00     0.023 A 
ATOM     63  C   UNL A   1      46.508  34.118  30.073  1.00  0.00     0.012 A 
ATOM     64  C   UNL A   1      45.338  35.006  28.132  1.00  0.00     0.148 A 
ATOM     65  C   UNL A   1      47.188  35.326  30.223  1.00  0.00     0.002 A 
ATOM     66  C   UNL A   1      46.057  36.187  28.255  1.00  0.00     0.091 A 
ATOM     67  F   UNL A   1      44.420  34.834  27.169  1.00  0.00    -0.205 F 
ATOM     68  C   UNL A   1      46.973  36.353  29.306  1.00  0.00     0.022 A 
BRANCH  66  69
ATOM     69  S   UNL A   1      45.919  37.513  27.053  1.00  0.00     0.127 S 
ATOM     70  O   UNL A   1      46.646  38.594  27.716  1.00  0.00    -0.237 OA
ATOM     71  O   UNL A   1      46.597  36.947  25.885  1.00  0.00    -0.237 OA
ATOM     72  O   UNL A   1      44.491  37.735  26.868  1.00  0.00    -0.744 OA
ENDBRANCH  66  69
ENDBRANCH  39  62
ENDBRANCH  13  14
ENDBRANCH   6   8
ENDBRANCH   5   6
ENDBRANCH   4   5
ENDBRANCH   3   4
ENDBRANCH   2   3
ENDBRANCH   1   2
BRANCH   1  73
ATOM     73  C   UNL A   1      34.612  25.916  25.250  1.00  0.00     0.188 C 
BRANCH  73  74
ATOM     74  O   UNL A   1      33.590  26.743  25.797  1.00  0.00    -0.376 OA
BRANCH  74  75
ATOM     75  C   UNL A   1      33.642  28.133  25.487  1.00  0.00     0.202 C 
BRANCH  75  76
ATOM     76  C   UNL A   1      32.695  28.673  24.406  1.00  0.00     0.261 C 
BRANCH  76  77
ATOM     77  O   UNL A   1      31.386  28.078  24.356  1.00  0.00    -0.460 OA
BRANCH  77  78
ATOM     78  C   UNL A   1      31.017  27.672  23.116  1.00  0.00     0.339 C 
ATOM     79  O   UNL A   1      30.678  28.382  22.181  1.00  0.00    -0.246 OA
BRANCH  78  80
ATOM     80  C   UNL A   1      31.064  26.211  22.985  1.00  0.00     0.078 A 
ATOM     81  C   UNL A   1      30.073  25.426  23.596  1.00  0.00     0.019 A 
ATOM     82  C   UNL A   1      32.227  25.620  22.493  1.00  0.00     0.057 A 
ATOM     83  C   UNL A   1      30.277  24.049  23.761  1.00  0.00     0.028 A 
ATOM     84  C   UNL A   1      32.451  24.263  22.715  1.00  0.00     0.048 A 
ATOM     85  Cl  UNL A   1      33.422  26.523  21.636  1.00  0.00    -0.083 Cl
ATOM     86  C   UNL A   1      31.500  23.480  23.387  1.00  0.00     0.053 A 
BRANCH  86  87
ATOM     87  N   UNL A   1      31.850  22.161  23.734  1.00  0.00    -0.250 N 
ATOM     88  C   UNL A   1      32.212  21.711  24.996  1.00  0.00     0.238 C 
ATOM     89  C   UNL A   1      32.101  21.197  22.761  1.00  0.00     0.238 C 
ATOM     90  O   UNL A   1      32.512  22.343  25.984  1.00  0.00    -0.274 OA
ATOM     91  C   UNL A   1      32.150  20.206  24.886  1.00  0.00     0.096 C 
ATOM     92  C   UNL A   1      32.700  20.025  23.482  1.00  0.00     0.096 C 
ATOM     93  O   UNL A   1      32.154  21.348  21.546  1.00  0.00    -0.274 OA
ATOM     94  C   UNL A   1      32.922  19.338  25.860  1.00  0.00     0.041 C 
ATOM     95  C   UNL A   1      32.432  18.631  22.959  1.00  0.00     0.041 C 
ATOM     96  C   UNL A   1      33.060  17.933  25.302  1.00  0.00    -0.030 C 
ATOM     97  C   UNL A   1      32.814  17.616  24.015  1.00  0.00    -0.030 C 
ENDBRANCH  86  87
ENDBRANCH  78  80
ENDBRANCH  77  78
ENDBRANCH  76  77
ENDBRANCH  75  76
ENDBRANCH  74  75
ENDBRANCH  73  74
ENDBRANCH   1  73
TORSDOF 21
ENDMDL
