MODEL 1
REMARK VINA RESULT:     -11.0      0.000      0.000
REMARK SMILES O=C(OCCOCCOCCOC(=O)[C@@H]1CN(c2nccc(N3CCC(O)CC3)n2)CC[NH2+]1)c1ccc(-c2c3nc(c(-c4cccc(S(=O)(=O)[O-])c4F)c4ccc([nH]4)c(-c4cccc(S(=O)(=O)[O-])c4F)c4nc(c(-c5cccc(S(=O)(=O)[O-])c5F)c5ccc2[nH]5)C=C4)C=C3)cc1
REMARK SMILES IDX 7 1 6 2 5 3 4 4 3 5 2 6 1 7 34 8 35 9 96 10 36 11 95 12
REMARK SMILES IDX 37 13 38 14 39 15 89 16 40 17 94 18 88 19 90 20 41 21 93 22
REMARK SMILES IDX 87 23 86 24 42 26 74 27 54 28 73 29 55 30 58 31 72 32 91 33
REMARK SMILES IDX 56 34 57 35 71 37 92 38 59 39 43 40 44 41 52 42 45 43 47 44
REMARK SMILES IDX 53 45 46 46 48 47 49 48 50 49 51 50 75 51 76 52 84 53 77 54
REMARK SMILES IDX 79 55 85 56 78 57 80 58 81 59 82 60 83 61 60 62 61 63 69 64
REMARK SMILES IDX 62 65 64 66 70 67 63 68 65 69 66 70 67 71 68 72 8 73 9 74
REMARK SMILES IDX 10 75 11 76 12 77 13 78 14 79 15 80 16 81 33 82 17 83 32 84
REMARK SMILES IDX 31 87 18 88 19 89 30 90 20 91 22 92 21 93 23 94 24 95 29 96
REMARK SMILES IDX 25 97 28 98 26 99 27 100
REMARK H PARENT 90 25 58 36 33 85 33 86 27 101
REMARK Flexibility Score: inf
ROOT
ATOM      1  C   UNL A   1      34.036  28.454  26.882  1.00  0.00     0.188 C 
ENDROOT
BRANCH   1   2
ATOM      2  O   UNL A   1      34.083  29.754  27.489  1.00  0.00    -0.376 OA
BRANCH   2   3
ATOM      3  C   UNL A   1      33.543  30.783  26.651  1.00  0.00     0.202 C 
BRANCH   3   4
ATOM      4  C   UNL A   1      32.386  31.595  27.258  1.00  0.00     0.261 C 
BRANCH   4   5
ATOM      5  O   UNL A   1      32.568  33.015  27.150  1.00  0.00    -0.460 OA
BRANCH   5   6
ATOM      6  C   UNL A   1      33.059  33.882  28.071  1.00  0.00     0.338 C 
ATOM      7  O   UNL A   1      32.471  34.953  28.219  1.00  0.00    -0.246 OA
BRANCH   6   8
ATOM      8  C   UNL A   1      34.262  33.617  28.927  1.00  0.00     0.060 A 
ATOM      9  C   UNL A   1      35.566  34.035  28.658  1.00  0.00     0.016 A 
ATOM     10  C   UNL A   1      34.043  32.910  30.124  1.00  0.00     0.016 A 
ATOM     11  C   UNL A   1      36.640  33.649  29.461  1.00  0.00     0.010 A 
ATOM     12  C   UNL A   1      35.107  32.571  30.969  1.00  0.00     0.010 A 
ATOM     13  C   UNL A   1      36.423  32.891  30.608  1.00  0.00    -0.014 A 
BRANCH  13  14
ATOM     14  C   UNL A   1      37.579  32.308  31.330  1.00  0.00     0.031 A 
ATOM     15  C   UNL A   1      38.280  31.139  30.706  1.00  0.00     0.074 A 
ATOM     16  C   UNL A   1      38.028  32.842  32.482  1.00  0.00     0.049 A 
ATOM     17  N   UNL A   1      39.298  30.457  31.153  1.00  0.00    -0.248 NA
ATOM     18  C   UNL A   1      37.793  30.696  29.385  1.00  0.00     0.031 C 
ATOM     19  C   UNL A   1      37.493  34.044  33.108  1.00  0.00     0.029 A 
ATOM     20  N   UNL A   1      39.014  32.444  33.349  1.00  0.00    -0.354 N 
ATOM     21  C   UNL A   1      39.568  29.506  30.180  1.00  0.00     0.074 A 
ATOM     22  C   UNL A   1      38.593  29.674  29.128  1.00  0.00     0.031 C 
ATOM     23  C   UNL A   1      38.085  34.243  34.297  1.00  0.00     0.029 A 
ATOM     24  C   UNL A   1      39.051  33.184  34.513  1.00  0.00     0.049 A 
ATOM     25  H   UNL A   1      39.633  31.704  33.158  1.00  0.00     0.167 HD
ATOM     26  C   UNL A   1      40.565  28.592  30.158  1.00  0.00     0.034 A 
ATOM     27  C   UNL A   1      39.777  33.009  35.632  1.00  0.00     0.034 A 
ATOM     28  C   UNL A   1      41.522  28.446  31.217  1.00  0.00     0.049 A 
ATOM     29  C   UNL A   1      40.812  31.928  35.618  1.00  0.00     0.074 A 
ATOM     30  C   UNL A   1      42.585  27.566  31.305  1.00  0.00     0.029 A 
ATOM     31  N   UNL A   1      41.518  29.194  32.386  1.00  0.00    -0.354 N 
ATOM     32  N   UNL A   1      41.078  31.060  34.670  1.00  0.00    -0.248 NA
ATOM     33  C   UNL A   1      41.702  31.858  36.782  1.00  0.00     0.031 C 
ATOM     34  C   UNL A   1      43.207  27.766  32.542  1.00  0.00     0.029 A 
ATOM     35  C   UNL A   1      42.551  28.790  33.210  1.00  0.00     0.049 A 
ATOM     36  H   UNL A   1      40.875  29.909  32.597  1.00  0.00     0.167 HD
ATOM     37  C   UNL A   1      42.184  30.355  35.111  1.00  0.00     0.074 A 
ATOM     38  C   UNL A   1      42.540  30.903  36.407  1.00  0.00     0.031 C 
ATOM     39  C   UNL A   1      42.857  29.352  34.498  1.00  0.00     0.034 A 
BRANCH  26  40
ATOM     40  C   UNL A   1      40.652  27.699  28.952  1.00  0.00     0.023 A 
ATOM     41  C   UNL A   1      39.797  26.583  28.842  1.00  0.00     0.012 A 
ATOM     42  C   UNL A   1      41.583  27.963  27.931  1.00  0.00     0.148 A 
ATOM     43  C   UNL A   1      39.889  25.725  27.746  1.00  0.00     0.002 A 
ATOM     44  C   UNL A   1      41.643  27.125  26.824  1.00  0.00     0.091 A 
ATOM     45  F   UNL A   1      42.407  29.010  28.073  1.00  0.00    -0.205 F 
ATOM     46  C   UNL A   1      40.806  26.000  26.735  1.00  0.00     0.022 A 
BRANCH  44  47
ATOM     47  S   UNL A   1      42.754  27.422  25.446  1.00  0.00     0.127 S 
ATOM     48  O   UNL A   1      42.642  26.168  24.702  1.00  0.00    -0.237 OA
ATOM     49  O   UNL A   1      42.130  28.575  24.795  1.00  0.00    -0.237 OA
ATOM     50  O   UNL A   1      44.061  27.685  26.030  1.00  0.00    -0.744 OA
ENDBRANCH  44  47
ENDBRANCH  26  40
BRANCH  27  51
ATOM     51  C   UNL A   1      39.635  33.891  36.823  1.00  0.00     0.023 A 
ATOM     52  C   UNL A   1      40.178  35.188  36.792  1.00  0.00     0.012 A 
ATOM     53  C   UNL A   1      39.048  33.422  38.015  1.00  0.00     0.148 A 
ATOM     54  C   UNL A   1      40.150  35.999  37.929  1.00  0.00     0.002 A 
ATOM     55  C   UNL A   1      39.018  34.238  39.144  1.00  0.00     0.091 A 
ATOM     56  F   UNL A   1      38.564  32.172  38.042  1.00  0.00    -0.205 F 
ATOM     57  C   UNL A   1      39.571  35.527  39.104  1.00  0.00     0.022 A 
BRANCH  55  58
ATOM     58  S   UNL A   1      38.228  33.723  40.676  1.00  0.00     0.127 S 
ATOM     59  O   UNL A   1      39.112  32.669  41.144  1.00  0.00    -0.237 OA
ATOM     60  O   UNL A   1      38.252  34.958  41.467  1.00  0.00    -0.237 OA
ATOM     61  O   UNL A   1      36.880  33.318  40.282  1.00  0.00    -0.744 OA
ENDBRANCH  55  58
ENDBRANCH  27  51
BRANCH  39  62
ATOM     62  C   UNL A   1      44.033  28.795  35.240  1.00  0.00     0.023 A 
ATOM     63  C   UNL A   1      45.323  29.294  34.977  1.00  0.00     0.012 A 
ATOM     64  C   UNL A   1      43.850  27.797  36.212  1.00  0.00     0.148 A 
ATOM     65  C   UNL A   1      46.424  28.781  35.655  1.00  0.00     0.002 A 
ATOM     66  C   UNL A   1      44.945  27.325  36.918  1.00  0.00     0.091 A 
ATOM     67  F   UNL A   1      42.612  27.321  36.417  1.00  0.00    -0.205 F 
ATOM     68  C   UNL A   1      46.234  27.806  36.632  1.00  0.00     0.022 A 
BRANCH  66  69
ATOM     69  S   UNL A   1      44.779  26.136  38.251  1.00  0.00     0.127 S 
ATOM     70  O   UNL A   1      44.453  24.912  37.522  1.00  0.00    -0.237 OA
ATOM     71  O   UNL A   1      46.115  26.155  38.849  1.00  0.00    -0.237 OA
ATOM     72  O   UNL A   1      43.725  26.648  39.117  1.00  0.00    -0.744 OA
ENDBRANCH  66  69
ENDBRANCH  39  62
ENDBRANCH  13  14
ENDBRANCH   6   8
ENDBRANCH   5   6
ENDBRANCH   4   5
ENDBRANCH   3   4
ENDBRANCH   2   3
ENDBRANCH   1   2
BRANCH   1  73
ATOM     73  C   UNL A   1      33.659  28.484  25.398  1.00  0.00     0.188 C 
BRANCH  73  74
ATOM     74  O   UNL A   1      32.502  27.750  25.002  1.00  0.00    -0.376 OA
BRANCH  74  75
ATOM     75  C   UNL A   1      31.394  27.743  25.893  1.00  0.00     0.202 C 
BRANCH  75  76
ATOM     76  C   UNL A   1      30.705  26.408  26.215  1.00  0.00     0.261 C 
BRANCH  76  77
ATOM     77  O   UNL A   1      31.552  25.377  26.733  1.00  0.00    -0.459 OA
BRANCH  77  78
ATOM     78  C   UNL A   1      31.099  24.098  26.548  1.00  0.00     0.366 C 
ATOM     79  O   UNL A   1      30.290  23.538  27.280  1.00  0.00    -0.245 OA
BRANCH  78  80
ATOM     80  C   UNL A   1      31.722  23.453  25.314  1.00  0.00     0.313 C 
ATOM     81  C   UNL A   1      33.054  24.152  25.011  1.00  0.00     0.197 C 
ATOM     82  N   UNL A   1      30.815  23.503  24.109  1.00  0.00    -0.332 N 
ATOM     83  N   UNL A   1      33.701  23.477  23.898  1.00  0.00    -0.328 N 
ATOM     84  C   UNL A   1      31.515  22.809  22.986  1.00  0.00     0.283 C 
ATOM     85  H   UNL A   1      30.628  24.472  23.856  1.00  0.00     0.347 HD
ATOM     86  H   UNL A   1      29.927  23.047  24.313  1.00  0.00     0.347 HD
ATOM     87  C   UNL A   1      32.931  23.359  22.665  1.00  0.00     0.181 C 
BRANCH  83  88
ATOM     88  C   UNL A   1      34.612  22.490  24.198  1.00  0.00     0.227 A 
ATOM     89  N   UNL A   1      35.912  22.796  24.199  1.00  0.00    -0.221 NA
ATOM     90  N   UNL A   1      34.140  21.283  24.531  1.00  0.00    -0.196 NA
ATOM     91  C   UNL A   1      36.756  21.850  24.641  1.00  0.00     0.119 A 
ATOM     92  C   UNL A   1      35.009  20.333  24.897  1.00  0.00     0.134 A 
ATOM     93  C   UNL A   1      36.352  20.592  25.011  1.00  0.00     0.067 A 
BRANCH  92  94
ATOM     94  N   UNL A   1      34.490  19.055  24.986  1.00  0.00    -0.356 N 
ATOM     95  C   UNL A   1      35.146  17.971  24.281  1.00  0.00     0.121 C 
ATOM     96  C   UNL A   1      33.037  19.025  25.042  1.00  0.00     0.121 C 
ATOM     97  C   UNL A   1      34.770  16.659  24.979  1.00  0.00     0.053 C 
ATOM     98  C   UNL A   1      32.615  17.771  25.792  1.00  0.00     0.053 C 
ATOM     99  C   UNL A   1      33.260  16.517  25.205  1.00  0.00     0.118 C 
BRANCH  99 100
ATOM    100  O   UNL A   1      32.605  16.144  23.992  1.00  0.00    -0.393 OA
ATOM    101  H   UNL A   1      33.122  15.457  23.543  1.00  0.00     0.210 HD
ENDBRANCH  99 100
ENDBRANCH  92  94
ENDBRANCH  83  88
ENDBRANCH  78  80
ENDBRANCH  77  78
ENDBRANCH  76  77
ENDBRANCH  75  76
ENDBRANCH  74  75
ENDBRANCH  73  74
ENDBRANCH   1  73
TORSDOF 23
ENDMDL
MODEL 2
REMARK VINA RESULT:     -10.7      1.604      2.115
REMARK SMILES O=C(OCCOCCOCCOC(=O)[C@@H]1CN(c2nccc(N3CCC(O)CC3)n2)CC[NH2+]1)c1ccc(-c2c3nc(c(-c4cccc(S(=O)(=O)[O-])c4F)c4ccc([nH]4)c(-c4cccc(S(=O)(=O)[O-])c4F)c4nc(c(-c5cccc(S(=O)(=O)[O-])c5F)c5ccc2[nH]5)C=C4)C=C3)cc1
REMARK SMILES IDX 7 1 6 2 5 3 4 4 3 5 2 6 1 7 34 8 35 9 96 10 36 11 95 12
REMARK SMILES IDX 37 13 38 14 39 15 89 16 40 17 94 18 88 19 90 20 41 21 93 22
REMARK SMILES IDX 87 23 86 24 42 26 74 27 54 28 73 29 55 30 58 31 72 32 91 33
REMARK SMILES IDX 56 34 57 35 71 37 92 38 59 39 43 40 44 41 52 42 45 43 47 44
REMARK SMILES IDX 53 45 46 46 48 47 49 48 50 49 51 50 75 51 76 52 84 53 77 54
REMARK SMILES IDX 79 55 85 56 78 57 80 58 81 59 82 60 83 61 60 62 61 63 69 64
REMARK SMILES IDX 62 65 64 66 70 67 63 68 65 69 66 70 67 71 68 72 8 73 9 74
REMARK SMILES IDX 10 75 11 76 12 77 13 78 14 79 15 80 16 81 33 82 17 83 32 84
REMARK SMILES IDX 31 87 18 88 19 89 30 90 20 91 22 92 21 93 23 94 24 95 29 96
REMARK SMILES IDX 25 97 28 98 26 99 27 100
REMARK H PARENT 90 25 58 36 33 85 33 86 27 101
REMARK Flexibility Score: inf
ROOT
ATOM      1  C   UNL A   1      34.097  29.508  27.001  1.00  0.00     0.188 C 
ENDROOT
BRANCH   1   2
ATOM      2  O   UNL A   1      33.664  30.818  27.396  1.00  0.00    -0.376 OA
BRANCH   2   3
ATOM      3  C   UNL A   1      32.345  31.134  26.933  1.00  0.00     0.202 C 
BRANCH   3   4
ATOM      4  C   UNL A   1      31.875  32.575  27.197  1.00  0.00     0.261 C 
BRANCH   4   5
ATOM      5  O   UNL A   1      32.955  33.509  27.339  1.00  0.00    -0.460 OA
BRANCH   5   6
ATOM      6  C   UNL A   1      33.333  34.211  28.436  1.00  0.00     0.338 C 
ATOM      7  O   UNL A   1      32.641  35.173  28.768  1.00  0.00    -0.246 OA
BRANCH   6   8
ATOM      8  C   UNL A   1      34.533  33.887  29.277  1.00  0.00     0.060 A 
ATOM      9  C   UNL A   1      35.849  34.264  29.005  1.00  0.00     0.016 A 
ATOM     10  C   UNL A   1      34.299  33.166  30.462  1.00  0.00     0.016 A 
ATOM     11  C   UNL A   1      36.915  33.824  29.791  1.00  0.00     0.010 A 
ATOM     12  C   UNL A   1      35.356  32.774  31.292  1.00  0.00     0.010 A 
ATOM     13  C   UNL A   1      36.680  33.053  30.926  1.00  0.00    -0.014 A 
BRANCH  13  14
ATOM     14  C   UNL A   1      37.819  32.415  31.627  1.00  0.00     0.031 A 
ATOM     15  C   UNL A   1      38.477  31.237  30.972  1.00  0.00     0.074 A 
ATOM     16  C   UNL A   1      38.293  32.907  32.788  1.00  0.00     0.049 A 
ATOM     17  N   UNL A   1      39.474  30.512  31.397  1.00  0.00    -0.248 NA
ATOM     18  C   UNL A   1      37.968  30.842  29.645  1.00  0.00     0.031 C 
ATOM     19  C   UNL A   1      37.802  34.112  33.444  1.00  0.00     0.029 A 
ATOM     20  N   UNL A   1      39.270  32.456  33.639  1.00  0.00    -0.354 N 
ATOM     21  C   UNL A   1      39.707  29.575  30.400  1.00  0.00     0.074 A 
ATOM     22  C   UNL A   1      38.732  29.800  29.359  1.00  0.00     0.031 C 
ATOM     23  C   UNL A   1      38.407  34.263  34.634  1.00  0.00     0.029 A 
ATOM     24  C   UNL A   1      39.338  33.168  34.820  1.00  0.00     0.049 A 
ATOM     25  H   UNL A   1      39.863  31.701  33.427  1.00  0.00     0.167 HD
ATOM     26  C   UNL A   1      40.672  28.629  30.352  1.00  0.00     0.034 A 
ATOM     27  C   UNL A   1      40.064  32.942  35.929  1.00  0.00     0.034 A 
ATOM     28  C   UNL A   1      41.630  28.426  31.401  1.00  0.00     0.049 A 
ATOM     29  C   UNL A   1      41.062  31.828  35.884  1.00  0.00     0.074 A 
ATOM     30  C   UNL A   1      42.664  27.510  31.462  1.00  0.00     0.029 A 
ATOM     31  N   UNL A   1      41.658  29.147  32.586  1.00  0.00    -0.354 N 
ATOM     32  N   UNL A   1      41.293  30.974  34.915  1.00  0.00    -0.248 NA
ATOM     33  C   UNL A   1      41.956  31.702  37.040  1.00  0.00     0.031 C 
ATOM     34  C   UNL A   1      43.299  27.660  32.699  1.00  0.00     0.029 A 
ATOM     35  C   UNL A   1      42.681  28.690  33.394  1.00  0.00     0.049 A 
ATOM     36  H   UNL A   1      41.040  29.878  32.818  1.00  0.00     0.167 HD
ATOM     37  C   UNL A   1      42.378  30.222  35.333  1.00  0.00     0.074 A 
ATOM     38  C   UNL A   1      42.760  30.729  36.638  1.00  0.00     0.031 C 
ATOM     39  C   UNL A   1      43.013  29.212  34.693  1.00  0.00     0.034 A 
BRANCH  26  40
ATOM     40  C   UNL A   1      40.723  27.761  29.125  1.00  0.00     0.023 A 
ATOM     41  C   UNL A   1      39.908  26.614  29.043  1.00  0.00     0.012 A 
ATOM     42  C   UNL A   1      41.580  28.081  28.056  1.00  0.00     0.148 A 
ATOM     43  C   UNL A   1      39.968  25.779  27.927  1.00  0.00     0.002 A 
ATOM     44  C   UNL A   1      41.607  27.265  26.932  1.00  0.00     0.091 A 
ATOM     45  F   UNL A   1      42.368  29.158  28.170  1.00  0.00    -0.205 F 
ATOM     46  C   UNL A   1      40.811  26.109  26.869  1.00  0.00     0.022 A 
BRANCH  44  47
ATOM     47  S   UNL A   1      42.621  27.632  25.496  1.00  0.00     0.127 S 
ATOM     48  O   UNL A   1      41.988  28.851  24.993  1.00  0.00    -0.237 OA
ATOM     49  O   UNL A   1      43.940  27.833  26.098  1.00  0.00    -0.237 OA
ATOM     50  O   UNL A   1      42.519  26.472  24.622  1.00  0.00    -0.744 OA
ENDBRANCH  44  47
ENDBRANCH  26  40
BRANCH  27  51
ATOM     51  C   UNL A   1      39.958  33.801  37.141  1.00  0.00     0.023 A 
ATOM     52  C   UNL A   1      38.853  33.653  37.999  1.00  0.00     0.012 A 
ATOM     53  C   UNL A   1      40.894  34.822  37.399  1.00  0.00     0.148 A 
ATOM     54  C   UNL A   1      38.675  34.513  39.085  1.00  0.00     0.002 A 
ATOM     55  C   UNL A   1      40.714  35.673  38.487  1.00  0.00     0.091 A 
ATOM     56  F   UNL A   1      41.925  34.974  36.555  1.00  0.00    -0.205 F 
ATOM     57  C   UNL A   1      39.603  35.522  39.330  1.00  0.00     0.022 A 
BRANCH  55  58
ATOM     58  S   UNL A   1      41.904  36.956  38.906  1.00  0.00     0.127 S 
ATOM     59  O   UNL A   1      42.829  36.251  39.776  1.00  0.00    -0.237 OA
ATOM     60  O   UNL A   1      42.438  37.324  37.590  1.00  0.00    -0.237 OA
ATOM     61  O   UNL A   1      41.108  38.016  39.521  1.00  0.00    -0.744 OA
ENDBRANCH  55  58
ENDBRANCH  27  51
BRANCH  39  62
ATOM     62  C   UNL A   1      44.174  28.599  35.414  1.00  0.00     0.023 A 
ATOM     63  C   UNL A   1      45.481  29.035  35.127  1.00  0.00     0.012 A 
ATOM     64  C   UNL A   1      43.960  27.612  36.391  1.00  0.00     0.148 A 
ATOM     65  C   UNL A   1      46.568  28.469  35.786  1.00  0.00     0.002 A 
ATOM     66  C   UNL A   1      45.044  27.088  37.078  1.00  0.00     0.091 A 
ATOM     67  F   UNL A   1      42.705  27.196  36.619  1.00  0.00    -0.205 F 
ATOM     68  C   UNL A   1      46.350  27.505  36.768  1.00  0.00     0.022 A 
BRANCH  66  69
ATOM     69  S   UNL A   1      44.845  25.909  38.415  1.00  0.00     0.127 S 
ATOM     70  O   UNL A   1      43.713  26.474  39.147  1.00  0.00    -0.237 OA
ATOM     71  O   UNL A   1      44.550  24.670  37.693  1.00  0.00    -0.237 OA
ATOM     72  O   UNL A   1      46.112  25.900  39.134  1.00  0.00    -0.744 OA
ENDBRANCH  66  69
ENDBRANCH  39  62
ENDBRANCH  13  14
ENDBRANCH   6   8
ENDBRANCH   5   6
ENDBRANCH   4   5
ENDBRANCH   3   4
ENDBRANCH   2   3
ENDBRANCH   1   2
BRANCH   1  73
ATOM     73  C   UNL A   1      33.425  28.999  25.722  1.00  0.00     0.188 C 
BRANCH  73  74
ATOM     74  O   UNL A   1      33.909  27.776  25.172  1.00  0.00    -0.376 OA
BRANCH  74  75
ATOM     75  C   UNL A   1      33.773  27.589  23.769  1.00  0.00     0.202 C 
BRANCH  75  76
ATOM     76  C   UNL A   1      33.305  26.224  23.242  1.00  0.00     0.261 C 
BRANCH  76  77
ATOM     77  O   UNL A   1      31.899  26.092  23.008  1.00  0.00    -0.459 OA
BRANCH  77  78
ATOM     78  C   UNL A   1      31.108  26.198  24.121  1.00  0.00     0.366 C 
ATOM     79  O   UNL A   1      30.420  27.176  24.390  1.00  0.00    -0.245 OA
BRANCH  78  80
ATOM     80  C   UNL A   1      31.183  24.944  24.987  1.00  0.00     0.313 C 
ATOM     81  C   UNL A   1      30.828  23.727  24.124  1.00  0.00     0.197 C 
ATOM     82  N   UNL A   1      30.282  25.014  26.195  1.00  0.00    -0.332 N 
ATOM     83  N   UNL A   1      30.996  22.519  24.916  1.00  0.00    -0.328 N 
ATOM     84  C   UNL A   1      30.475  23.756  26.979  1.00  0.00     0.283 C 
ATOM     85  H   UNL A   1      29.310  25.093  25.899  1.00  0.00     0.347 HD
ATOM     86  H   UNL A   1      30.511  25.829  26.764  1.00  0.00     0.347 HD
ATOM     87  C   UNL A   1      30.255  22.449  26.170  1.00  0.00     0.181 C 
BRANCH  83  88
ATOM     88  C   UNL A   1      32.206  21.869  24.833  1.00  0.00     0.227 A 
ATOM     89  N   UNL A   1      33.313  22.595  24.668  1.00  0.00    -0.221 NA
ATOM     90  N   UNL A   1      32.213  20.538  24.981  1.00  0.00    -0.196 NA
ATOM     91  C   UNL A   1      34.484  21.940  24.742  1.00  0.00     0.119 A 
ATOM     92  C   UNL A   1      33.389  19.899  24.977  1.00  0.00     0.134 A 
ATOM     93  C   UNL A   1      34.578  20.581  24.903  1.00  0.00     0.067 A 
BRANCH  92  94
ATOM     94  N   UNL A   1      33.317  18.522  24.884  1.00  0.00    -0.356 N 
ATOM     95  C   UNL A   1      32.831  17.759  26.018  1.00  0.00     0.121 C 
ATOM     96  C   UNL A   1      34.399  17.938  24.108  1.00  0.00     0.121 C 
ATOM     97  C   UNL A   1      32.307  16.417  25.493  1.00  0.00     0.053 C 
ATOM     98  C   UNL A   1      33.901  16.633  23.504  1.00  0.00     0.053 C 
ATOM     99  C   UNL A   1      33.303  15.711  24.565  1.00  0.00     0.118 C 
BRANCH  99 100
ATOM    100  O   UNL A   1      34.341  15.091  25.325  1.00  0.00    -0.393 OA
ATOM    101  H   UNL A   1      35.166  15.102  24.815  1.00  0.00     0.210 HD
ENDBRANCH  99 100
ENDBRANCH  92  94
ENDBRANCH  83  88
ENDBRANCH  78  80
ENDBRANCH  77  78
ENDBRANCH  76  77
ENDBRANCH  75  76
ENDBRANCH  74  75
ENDBRANCH  73  74
ENDBRANCH   1  73
TORSDOF 23
ENDMDL
MODEL 3
REMARK VINA RESULT:     -10.5      1.621      7.581
REMARK SMILES O=C(OCCOCCOCCOC(=O)[C@@H]1CN(c2nccc(N3CCC(O)CC3)n2)CC[NH2+]1)c1ccc(-c2c3nc(c(-c4cccc(S(=O)(=O)[O-])c4F)c4ccc([nH]4)c(-c4cccc(S(=O)(=O)[O-])c4F)c4nc(c(-c5cccc(S(=O)(=O)[O-])c5F)c5ccc2[nH]5)C=C4)C=C3)cc1
REMARK SMILES IDX 7 1 6 2 5 3 4 4 3 5 2 6 1 7 34 8 35 9 96 10 36 11 95 12
REMARK SMILES IDX 37 13 38 14 39 15 89 16 40 17 94 18 88 19 90 20 41 21 93 22
REMARK SMILES IDX 87 23 86 24 42 26 74 27 54 28 73 29 55 30 58 31 72 32 91 33
REMARK SMILES IDX 56 34 57 35 71 37 92 38 59 39 43 40 44 41 52 42 45 43 47 44
REMARK SMILES IDX 53 45 46 46 48 47 49 48 50 49 51 50 75 51 76 52 84 53 77 54
REMARK SMILES IDX 79 55 85 56 78 57 80 58 81 59 82 60 83 61 60 62 61 63 69 64
REMARK SMILES IDX 62 65 64 66 70 67 63 68 65 69 66 70 67 71 68 72 8 73 9 74
REMARK SMILES IDX 10 75 11 76 12 77 13 78 14 79 15 80 16 81 33 82 17 83 32 84
REMARK SMILES IDX 31 87 18 88 19 89 30 90 20 91 22 92 21 93 23 94 24 95 29 96
REMARK SMILES IDX 25 97 28 98 26 99 27 100
REMARK H PARENT 90 25 58 36 33 85 33 86 27 101
REMARK Flexibility Score: inf
ROOT
ATOM      1  C   UNL A   1      33.798  30.006  26.502  1.00  0.00     0.188 C 
ENDROOT
BRANCH   1   2
ATOM      2  O   UNL A   1      32.831  30.631  27.361  1.00  0.00    -0.376 OA
BRANCH   2   3
ATOM      3  C   UNL A   1      31.741  31.218  26.640  1.00  0.00     0.202 C 
BRANCH   3   4
ATOM      4  C   UNL A   1      31.442  32.691  26.970  1.00  0.00     0.261 C 
BRANCH   4   5
ATOM      5  O   UNL A   1      32.621  33.503  27.069  1.00  0.00    -0.460 OA
BRANCH   5   6
ATOM      6  C   UNL A   1      33.114  34.158  28.149  1.00  0.00     0.338 C 
ATOM      7  O   UNL A   1      32.518  35.165  28.530  1.00  0.00    -0.246 OA
BRANCH   6   8
ATOM      8  C   UNL A   1      34.331  33.732  28.917  1.00  0.00     0.060 A 
ATOM      9  C   UNL A   1      35.632  34.190  28.707  1.00  0.00     0.016 A 
ATOM     10  C   UNL A   1      34.130  32.810  29.961  1.00  0.00     0.016 A 
ATOM     11  C   UNL A   1      36.718  33.655  29.401  1.00  0.00     0.010 A 
ATOM     12  C   UNL A   1      35.207  32.314  30.706  1.00  0.00     0.010 A 
ATOM     13  C   UNL A   1      36.518  32.693  30.387  1.00  0.00    -0.014 A 
BRANCH  13  14
ATOM     14  C   UNL A   1      37.683  31.980  30.963  1.00  0.00     0.031 A 
ATOM     15  C   UNL A   1      38.072  32.297  32.376  1.00  0.00     0.074 A 
ATOM     16  C   UNL A   1      38.341  31.034  30.266  1.00  0.00     0.049 A 
ATOM     17  N   UNL A   1      39.055  31.816  33.085  1.00  0.00    -0.248 NA
ATOM     18  C   UNL A   1      37.221  33.259  33.103  1.00  0.00     0.031 C 
ATOM     19  C   UNL A   1      37.971  30.570  28.935  1.00  0.00     0.029 A 
ATOM     20  N   UNL A   1      39.465  30.304  30.556  1.00  0.00    -0.354 N 
ATOM     21  C   UNL A   1      38.949  32.417  34.330  1.00  0.00     0.074 A 
ATOM     22  C   UNL A   1      37.823  33.322  34.279  1.00  0.00     0.031 C 
ATOM     23  C   UNL A   1      38.892  29.706  28.479  1.00  0.00     0.029 A 
ATOM     24  C   UNL A   1      39.916  29.547  29.493  1.00  0.00     0.049 A 
ATOM     25  H   UNL A   1      39.908  30.320  31.434  1.00  0.00     0.167 HD
ATOM     26  C   UNL A   1      39.710  32.207  35.428  1.00  0.00     0.034 A 
ATOM     27  C   UNL A   1      41.040  28.821  29.358  1.00  0.00     0.034 A 
ATOM     28  C   UNL A   1      40.823  31.302  35.453  1.00  0.00     0.049 A 
ATOM     29  C   UNL A   1      41.917  28.679  30.562  1.00  0.00     0.074 A 
ATOM     30  C   UNL A   1      41.662  30.993  36.507  1.00  0.00     0.029 A 
ATOM     31  N   UNL A   1      41.262  30.569  34.359  1.00  0.00    -0.354 N 
ATOM     32  N   UNL A   1      41.778  29.228  31.745  1.00  0.00    -0.248 NA
ATOM     33  C   UNL A   1      43.049  27.754  30.443  1.00  0.00     0.031 C 
ATOM     34  C   UNL A   1      42.627  30.094  36.041  1.00  0.00     0.029 A 
ATOM     35  C   UNL A   1      42.369  29.819  34.706  1.00  0.00     0.049 A 
ATOM     36  H   UNL A   1      40.846  30.582  33.467  1.00  0.00     0.167 HD
ATOM     37  C   UNL A   1      42.791  28.695  32.524  1.00  0.00     0.074 A 
ATOM     38  C   UNL A   1      43.529  27.776  31.677  1.00  0.00     0.031 C 
ATOM     39  C   UNL A   1      43.081  28.931  33.825  1.00  0.00     0.034 A 
BRANCH  26  40
ATOM     40  C   UNL A   1      39.349  32.971  36.671  1.00  0.00     0.023 A 
ATOM     41  C   UNL A   1      39.913  34.243  36.902  1.00  0.00     0.012 A 
ATOM     42  C   UNL A   1      38.455  32.428  37.612  1.00  0.00     0.148 A 
ATOM     43  C   UNL A   1      39.616  34.949  38.067  1.00  0.00     0.002 A 
ATOM     44  C   UNL A   1      38.134  33.155  38.752  1.00  0.00     0.091 A 
ATOM     45  F   UNL A   1      37.957  31.205  37.387  1.00  0.00    -0.205 F 
ATOM     46  C   UNL A   1      38.721  34.409  38.987  1.00  0.00     0.022 A 
BRANCH  44  47
ATOM     47  S   UNL A   1      36.955  32.568  39.972  1.00  0.00     0.127 S 
ATOM     48  O   UNL A   1      37.591  31.331  40.425  1.00  0.00    -0.237 OA
ATOM     49  O   UNL A   1      36.966  33.654  40.953  1.00  0.00    -0.237 OA
ATOM     50  O   UNL A   1      35.694  32.397  39.266  1.00  0.00    -0.744 OA
ENDBRANCH  44  47
ENDBRANCH  26  40
BRANCH  27  51
ATOM     51  C   UNL A   1      41.384  28.109  28.096  1.00  0.00     0.023 A 
ATOM     52  C   UNL A   1      41.802  28.850  26.975  1.00  0.00     0.012 A 
ATOM     53  C   UNL A   1      41.212  26.716  27.971  1.00  0.00     0.148 A 
ATOM     54  C   UNL A   1      42.031  28.220  25.750  1.00  0.00     0.002 A 
ATOM     55  C   UNL A   1      41.448  26.093  26.748  1.00  0.00     0.091 A 
ATOM     56  F   UNL A   1      40.781  26.026  29.037  1.00  0.00    -0.205 F 
ATOM     57  C   UNL A   1      41.855  26.844  25.634  1.00  0.00     0.022 A 
BRANCH  55  58
ATOM     58  S   UNL A   1      41.307  24.311  26.539  1.00  0.00     0.127 S 
ATOM     59  O   UNL A   1      42.154  24.064  25.386  1.00  0.00    -0.237 OA
ATOM     60  O   UNL A   1      41.823  23.808  27.816  1.00  0.00    -0.237 OA
ATOM     61  O   UNL A   1      39.876  24.069  26.362  1.00  0.00    -0.744 OA
ENDBRANCH  55  58
ENDBRANCH  27  51
BRANCH  39  62
ATOM     62  C   UNL A   1      44.250  28.183  34.388  1.00  0.00     0.023 A 
ATOM     63  C   UNL A   1      45.539  28.746  34.316  1.00  0.00     0.012 A 
ATOM     64  C   UNL A   1      44.061  26.936  35.008  1.00  0.00     0.148 A 
ATOM     65  C   UNL A   1      46.633  28.057  34.829  1.00  0.00     0.002 A 
ATOM     66  C   UNL A   1      45.149  26.279  35.561  1.00  0.00     0.091 A 
ATOM     67  F   UNL A   1      42.826  26.413  35.033  1.00  0.00    -0.205 F 
ATOM     68  C   UNL A   1      46.438  26.831  35.461  1.00  0.00     0.022 A 
BRANCH  66  69
ATOM     69  S   UNL A   1      44.974  24.741  36.467  1.00  0.00     0.127 S 
ATOM     70  O   UNL A   1      46.301  24.590  37.062  1.00  0.00    -0.237 OA
ATOM     71  O   UNL A   1      43.910  25.063  37.419  1.00  0.00    -0.237 OA
ATOM     72  O   UNL A   1      44.613  23.732  35.479  1.00  0.00    -0.744 OA
ENDBRANCH  66  69
ENDBRANCH  39  62
ENDBRANCH  13  14
ENDBRANCH   6   8
ENDBRANCH   5   6
ENDBRANCH   4   5
ENDBRANCH   3   4
ENDBRANCH   2   3
ENDBRANCH   1   2
BRANCH   1  73
ATOM     73  C   UNL A   1      33.179  29.303  25.291  1.00  0.00     0.188 C 
BRANCH  73  74
ATOM     74  O   UNL A   1      33.996  28.368  24.590  1.00  0.00    -0.376 OA
BRANCH  74  75
ATOM     75  C   UNL A   1      33.648  28.074  23.243  1.00  0.00     0.202 C 
BRANCH  75  76
ATOM     76  C   UNL A   1      33.550  26.606  22.803  1.00  0.00     0.261 C 
BRANCH  76  77
ATOM     77  O   UNL A   1      32.344  26.234  22.128  1.00  0.00    -0.459 OA
BRANCH  77  78
ATOM     78  C   UNL A   1      31.223  26.187  22.913  1.00  0.00     0.366 C 
ATOM     79  O   UNL A   1      30.215  26.857  22.721  1.00  0.00    -0.245 OA
BRANCH  78  80
ATOM     80  C   UNL A   1      31.381  25.192  24.059  1.00  0.00     0.313 C 
ATOM     81  C   UNL A   1      31.118  23.778  23.523  1.00  0.00     0.197 C 
ATOM     82  N   UNL A   1      30.469  25.492  25.222  1.00  0.00    -0.332 N 
ATOM     83  N   UNL A   1      31.365  22.816  24.585  1.00  0.00    -0.328 N 
ATOM     84  C   UNL A   1      30.744  24.481  26.288  1.00  0.00     0.283 C 
ATOM     85  H   UNL A   1      29.495  25.428  24.926  1.00  0.00     0.347 HD
ATOM     86  H   UNL A   1      30.636  26.435  25.572  1.00  0.00     0.347 HD
ATOM     87  C   UNL A   1      30.623  23.003  25.826  1.00  0.00     0.181 C 
BRANCH  83  88
ATOM     88  C   UNL A   1      32.619  22.252  24.651  1.00  0.00     0.227 A 
ATOM     89  N   UNL A   1      33.680  23.057  24.733  1.00  0.00    -0.221 NA
ATOM     90  N   UNL A   1      32.703  20.916  24.687  1.00  0.00    -0.196 NA
ATOM     91  C   UNL A   1      34.870  22.470  24.946  1.00  0.00     0.119 A 
ATOM     92  C   UNL A   1      33.909  20.353  24.825  1.00  0.00     0.134 A 
ATOM     93  C   UNL A   1      35.039  21.110  25.007  1.00  0.00     0.067 A 
BRANCH  92  94
ATOM     94  N   UNL A   1      33.956  18.989  24.608  1.00  0.00    -0.356 N 
ATOM     95  C   UNL A   1      35.244  18.339  24.456  1.00  0.00     0.121 C 
ATOM     96  C   UNL A   1      32.865  18.498  23.781  1.00  0.00     0.121 C 
ATOM     97  C   UNL A   1      35.068  16.858  24.812  1.00  0.00     0.053 C 
ATOM     98  C   UNL A   1      32.604  17.045  24.150  1.00  0.00     0.053 C 
ATOM     99  C   UNL A   1      33.881  16.209  24.089  1.00  0.00     0.118 C 
BRANCH  99 100
ATOM    100  O   UNL A   1      34.219  15.918  22.732  1.00  0.00    -0.393 OA
ATOM    101  H   UNL A   1      34.372  16.746  22.252  1.00  0.00     0.210 HD
ENDBRANCH  99 100
ENDBRANCH  92  94
ENDBRANCH  83  88
ENDBRANCH  78  80
ENDBRANCH  77  78
ENDBRANCH  76  77
ENDBRANCH  75  76
ENDBRANCH  74  75
ENDBRANCH  73  74
ENDBRANCH   1  73
TORSDOF 23
ENDMDL
