MODEL 1
REMARK VINA RESULT:      -7.4      0.000      0.000
REMARK SMILES O=C(COc1ccccc1/C=N\N1CC[NH+](Cc2ccc(Cl)cc2)CC1)OCCOCCOCCOC(=O)c1ccc(-c2c3nc(c(-c4cccc(S(=O)(=O)[O-])c4F)c4ccc([nH]4)c(-c4cccc(S(=O)(=O)[O-])c4F)c4nc(c(-c5cccc(S(=O)(=O)[O-])c5F)c5ccc2[nH]5)C=C4)C=C3)cc1
REMARK SMILES IDX 30 1 29 2 28 3 27 4 2 5 1 6 3 7 4 8 5 9 6 10 10 11 7 12 9 13
REMARK SMILES IDX 8 14 11 15 12 16 13 17 14 18 26 19 15 20 25 21 16 22 17 24
REMARK SMILES IDX 18 25 19 26 24 27 20 28 23 29 21 30 22 31 31 32 32 33 33 34
REMARK SMILES IDX 34 35 35 36 36 37 37 38 38 39 39 40 40 41 101 42 41 43
REMARK SMILES IDX 100 44 42 45 43 46 44 47 94 48 45 49 99 50 93 51 95 52 46 53
REMARK SMILES IDX 98 54 92 55 91 56 47 58 79 59 59 60 78 61 60 62 63 63 77 64
REMARK SMILES IDX 96 65 61 66 62 67 76 69 97 70 64 71 48 72 49 73 57 74 50 75
REMARK SMILES IDX 52 76 58 77 51 78 53 79 54 80 55 81 56 82 80 83 81 84 89 85
REMARK SMILES IDX 82 86 84 87 90 88 83 89 85 90 86 91 87 92 88 93 65 94 66 95
REMARK SMILES IDX 74 96 67 97 69 98 75 99 68 100 70 101 71 102 72 103 73 104
REMARK H PARENT 16 23 95 57 63 68
REMARK Flexibility Score: inf
ROOT
ATOM      1  O   UNL A   1      34.189  33.945  28.098  1.00  0.00    -0.376 OA
ENDROOT
BRANCH   1   2
ATOM      2  C   UNL A   1      32.895  33.376  28.038  1.00  0.00     0.202 C 
BRANCH   2   3
ATOM      3  C   UNL A   1      32.879  32.180  27.093  1.00  0.00     0.261 C 
BRANCH   3   4
ATOM      4  O   UNL A   1      33.040  30.898  27.732  1.00  0.00    -0.461 OA
BRANCH   4   5
ATOM      5  C   UNL A   1      33.537  29.769  27.191  1.00  0.00     0.344 C 
ATOM      6  O   UNL A   1      32.773  28.966  26.653  1.00  0.00    -0.248 OA
BRANCH   5   7
ATOM      7  C   UNL A   1      35.038  29.452  27.274  1.00  0.00     0.352 C 
BRANCH   7   8
ATOM      8  O   UNL A   1      35.756  29.180  28.446  1.00  0.00    -0.481 OA
BRANCH   8   9
ATOM      9  C   UNL A   1      36.702  30.019  28.959  1.00  0.00     0.129 A 
ATOM     10  C   UNL A   1      36.414  31.360  28.665  1.00  0.00     0.047 A 
ATOM     11  C   UNL A   1      37.942  29.705  29.524  1.00  0.00     0.037 A 
ATOM     12  C   UNL A   1      37.375  32.357  28.810  1.00  0.00     0.004 A 
ATOM     13  C   UNL A   1      38.950  30.676  29.457  1.00  0.00     0.013 A 
ATOM     14  C   UNL A   1      38.670  31.999  29.132  1.00  0.00     0.001 A 
BRANCH  11  15
ATOM     15  C   UNL A   1      38.132  28.433  30.263  1.00  0.00     0.145 C 
ATOM     16  N   UNL A   1      38.862  27.378  30.058  1.00  0.00    -0.185 NA
BRANCH  16  17
ATOM     17  N   UNL A   1      39.891  27.532  29.220  1.00  0.00    -0.286 NA
ATOM     18  C   UNL A   1      40.119  26.436  28.269  1.00  0.00     0.200 C 
ATOM     19  C   UNL A   1      41.127  27.814  29.980  1.00  0.00     0.200 C 
ATOM     20  C   UNL A   1      41.376  26.667  27.396  1.00  0.00     0.286 C 
ATOM     21  C   UNL A   1      42.313  28.136  29.075  1.00  0.00     0.286 C 
ATOM     22  N   UNL A   1      42.610  27.109  28.073  1.00  0.00    -0.328 N 
ATOM     23  H   UNL A   1      43.180  27.530  27.339  1.00  0.00     0.348 HD
BRANCH  22  24
ATOM     24  C   UNL A   1      43.503  26.048  28.561  1.00  0.00     0.299 C 
BRANCH  24  25
ATOM     25  C   UNL A   1      44.387  25.354  27.548  1.00  0.00     0.006 A 
ATOM     26  C   UNL A   1      44.680  23.983  27.662  1.00  0.00     0.011 A 
ATOM     27  C   UNL A   1      44.848  26.050  26.421  1.00  0.00     0.011 A 
ATOM     28  C   UNL A   1      45.310  23.302  26.615  1.00  0.00     0.021 A 
ATOM     29  C   UNL A   1      45.480  25.370  25.377  1.00  0.00     0.021 A 
ATOM     30  C   UNL A   1      45.687  23.996  25.469  1.00  0.00     0.041 A 
ATOM     31  Cl  UNL A   1      46.394  23.152  24.148  1.00  0.00    -0.084 Cl
ENDBRANCH  24  25
ENDBRANCH  22  24
ENDBRANCH  16  17
ENDBRANCH  11  15
ENDBRANCH   8   9
ENDBRANCH   7   8
ENDBRANCH   5   7
ENDBRANCH   4   5
ENDBRANCH   3   4
ENDBRANCH   2   3
ENDBRANCH   1   2
BRANCH   1  32
ATOM     32  C   UNL A   1      34.510  34.632  29.300  1.00  0.00     0.188 C 
BRANCH  32  33
ATOM     33  C   UNL A   1      34.410  33.710  30.528  1.00  0.00     0.188 C 
BRANCH  33  34
ATOM     34  O   UNL A   1      33.743  34.182  31.694  1.00  0.00    -0.376 OA
BRANCH  34  35
ATOM     35  C   UNL A   1      34.396  34.032  32.941  1.00  0.00     0.202 C 
BRANCH  35  36
ATOM     36  C   UNL A   1      35.617  34.934  33.200  1.00  0.00     0.261 C 
BRANCH  36  37
ATOM     37  O   UNL A   1      36.143  34.939  34.550  1.00  0.00    -0.460 OA
BRANCH  37  38
ATOM     38  C   UNL A   1      36.812  33.832  34.952  1.00  0.00     0.338 C 
ATOM     39  O   UNL A   1      36.469  33.081  35.866  1.00  0.00    -0.246 OA
BRANCH  38  40
ATOM     40  C   UNL A   1      37.965  33.504  34.065  1.00  0.00     0.060 A 
ATOM     41  C   UNL A   1      37.804  32.474  33.125  1.00  0.00     0.016 A 
ATOM     42  C   UNL A   1      39.228  34.082  34.223  1.00  0.00     0.016 A 
ATOM     43  C   UNL A   1      38.899  31.972  32.407  1.00  0.00     0.010 A 
ATOM     44  C   UNL A   1      40.332  33.564  33.511  1.00  0.00     0.010 A 
ATOM     45  C   UNL A   1      40.189  32.467  32.637  1.00  0.00    -0.014 A 
BRANCH  45  46
ATOM     46  C   UNL A   1      41.373  31.709  32.122  1.00  0.00     0.031 A 
ATOM     47  C   UNL A   1      41.823  30.459  32.850  1.00  0.00     0.074 A 
ATOM     48  C   UNL A   1      42.032  32.072  31.002  1.00  0.00     0.049 A 
ATOM     49  N   UNL A   1      42.811  29.643  32.576  1.00  0.00    -0.248 NA
ATOM     50  C   UNL A   1      41.052  30.081  34.046  1.00  0.00     0.031 C 
ATOM     51  C   UNL A   1      41.726  33.241  30.182  1.00  0.00     0.029 A 
ATOM     52  N   UNL A   1      43.116  31.498  30.374  1.00  0.00    -0.354 N 
ATOM     53  C   UNL A   1      42.792  28.668  33.570  1.00  0.00     0.074 A 
ATOM     54  C   UNL A   1      41.710  29.012  34.469  1.00  0.00     0.031 C 
ATOM     55  C   UNL A   1      42.620  33.317  29.178  1.00  0.00     0.029 A 
ATOM     56  C   UNL A   1      43.573  32.212  29.290  1.00  0.00     0.049 A 
ATOM     57  H   UNL A   1      43.525  30.653  30.673  1.00  0.00     0.167 HD
ATOM     58  C   UNL A   1      43.579  27.574  33.719  1.00  0.00     0.034 A 
ATOM     59  C   UNL A   1      44.644  32.016  28.490  1.00  0.00     0.034 A 
ATOM     60  C   UNL A   1      44.652  27.206  32.831  1.00  0.00     0.049 A 
ATOM     61  C   UNL A   1      45.523  30.804  28.689  1.00  0.00     0.074 A 
ATOM     62  C   UNL A   1      45.479  26.097  32.895  1.00  0.00     0.029 A 
ATOM     63  N   UNL A   1      45.054  27.936  31.725  1.00  0.00    -0.354 N 
ATOM     64  N   UNL A   1      45.419  29.839  29.570  1.00  0.00    -0.248 NA
ATOM     65  C   UNL A   1      46.647  30.634  27.753  1.00  0.00     0.031 C 
ATOM     66  C   UNL A   1      46.400  26.172  31.844  1.00  0.00     0.029 A 
ATOM     67  C   UNL A   1      46.121  27.307  31.103  1.00  0.00     0.049 A 
ATOM     68  H   UNL A   1      44.642  28.778  31.424  1.00  0.00     0.167 HD
ATOM     69  C   UNL A   1      46.438  28.936  29.275  1.00  0.00     0.074 A 
ATOM     70  C   UNL A   1      47.127  29.451  28.111  1.00  0.00     0.031 C 
ATOM     71  C   UNL A   1      46.783  27.794  29.920  1.00  0.00     0.034 A 
BRANCH  58  72
ATOM     72  C   UNL A   1      43.289  26.656  34.883  1.00  0.00     0.023 A 
ATOM     73  C   UNL A   1      42.331  25.632  34.739  1.00  0.00     0.012 A 
ATOM     74  C   UNL A   1      44.013  26.759  36.088  1.00  0.00     0.148 A 
ATOM     75  C   UNL A   1      42.075  24.746  35.784  1.00  0.00     0.002 A 
ATOM     76  C   UNL A   1      43.785  25.842  37.109  1.00  0.00     0.091 A 
ATOM     77  F   UNL A   1      44.912  27.746  36.213  1.00  0.00    -0.205 F 
ATOM     78  C   UNL A   1      42.808  24.843  36.963  1.00  0.00     0.022 A 
BRANCH  76  79
ATOM     79  S   UNL A   1      44.732  25.830  38.636  1.00  0.00     0.127 S 
ATOM     80  O   UNL A   1      43.882  26.631  39.516  1.00  0.00    -0.237 OA
ATOM     81  O   UNL A   1      44.772  24.404  38.961  1.00  0.00    -0.237 OA
ATOM     82  O   UNL A   1      46.024  26.420  38.315  1.00  0.00    -0.744 OA
ENDBRANCH  76  79
ENDBRANCH  58  72
BRANCH  59  83
ATOM     83  C   UNL A   1      44.956  32.991  27.401  1.00  0.00     0.023 A 
ATOM     84  C   UNL A   1      44.309  32.889  26.154  1.00  0.00     0.012 A 
ATOM     85  C   UNL A   1      45.913  34.007  27.594  1.00  0.00     0.148 A 
ATOM     86  C   UNL A   1      44.639  33.753  25.107  1.00  0.00     0.002 A 
ATOM     87  C   UNL A   1      46.188  34.905  26.569  1.00  0.00     0.091 A 
ATOM     88  F   UNL A   1      46.536  34.075  28.778  1.00  0.00    -0.205 F 
ATOM     89  C   UNL A   1      45.570  34.765  25.317  1.00  0.00     0.022 A 
BRANCH  87  90
ATOM     90  S   UNL A   1      47.265  36.323  26.799  1.00  0.00     0.127 S 
ATOM     91  O   UNL A   1      47.532  36.725  25.421  1.00  0.00    -0.237 OA
ATOM     92  O   UNL A   1      46.405  37.236  27.553  1.00  0.00    -0.237 OA
ATOM     93  O   UNL A   1      48.412  35.828  27.549  1.00  0.00    -0.744 OA
ENDBRANCH  87  90
ENDBRANCH  59  83
BRANCH  71  94
ATOM     94  C   UNL A   1      47.939  26.993  29.365  1.00  0.00     0.023 A 
ATOM     95  C   UNL A   1      47.698  25.947  28.451  1.00  0.00     0.012 A 
ATOM     96  C   UNL A   1      49.268  27.298  29.722  1.00  0.00     0.148 A 
ATOM     97  C   UNL A   1      48.751  25.183  27.946  1.00  0.00     0.002 A 
ATOM     98  C   UNL A   1      50.317  26.566  29.174  1.00  0.00     0.091 A 
ATOM     99  F   UNL A   1      49.485  28.286  30.602  1.00  0.00    -0.205 F 
ATOM    100  C   UNL A   1      50.059  25.498  28.300  1.00  0.00     0.022 A 
BRANCH  98 101
ATOM    101  S   UNL A   1      52.040  26.958  29.500  1.00  0.00     0.127 S 
ATOM    102  O   UNL A   1      52.729  26.106  28.532  1.00  0.00    -0.237 OA
ATOM    103  O   UNL A   1      52.096  28.389  29.199  1.00  0.00    -0.237 OA
ATOM    104  O   UNL A   1      52.268  26.628  30.900  1.00  0.00    -0.744 OA
ENDBRANCH  98 101
ENDBRANCH  71  94
ENDBRANCH  45  46
ENDBRANCH  38  40
ENDBRANCH  37  38
ENDBRANCH  36  37
ENDBRANCH  35  36
ENDBRANCH  34  35
ENDBRANCH  33  34
ENDBRANCH  32  33
ENDBRANCH   1  32
TORSDOF 26
ENDMDL
MODEL 2
REMARK VINA RESULT:      -6.7      5.384      9.570
REMARK SMILES O=C(COc1ccccc1/C=N\N1CC[NH+](Cc2ccc(Cl)cc2)CC1)OCCOCCOCCOC(=O)c1ccc(-c2c3nc(c(-c4cccc(S(=O)(=O)[O-])c4F)c4ccc([nH]4)c(-c4cccc(S(=O)(=O)[O-])c4F)c4nc(c(-c5cccc(S(=O)(=O)[O-])c5F)c5ccc2[nH]5)C=C4)C=C3)cc1
REMARK SMILES IDX 30 1 29 2 28 3 27 4 2 5 1 6 3 7 4 8 5 9 6 10 10 11 7 12 9 13
REMARK SMILES IDX 8 14 11 15 12 16 13 17 14 18 26 19 15 20 25 21 16 22 17 24
REMARK SMILES IDX 18 25 19 26 24 27 20 28 23 29 21 30 22 31 31 32 32 33 33 34
REMARK SMILES IDX 34 35 35 36 36 37 37 38 38 39 39 40 40 41 101 42 41 43
REMARK SMILES IDX 100 44 42 45 43 46 44 47 94 48 45 49 99 50 93 51 95 52 46 53
REMARK SMILES IDX 98 54 92 55 91 56 47 58 79 59 59 60 78 61 60 62 63 63 77 64
REMARK SMILES IDX 96 65 61 66 62 67 76 69 97 70 64 71 48 72 49 73 57 74 50 75
REMARK SMILES IDX 52 76 58 77 51 78 53 79 54 80 55 81 56 82 80 83 81 84 89 85
REMARK SMILES IDX 82 86 84 87 90 88 83 89 85 90 86 91 87 92 88 93 65 94 66 95
REMARK SMILES IDX 74 96 67 97 69 98 75 99 68 100 70 101 71 102 72 103 73 104
REMARK H PARENT 16 23 95 57 63 68
REMARK Flexibility Score: inf
ROOT
ATOM      1  O   UNL A   1      39.696  28.378  30.995  1.00  0.00    -0.376 OA
ENDROOT
BRANCH   1   2
ATOM      2  C   UNL A   1      40.217  29.506  30.319  1.00  0.00     0.202 C 
BRANCH   2   3
ATOM      3  C   UNL A   1      39.682  30.794  30.933  1.00  0.00     0.261 C 
BRANCH   3   4
ATOM      4  O   UNL A   1      38.520  31.341  30.280  1.00  0.00    -0.461 OA
BRANCH   4   5
ATOM      5  C   UNL A   1      38.147  32.634  30.219  1.00  0.00     0.344 C 
ATOM      6  O   UNL A   1      38.729  33.398  29.446  1.00  0.00    -0.248 OA
BRANCH   5   7
ATOM      7  C   UNL A   1      37.037  33.177  31.132  1.00  0.00     0.352 C 
BRANCH   7   8
ATOM      8  O   UNL A   1      35.659  33.058  30.908  1.00  0.00    -0.481 OA
BRANCH   8   9
ATOM      9  C   UNL A   1      34.827  34.129  30.763  1.00  0.00     0.129 A 
ATOM     10  C   UNL A   1      34.422  34.637  32.007  1.00  0.00     0.047 A 
ATOM     11  C   UNL A   1      34.213  34.616  29.605  1.00  0.00     0.037 A 
ATOM     12  C   UNL A   1      33.346  35.515  32.116  1.00  0.00     0.004 A 
ATOM     13  C   UNL A   1      33.012  35.321  29.755  1.00  0.00     0.013 A 
ATOM     14  C   UNL A   1      32.591  35.795  30.993  1.00  0.00     0.001 A 
BRANCH  11  15
ATOM     15  C   UNL A   1      34.880  34.482  28.287  1.00  0.00     0.145 C 
ATOM     16  N   UNL A   1      35.336  33.468  27.613  1.00  0.00    -0.185 NA
BRANCH  16  17
ATOM     17  N   UNL A   1      34.867  32.269  27.968  1.00  0.00    -0.286 NA
ATOM     18  C   UNL A   1      35.833  31.163  27.939  1.00  0.00     0.200 C 
ATOM     19  C   UNL A   1      33.677  31.929  27.160  1.00  0.00     0.200 C 
ATOM     20  C   UNL A   1      35.181  29.803  28.288  1.00  0.00     0.286 C 
ATOM     21  C   UNL A   1      33.011  30.633  27.612  1.00  0.00     0.286 C 
ATOM     22  N   UNL A   1      33.901  29.468  27.636  1.00  0.00    -0.328 N 
ATOM     23  H   UNL A   1      33.479  28.754  28.229  1.00  0.00     0.348 HD
BRANCH  22  24
ATOM     24  C   UNL A   1      33.988  28.764  26.349  1.00  0.00     0.299 C 
BRANCH  24  25
ATOM     25  C   UNL A   1      33.248  27.451  26.216  1.00  0.00     0.006 A 
ATOM     26  C   UNL A   1      31.867  27.369  26.469  1.00  0.00     0.011 A 
ATOM     27  C   UNL A   1      33.915  26.312  25.742  1.00  0.00     0.011 A 
ATOM     28  C   UNL A   1      31.152  26.214  26.137  1.00  0.00     0.021 A 
ATOM     29  C   UNL A   1      33.200  25.158  25.412  1.00  0.00     0.021 A 
ATOM     30  C   UNL A   1      31.820  25.122  25.589  1.00  0.00     0.041 A 
ATOM     31  Cl  UNL A   1      30.935  23.728  25.107  1.00  0.00    -0.084 Cl
ENDBRANCH  24  25
ENDBRANCH  22  24
ENDBRANCH  16  17
ENDBRANCH  11  15
ENDBRANCH   8   9
ENDBRANCH   7   8
ENDBRANCH   5   7
ENDBRANCH   4   5
ENDBRANCH   3   4
ENDBRANCH   2   3
ENDBRANCH   1   2
BRANCH   1  32
ATOM     32  C   UNL A   1      38.829  27.546  30.237  1.00  0.00     0.188 C 
BRANCH  32  33
ATOM     33  C   UNL A   1      39.255  27.472  28.760  1.00  0.00     0.188 C 
BRANCH  33  34
ATOM     34  O   UNL A   1      39.522  26.199  28.181  1.00  0.00    -0.376 OA
BRANCH  34  35
ATOM     35  C   UNL A   1      40.832  25.945  27.707  1.00  0.00     0.202 C 
BRANCH  35  36
ATOM     36  C   UNL A   1      41.002  24.771  26.725  1.00  0.00     0.261 C 
BRANCH  36  37
ATOM     37  O   UNL A   1      42.130  23.892  26.957  1.00  0.00    -0.460 OA
BRANCH  37  38
ATOM     38  C   UNL A   1      42.794  23.445  25.865  1.00  0.00     0.338 C 
ATOM     39  O   UNL A   1      42.348  22.661  25.027  1.00  0.00    -0.246 OA
BRANCH  38  40
ATOM     40  C   UNL A   1      44.109  24.123  25.675  1.00  0.00     0.060 A 
ATOM     41  C   UNL A   1      45.240  23.323  25.448  1.00  0.00     0.016 A 
ATOM     42  C   UNL A   1      44.281  25.500  25.844  1.00  0.00     0.016 A 
ATOM     43  C   UNL A   1      46.530  23.870  25.469  1.00  0.00     0.010 A 
ATOM     44  C   UNL A   1      45.582  26.046  25.881  1.00  0.00     0.010 A 
ATOM     45  C   UNL A   1      46.722  25.229  25.749  1.00  0.00    -0.014 A 
BRANCH  45  46
ATOM     46  C   UNL A   1      48.093  25.724  26.095  1.00  0.00     0.031 A 
ATOM     47  C   UNL A   1      48.548  25.690  27.539  1.00  0.00     0.074 A 
ATOM     48  C   UNL A   1      48.960  26.161  25.159  1.00  0.00     0.049 A 
ATOM     49  N   UNL A   1      49.692  26.055  28.064  1.00  0.00    -0.248 NA
ATOM     50  C   UNL A   1      47.581  25.172  28.520  1.00  0.00     0.031 C 
ATOM     51  C   UNL A   1      48.686  26.253  23.727  1.00  0.00     0.029 A 
ATOM     52  N   UNL A   1      50.250  26.631  25.282  1.00  0.00    -0.354 N 
ATOM     53  C   UNL A   1      49.578  25.828  29.432  1.00  0.00     0.074 A 
ATOM     54  C   UNL A   1      48.242  25.319  29.660  1.00  0.00     0.031 C 
ATOM     55  C   UNL A   1      49.759  26.779  23.108  1.00  0.00     0.029 A 
ATOM     56  C   UNL A   1      50.795  27.076  24.099  1.00  0.00     0.049 A 
ATOM     57  H   UNL A   1      50.738  26.646  26.137  1.00  0.00     0.167 HD
ATOM     58  C   UNL A   1      50.497  26.002  30.414  1.00  0.00     0.034 A 
ATOM     59  C   UNL A   1      51.979  27.673  23.840  1.00  0.00     0.034 A 
ATOM     60  C   UNL A   1      51.835  26.494  30.209  1.00  0.00     0.049 A 
ATOM     61  C   UNL A   1      52.979  27.879  24.953  1.00  0.00     0.074 A 
ATOM     62  C   UNL A   1      52.840  26.671  31.147  1.00  0.00     0.029 A 
ATOM     63  N   UNL A   1      52.357  26.895  28.991  1.00  0.00    -0.354 N 
ATOM     64  N   UNL A   1      52.889  27.557  26.220  1.00  0.00    -0.248 NA
ATOM     65  C   UNL A   1      54.265  28.498  24.588  1.00  0.00     0.031 C 
ATOM     66  C   UNL A   1      53.958  27.207  30.500  1.00  0.00     0.029 A 
ATOM     67  C   UNL A   1      53.664  27.327  29.153  1.00  0.00     0.049 A 
ATOM     68  H   UNL A   1      51.871  26.875  28.135  1.00  0.00     0.167 HD
ATOM     69  C   UNL A   1      54.111  27.900  26.793  1.00  0.00     0.074 A 
ATOM     70  C   UNL A   1      54.939  28.424  25.728  1.00  0.00     0.031 C 
ATOM     71  C   UNL A   1      54.506  27.808  28.088  1.00  0.00     0.034 A 
BRANCH  58  72
ATOM     72  C   UNL A   1      50.101  25.619  31.821  1.00  0.00     0.023 A 
ATOM     73  C   UNL A   1      49.218  26.448  32.543  1.00  0.00     0.012 A 
ATOM     74  C   UNL A   1      50.539  24.410  32.396  1.00  0.00     0.148 A 
ATOM     75  C   UNL A   1      48.803  26.096  33.827  1.00  0.00     0.002 A 
ATOM     76  C   UNL A   1      50.084  24.043  33.658  1.00  0.00     0.091 A 
ATOM     77  F   UNL A   1      51.388  23.640  31.699  1.00  0.00    -0.205 F 
ATOM     78  C   UNL A   1      49.227  24.891  34.380  1.00  0.00     0.022 A 
BRANCH  76  79
ATOM     79  S   UNL A   1      50.505  22.474  34.427  1.00  0.00     0.127 S 
ATOM     80  O   UNL A   1      49.724  22.533  35.662  1.00  0.00    -0.237 OA
ATOM     81  O   UNL A   1      50.015  21.509  33.442  1.00  0.00    -0.237 OA
ATOM     82  O   UNL A   1      51.950  22.486  34.605  1.00  0.00    -0.744 OA
ENDBRANCH  76  79
ENDBRANCH  58  72
BRANCH  59  83
ATOM     83  C   UNL A   1      52.307  28.121  22.452  1.00  0.00     0.023 A 
ATOM     84  C   UNL A   1      52.796  27.196  21.508  1.00  0.00     0.012 A 
ATOM     85  C   UNL A   1      52.155  29.469  22.074  1.00  0.00     0.148 A 
ATOM     86  C   UNL A   1      53.168  27.614  20.228  1.00  0.00     0.002 A 
ATOM     87  C   UNL A   1      52.464  29.865  20.778  1.00  0.00     0.091 A 
ATOM     88  F   UNL A   1      51.712  30.340  22.991  1.00  0.00    -0.205 F 
ATOM     89  C   UNL A   1      52.993  28.945  19.860  1.00  0.00     0.022 A 
BRANCH  87  90
ATOM     90  S   UNL A   1      52.136  31.526  20.177  1.00  0.00     0.127 S 
ATOM     91  O   UNL A   1      50.687  31.501  19.999  1.00  0.00    -0.237 OA
ATOM     92  O   UNL A   1      52.607  32.347  21.292  1.00  0.00    -0.237 OA
ATOM     93  O   UNL A   1      52.923  31.666  18.959  1.00  0.00    -0.744 OA
ENDBRANCH  87  90
ENDBRANCH  59  83
BRANCH  71  94
ATOM     94  C   UNL A   1      55.911  28.249  28.428  1.00  0.00     0.023 A 
ATOM     95  C   UNL A   1      56.979  27.333  28.339  1.00  0.00     0.012 A 
ATOM     96  C   UNL A   1      56.181  29.581  28.806  1.00  0.00     0.148 A 
ATOM     97  C   UNL A   1      58.279  27.717  28.672  1.00  0.00     0.002 A 
ATOM     98  C   UNL A   1      57.487  29.969  29.085  1.00  0.00     0.091 A 
ATOM     99  F   UNL A   1      55.156  30.440  28.901  1.00  0.00    -0.205 F 
ATOM    100  C   UNL A   1      58.534  29.035  29.036  1.00  0.00     0.022 A 
BRANCH  98 101
ATOM    101  S   UNL A   1      57.926  31.669  29.473  1.00  0.00     0.127 S 
ATOM    102  O   UNL A   1      59.281  31.515  29.999  1.00  0.00    -0.237 OA
ATOM    103  O   UNL A   1      57.851  32.316  28.163  1.00  0.00    -0.237 OA
ATOM    104  O   UNL A   1      56.930  32.130  30.431  1.00  0.00    -0.744 OA
ENDBRANCH  98 101
ENDBRANCH  71  94
ENDBRANCH  45  46
ENDBRANCH  38  40
ENDBRANCH  37  38
ENDBRANCH  36  37
ENDBRANCH  35  36
ENDBRANCH  34  35
ENDBRANCH  33  34
ENDBRANCH  32  33
ENDBRANCH   1  32
TORSDOF 26
ENDMDL
MODEL 3
REMARK VINA RESULT:      -6.6      6.377     10.970
REMARK SMILES O=C(COc1ccccc1/C=N\N1CC[NH+](Cc2ccc(Cl)cc2)CC1)OCCOCCOCCOC(=O)c1ccc(-c2c3nc(c(-c4cccc(S(=O)(=O)[O-])c4F)c4ccc([nH]4)c(-c4cccc(S(=O)(=O)[O-])c4F)c4nc(c(-c5cccc(S(=O)(=O)[O-])c5F)c5ccc2[nH]5)C=C4)C=C3)cc1
REMARK SMILES IDX 30 1 29 2 28 3 27 4 2 5 1 6 3 7 4 8 5 9 6 10 10 11 7 12 9 13
REMARK SMILES IDX 8 14 11 15 12 16 13 17 14 18 26 19 15 20 25 21 16 22 17 24
REMARK SMILES IDX 18 25 19 26 24 27 20 28 23 29 21 30 22 31 31 32 32 33 33 34
REMARK SMILES IDX 34 35 35 36 36 37 37 38 38 39 39 40 40 41 101 42 41 43
REMARK SMILES IDX 100 44 42 45 43 46 44 47 94 48 45 49 99 50 93 51 95 52 46 53
REMARK SMILES IDX 98 54 92 55 91 56 47 58 79 59 59 60 78 61 60 62 63 63 77 64
REMARK SMILES IDX 96 65 61 66 62 67 76 69 97 70 64 71 48 72 49 73 57 74 50 75
REMARK SMILES IDX 52 76 58 77 51 78 53 79 54 80 55 81 56 82 80 83 81 84 89 85
REMARK SMILES IDX 82 86 84 87 90 88 83 89 85 90 86 91 87 92 88 93 65 94 66 95
REMARK SMILES IDX 74 96 67 97 69 98 75 99 68 100 70 101 71 102 72 103 73 104
REMARK H PARENT 16 23 95 57 63 68
REMARK Flexibility Score: inf
ROOT
ATOM      1  O   UNL A   1      34.944  33.053  34.016  1.00  0.00    -0.376 OA
ENDROOT
BRANCH   1   2
ATOM      2  C   UNL A   1      35.790  32.370  33.110  1.00  0.00     0.202 C 
BRANCH   2   3
ATOM      3  C   UNL A   1      37.129  32.053  33.764  1.00  0.00     0.261 C 
BRANCH   3   4
ATOM      4  O   UNL A   1      37.186  32.295  35.183  1.00  0.00    -0.461 OA
BRANCH   4   5
ATOM      5  C   UNL A   1      37.818  31.557  36.116  1.00  0.00     0.344 C 
ATOM      6  O   UNL A   1      38.278  30.456  35.810  1.00  0.00    -0.248 OA
BRANCH   5   7
ATOM      7  C   UNL A   1      37.932  32.054  37.566  1.00  0.00     0.352 C 
BRANCH   7   8
ATOM      8  O   UNL A   1      37.650  31.305  38.715  1.00  0.00    -0.481 OA
BRANCH   8   9
ATOM      9  C   UNL A   1      37.194  31.855  39.877  1.00  0.00     0.129 A 
ATOM     10  C   UNL A   1      35.826  31.605  40.062  1.00  0.00     0.047 A 
ATOM     11  C   UNL A   1      37.838  32.748  40.739  1.00  0.00     0.037 A 
ATOM     12  C   UNL A   1      35.080  32.315  40.999  1.00  0.00     0.004 A 
ATOM     13  C   UNL A   1      37.035  33.594  41.515  1.00  0.00     0.013 A 
ATOM     14  C   UNL A   1      35.671  33.368  41.671  1.00  0.00     0.001 A 
BRANCH  11  15
ATOM     15  C   UNL A   1      39.312  32.710  40.898  1.00  0.00     0.145 C 
ATOM     16  N   UNL A   1      40.099  32.415  41.890  1.00  0.00    -0.185 NA
BRANCH  16  17
ATOM     17  N   UNL A   1      39.554  31.700  42.878  1.00  0.00    -0.286 NA
ATOM     18  C   UNL A   1      38.750  30.541  42.470  1.00  0.00     0.200 C 
ATOM     19  C   UNL A   1      38.767  32.580  43.769  1.00  0.00     0.200 C 
ATOM     20  C   UNL A   1      38.097  29.823  43.676  1.00  0.00     0.286 C 
ATOM     21  C   UNL A   1      38.233  31.847  44.996  1.00  0.00     0.286 C 
ATOM     22  N   UNL A   1      37.430  30.659  44.693  1.00  0.00    -0.328 N 
ATOM     23  H   UNL A   1      37.389  30.077  45.530  1.00  0.00     0.348 HD
BRANCH  22  24
ATOM     24  C   UNL A   1      36.007  30.948  44.469  1.00  0.00     0.299 C 
BRANCH  24  25
ATOM     25  C   UNL A   1      34.995  30.157  45.270  1.00  0.00     0.006 A 
ATOM     26  C   UNL A   1      35.378  29.010  45.988  1.00  0.00     0.011 A 
ATOM     27  C   UNL A   1      33.676  30.617  45.388  1.00  0.00     0.011 A 
ATOM     28  C   UNL A   1      34.496  28.413  46.895  1.00  0.00     0.021 A 
ATOM     29  C   UNL A   1      32.795  30.020  46.292  1.00  0.00     0.021 A 
ATOM     30  C   UNL A   1      33.216  28.936  47.058  1.00  0.00     0.041 A 
ATOM     31  Cl  UNL A   1      32.153  28.255  48.226  1.00  0.00    -0.084 Cl
ENDBRANCH  24  25
ENDBRANCH  22  24
ENDBRANCH  16  17
ENDBRANCH  11  15
ENDBRANCH   8   9
ENDBRANCH   7   8
ENDBRANCH   5   7
ENDBRANCH   4   5
ENDBRANCH   3   4
ENDBRANCH   2   3
ENDBRANCH   1   2
BRANCH   1  32
ATOM     32  C   UNL A   1      34.854  34.461  33.839  1.00  0.00     0.188 C 
BRANCH  32  33
ATOM     33  C   UNL A   1      33.937  34.831  32.661  1.00  0.00     0.188 C 
BRANCH  33  34
ATOM     34  O   UNL A   1      34.516  35.366  31.475  1.00  0.00    -0.376 OA
BRANCH  34  35
ATOM     35  C   UNL A   1      34.033  34.900  30.229  1.00  0.00     0.202 C 
BRANCH  35  36
ATOM     36  C   UNL A   1      34.243  33.407  29.915  1.00  0.00     0.261 C 
BRANCH  36  37
ATOM     37  O   UNL A   1      34.572  33.074  28.544  1.00  0.00    -0.460 OA
BRANCH  37  38
ATOM     38  C   UNL A   1      34.563  31.762  28.213  1.00  0.00     0.338 C 
ATOM     39  O   UNL A   1      33.587  31.134  27.799  1.00  0.00    -0.246 OA
BRANCH  38  40
ATOM     40  C   UNL A   1      35.923  31.149  28.252  1.00  0.00     0.060 A 
ATOM     41  C   UNL A   1      36.018  29.749  28.251  1.00  0.00     0.016 A 
ATOM     42  C   UNL A   1      37.087  31.905  28.423  1.00  0.00     0.016 A 
ATOM     43  C   UNL A   1      37.240  29.106  28.495  1.00  0.00     0.010 A 
ATOM     44  C   UNL A   1      38.313  31.256  28.686  1.00  0.00     0.010 A 
ATOM     45  C   UNL A   1      38.391  29.852  28.780  1.00  0.00    -0.014 A 
BRANCH  45  46
ATOM     46  C   UNL A   1      39.590  29.166  29.360  1.00  0.00     0.031 A 
ATOM     47  C   UNL A   1      40.238  29.738  30.603  1.00  0.00     0.074 A 
ATOM     48  C   UNL A   1      40.090  28.025  28.842  1.00  0.00     0.049 A 
ATOM     49  N   UNL A   1      41.273  29.304  31.281  1.00  0.00    -0.248 NA
ATOM     50  C   UNL A   1      39.636  30.963  31.154  1.00  0.00     0.031 C 
ATOM     51  C   UNL A   1      39.583  27.340  27.655  1.00  0.00     0.029 A 
ATOM     52  N   UNL A   1      41.158  27.252  29.242  1.00  0.00    -0.354 N 
ATOM     53  C   UNL A   1      41.456  30.208  32.324  1.00  0.00     0.074 A 
ATOM     54  C   UNL A   1      40.441  31.229  32.172  1.00  0.00     0.031 C 
ATOM     55  C   UNL A   1      40.357  26.268  27.404  1.00  0.00     0.029 A 
ATOM     56  C   UNL A   1      41.427  26.195  28.401  1.00  0.00     0.049 A 
ATOM     57  H   UNL A   1      41.681  27.437  30.056  1.00  0.00     0.167 HD
ATOM     58  C   UNL A   1      42.364  30.189  33.331  1.00  0.00     0.034 A 
ATOM     59  C   UNL A   1      42.425  25.285  28.415  1.00  0.00     0.034 A 
ATOM     60  C   UNL A   1      43.373  29.176  33.509  1.00  0.00     0.049 A 
ATOM     61  C   UNL A   1      43.441  25.297  29.533  1.00  0.00     0.074 A 
ATOM     62  C   UNL A   1      44.313  29.067  34.521  1.00  0.00     0.029 A 
ATOM     63  N   UNL A   1      43.582  28.105  32.657  1.00  0.00    -0.354 N 
ATOM     64  N   UNL A   1      43.528  26.098  30.568  1.00  0.00    -0.248 NA
ATOM     65  C   UNL A   1      44.476  24.249  29.505  1.00  0.00     0.031 C 
ATOM     66  C   UNL A   1      45.110  27.946  34.263  1.00  0.00     0.029 A 
ATOM     67  C   UNL A   1      44.641  27.335  33.114  1.00  0.00     0.049 A 
ATOM     68  H   UNL A   1      43.057  27.917  31.846  1.00  0.00     0.167 HD
ATOM     69  C   UNL A   1      44.599  25.632  31.326  1.00  0.00     0.074 A 
ATOM     70  C   UNL A   1      45.109  24.458  30.651  1.00  0.00     0.031 C 
ATOM     71  C   UNL A   1      45.125  26.142  32.468  1.00  0.00     0.034 A 
BRANCH  58  72
ATOM     72  C   UNL A   1      42.290  31.291  34.361  1.00  0.00     0.023 A 
ATOM     73  C   UNL A   1      41.629  31.057  35.584  1.00  0.00     0.012 A 
ATOM     74  C   UNL A   1      42.935  32.526  34.151  1.00  0.00     0.148 A 
ATOM     75  C   UNL A   1      41.583  32.044  36.568  1.00  0.00     0.002 A 
ATOM     76  C   UNL A   1      42.925  33.488  35.155  1.00  0.00     0.091 A 
ATOM     77  F   UNL A   1      43.548  32.737  32.977  1.00  0.00    -0.205 F 
ATOM     78  C   UNL A   1      42.239  33.253  36.359  1.00  0.00     0.022 A 
BRANCH  76  79
ATOM     79  S   UNL A   1      43.806  35.048  35.019  1.00  0.00     0.127 S 
ATOM     80  O   UNL A   1      44.757  34.946  36.125  1.00  0.00    -0.237 OA
ATOM     81  O   UNL A   1      44.406  34.946  33.689  1.00  0.00    -0.237 OA
ATOM     82  O   UNL A   1      42.803  36.093  35.158  1.00  0.00    -0.744 OA
ENDBRANCH  76  79
ENDBRANCH  58  72
BRANCH  59  83
ATOM     83  C   UNL A   1      42.522  24.261  27.332  1.00  0.00     0.023 A 
ATOM     84  C   UNL A   1      43.330  24.501  26.202  1.00  0.00     0.012 A 
ATOM     85  C   UNL A   1      41.795  23.057  27.409  1.00  0.00     0.148 A 
ATOM     86  C   UNL A   1      43.377  23.581  25.152  1.00  0.00     0.002 A 
ATOM     87  C   UNL A   1      41.899  22.116  26.391  1.00  0.00     0.091 A 
ATOM     88  F   UNL A   1      41.013  22.855  28.478  1.00  0.00    -0.205 F 
ATOM     89  C   UNL A   1      42.671  22.386  25.250  1.00  0.00     0.022 A 
BRANCH  87  90
ATOM     90  S   UNL A   1      41.139  20.493  26.502  1.00  0.00     0.127 S 
ATOM     91  O   UNL A   1      39.942  20.664  25.684  1.00  0.00    -0.237 OA
ATOM     92  O   UNL A   1      42.170  19.637  25.915  1.00  0.00    -0.237 OA
ATOM     93  O   UNL A   1      40.910  20.262  27.922  1.00  0.00    -0.744 OA
ENDBRANCH  87  90
ENDBRANCH  59  83
BRANCH  71  94
ATOM     94  C   UNL A   1      46.295  25.415  33.090  1.00  0.00     0.023 A 
ATOM     95  C   UNL A   1      47.611  25.864  32.854  1.00  0.00     0.012 A 
ATOM     96  C   UNL A   1      46.092  24.305  33.936  1.00  0.00     0.148 A 
ATOM     97  C   UNL A   1      48.704  25.191  33.401  1.00  0.00     0.002 A 
ATOM     98  C   UNL A   1      47.184  23.672  34.521  1.00  0.00     0.091 A 
ATOM     99  F   UNL A   1      44.838  23.879  34.143  1.00  0.00    -0.205 F 
ATOM    100  C   UNL A   1      48.490  24.102  34.241  1.00  0.00     0.022 A 
BRANCH  98 101
ATOM    101  S   UNL A   1      47.001  22.318  35.690  1.00  0.00     0.127 S 
ATOM    102  O   UNL A   1      46.284  22.966  36.787  1.00  0.00    -0.237 OA
ATOM    103  O   UNL A   1      46.206  21.355  34.928  1.00  0.00    -0.237 OA
ATOM    104  O   UNL A   1      48.353  21.873  36.001  1.00  0.00    -0.744 OA
ENDBRANCH  98 101
ENDBRANCH  71  94
ENDBRANCH  45  46
ENDBRANCH  38  40
ENDBRANCH  37  38
ENDBRANCH  36  37
ENDBRANCH  35  36
ENDBRANCH  34  35
ENDBRANCH  33  34
ENDBRANCH  32  33
ENDBRANCH   1  32
TORSDOF 26
ENDMDL
