MODEL 1
REMARK VINA RESULT:      -8.5      0.000      0.000
REMARK SMILES CC[NH+](CC)[C@](C)(C(=O)OCCOCCOCCOC(=O)c1ccc(-c2c3nc(c(-c4cccc(S(=O)(=O)[O-])c4F)c4ccc([nH]4)c(-c4cccc(S(=O)(=O)[O-])c4F)c4nc(c(-c5cccc(S(=O)(=O)[O-])c5F)c5ccc2[nH]5)C=C4)C=C3)cc1)c1cc(F)c(C)cc1F
REMARK SMILES IDX 15 1 14 2 13 3 12 4 11 5 10 6 8 7 9 8 6 9 7 10 3 11 2 13
REMARK SMILES IDX 1 14 4 15 5 16 85 17 86 18 92 19 87 20 91 21 93 22 88 23
REMARK SMILES IDX 89 24 90 25 16 26 17 27 18 28 19 29 20 30 21 31 22 32 23 33
REMARK SMILES IDX 84 34 24 35 83 36 25 37 26 38 27 39 77 40 28 41 82 42 76 43
REMARK SMILES IDX 78 44 29 45 81 46 75 47 74 48 30 50 62 51 42 52 61 53 43 54
REMARK SMILES IDX 46 55 60 56 79 57 44 58 45 59 59 61 80 62 47 63 31 64 32 65
REMARK SMILES IDX 40 66 33 67 35 68 41 69 34 70 36 71 37 72 38 73 39 74 63 75
REMARK SMILES IDX 64 76 72 77 65 78 67 79 73 80 66 81 68 82 69 83 70 84 71 85
REMARK SMILES IDX 48 86 49 87 57 88 50 89 52 90 58 91 51 92 53 93 54 94 55 95
REMARK SMILES IDX 56 96
REMARK H PARENT 3 12 78 49 46 60
REMARK Flexibility Score: inf
ROOT
ATOM      1  C   UNL A   1      41.588  21.286  26.786  1.00  0.00     0.188 C 
ENDROOT
BRANCH   1   2
ATOM      2  C   UNL A   1      40.346  21.439  25.903  1.00  0.00     0.188 C 
BRANCH   2   3
ATOM      3  O   UNL A   1      39.138  21.823  26.541  1.00  0.00    -0.376 OA
BRANCH   3   4
ATOM      4  C   UNL A   1      38.017  22.151  25.722  1.00  0.00     0.202 C 
BRANCH   4   5
ATOM      5  C   UNL A   1      37.620  23.627  25.550  1.00  0.00     0.261 C 
BRANCH   5   6
ATOM      6  O   UNL A   1      36.213  23.915  25.746  1.00  0.00    -0.458 OA
BRANCH   6   7
ATOM      7  C   UNL A   1      35.405  23.650  24.675  1.00  0.00     0.372 C 
ATOM      8  O   UNL A   1      35.851  23.530  23.536  1.00  0.00    -0.244 OA
BRANCH   7   9
ATOM      9  C   UNL A   1      33.847  23.536  25.027  1.00  0.00     0.221 C 
ATOM     10  C   UNL A   1      33.461  23.629  26.530  1.00  0.00     0.098 C 
BRANCH   9  11
ATOM     11  N   UNL A   1      33.149  24.712  24.348  1.00  0.00    -0.318 N 
ATOM     12  H   UNL A   1      32.798  24.263  23.501  1.00  0.00     0.349 HD
BRANCH  11  13
ATOM     13  C   UNL A   1      34.007  25.831  23.884  1.00  0.00     0.259 C 
ATOM     14  C   UNL A   1      33.779  27.253  24.389  1.00  0.00     0.071 C 
ENDBRANCH  11  13
BRANCH  11  15
ATOM     15  C   UNL A   1      32.027  25.263  25.144  1.00  0.00     0.259 C 
ATOM     16  C   UNL A   1      30.667  24.756  24.672  1.00  0.00     0.071 C 
ENDBRANCH  11  15
ENDBRANCH   9  11
BRANCH   9  17
ATOM     17  C   UNL A   1      33.448  22.142  24.422  1.00  0.00     0.062 A 
ATOM     18  C   UNL A   1      32.658  22.012  23.264  1.00  0.00     0.053 A 
ATOM     19  C   UNL A   1      33.777  20.936  25.080  1.00  0.00     0.133 A 
ATOM     20  C   UNL A   1      32.265  20.755  22.789  1.00  0.00     0.126 A 
ATOM     21  C   UNL A   1      33.378  19.680  24.600  1.00  0.00     0.046 A 
ATOM     22  F   UNL A   1      34.523  20.949  26.192  1.00  0.00    -0.206 F 
ATOM     23  F   UNL A   1      31.537  20.697  21.669  1.00  0.00    -0.207 F 
ATOM     24  C   UNL A   1      32.621  19.576  23.435  1.00  0.00    -0.012 A 
ATOM     25  C   UNL A   1      32.160  18.253  22.904  1.00  0.00     0.047 C 
ENDBRANCH   9  17
ENDBRANCH   7   9
ENDBRANCH   6   7
ENDBRANCH   5   6
ENDBRANCH   4   5
ENDBRANCH   3   4
ENDBRANCH   2   3
ENDBRANCH   1   2
BRANCH   1  26
ATOM     26  O   UNL A   1      42.826  21.492  26.139  1.00  0.00    -0.376 OA
BRANCH  26  27
ATOM     27  C   UNL A   1      42.965  22.604  25.270  1.00  0.00     0.202 C 
BRANCH  27  28
ATOM     28  C   UNL A   1      44.075  22.635  24.202  1.00  0.00     0.261 C 
BRANCH  28  29
ATOM     29  O   UNL A   1      44.983  23.746  24.246  1.00  0.00    -0.460 OA
BRANCH  29  30
ATOM     30  C   UNL A   1      45.907  23.764  25.244  1.00  0.00     0.338 C 
ATOM     31  O   UNL A   1      46.768  22.940  25.445  1.00  0.00    -0.246 OA
BRANCH  30  32
ATOM     32  C   UNL A   1      45.854  25.125  25.855  1.00  0.00     0.060 A 
ATOM     33  C   UNL A   1      45.286  26.162  25.105  1.00  0.00     0.016 A 
ATOM     34  C   UNL A   1      46.249  25.357  27.176  1.00  0.00     0.016 A 
ATOM     35  C   UNL A   1      45.091  27.420  25.684  1.00  0.00     0.010 A 
ATOM     36  C   UNL A   1      46.071  26.627  27.745  1.00  0.00     0.010 A 
ATOM     37  C   UNL A   1      45.480  27.666  27.008  1.00  0.00    -0.014 A 
BRANCH  37  38
ATOM     38  C   UNL A   1      45.373  29.036  27.578  1.00  0.00     0.031 A 
ATOM     39  C   UNL A   1      44.094  29.444  28.254  1.00  0.00     0.074 A 
ATOM     40  C   UNL A   1      46.384  29.922  27.491  1.00  0.00     0.049 A 
ATOM     41  N   UNL A   1      43.752  30.604  28.751  1.00  0.00    -0.248 NA
ATOM     42  C   UNL A   1      43.066  28.400  28.392  1.00  0.00     0.031 C 
ATOM     43  C   UNL A   1      47.701  29.651  26.916  1.00  0.00     0.029 A 
ATOM     44  N   UNL A   1      46.451  31.242  27.875  1.00  0.00    -0.354 N 
ATOM     45  C   UNL A   1      42.458  30.443  29.230  1.00  0.00     0.074 A 
ATOM     46  C   UNL A   1      42.088  29.064  28.989  1.00  0.00     0.031 C 
ATOM     47  C   UNL A   1      48.434  30.779  26.957  1.00  0.00     0.029 A 
ATOM     48  C   UNL A   1      47.631  31.861  27.528  1.00  0.00     0.049 A 
ATOM     49  H   UNL A   1      45.723  31.701  28.353  1.00  0.00     0.167 HD
ATOM     50  C   UNL A   1      41.642  31.358  29.803  1.00  0.00     0.034 A 
ATOM     51  C   UNL A   1      48.006  33.154  27.627  1.00  0.00     0.034 A 
ATOM     52  C   UNL A   1      41.983  32.736  30.022  1.00  0.00     0.049 A 
ATOM     53  C   UNL A   1      47.045  34.171  28.200  1.00  0.00     0.074 A 
ATOM     54  C   UNL A   1      41.210  33.731  30.593  1.00  0.00     0.029 A 
ATOM     55  N   UNL A   1      43.182  33.326  29.653  1.00  0.00    -0.354 N 
ATOM     56  N   UNL A   1      45.860  33.987  28.730  1.00  0.00    -0.248 NA
ATOM     57  C   UNL A   1      47.478  35.580  28.192  1.00  0.00     0.031 C 
ATOM     58  C   UNL A   1      41.923  34.932  30.531  1.00  0.00     0.029 A 
ATOM     59  C   UNL A   1      43.160  34.676  29.960  1.00  0.00     0.049 A 
ATOM     60  H   UNL A   1      43.938  32.854  29.234  1.00  0.00     0.167 HD
ATOM     61  C   UNL A   1      45.418  35.246  29.133  1.00  0.00     0.074 A 
ATOM     62  C   UNL A   1      46.477  36.181  28.820  1.00  0.00     0.031 C 
ATOM     63  C   UNL A   1      44.232  35.599  29.689  1.00  0.00     0.034 A 
BRANCH  50  64
ATOM     64  C   UNL A   1      40.269  30.894  30.203  1.00  0.00     0.023 A 
ATOM     65  C   UNL A   1      39.183  31.067  29.323  1.00  0.00     0.012 A 
ATOM     66  C   UNL A   1      40.065  30.260  31.445  1.00  0.00     0.148 A 
ATOM     67  C   UNL A   1      37.905  30.646  29.687  1.00  0.00     0.002 A 
ATOM     68  C   UNL A   1      38.798  29.804  31.782  1.00  0.00     0.091 A 
ATOM     69  F   UNL A   1      41.109  30.130  32.275  1.00  0.00    -0.205 F 
ATOM     70  C   UNL A   1      37.714  30.008  30.911  1.00  0.00     0.022 A 
BRANCH  68  71
ATOM     71  S   UNL A   1      38.466  28.909  33.302  1.00  0.00     0.127 S 
ATOM     72  O   UNL A   1      39.490  27.865  33.257  1.00  0.00    -0.237 OA
ATOM     73  O   UNL A   1      38.689  29.939  34.318  1.00  0.00    -0.237 OA
ATOM     74  O   UNL A   1      37.092  28.439  33.201  1.00  0.00    -0.744 OA
ENDBRANCH  68  71
ENDBRANCH  50  64
BRANCH  51  75
ATOM     75  C   UNL A   1      49.356  33.594  27.160  1.00  0.00     0.023 A 
ATOM     76  C   UNL A   1      49.527  34.028  25.830  1.00  0.00     0.012 A 
ATOM     77  C   UNL A   1      50.478  33.544  28.012  1.00  0.00     0.148 A 
ATOM     78  C   UNL A   1      50.792  34.370  25.349  1.00  0.00     0.002 A 
ATOM     79  C   UNL A   1      51.724  33.941  27.542  1.00  0.00     0.091 A 
ATOM     80  F   UNL A   1      50.305  33.097  29.263  1.00  0.00    -0.205 F 
ATOM     81  C   UNL A   1      51.888  34.338  26.207  1.00  0.00     0.022 A 
BRANCH  79  82
ATOM     82  S   UNL A   1      53.170  34.036  28.604  1.00  0.00     0.127 S 
ATOM     83  O   UNL A   1      52.675  34.849  29.712  1.00  0.00    -0.237 OA
ATOM     84  O   UNL A   1      53.397  32.627  28.926  1.00  0.00    -0.237 OA
ATOM     85  O   UNL A   1      54.215  34.646  27.792  1.00  0.00    -0.744 OA
ENDBRANCH  79  82
ENDBRANCH  51  75
BRANCH  63  86
ATOM     86  C   UNL A   1      44.003  37.055  30.019  1.00  0.00     0.023 A 
ATOM     87  C   UNL A   1      44.313  37.538  31.306  1.00  0.00     0.012 A 
ATOM     88  C   UNL A   1      43.569  37.961  29.031  1.00  0.00     0.148 A 
ATOM     89  C   UNL A   1      44.168  38.893  31.612  1.00  0.00     0.002 A 
ATOM     90  C   UNL A   1      43.474  39.316  29.328  1.00  0.00     0.091 A 
ATOM     91  F   UNL A   1      43.265  37.483  27.815  1.00  0.00    -0.205 F 
ATOM     92  C   UNL A   1      43.761  39.782  30.621  1.00  0.00     0.022 A 
BRANCH  90  93
ATOM     93  S   UNL A   1      43.052  40.553  28.094  1.00  0.00     0.127 S 
ATOM     94  O   UNL A   1      41.638  40.270  27.858  1.00  0.00    -0.237 OA
ATOM     95  O   UNL A   1      43.313  41.804  28.806  1.00  0.00    -0.237 OA
ATOM     96  O   UNL A   1      43.932  40.308  26.959  1.00  0.00    -0.744 OA
ENDBRANCH  90  93
ENDBRANCH  63  86
ENDBRANCH  37  38
ENDBRANCH  30  32
ENDBRANCH  29  30
ENDBRANCH  28  29
ENDBRANCH  27  28
ENDBRANCH  26  27
ENDBRANCH   1  26
TORSDOF 24
ENDMDL
MODEL 2
REMARK VINA RESULT:      -8.4      3.241      5.001
REMARK SMILES CC[NH+](CC)[C@](C)(C(=O)OCCOCCOCCOC(=O)c1ccc(-c2c3nc(c(-c4cccc(S(=O)(=O)[O-])c4F)c4ccc([nH]4)c(-c4cccc(S(=O)(=O)[O-])c4F)c4nc(c(-c5cccc(S(=O)(=O)[O-])c5F)c5ccc2[nH]5)C=C4)C=C3)cc1)c1cc(F)c(C)cc1F
REMARK SMILES IDX 15 1 14 2 13 3 12 4 11 5 10 6 8 7 9 8 6 9 7 10 3 11 2 13
REMARK SMILES IDX 1 14 4 15 5 16 85 17 86 18 92 19 87 20 91 21 93 22 88 23
REMARK SMILES IDX 89 24 90 25 16 26 17 27 18 28 19 29 20 30 21 31 22 32 23 33
REMARK SMILES IDX 84 34 24 35 83 36 25 37 26 38 27 39 77 40 28 41 82 42 76 43
REMARK SMILES IDX 78 44 29 45 81 46 75 47 74 48 30 50 62 51 42 52 61 53 43 54
REMARK SMILES IDX 46 55 60 56 79 57 44 58 45 59 59 61 80 62 47 63 31 64 32 65
REMARK SMILES IDX 40 66 33 67 35 68 41 69 34 70 36 71 37 72 38 73 39 74 63 75
REMARK SMILES IDX 64 76 72 77 65 78 67 79 73 80 66 81 68 82 69 83 70 84 71 85
REMARK SMILES IDX 48 86 49 87 57 88 50 89 52 90 58 91 51 92 53 93 54 94 55 95
REMARK SMILES IDX 56 96
REMARK H PARENT 3 12 78 49 46 60
REMARK Flexibility Score: inf
ROOT
ATOM      1  C   UNL A   1      40.455  21.275  26.996  1.00  0.00     0.188 C 
ENDROOT
BRANCH   1   2
ATOM      2  C   UNL A   1      39.359  21.841  26.089  1.00  0.00     0.188 C 
BRANCH   2   3
ATOM      3  O   UNL A   1      38.670  22.995  26.545  1.00  0.00    -0.376 OA
BRANCH   3   4
ATOM      4  C   UNL A   1      37.809  23.672  25.631  1.00  0.00     0.202 C 
BRANCH   4   5
ATOM      5  C   UNL A   1      36.287  23.617  25.853  1.00  0.00     0.261 C 
BRANCH   5   6
ATOM      6  O   UNL A   1      35.482  24.011  24.715  1.00  0.00    -0.458 OA
BRANCH   6   7
ATOM      7  C   UNL A   1      34.181  24.323  24.995  1.00  0.00     0.372 C 
ATOM      8  O   UNL A   1      33.866  24.971  25.992  1.00  0.00    -0.244 OA
BRANCH   7   9
ATOM      9  C   UNL A   1      33.116  23.757  23.942  1.00  0.00     0.221 C 
ATOM     10  C   UNL A   1      33.680  23.240  22.588  1.00  0.00     0.098 C 
BRANCH   9  11
ATOM     11  N   UNL A   1      32.439  22.555  24.594  1.00  0.00    -0.318 N 
ATOM     12  H   UNL A   1      31.491  22.647  24.228  1.00  0.00     0.349 HD
BRANCH  11  13
ATOM     13  C   UNL A   1      32.303  22.574  26.072  1.00  0.00     0.259 C 
ATOM     14  C   UNL A   1      31.023  23.079  26.733  1.00  0.00     0.071 C 
ENDBRANCH  11  13
BRANCH  11  15
ATOM     15  C   UNL A   1      33.029  21.259  24.182  1.00  0.00     0.259 C 
ATOM     16  C   UNL A   1      33.864  20.616  25.285  1.00  0.00     0.071 C 
ENDBRANCH  11  15
ENDBRANCH   9  11
BRANCH   9  17
ATOM     17  C   UNL A   1      32.148  24.976  23.727  1.00  0.00     0.062 A 
ATOM     18  C   UNL A   1      32.563  26.313  23.878  1.00  0.00     0.053 A 
ATOM     19  C   UNL A   1      30.772  24.785  23.474  1.00  0.00     0.133 A 
ATOM     20  C   UNL A   1      31.661  27.375  23.745  1.00  0.00     0.126 A 
ATOM     21  C   UNL A   1      29.872  25.852  23.345  1.00  0.00     0.046 A 
ATOM     22  F   UNL A   1      30.273  23.552  23.318  1.00  0.00    -0.206 F 
ATOM     23  F   UNL A   1      32.122  28.623  23.873  1.00  0.00    -0.207 F 
ATOM     24  C   UNL A   1      30.312  27.169  23.469  1.00  0.00    -0.012 A 
ATOM     25  C   UNL A   1      29.376  28.333  23.356  1.00  0.00     0.047 C 
ENDBRANCH   9  17
ENDBRANCH   7   9
ENDBRANCH   6   7
ENDBRANCH   5   6
ENDBRANCH   4   5
ENDBRANCH   3   4
ENDBRANCH   2   3
ENDBRANCH   1   2
BRANCH   1  26
ATOM     26  O   UNL A   1      40.749  19.905  26.816  1.00  0.00    -0.376 OA
BRANCH  26  27
ATOM     27  C   UNL A   1      41.680  19.533  25.814  1.00  0.00     0.202 C 
BRANCH  27  28
ATOM     28  C   UNL A   1      43.178  19.856  25.970  1.00  0.00     0.261 C 
BRANCH  28  29
ATOM     29  O   UNL A   1      44.077  19.217  25.051  1.00  0.00    -0.460 OA
BRANCH  29  30
ATOM     30  C   UNL A   1      44.584  19.972  24.041  1.00  0.00     0.338 C 
ATOM     31  O   UNL A   1      44.527  19.728  22.859  1.00  0.00    -0.246 OA
BRANCH  30  32
ATOM     32  C   UNL A   1      44.957  21.291  24.633  1.00  0.00     0.060 A 
ATOM     33  C   UNL A   1      44.681  22.446  23.891  1.00  0.00     0.016 A 
ATOM     34  C   UNL A   1      45.461  21.402  25.932  1.00  0.00     0.016 A 
ATOM     35  C   UNL A   1      44.887  23.708  24.457  1.00  0.00     0.010 A 
ATOM     36  C   UNL A   1      45.686  22.670  26.488  1.00  0.00     0.010 A 
ATOM     37  C   UNL A   1      45.391  23.834  25.760  1.00  0.00    -0.014 A 
BRANCH  37  38
ATOM     38  C   UNL A   1      45.712  25.177  26.313  1.00  0.00     0.031 A 
ATOM     39  C   UNL A   1      44.587  26.062  26.773  1.00  0.00     0.074 A 
ATOM     40  C   UNL A   1      46.980  25.625  26.396  1.00  0.00     0.049 A 
ATOM     41  N   UNL A   1      44.627  27.292  27.214  1.00  0.00    -0.248 NA
ATOM     42  C   UNL A   1      43.238  25.476  26.736  1.00  0.00     0.031 C 
ATOM     43  C   UNL A   1      48.174  24.860  26.042  1.00  0.00     0.029 A 
ATOM     44  N   UNL A   1      47.471  26.849  26.793  1.00  0.00    -0.354 N 
ATOM     45  C   UNL A   1      43.309  27.643  27.474  1.00  0.00     0.074 A 
ATOM     46  C   UNL A   1      42.496  26.485  27.169  1.00  0.00     0.031 C 
ATOM     47  C   UNL A   1      49.257  25.641  26.208  1.00  0.00     0.029 A 
ATOM     48  C   UNL A   1      48.835  26.972  26.647  1.00  0.00     0.049 A 
ATOM     49  H   UNL A   1      46.900  27.568  27.149  1.00  0.00     0.167 HD
ATOM     50  C   UNL A   1      42.812  28.824  27.911  1.00  0.00     0.034 A 
ATOM     51  C   UNL A   1      49.642  28.042  26.813  1.00  0.00     0.034 A 
ATOM     52  C   UNL A   1      43.601  29.991  28.191  1.00  0.00     0.049 A 
ATOM     53  C   UNL A   1      49.049  29.370  27.227  1.00  0.00     0.074 A 
ATOM     54  C   UNL A   1      43.173  31.230  28.633  1.00  0.00     0.029 A 
ATOM     55  N   UNL A   1      44.974  30.080  28.026  1.00  0.00    -0.354 N 
ATOM     56  N   UNL A   1      47.814  29.662  27.556  1.00  0.00    -0.248 NA
ATOM     57  C   UNL A   1      49.969  30.519  27.297  1.00  0.00     0.031 C 
ATOM     58  C   UNL A   1      44.281  32.081  28.695  1.00  0.00     0.029 A 
ATOM     59  C   UNL A   1      45.407  31.359  28.332  1.00  0.00     0.049 A 
ATOM     60  H   UNL A   1      45.557  29.342  27.733  1.00  0.00     0.167 HD
ATOM     61  C   UNL A   1      47.814  31.015  27.888  1.00  0.00     0.074 A 
ATOM     62  C   UNL A   1      49.178  31.479  27.757  1.00  0.00     0.031 C 
ATOM     63  C   UNL A   1      46.772  31.808  28.244  1.00  0.00     0.034 A 
BRANCH  50  64
ATOM     64  C   UNL A   1      41.320  28.917  28.080  1.00  0.00     0.023 A 
ATOM     65  C   UNL A   1      40.493  29.077  26.951  1.00  0.00     0.012 A 
ATOM     66  C   UNL A   1      40.741  28.818  29.360  1.00  0.00     0.148 A 
ATOM     67  C   UNL A   1      39.110  29.172  27.097  1.00  0.00     0.002 A 
ATOM     68  C   UNL A   1      39.360  28.869  29.493  1.00  0.00     0.091 A 
ATOM     69  F   UNL A   1      41.551  28.691  30.420  1.00  0.00    -0.205 F 
ATOM     70  C   UNL A   1      38.543  29.059  28.365  1.00  0.00     0.022 A 
BRANCH  68  71
ATOM     71  S   UNL A   1      38.533  28.661  31.073  1.00  0.00     0.127 S 
ATOM     72  O   UNL A   1      37.149  28.980  30.724  1.00  0.00    -0.237 OA
ATOM     73  O   UNL A   1      38.780  27.249  31.364  1.00  0.00    -0.237 OA
ATOM     74  O   UNL A   1      39.175  29.594  31.988  1.00  0.00    -0.744 OA
ENDBRANCH  68  71
ENDBRANCH  50  64
BRANCH  51  75
ATOM     75  C   UNL A   1      51.113  27.930  26.575  1.00  0.00     0.023 A 
ATOM     76  C   UNL A   1      51.994  27.865  27.673  1.00  0.00     0.012 A 
ATOM     77  C   UNL A   1      51.646  27.931  25.270  1.00  0.00     0.148 A 
ATOM     78  C   UNL A   1      53.376  27.838  27.477  1.00  0.00     0.002 A 
ATOM     79  C   UNL A   1      53.021  27.844  25.082  1.00  0.00     0.091 A 
ATOM     80  F   UNL A   1      50.797  28.026  24.238  1.00  0.00    -0.205 F 
ATOM     81  C   UNL A   1      53.889  27.816  26.184  1.00  0.00     0.022 A 
BRANCH  79  82
ATOM     82  S   UNL A   1      53.765  27.702  23.453  1.00  0.00     0.127 S 
ATOM     83  O   UNL A   1      53.363  28.961  22.830  1.00  0.00    -0.237 OA
ATOM     84  O   UNL A   1      55.187  27.602  23.781  1.00  0.00    -0.237 OA
ATOM     85  O   UNL A   1      53.194  26.497  22.864  1.00  0.00    -0.744 OA
ENDBRANCH  79  82
ENDBRANCH  51  75
BRANCH  63  86
ATOM     86  C   UNL A   1      47.051  33.263  28.541  1.00  0.00     0.023 A 
ATOM     87  C   UNL A   1      47.449  33.650  29.837  1.00  0.00     0.012 A 
ATOM     88  C   UNL A   1      47.008  34.231  27.518  1.00  0.00     0.148 A 
ATOM     89  C   UNL A   1      47.772  34.979  30.115  1.00  0.00     0.002 A 
ATOM     90  C   UNL A   1      47.379  35.543  27.790  1.00  0.00     0.091 A 
ATOM     91  F   UNL A   1      46.614  33.849  26.294  1.00  0.00    -0.205 F 
ATOM     92  C   UNL A   1      47.749  35.922  29.090  1.00  0.00     0.022 A 
BRANCH  90  93
ATOM     93  S   UNL A   1      47.474  36.808  26.517  1.00  0.00     0.127 S 
ATOM     94  O   UNL A   1      48.183  37.880  27.212  1.00  0.00    -0.237 OA
ATOM     95  O   UNL A   1      48.251  36.140  25.473  1.00  0.00    -0.237 OA
ATOM     96  O   UNL A   1      46.098  37.113  26.146  1.00  0.00    -0.744 OA
ENDBRANCH  90  93
ENDBRANCH  63  86
ENDBRANCH  37  38
ENDBRANCH  30  32
ENDBRANCH  29  30
ENDBRANCH  28  29
ENDBRANCH  27  28
ENDBRANCH  26  27
ENDBRANCH   1  26
TORSDOF 24
ENDMDL
MODEL 3
REMARK VINA RESULT:      -8.3      3.183      8.622
REMARK SMILES CC[NH+](CC)[C@](C)(C(=O)OCCOCCOCCOC(=O)c1ccc(-c2c3nc(c(-c4cccc(S(=O)(=O)[O-])c4F)c4ccc([nH]4)c(-c4cccc(S(=O)(=O)[O-])c4F)c4nc(c(-c5cccc(S(=O)(=O)[O-])c5F)c5ccc2[nH]5)C=C4)C=C3)cc1)c1cc(F)c(C)cc1F
REMARK SMILES IDX 15 1 14 2 13 3 12 4 11 5 10 6 8 7 9 8 6 9 7 10 3 11 2 13
REMARK SMILES IDX 1 14 4 15 5 16 85 17 86 18 92 19 87 20 91 21 93 22 88 23
REMARK SMILES IDX 89 24 90 25 16 26 17 27 18 28 19 29 20 30 21 31 22 32 23 33
REMARK SMILES IDX 84 34 24 35 83 36 25 37 26 38 27 39 77 40 28 41 82 42 76 43
REMARK SMILES IDX 78 44 29 45 81 46 75 47 74 48 30 50 62 51 42 52 61 53 43 54
REMARK SMILES IDX 46 55 60 56 79 57 44 58 45 59 59 61 80 62 47 63 31 64 32 65
REMARK SMILES IDX 40 66 33 67 35 68 41 69 34 70 36 71 37 72 38 73 39 74 63 75
REMARK SMILES IDX 64 76 72 77 65 78 67 79 73 80 66 81 68 82 69 83 70 84 71 85
REMARK SMILES IDX 48 86 49 87 57 88 50 89 52 90 58 91 51 92 53 93 54 94 55 95
REMARK SMILES IDX 56 96
REMARK H PARENT 3 12 78 49 46 60
REMARK Flexibility Score: inf
ROOT
ATOM      1  C   UNL A   1      33.784  32.133  28.073  1.00  0.00     0.188 C 
ENDROOT
BRANCH   1   2
ATOM      2  C   UNL A   1      33.847  30.656  27.675  1.00  0.00     0.188 C 
BRANCH   2   3
ATOM      3  O   UNL A   1      32.708  30.108  27.029  1.00  0.00    -0.376 OA
BRANCH   3   4
ATOM      4  C   UNL A   1      32.411  28.729  27.241  1.00  0.00     0.202 C 
BRANCH   4   5
ATOM      5  C   UNL A   1      33.209  27.662  26.471  1.00  0.00     0.261 C 
BRANCH   5   6
ATOM      6  O   UNL A   1      32.412  26.634  25.833  1.00  0.00    -0.458 OA
BRANCH   6   7
ATOM      7  C   UNL A   1      33.062  25.886  24.892  1.00  0.00     0.372 C 
ATOM      8  O   UNL A   1      34.277  25.699  24.934  1.00  0.00    -0.244 OA
BRANCH   7   9
ATOM      9  C   UNL A   1      32.122  25.303  23.734  1.00  0.00     0.221 C 
ATOM     10  C   UNL A   1      32.804  24.994  22.371  1.00  0.00     0.098 C 
BRANCH   9  11
ATOM     11  N   UNL A   1      31.574  23.969  24.234  1.00  0.00    -0.318 N 
ATOM     12  H   UNL A   1      30.572  24.165  24.242  1.00  0.00     0.349 HD
BRANCH  11  13
ATOM     13  C   UNL A   1      31.917  23.575  25.623  1.00  0.00     0.259 C 
ATOM     14  C   UNL A   1      30.838  23.476  26.698  1.00  0.00     0.071 C 
ENDBRANCH  11  13
BRANCH  11  15
ATOM     15  C   UNL A   1      31.872  22.838  23.324  1.00  0.00     0.259 C 
ATOM     16  C   UNL A   1      32.518  21.659  24.045  1.00  0.00     0.071 C 
ENDBRANCH  11  15
ENDBRANCH   9  11
BRANCH   9  17
ATOM     17  C   UNL A   1      31.020  26.412  23.581  1.00  0.00     0.062 A 
ATOM     18  C   UNL A   1      29.667  26.189  23.897  1.00  0.00     0.053 A 
ATOM     19  C   UNL A   1      31.318  27.669  23.010  1.00  0.00     0.133 A 
ATOM     20  C   UNL A   1      28.697  27.177  23.686  1.00  0.00     0.126 A 
ATOM     21  C   UNL A   1      30.343  28.654  22.798  1.00  0.00     0.046 A 
ATOM     22  F   UNL A   1      32.576  27.981  22.670  1.00  0.00    -0.206 F 
ATOM     23  F   UNL A   1      27.433  26.913  24.032  1.00  0.00    -0.207 F 
ATOM     24  C   UNL A   1      29.013  28.419  23.147  1.00  0.00    -0.012 A 
ATOM     25  C   UNL A   1      27.941  29.441  22.917  1.00  0.00     0.047 C 
ENDBRANCH   9  17
ENDBRANCH   7   9
ENDBRANCH   6   7
ENDBRANCH   5   6
ENDBRANCH   4   5
ENDBRANCH   3   4
ENDBRANCH   2   3
ENDBRANCH   1   2
BRANCH   1  26
ATOM     26  O   UNL A   1      35.030  32.756  28.304  1.00  0.00    -0.376 OA
BRANCH  26  27
ATOM     27  C   UNL A   1      35.333  33.209  29.614  1.00  0.00     0.202 C 
BRANCH  27  28
ATOM     28  C   UNL A   1      35.488  32.211  30.776  1.00  0.00     0.261 C 
BRANCH  28  29
ATOM     29  O   UNL A   1      36.001  30.911  30.448  1.00  0.00    -0.460 OA
BRANCH  29  30
ATOM     30  C   UNL A   1      36.799  30.299  31.363  1.00  0.00     0.338 C 
ATOM     31  O   UNL A   1      36.476  29.423  32.130  1.00  0.00    -0.246 OA
BRANCH  30  32
ATOM     32  C   UNL A   1      38.203  30.693  31.043  1.00  0.00     0.060 A 
ATOM     33  C   UNL A   1      38.614  30.635  29.706  1.00  0.00     0.016 A 
ATOM     34  C   UNL A   1      39.063  31.215  32.014  1.00  0.00     0.016 A 
ATOM     35  C   UNL A   1      39.873  31.120  29.339  1.00  0.00     0.010 A 
ATOM     36  C   UNL A   1      40.333  31.681  31.644  1.00  0.00     0.010 A 
ATOM     37  C   UNL A   1      40.745  31.648  30.301  1.00  0.00    -0.014 A 
BRANCH  37  38
ATOM     38  C   UNL A   1      42.124  32.057  29.920  1.00  0.00     0.031 A 
ATOM     39  C   UNL A   1      42.399  33.507  29.635  1.00  0.00     0.074 A 
ATOM     40  C   UNL A   1      43.124  31.162  29.809  1.00  0.00     0.049 A 
ATOM     41  N   UNL A   1      43.498  34.076  29.214  1.00  0.00    -0.248 NA
ATOM     42  C   UNL A   1      41.284  34.440  29.861  1.00  0.00     0.031 C 
ATOM     43  C   UNL A   1      43.022  29.735  30.108  1.00  0.00     0.029 A 
ATOM     44  N   UNL A   1      44.427  31.325  29.395  1.00  0.00    -0.354 N 
ATOM     45  C   UNL A   1      43.202  35.427  29.090  1.00  0.00     0.074 A 
ATOM     46  C   UNL A   1      41.826  35.596  29.509  1.00  0.00     0.031 C 
ATOM     47  C   UNL A   1      44.202  29.148  29.838  1.00  0.00     0.029 A 
ATOM     48  C   UNL A   1      45.135  30.146  29.315  1.00  0.00     0.049 A 
ATOM     49  H   UNL A   1      44.816  32.203  29.176  1.00  0.00     0.167 HD
ATOM     50  C   UNL A   1      43.991  36.436  28.654  1.00  0.00     0.034 A 
ATOM     51  C   UNL A   1      46.375  29.898  28.843  1.00  0.00     0.034 A 
ATOM     52  C   UNL A   1      45.347  36.279  28.208  1.00  0.00     0.049 A 
ATOM     53  C   UNL A   1      47.206  31.033  28.289  1.00  0.00     0.074 A 
ATOM     54  C   UNL A   1      46.216  37.253  27.745  1.00  0.00     0.029 A 
ATOM     55  N   UNL A   1      46.026  35.074  28.136  1.00  0.00    -0.354 N 
ATOM     56  N   UNL A   1      46.946  32.317  28.262  1.00  0.00    -0.248 NA
ATOM     57  C   UNL A   1      48.512  30.680  27.702  1.00  0.00     0.031 C 
ATOM     58  C   UNL A   1      47.404  36.629  27.352  1.00  0.00     0.029 A 
ATOM     59  C   UNL A   1      47.292  35.273  27.611  1.00  0.00     0.049 A 
ATOM     60  H   UNL A   1      45.662  34.203  28.416  1.00  0.00     0.167 HD
ATOM     61  C   UNL A   1      48.056  32.923  27.677  1.00  0.00     0.074 A 
ATOM     62  C   UNL A   1      49.009  31.871  27.397  1.00  0.00     0.031 C 
ATOM     63  C   UNL A   1      48.257  34.230  27.375  1.00  0.00     0.034 A 
BRANCH  50  64
ATOM     64  C   UNL A   1      43.381  37.809  28.606  1.00  0.00     0.023 A 
ATOM     65  C   UNL A   1      42.615  38.200  27.489  1.00  0.00     0.012 A 
ATOM     66  C   UNL A   1      43.546  38.701  29.683  1.00  0.00     0.148 A 
ATOM     67  C   UNL A   1      42.051  39.474  27.431  1.00  0.00     0.002 A 
ATOM     68  C   UNL A   1      42.944  39.951  29.638  1.00  0.00     0.091 A 
ATOM     69  F   UNL A   1      44.299  38.314  30.722  1.00  0.00    -0.205 F 
ATOM     70  C   UNL A   1      42.207  40.345  28.508  1.00  0.00     0.022 A 
BRANCH  68  71
ATOM     71  S   UNL A   1      43.028  41.114  31.002  1.00  0.00     0.127 S 
ATOM     72  O   UNL A   1      41.944  42.037  30.669  1.00  0.00    -0.237 OA
ATOM     73  O   UNL A   1      42.764  40.252  32.155  1.00  0.00    -0.237 OA
ATOM     74  O   UNL A   1      44.367  41.685  30.963  1.00  0.00    -0.744 OA
ENDBRANCH  68  71
ENDBRANCH  50  64
BRANCH  51  75
ATOM     75  C   UNL A   1      46.927  28.509  28.847  1.00  0.00     0.023 A 
ATOM     76  C   UNL A   1      47.646  28.048  29.969  1.00  0.00     0.012 A 
ATOM     77  C   UNL A   1      46.783  27.660  27.732  1.00  0.00     0.148 A 
ATOM     78  C   UNL A   1      48.237  26.783  29.966  1.00  0.00     0.002 A 
ATOM     79  C   UNL A   1      47.324  26.380  27.760  1.00  0.00     0.091 A 
ATOM     80  F   UNL A   1      46.126  28.125  26.661  1.00  0.00    -0.205 F 
ATOM     81  C   UNL A   1      48.067  25.946  28.868  1.00  0.00     0.022 A 
BRANCH  79  82
ATOM     82  S   UNL A   1      47.064  25.193  26.436  1.00  0.00     0.127 S 
ATOM     83  O   UNL A   1      47.249  23.923  27.133  1.00  0.00    -0.237 OA
ATOM     84  O   UNL A   1      45.686  25.485  26.040  1.00  0.00    -0.237 OA
ATOM     85  O   UNL A   1      48.064  25.509  25.423  1.00  0.00    -0.744 OA
ENDBRANCH  79  82
ENDBRANCH  51  75
BRANCH  63  86
ATOM     86  C   UNL A   1      49.562  34.620  26.721  1.00  0.00     0.023 A 
ATOM     87  C   UNL A   1      49.644  34.705  25.316  1.00  0.00     0.012 A 
ATOM     88  C   UNL A   1      50.678  34.992  27.498  1.00  0.00     0.148 A 
ATOM     89  C   UNL A   1      50.823  35.124  24.696  1.00  0.00     0.002 A 
ATOM     90  C   UNL A   1      51.832  35.456  26.876  1.00  0.00     0.091 A 
ATOM     91  F   UNL A   1      50.588  34.893  28.832  1.00  0.00    -0.205 F 
ATOM     92  C   UNL A   1      51.910  35.511  25.475  1.00  0.00     0.022 A 
BRANCH  90  93
ATOM     93  S   UNL A   1      53.250  36.068  27.794  1.00  0.00     0.127 S 
ATOM     94  O   UNL A   1      54.287  35.108  27.418  1.00  0.00    -0.237 OA
ATOM     95  O   UNL A   1      53.428  37.407  27.234  1.00  0.00    -0.237 OA
ATOM     96  O   UNL A   1      52.863  36.045  29.198  1.00  0.00    -0.744 OA
ENDBRANCH  90  93
ENDBRANCH  63  86
ENDBRANCH  37  38
ENDBRANCH  30  32
ENDBRANCH  29  30
ENDBRANCH  28  29
ENDBRANCH  27  28
ENDBRANCH  26  27
ENDBRANCH   1  26
TORSDOF 24
ENDMDL
