MODEL 1
REMARK VINA RESULT:     -10.8      0.000      0.000
REMARK SMILES O=C(OCCOCCOCCOC(=O)c1ccc(-c2c3nc(c(-c4cccc(S(=O)(=O)[O-])c4F)c4ccc([nH]4)c(-c4cccc(S(=O)(=O)[O-])c4F)c4nc(c(-c5cccc(S(=O)(=O)[O-])c5F)c5ccc2[nH]5)C=C4)C=C3)cc1)C1=Cc2cc(S(F)(F)(F)(F)F)ccc2O[C@H]1C(F)(F)F
REMARK SMILES IDX 8 1 7 2 6 3 5 4 4 5 3 6 2 7 1 8 78 9 79 10 93 11 80 12 92 13
REMARK SMILES IDX 81 14 91 15 82 16 90 17 89 18 94 19 95 20 96 21 97 22 83 23
REMARK SMILES IDX 84 24 85 25 86 26 87 27 88 28 9 29 10 30 11 31 12 32 13 33
REMARK SMILES IDX 14 34 15 35 16 36 77 37 17 38 76 39 18 40 19 41 20 42 70 43
REMARK SMILES IDX 21 44 75 45 69 46 71 47 22 48 74 49 68 50 67 51 23 53 55 54
REMARK SMILES IDX 35 55 54 56 36 57 39 58 53 59 72 60 37 61 38 62 52 64 73 65
REMARK SMILES IDX 40 66 24 67 25 68 33 69 26 70 28 71 34 72 27 73 29 74 30 75
REMARK SMILES IDX 31 76 32 77 56 78 57 79 65 80 58 81 60 82 66 83 59 84 61 85
REMARK SMILES IDX 62 86 63 87 64 88 41 89 42 90 50 91 43 92 45 93 51 94 44 95
REMARK SMILES IDX 46 96 47 97 48 98 49 99
REMARK H PARENT 71 52 39 63
REMARK Flexibility Score: inf
ROOT
ATOM      1  C   UNL A   1      33.219  32.548  27.509  1.00  0.00     0.188 C 
ENDROOT
BRANCH   1   2
ATOM      2  C   UNL A   1      33.989  31.238  27.470  1.00  0.00     0.188 C 
BRANCH   2   3
ATOM      3  O   UNL A   1      33.416  30.381  26.493  1.00  0.00    -0.376 OA
BRANCH   3   4
ATOM      4  C   UNL A   1      32.540  29.460  27.127  1.00  0.00     0.202 C 
BRANCH   4   5
ATOM      5  C   UNL A   1      32.995  28.041  26.831  1.00  0.00     0.261 C 
BRANCH   5   6
ATOM      6  O   UNL A   1      32.957  27.814  25.430  1.00  0.00    -0.460 OA
BRANCH   6   7
ATOM      7  C   UNL A   1      31.849  27.142  24.849  1.00  0.00     0.338 C 
ATOM      8  O   UNL A   1      30.786  26.969  25.525  1.00  0.00    -0.246 OA
BRANCH   7   9
ATOM      9  C   UNL A   1      31.934  26.629  23.421  1.00  0.00     0.087 C 
ATOM     10  C   UNL A   1      32.684  25.532  23.136  1.00  0.00     0.027 C 
ATOM     11  C   UNL A   1      31.181  27.345  22.311  1.00  0.00     0.316 C 
ATOM     12  C   UNL A   1      33.438  24.817  24.246  1.00  0.00     0.019 A 
ATOM     13  O   UNL A   1      31.440  25.136  25.494  1.00  0.00    -0.475 OA
ATOM     14  C   UNL A   1      34.771  24.457  24.143  1.00  0.00     0.036 A 
ATOM     15  C   UNL A   1      32.753  24.610  25.365  1.00  0.00     0.128 A 
ATOM     16  C   UNL A   1      35.220  23.614  25.187  1.00  0.00     0.107 A 
ATOM     17  C   UNL A   1      33.304  23.894  26.400  1.00  0.00     0.048 A 
ATOM     18  C   UNL A   1      34.598  23.456  26.342  1.00  0.00     0.028 A 
BRANCH  11  19
ATOM     19  C   UNL A   1      30.426  28.530  22.892  1.00  0.00     0.430 C 
ATOM     20  F   UNL A   1      31.326  29.216  23.591  1.00  0.00    -0.167 F 
ATOM     21  F   UNL A   1      29.974  29.281  21.892  1.00  0.00    -0.167 F 
ATOM     22  F   UNL A   1      29.414  28.190  23.685  1.00  0.00    -0.167 F 
ENDBRANCH  11  19
BRANCH  16  23
ATOM     23  S   UNL A   1      36.753  22.690  24.923  1.00  0.00     0.310 S 
ATOM     24  F   UNL A   1      37.018  23.400  23.529  1.00  0.00    -0.094 F 
ATOM     25  F   UNL A   1      35.929  21.602  24.134  1.00  0.00    -0.094 F 
ATOM     26  F   UNL A   1      38.071  21.895  24.698  1.00  0.00    -0.094 F 
ATOM     27  F   UNL A   1      37.581  23.856  25.592  1.00  0.00    -0.094 F 
ATOM     28  F   UNL A   1      35.442  23.561  25.060  1.00  0.00    -0.094 F 
ENDBRANCH  16  23
ENDBRANCH   7   9
ENDBRANCH   6   7
ENDBRANCH   5   6
ENDBRANCH   4   5
ENDBRANCH   3   4
ENDBRANCH   2   3
ENDBRANCH   1   2
BRANCH   1  29
ATOM     29  O   UNL A   1      33.601  33.287  28.660  1.00  0.00    -0.376 OA
BRANCH  29  30
ATOM     30  C   UNL A   1      34.041  34.579  28.270  1.00  0.00     0.202 C 
BRANCH  30  31
ATOM     31  C   UNL A   1      33.286  35.632  29.063  1.00  0.00     0.261 C 
BRANCH  31  32
ATOM     32  O   UNL A   1      32.526  35.003  30.084  1.00  0.00    -0.460 OA
BRANCH  32  33
ATOM     33  C   UNL A   1      32.958  35.071  31.435  1.00  0.00     0.338 C 
ATOM     34  O   UNL A   1      32.220  35.623  32.311  1.00  0.00    -0.246 OA
BRANCH  33  35
ATOM     35  C   UNL A   1      34.301  34.484  31.834  1.00  0.00     0.060 A 
ATOM     36  C   UNL A   1      35.491  35.088  31.464  1.00  0.00     0.016 A 
ATOM     37  C   UNL A   1      34.287  33.299  32.435  1.00  0.00     0.016 A 
ATOM     38  C   UNL A   1      36.612  34.225  31.514  1.00  0.00     0.010 A 
ATOM     39  C   UNL A   1      35.444  32.570  32.570  1.00  0.00     0.010 A 
ATOM     40  C   UNL A   1      36.648  33.081  32.173  1.00  0.00    -0.014 A 
BRANCH  40  41
ATOM     41  C   UNL A   1      37.958  32.372  32.473  1.00  0.00     0.031 A 
ATOM     42  C   UNL A   1      38.541  32.738  33.687  1.00  0.00     0.074 A 
ATOM     43  C   UNL A   1      38.428  31.350  31.665  1.00  0.00     0.049 A 
ATOM     44  N   UNL A   1      39.591  32.175  34.289  1.00  0.00    -0.248 NA
ATOM     45  C   UNL A   1      38.065  33.844  34.531  1.00  0.00     0.031 C 
ATOM     46  C   UNL A   1      37.841  30.970  30.444  1.00  0.00     0.029 A 
ATOM     47  N   UNL A   1      39.517  30.535  31.881  1.00  0.00    -0.354 N 
ATOM     48  C   UNL A   1      39.844  32.788  35.446  1.00  0.00     0.074 A 
ATOM     49  C   UNL A   1      38.869  33.875  35.616  1.00  0.00     0.031 C 
ATOM     50  C   UNL A   1      38.571  29.948  29.925  1.00  0.00     0.029 A 
ATOM     51  C   UNL A   1      39.627  29.672  30.814  1.00  0.00     0.049 A 
ATOM     52  H   UNL A   1      40.113  30.564  32.664  1.00  0.00     0.167 HD
ATOM     53  C   UNL A   1      40.845  32.483  36.368  1.00  0.00     0.034 A 
ATOM     54  C   UNL A   1      40.587  28.695  30.608  1.00  0.00     0.034 A 
ATOM     55  C   UNL A   1      41.780  31.476  36.183  1.00  0.00     0.049 A 
ATOM     56  C   UNL A   1      41.626  28.428  31.503  1.00  0.00     0.074 A 
ATOM     57  C   UNL A   1      42.792  31.151  37.106  1.00  0.00     0.029 A 
ATOM     58  N   UNL A   1      41.905  30.630  35.103  1.00  0.00    -0.354 N 
ATOM     59  N   UNL A   1      41.853  29.014  32.680  1.00  0.00    -0.248 NA
ATOM     60  C   UNL A   1      42.668  27.416  31.279  1.00  0.00     0.031 C 
ATOM     61  C   UNL A   1      43.523  30.128  36.586  1.00  0.00     0.029 A 
ATOM     62  C   UNL A   1      42.980  29.799  35.330  1.00  0.00     0.049 A 
ATOM     63  H   UNL A   1      41.325  30.620  34.307  1.00  0.00     0.167 HD
ATOM     64  C   UNL A   1      42.929  28.478  33.259  1.00  0.00     0.074 A 
ATOM     65  C   UNL A   1      43.473  27.447  32.365  1.00  0.00     0.031 C 
ATOM     66  C   UNL A   1      43.477  28.806  34.501  1.00  0.00     0.034 A 
BRANCH  53  67
ATOM     67  C   UNL A   1      40.917  33.301  37.648  1.00  0.00     0.023 A 
ATOM     68  C   UNL A   1      41.880  34.280  37.824  1.00  0.00     0.012 A 
ATOM     69  C   UNL A   1      40.048  33.008  38.609  1.00  0.00     0.148 A 
ATOM     70  C   UNL A   1      42.031  34.701  39.166  1.00  0.00     0.002 A 
ATOM     71  C   UNL A   1      40.176  33.561  39.860  1.00  0.00     0.091 A 
ATOM     72  F   UNL A   1      39.044  32.173  38.357  1.00  0.00    -0.205 F 
ATOM     73  C   UNL A   1      41.142  34.492  40.122  1.00  0.00     0.022 A 
BRANCH  71  74
ATOM     74  S   UNL A   1      39.050  33.050  41.181  1.00  0.00     0.127 S 
ATOM     75  O   UNL A   1      39.398  33.802  42.468  1.00  0.00    -0.237 OA
ATOM     76  O   UNL A   1      37.609  33.370  40.776  1.00  0.00    -0.237 OA
ATOM     77  O   UNL A   1      39.207  31.367  41.445  1.00  0.00    -0.744 OA
ENDBRANCH  71  74
ENDBRANCH  53  67
BRANCH  54  78
ATOM     78  C   UNL A   1      40.506  27.866  29.336  1.00  0.00     0.023 A 
ATOM     79  C   UNL A   1      39.610  26.810  29.321  1.00  0.00     0.012 A 
ATOM     80  C   UNL A   1      41.243  28.159  28.272  1.00  0.00     0.148 A 
ATOM     81  C   UNL A   1      39.775  25.935  28.221  1.00  0.00     0.002 A 
ATOM     82  C   UNL A   1      41.252  27.329  27.177  1.00  0.00     0.091 A 
ATOM     83  F   UNL A   1      41.981  29.266  28.265  1.00  0.00    -0.205 F 
ATOM     84  C   UNL A   1      40.436  26.234  27.118  1.00  0.00     0.022 A 
BRANCH  82  85
ATOM     85  S   UNL A   1      42.360  27.691  25.792  1.00  0.00     0.127 S 
ATOM     86  O   UNL A   1      42.315  26.536  24.789  1.00  0.00    -0.237 OA
ATOM     87  O   UNL A   1      41.913  28.982  25.104  1.00  0.00    -0.237 OA
ATOM     88  O   UNL A   1      43.957  27.878  26.373  1.00  0.00    -0.744 OA
ENDBRANCH  82  85
ENDBRANCH  54  78
BRANCH  66  89
ATOM     89  C   UNL A   1      44.692  28.024  34.973  1.00  0.00     0.023 A 
ATOM     90  C   UNL A   1      45.983  28.395  34.635  1.00  0.00     0.012 A 
ATOM     91  C   UNL A   1      44.449  26.891  35.622  1.00  0.00     0.148 A 
ATOM     92  C   UNL A   1      46.933  27.355  34.772  1.00  0.00     0.002 A 
ATOM     93  C   UNL A   1      45.454  25.981  35.841  1.00  0.00     0.091 A 
ATOM     94  F   UNL A   1      43.220  26.636  36.063  1.00  0.00    -0.205 F 
ATOM     95  C   UNL A   1      46.743  26.255  35.479  1.00  0.00     0.022 A 
BRANCH  93  96
ATOM     96  S   UNL A   1      45.064  24.393  36.618  1.00  0.00     0.127 S 
ATOM     97  O   UNL A   1      44.574  24.632  38.049  1.00  0.00    -0.237 OA
ATOM     98  O   UNL A   1      43.970  23.686  35.815  1.00  0.00    -0.237 OA
ATOM     99  O   UNL A   1      46.466  23.416  36.653  1.00  0.00    -0.744 OA
ENDBRANCH  93  96
ENDBRANCH  66  89
ENDBRANCH  40  41
ENDBRANCH  33  35
ENDBRANCH  32  33
ENDBRANCH  31  32
ENDBRANCH  30  31
ENDBRANCH  29  30
ENDBRANCH   1  29
TORSDOF 22
ENDMDL
MODEL 2
REMARK VINA RESULT:     -10.8      6.471     11.459
REMARK SMILES O=C(OCCOCCOCCOC(=O)c1ccc(-c2c3nc(c(-c4cccc(S(=O)(=O)[O-])c4F)c4ccc([nH]4)c(-c4cccc(S(=O)(=O)[O-])c4F)c4nc(c(-c5cccc(S(=O)(=O)[O-])c5F)c5ccc2[nH]5)C=C4)C=C3)cc1)C1=Cc2cc(S(F)(F)(F)(F)F)ccc2O[C@H]1C(F)(F)F
REMARK SMILES IDX 8 1 7 2 6 3 5 4 4 5 3 6 2 7 1 8 78 9 79 10 93 11 80 12 92 13
REMARK SMILES IDX 81 14 91 15 82 16 90 17 89 18 94 19 95 20 96 21 97 22 83 23
REMARK SMILES IDX 84 24 85 25 86 26 87 27 88 28 9 29 10 30 11 31 12 32 13 33
REMARK SMILES IDX 14 34 15 35 16 36 77 37 17 38 76 39 18 40 19 41 20 42 70 43
REMARK SMILES IDX 21 44 75 45 69 46 71 47 22 48 74 49 68 50 67 51 23 53 55 54
REMARK SMILES IDX 35 55 54 56 36 57 39 58 53 59 72 60 37 61 38 62 52 64 73 65
REMARK SMILES IDX 40 66 24 67 25 68 33 69 26 70 28 71 34 72 27 73 29 74 30 75
REMARK SMILES IDX 31 76 32 77 56 78 57 79 65 80 58 81 60 82 66 83 59 84 61 85
REMARK SMILES IDX 62 86 63 87 64 88 41 89 42 90 50 91 43 92 45 93 51 94 44 95
REMARK SMILES IDX 46 96 47 97 48 98 49 99
REMARK H PARENT 71 52 39 63
REMARK Flexibility Score: inf
ROOT
ATOM      1  C   UNL A   1      39.898  20.542  26.109  1.00  0.00     0.188 C 
ENDROOT
BRANCH   1   2
ATOM      2  C   UNL A   1      39.595  22.030  26.038  1.00  0.00     0.188 C 
BRANCH   2   3
ATOM      3  O   UNL A   1      38.194  22.234  26.156  1.00  0.00    -0.376 OA
BRANCH   3   4
ATOM      4  C   UNL A   1      37.514  21.381  25.247  1.00  0.00     0.202 C 
BRANCH   4   5
ATOM      5  C   UNL A   1      36.098  21.140  25.740  1.00  0.00     0.261 C 
BRANCH   5   6
ATOM      6  O   UNL A   1      35.196  21.220  24.646  1.00  0.00    -0.460 OA
BRANCH   6   7
ATOM      7  C   UNL A   1      33.808  21.406  24.882  1.00  0.00     0.338 C 
ATOM      8  O   UNL A   1      33.414  21.950  25.961  1.00  0.00    -0.246 OA
BRANCH   7   9
ATOM      9  C   UNL A   1      32.793  20.952  23.845  1.00  0.00     0.087 C 
ATOM     10  C   UNL A   1      32.128  21.872  23.096  1.00  0.00     0.027 C 
ATOM     11  C   UNL A   1      32.521  19.469  23.646  1.00  0.00     0.316 C 
ATOM     12  C   UNL A   1      32.399  23.354  23.296  1.00  0.00     0.019 A 
ATOM     13  O   UNL A   1      34.679  22.688  23.397  1.00  0.00    -0.475 OA
ATOM     14  C   UNL A   1      31.392  24.293  23.441  1.00  0.00     0.036 A 
ATOM     15  C   UNL A   1      33.678  23.696  23.389  1.00  0.00     0.128 A 
ATOM     16  C   UNL A   1      31.845  25.633  23.395  1.00  0.00     0.107 A 
ATOM     17  C   UNL A   1      34.044  25.018  23.479  1.00  0.00     0.048 A 
ATOM     18  C   UNL A   1      33.101  26.004  23.567  1.00  0.00     0.028 A 
BRANCH  11  19
ATOM     19  C   UNL A   1      33.388  18.663  24.600  1.00  0.00     0.430 C 
ATOM     20  F   UNL A   1      32.928  17.417  24.531  1.00  0.00    -0.167 F 
ATOM     21  F   UNL A   1      34.645  18.696  24.167  1.00  0.00    -0.167 F 
ATOM     22  F   UNL A   1      33.342  19.083  25.861  1.00  0.00    -0.167 F 
ENDBRANCH  11  19
BRANCH  16  23
ATOM     23  S   UNL A   1      30.620  26.926  23.081  1.00  0.00     0.310 S 
ATOM     24  F   UNL A   1      31.669  28.081  23.364  1.00  0.00    -0.094 F 
ATOM     25  F   UNL A   1      30.285  26.945  24.621  1.00  0.00    -0.094 F 
ATOM     26  F   UNL A   1      29.564  28.036  22.810  1.00  0.00    -0.094 F 
ATOM     27  F   UNL A   1      31.065  26.993  21.568  1.00  0.00    -0.094 F 
ATOM     28  F   UNL A   1      31.771  25.881  23.359  1.00  0.00    -0.094 F 
ENDBRANCH  16  23
ENDBRANCH   7   9
ENDBRANCH   6   7
ENDBRANCH   5   6
ENDBRANCH   4   5
ENDBRANCH   3   4
ENDBRANCH   2   3
ENDBRANCH   1   2
BRANCH   1  29
ATOM     29  O   UNL A   1      41.224  20.307  25.656  1.00  0.00    -0.376 OA
BRANCH  29  30
ATOM     30  C   UNL A   1      41.936  19.567  26.636  1.00  0.00     0.202 C 
BRANCH  30  31
ATOM     31  C   UNL A   1      42.920  18.635  25.951  1.00  0.00     0.261 C 
BRANCH  31  32
ATOM     32  O   UNL A   1      43.237  19.143  24.663  1.00  0.00    -0.460 OA
BRANCH  32  33
ATOM     33  C   UNL A   1      44.556  19.586  24.380  1.00  0.00     0.338 C 
ATOM     34  O   UNL A   1      45.387  18.797  23.830  1.00  0.00    -0.246 OA
BRANCH  33  35
ATOM     35  C   UNL A   1      44.974  21.004  24.733  1.00  0.00     0.060 A 
ATOM     36  C   UNL A   1      45.503  21.311  25.975  1.00  0.00     0.016 A 
ATOM     37  C   UNL A   1      44.688  21.955  23.850  1.00  0.00     0.016 A 
ATOM     38  C   UNL A   1      45.426  22.686  26.307  1.00  0.00     0.010 A 
ATOM     39  C   UNL A   1      44.764  23.281  24.202  1.00  0.00     0.010 A 
ATOM     40  C   UNL A   1      45.223  23.656  25.434  1.00  0.00    -0.014 A 
BRANCH  40  41
ATOM     41  C   UNL A   1      45.485  25.112  25.782  1.00  0.00     0.031 A 
ATOM     42  C   UNL A   1      44.359  25.805  26.228  1.00  0.00     0.074 A 
ATOM     43  C   UNL A   1      46.768  25.634  25.786  1.00  0.00     0.049 A 
ATOM     44  N   UNL A   1      44.313  27.031  26.753  1.00  0.00    -0.248 NA
ATOM     45  C   UNL A   1      42.991  25.267  26.193  1.00  0.00     0.031 C 
ATOM     46  C   UNL A   1      47.910  24.938  25.346  1.00  0.00     0.029 A 
ATOM     47  N   UNL A   1      47.171  26.883  26.204  1.00  0.00    -0.354 N 
ATOM     48  C   UNL A   1      43.058  27.347  27.080  1.00  0.00     0.074 A 
ATOM     49  C   UNL A   1      42.189  26.219  26.718  1.00  0.00     0.031 C 
ATOM     50  C   UNL A   1      48.984  25.759  25.485  1.00  0.00     0.029 A 
ATOM     51  C   UNL A   1      48.531  26.981  26.015  1.00  0.00     0.049 A 
ATOM     52  H   UNL A   1      46.587  27.583  26.575  1.00  0.00     0.167 HD
ATOM     53  C   UNL A   1      42.605  28.529  27.667  1.00  0.00     0.034 A 
ATOM     54  C   UNL A   1      49.348  28.068  26.282  1.00  0.00     0.034 A 
ATOM     55  C   UNL A   1      43.430  29.600  27.974  1.00  0.00     0.049 A 
ATOM     56  C   UNL A   1      48.886  29.274  26.815  1.00  0.00     0.074 A 
ATOM     57  C   UNL A   1      42.990  30.796  28.573  1.00  0.00     0.029 A 
ATOM     58  N   UNL A   1      44.787  29.708  27.762  1.00  0.00    -0.354 N 
ATOM     59  N   UNL A   1      47.638  29.573  27.179  1.00  0.00    -0.248 NA
ATOM     60  C   UNL A   1      49.738  30.443  27.072  1.00  0.00     0.031 C 
ATOM     61  C   UNL A   1      44.065  31.617  28.712  1.00  0.00     0.029 A 
ATOM     62  C   UNL A   1      45.193  30.948  28.201  1.00  0.00     0.049 A 
ATOM     63  H   UNL A   1      45.366  29.017  27.365  1.00  0.00     0.167 HD
ATOM     64  C   UNL A   1      47.587  30.815  27.665  1.00  0.00     0.074 A 
ATOM     65  C   UNL A   1      48.935  31.395  27.597  1.00  0.00     0.031 C 
ATOM     66  C   UNL A   1      46.470  31.486  28.166  1.00  0.00     0.034 A 
BRANCH  53  67
ATOM     67  C   UNL A   1      41.124  28.649  27.988  1.00  0.00     0.023 A 
ATOM     68  C   UNL A   1      40.203  28.996  27.014  1.00  0.00     0.012 A 
ATOM     69  C   UNL A   1      40.754  28.452  29.248  1.00  0.00     0.148 A 
ATOM     70  C   UNL A   1      38.947  29.398  27.529  1.00  0.00     0.002 A 
ATOM     71  C   UNL A   1      39.472  28.738  29.653  1.00  0.00     0.091 A 
ATOM     72  F   UNL A   1      41.632  27.975  30.125  1.00  0.00    -0.205 F 
ATOM     73  C   UNL A   1      38.524  29.142  28.755  1.00  0.00     0.022 A 
BRANCH  71  74
ATOM     74  S   UNL A   1      39.032  28.575  31.400  1.00  0.00     0.127 S 
ATOM     75  O   UNL A   1      38.450  27.182  31.652  1.00  0.00    -0.237 OA
ATOM     76  O   UNL A   1      40.282  28.769  32.262  1.00  0.00    -0.237 OA
ATOM     77  O   UNL A   1      37.869  29.761  31.808  1.00  0.00    -0.744 OA
ENDBRANCH  71  74
ENDBRANCH  53  67
BRANCH  54  78
ATOM     78  C   UNL A   1      50.832  27.941  25.977  1.00  0.00     0.023 A 
ATOM     79  C   UNL A   1      51.675  27.633  27.033  1.00  0.00     0.012 A 
ATOM     80  C   UNL A   1      51.300  28.093  24.744  1.00  0.00     0.148 A 
ATOM     81  C   UNL A   1      53.049  27.790  26.733  1.00  0.00     0.002 A 
ATOM     82  C   UNL A   1      52.653  28.101  24.505  1.00  0.00     0.091 A 
ATOM     83  F   UNL A   1      50.451  28.239  23.730  1.00  0.00    -0.205 F 
ATOM     84  C   UNL A   1      53.546  27.861  25.512  1.00  0.00     0.022 A 
BRANCH  82  85
ATOM     85  S   UNL A   1      53.262  28.431  22.832  1.00  0.00     0.127 S 
ATOM     86  O   UNL A   1      52.729  29.783  22.355  1.00  0.00    -0.237 OA
ATOM     87  O   UNL A   1      54.792  28.461  22.843  1.00  0.00    -0.237 OA
ATOM     88  O   UNL A   1      52.723  27.200  21.777  1.00  0.00    -0.744 OA
ENDBRANCH  82  85
ENDBRANCH  54  78
BRANCH  66  89
ATOM     89  C   UNL A   1      46.666  32.894  28.706  1.00  0.00     0.023 A 
ATOM     90  C   UNL A   1      46.943  33.139  30.040  1.00  0.00     0.012 A 
ATOM     91  C   UNL A   1      46.431  33.888  27.857  1.00  0.00     0.148 A 
ATOM     92  C   UNL A   1      46.663  34.465  30.450  1.00  0.00     0.002 A 
ATOM     93  C   UNL A   1      46.304  35.179  28.310  1.00  0.00     0.091 A 
ATOM     94  F   UNL A   1      46.317  33.631  26.557  1.00  0.00    -0.205 F 
ATOM     95  C   UNL A   1      46.506  35.486  29.626  1.00  0.00     0.022 A 
BRANCH  93  96
ATOM     96  S   UNL A   1      45.863  36.493  27.146  1.00  0.00     0.127 S 
ATOM     97  O   UNL A   1      46.685  36.337  25.864  1.00  0.00    -0.237 OA
ATOM     98  O   UNL A   1      44.372  36.397  26.810  1.00  0.00    -0.237 OA
ATOM     99  O   UNL A   1      46.191  38.015  27.852  1.00  0.00    -0.744 OA
ENDBRANCH  93  96
ENDBRANCH  66  89
ENDBRANCH  40  41
ENDBRANCH  33  35
ENDBRANCH  32  33
ENDBRANCH  31  32
ENDBRANCH  30  31
ENDBRANCH  29  30
ENDBRANCH   1  29
TORSDOF 22
ENDMDL
MODEL 3
REMARK VINA RESULT:     -10.7      1.642      3.779
REMARK SMILES O=C(OCCOCCOCCOC(=O)c1ccc(-c2c3nc(c(-c4cccc(S(=O)(=O)[O-])c4F)c4ccc([nH]4)c(-c4cccc(S(=O)(=O)[O-])c4F)c4nc(c(-c5cccc(S(=O)(=O)[O-])c5F)c5ccc2[nH]5)C=C4)C=C3)cc1)C1=Cc2cc(S(F)(F)(F)(F)F)ccc2O[C@H]1C(F)(F)F
REMARK SMILES IDX 8 1 7 2 6 3 5 4 4 5 3 6 2 7 1 8 78 9 79 10 93 11 80 12 92 13
REMARK SMILES IDX 81 14 91 15 82 16 90 17 89 18 94 19 95 20 96 21 97 22 83 23
REMARK SMILES IDX 84 24 85 25 86 26 87 27 88 28 9 29 10 30 11 31 12 32 13 33
REMARK SMILES IDX 14 34 15 35 16 36 77 37 17 38 76 39 18 40 19 41 20 42 70 43
REMARK SMILES IDX 21 44 75 45 69 46 71 47 22 48 74 49 68 50 67 51 23 53 55 54
REMARK SMILES IDX 35 55 54 56 36 57 39 58 53 59 72 60 37 61 38 62 52 64 73 65
REMARK SMILES IDX 40 66 24 67 25 68 33 69 26 70 28 71 34 72 27 73 29 74 30 75
REMARK SMILES IDX 31 76 32 77 56 78 57 79 65 80 58 81 60 82 66 83 59 84 61 85
REMARK SMILES IDX 62 86 63 87 64 88 41 89 42 90 50 91 43 92 45 93 51 94 44 95
REMARK SMILES IDX 46 96 47 97 48 98 49 99
REMARK H PARENT 71 52 39 63
REMARK Flexibility Score: inf
ROOT
ATOM      1  C   UNL A   1      33.095  32.259  27.662  1.00  0.00     0.188 C 
ENDROOT
BRANCH   1   2
ATOM      2  C   UNL A   1      33.941  31.016  27.433  1.00  0.00     0.188 C 
BRANCH   2   3
ATOM      3  O   UNL A   1      33.308  30.182  26.474  1.00  0.00    -0.376 OA
BRANCH   3   4
ATOM      4  C   UNL A   1      32.490  29.231  27.140  1.00  0.00     0.202 C 
BRANCH   4   5
ATOM      5  C   UNL A   1      32.963  27.828  26.800  1.00  0.00     0.261 C 
BRANCH   5   6
ATOM      6  O   UNL A   1      31.881  27.082  26.262  1.00  0.00    -0.460 OA
BRANCH   6   7
ATOM      7  C   UNL A   1      32.131  26.048  25.321  1.00  0.00     0.338 C 
ATOM      8  O   UNL A   1      33.322  25.797  24.954  1.00  0.00    -0.246 OA
BRANCH   7   9
ATOM      9  C   UNL A   1      30.975  25.241  24.753  1.00  0.00     0.087 C 
ATOM     10  C   UNL A   1      30.090  25.827  23.902  1.00  0.00     0.027 C 
ATOM     11  C   UNL A   1      30.806  23.780  25.138  1.00  0.00     0.316 C 
ATOM     12  C   UNL A   1      30.258  27.288  23.519  1.00  0.00     0.019 A 
ATOM     13  O   UNL A   1      32.563  26.736  23.334  1.00  0.00    -0.475 OA
ATOM     14  C   UNL A   1      29.219  28.203  23.554  1.00  0.00     0.036 A 
ATOM     15  C   UNL A   1      31.493  27.662  23.204  1.00  0.00     0.128 A 
ATOM     16  C   UNL A   1      29.528  29.447  22.954  1.00  0.00     0.107 A 
ATOM     17  C   UNL A   1      31.746  28.935  22.755  1.00  0.00     0.048 A 
ATOM     18  C   UNL A   1      30.753  29.874  22.707  1.00  0.00     0.028 A 
BRANCH  11  19
ATOM     19  C   UNL A   1      31.919  23.376  26.092  1.00  0.00     0.430 C 
ATOM     20  F   UNL A   1      31.613  22.145  26.494  1.00  0.00    -0.167 F 
ATOM     21  F   UNL A   1      33.068  23.351  25.424  1.00  0.00    -0.167 F 
ATOM     22  F   UNL A   1      32.038  24.171  27.151  1.00  0.00    -0.167 F 
ENDBRANCH  11  19
BRANCH  16  23
ATOM     23  S   UNL A   1      28.150  30.526  22.497  1.00  0.00     0.310 S 
ATOM     24  F   UNL A   1      27.080  29.532  23.115  1.00  0.00    -0.094 F 
ATOM     25  F   UNL A   1      28.010  29.729  21.145  1.00  0.00    -0.094 F 
ATOM     26  F   UNL A   1      26.967  31.457  22.104  1.00  0.00    -0.094 F 
ATOM     27  F   UNL A   1      28.214  31.221  23.913  1.00  0.00    -0.094 F 
ATOM     28  F   UNL A   1      29.277  29.519  22.957  1.00  0.00    -0.094 F 
ENDBRANCH  16  23
ENDBRANCH   7   9
ENDBRANCH   6   7
ENDBRANCH   5   6
ENDBRANCH   4   5
ENDBRANCH   3   4
ENDBRANCH   2   3
ENDBRANCH   1   2
BRANCH   1  29
ATOM     29  O   UNL A   1      33.690  33.055  28.676  1.00  0.00    -0.376 OA
BRANCH  29  30
ATOM     30  C   UNL A   1      34.039  34.323  28.140  1.00  0.00     0.202 C 
BRANCH  30  31
ATOM     31  C   UNL A   1      33.230  35.406  28.833  1.00  0.00     0.261 C 
BRANCH  31  32
ATOM     32  O   UNL A   1      32.568  34.855  29.961  1.00  0.00    -0.460 OA
BRANCH  32  33
ATOM     33  C   UNL A   1      33.066  35.101  31.268  1.00  0.00     0.338 C 
ATOM     34  O   UNL A   1      32.399  35.818  32.078  1.00  0.00    -0.246 OA
BRANCH  33  35
ATOM     35  C   UNL A   1      34.398  34.508  31.698  1.00  0.00     0.060 A 
ATOM     36  C   UNL A   1      35.594  35.155  31.435  1.00  0.00     0.016 A 
ATOM     37  C   UNL A   1      34.374  33.285  32.214  1.00  0.00     0.016 A 
ATOM     38  C   UNL A   1      36.727  34.308  31.485  1.00  0.00     0.010 A 
ATOM     39  C   UNL A   1      35.537  32.566  32.361  1.00  0.00     0.010 A 
ATOM     40  C   UNL A   1      36.750  33.122  32.065  1.00  0.00    -0.014 A 
BRANCH  40  41
ATOM     41  C   UNL A   1      38.056  32.413  32.386  1.00  0.00     0.031 A 
ATOM     42  C   UNL A   1      38.624  32.787  33.605  1.00  0.00     0.074 A 
ATOM     43  C   UNL A   1      38.535  31.386  31.591  1.00  0.00     0.049 A 
ATOM     44  N   UNL A   1      39.667  32.228  34.222  1.00  0.00    -0.248 NA
ATOM     45  C   UNL A   1      38.139  33.900  34.435  1.00  0.00     0.031 C 
ATOM     46  C   UNL A   1      37.962  30.998  30.365  1.00  0.00     0.029 A 
ATOM     47  N   UNL A   1      39.620  30.571  31.826  1.00  0.00    -0.354 N 
ATOM     48  C   UNL A   1      39.906  32.849  35.379  1.00  0.00     0.074 A 
ATOM     49  C   UNL A   1      38.930  33.938  35.529  1.00  0.00     0.031 C 
ATOM     50  C   UNL A   1      38.697  29.971  29.862  1.00  0.00     0.029 A 
ATOM     51  C   UNL A   1      39.742  29.701  30.766  1.00  0.00     0.049 A 
ATOM     52  H   UNL A   1      40.207  30.605  32.615  1.00  0.00     0.167 HD
ATOM     53  C   UNL A   1      40.896  32.549  36.315  1.00  0.00     0.034 A 
ATOM     54  C   UNL A   1      40.704  28.721  30.578  1.00  0.00     0.034 A 
ATOM     55  C   UNL A   1      41.832  31.540  36.148  1.00  0.00     0.049 A 
ATOM     56  C   UNL A   1      41.732  28.459  31.487  1.00  0.00     0.074 A 
ATOM     57  C   UNL A   1      42.832  31.221  37.085  1.00  0.00     0.029 A 
ATOM     58  N   UNL A   1      41.969  30.686  35.076  1.00  0.00    -0.354 N 
ATOM     59  N   UNL A   1      41.945  29.054  32.663  1.00  0.00    -0.248 NA
ATOM     60  C   UNL A   1      42.775  27.446  31.284  1.00  0.00     0.031 C 
ATOM     61  C   UNL A   1      43.568  30.194  36.581  1.00  0.00     0.029 A 
ATOM     62  C   UNL A   1      43.040  29.857  35.321  1.00  0.00     0.049 A 
ATOM     63  H   UNL A   1      41.399  30.672  34.273  1.00  0.00     0.167 HD
ATOM     64  C   UNL A   1      43.013  28.521  33.259  1.00  0.00     0.074 A 
ATOM     65  C   UNL A   1      43.567  27.483  32.378  1.00  0.00     0.031 C 
ATOM     66  C   UNL A   1      43.546  28.857  34.505  1.00  0.00     0.034 A 
BRANCH  53  67
ATOM     67  C   UNL A   1      40.953  33.376  37.590  1.00  0.00     0.023 A 
ATOM     68  C   UNL A   1      41.902  34.368  37.763  1.00  0.00     0.012 A 
ATOM     69  C   UNL A   1      40.084  33.078  38.549  1.00  0.00     0.148 A 
ATOM     70  C   UNL A   1      42.044  34.799  39.103  1.00  0.00     0.002 A 
ATOM     71  C   UNL A   1      40.201  33.640  39.798  1.00  0.00     0.091 A 
ATOM     72  F   UNL A   1      39.092  32.228  38.300  1.00  0.00    -0.205 F 
ATOM     73  C   UNL A   1      41.155  34.585  40.057  1.00  0.00     0.022 A 
BRANCH  71  74
ATOM     74  S   UNL A   1      39.078  33.123  41.118  1.00  0.00     0.127 S 
ATOM     75  O   UNL A   1      39.602  33.630  42.463  1.00  0.00    -0.237 OA
ATOM     76  O   UNL A   1      37.685  33.705  40.861  1.00  0.00    -0.237 OA
ATOM     77  O   UNL A   1      38.984  31.415  41.151  1.00  0.00    -0.744 OA
ENDBRANCH  71  74
ENDBRANCH  53  67
BRANCH  54  78
ATOM     78  C   UNL A   1      40.637  27.884  29.311  1.00  0.00     0.023 A 
ATOM     79  C   UNL A   1      39.761  26.811  29.303  1.00  0.00     0.012 A 
ATOM     80  C   UNL A   1      41.368  28.184  28.244  1.00  0.00     0.148 A 
ATOM     81  C   UNL A   1      39.941  25.933  28.208  1.00  0.00     0.002 A 
ATOM     82  C   UNL A   1      41.391  27.348  27.154  1.00  0.00     0.091 A 
ATOM     83  F   UNL A   1      42.084  29.305  28.231  1.00  0.00    -0.205 F 
ATOM     84  C   UNL A   1      40.596  26.238  27.103  1.00  0.00     0.022 A 
BRANCH  82  85
ATOM     85  S   UNL A   1      42.492  27.723  25.766  1.00  0.00     0.127 S 
ATOM     86  O   UNL A   1      42.449  26.573  24.758  1.00  0.00    -0.237 OA
ATOM     87  O   UNL A   1      42.033  29.015  25.086  1.00  0.00    -0.237 OA
ATOM     88  O   UNL A   1      44.089  27.917  26.342  1.00  0.00    -0.744 OA
ENDBRANCH  82  85
ENDBRANCH  54  78
BRANCH  66  89
ATOM     89  C   UNL A   1      44.755  28.078  34.997  1.00  0.00     0.023 A 
ATOM     90  C   UNL A   1      46.050  28.449  34.679  1.00  0.00     0.012 A 
ATOM     91  C   UNL A   1      44.503  26.945  35.644  1.00  0.00     0.148 A 
ATOM     92  C   UNL A   1      46.999  27.410  34.831  1.00  0.00     0.002 A 
ATOM     93  C   UNL A   1      45.505  26.036  35.880  1.00  0.00     0.091 A 
ATOM     94  F   UNL A   1      43.268  26.689  36.066  1.00  0.00    -0.205 F 
ATOM     95  C   UNL A   1      46.800  26.312  35.538  1.00  0.00     0.022 A 
BRANCH  93  96
ATOM     96  S   UNL A   1      45.106  24.450  36.653  1.00  0.00     0.127 S 
ATOM     97  O   UNL A   1      44.059  23.718  35.809  1.00  0.00    -0.237 OA
ATOM     98  O   UNL A   1      46.373  23.595  36.747  1.00  0.00    -0.237 OA
ATOM     99  O   UNL A   1      44.485  24.720  38.223  1.00  0.00    -0.744 OA
ENDBRANCH  93  96
ENDBRANCH  66  89
ENDBRANCH  40  41
ENDBRANCH  33  35
ENDBRANCH  32  33
ENDBRANCH  31  32
ENDBRANCH  30  31
ENDBRANCH  29  30
ENDBRANCH   1  29
TORSDOF 22
ENDMDL
