MODEL 1
REMARK VINA RESULT:     -10.0      0.000      0.000
REMARK SMILES O=C(OCCOCCOCCOC(=O)c1ccn(-c2cc(-c3ccncc3)nc(-c3ccccc3F)n2)n1)c1ccc(-c2c3nc(c(-c4cccc(S(=O)(=O)[O-])c4F)c4ccc([nH]4)c(-c4cccc(S(=O)(=O)[O-])c4F)c4nc(c(-c5cccc(S(=O)(=O)[O-])c5F)c5ccc2[nH]5)C=C4)C=C3)cc1
REMARK SMILES IDX 7 1 6 2 5 3 4 4 3 5 2 6 1 7 39 8 40 9 101 10 41 11 100 12
REMARK SMILES IDX 42 13 43 14 44 15 94 16 45 17 99 18 93 19 95 20 46 21 98 22
REMARK SMILES IDX 92 23 91 24 47 26 79 27 59 28 78 29 60 30 63 31 77 32 96 33
REMARK SMILES IDX 61 34 62 35 76 37 97 38 64 39 48 40 49 41 57 42 50 43 52 44
REMARK SMILES IDX 58 45 51 46 53 47 54 48 55 49 56 50 80 51 81 52 89 53 82 54
REMARK SMILES IDX 84 55 90 56 83 57 85 58 86 59 87 60 88 61 65 62 66 63 74 64
REMARK SMILES IDX 67 65 69 66 75 67 68 68 70 69 71 70 72 71 73 72 8 73 9 74
REMARK SMILES IDX 10 75 11 76 12 77 13 78 14 79 15 80 16 81 38 82 17 83 18 84
REMARK SMILES IDX 19 85 20 86 37 87 21 88 29 89 28 90 22 91 23 92 27 93 24 94
REMARK SMILES IDX 26 95 25 96 30 97 31 98 35 99 32 100 34 101 36 102 33 103
REMARK H PARENT 95 25 63 36
REMARK Flexibility Score: inf
ROOT
ATOM      1  C   UNL A   1      39.243  23.259  26.881  1.00  0.00     0.188 C 
ENDROOT
BRANCH   1   2
ATOM      2  O   UNL A   1      39.850  24.267  26.078  1.00  0.00    -0.376 OA
BRANCH   2   3
ATOM      3  C   UNL A   1      40.918  24.968  26.692  1.00  0.00     0.202 C 
BRANCH   3   4
ATOM      4  C   UNL A   1      41.937  25.490  25.680  1.00  0.00     0.261 C 
BRANCH   4   5
ATOM      5  O   UNL A   1      43.306  25.111  25.913  1.00  0.00    -0.460 OA
BRANCH   5   6
ATOM      6  C   UNL A   1      44.299  25.684  26.621  1.00  0.00     0.338 C 
ATOM      7  O   UNL A   1      45.110  24.962  27.196  1.00  0.00    -0.246 OA
BRANCH   6   8
ATOM      8  C   UNL A   1      44.381  27.147  26.858  1.00  0.00     0.060 A 
ATOM      9  C   UNL A   1      45.347  27.768  27.649  1.00  0.00     0.016 A 
ATOM     10  C   UNL A   1      43.339  27.924  26.310  1.00  0.00     0.016 A 
ATOM     11  C   UNL A   1      45.245  29.121  27.944  1.00  0.00     0.010 A 
ATOM     12  C   UNL A   1      43.223  29.275  26.618  1.00  0.00     0.010 A 
ATOM     13  C   UNL A   1      44.145  29.850  27.491  1.00  0.00    -0.014 A 
BRANCH  13  14
ATOM     14  C   UNL A   1      43.937  31.162  28.094  1.00  0.00     0.031 A 
ATOM     15  C   UNL A   1      44.744  32.307  27.585  1.00  0.00     0.074 A 
ATOM     16  C   UNL A   1      43.016  31.332  29.063  1.00  0.00     0.049 A 
ATOM     17  N   UNL A   1      45.509  33.115  28.250  1.00  0.00    -0.248 NA
ATOM     18  C   UNL A   1      44.729  32.552  26.139  1.00  0.00     0.031 C 
ATOM     19  C   UNL A   1      41.967  30.391  29.474  1.00  0.00     0.029 A 
ATOM     20  N   UNL A   1      42.733  32.454  29.785  1.00  0.00    -0.354 N 
ATOM     21  C   UNL A   1      45.931  34.085  27.338  1.00  0.00     0.074 A 
ATOM     22  C   UNL A   1      45.489  33.643  26.038  1.00  0.00     0.031 C 
ATOM     23  C   UNL A   1      41.015  31.066  30.152  1.00  0.00     0.029 A 
ATOM     24  C   UNL A   1      41.458  32.435  30.336  1.00  0.00     0.049 A 
ATOM     25  H   UNL A   1      43.366  33.198  29.904  1.00  0.00     0.167 HD
ATOM     26  C   UNL A   1      46.499  35.264  27.712  1.00  0.00     0.034 A 
ATOM     27  C   UNL A   1      40.772  33.501  30.805  1.00  0.00     0.034 A 
ATOM     28  C   UNL A   1      46.959  35.251  29.069  1.00  0.00     0.049 A 
ATOM     29  C   UNL A   1      41.748  34.572  31.109  1.00  0.00     0.074 A 
ATOM     30  C   UNL A   1      47.924  34.559  29.768  1.00  0.00     0.029 A 
ATOM     31  N   UNL A   1      46.187  35.885  30.008  1.00  0.00    -0.354 N 
ATOM     32  N   UNL A   1      42.631  34.512  32.067  1.00  0.00    -0.248 NA
ATOM     33  C   UNL A   1      41.976  35.604  30.111  1.00  0.00     0.031 C 
ATOM     34  C   UNL A   1      47.413  34.449  31.092  1.00  0.00     0.029 A 
ATOM     35  C   UNL A   1      46.169  35.084  31.118  1.00  0.00     0.049 A 
ATOM     36  H   UNL A   1      45.732  36.752  29.904  1.00  0.00     0.167 HD
ATOM     37  C   UNL A   1      43.729  35.205  31.577  1.00  0.00     0.074 A 
ATOM     38  C   UNL A   1      43.218  35.967  30.443  1.00  0.00     0.031 C 
ATOM     39  C   UNL A   1      45.002  34.876  31.953  1.00  0.00     0.034 A 
BRANCH  26  40
ATOM     40  C   UNL A   1      46.457  36.540  26.916  1.00  0.00     0.023 A 
ATOM     41  C   UNL A   1      47.588  36.904  26.152  1.00  0.00     0.012 A 
ATOM     42  C   UNL A   1      45.449  37.513  27.073  1.00  0.00     0.148 A 
ATOM     43  C   UNL A   1      47.707  38.176  25.577  1.00  0.00     0.002 A 
ATOM     44  C   UNL A   1      45.535  38.746  26.436  1.00  0.00     0.091 A 
ATOM     45  F   UNL A   1      44.453  37.295  27.939  1.00  0.00    -0.205 F 
ATOM     46  C   UNL A   1      46.673  39.094  25.704  1.00  0.00     0.022 A 
BRANCH  44  47
ATOM     47  S   UNL A   1      44.167  39.905  26.507  1.00  0.00     0.127 S 
ATOM     48  O   UNL A   1      43.018  39.009  26.468  1.00  0.00    -0.237 OA
ATOM     49  O   UNL A   1      44.392  40.571  27.791  1.00  0.00    -0.237 OA
ATOM     50  O   UNL A   1      44.369  40.769  25.348  1.00  0.00    -0.744 OA
ENDBRANCH  44  47
ENDBRANCH  26  40
BRANCH  27  51
ATOM     51  C   UNL A   1      39.314  33.747  30.740  1.00  0.00     0.023 A 
ATOM     52  C   UNL A   1      38.680  33.819  29.487  1.00  0.00     0.012 A 
ATOM     53  C   UNL A   1      38.505  33.662  31.898  1.00  0.00     0.148 A 
ATOM     54  C   UNL A   1      37.284  33.783  29.386  1.00  0.00     0.002 A 
ATOM     55  C   UNL A   1      37.119  33.642  31.794  1.00  0.00     0.091 A 
ATOM     56  F   UNL A   1      39.092  33.513  33.093  1.00  0.00    -0.205 F 
ATOM     57  C   UNL A   1      36.504  33.690  30.537  1.00  0.00     0.022 A 
BRANCH  55  58
ATOM     58  S   UNL A   1      36.053  33.523  33.238  1.00  0.00     0.127 S 
ATOM     59  O   UNL A   1      36.647  32.397  33.961  1.00  0.00    -0.237 OA
ATOM     60  O   UNL A   1      36.248  34.823  33.871  1.00  0.00    -0.237 OA
ATOM     61  O   UNL A   1      34.712  33.262  32.729  1.00  0.00    -0.744 OA
ENDBRANCH  55  58
ENDBRANCH  27  51
BRANCH  39  62
ATOM     62  C   UNL A   1      45.192  33.931  33.117  1.00  0.00     0.023 A 
ATOM     63  C   UNL A   1      45.231  34.405  34.445  1.00  0.00     0.012 A 
ATOM     64  C   UNL A   1      45.098  32.544  32.898  1.00  0.00     0.148 A 
ATOM     65  C   UNL A   1      45.199  33.522  35.526  1.00  0.00     0.002 A 
ATOM     66  C   UNL A   1      45.013  31.670  33.977  1.00  0.00     0.091 A 
ATOM     67  F   UNL A   1      45.050  32.101  31.631  1.00  0.00    -0.205 F 
ATOM     68  C   UNL A   1      45.073  32.155  35.293  1.00  0.00     0.022 A 
BRANCH  66  69
ATOM     69  S   UNL A   1      44.684  29.919  33.750  1.00  0.00     0.127 S 
ATOM     70  O   UNL A   1      44.428  29.473  35.117  1.00  0.00    -0.237 OA
ATOM     71  O   UNL A   1      43.507  29.926  32.879  1.00  0.00    -0.237 OA
ATOM     72  O   UNL A   1      45.880  29.370  33.119  1.00  0.00    -0.744 OA
ENDBRANCH  66  69
ENDBRANCH  39  62
ENDBRANCH  13  14
ENDBRANCH   6   8
ENDBRANCH   5   6
ENDBRANCH   4   5
ENDBRANCH   3   4
ENDBRANCH   2   3
ENDBRANCH   1   2
BRANCH   1  73
ATOM     73  C   UNL A   1      38.630  22.085  26.084  1.00  0.00     0.188 C 
BRANCH  73  74
ATOM     74  O   UNL A   1      37.255  22.030  25.703  1.00  0.00    -0.376 OA
BRANCH  74  75
ATOM     75  C   UNL A   1      36.502  23.219  25.582  1.00  0.00     0.202 C 
BRANCH  75  76
ATOM     76  C   UNL A   1      35.289  23.082  24.657  1.00  0.00     0.261 C 
BRANCH  76  77
ATOM     77  O   UNL A   1      34.106  22.585  25.305  1.00  0.00    -0.458 OA
BRANCH  77  78
ATOM     78  C   UNL A   1      32.994  22.490  24.518  1.00  0.00     0.358 C 
ATOM     79  O   UNL A   1      32.825  21.634  23.645  1.00  0.00    -0.244 OA
BRANCH  78  80
ATOM     80  C   UNL A   1      32.046  23.590  24.731  1.00  0.00     0.170 A 
ATOM     81  C   UNL A   1      31.003  23.579  25.691  1.00  0.00     0.058 A 
ATOM     82  N   UNL A   1      32.108  24.783  24.091  1.00  0.00    -0.159 NA
ATOM     83  C   UNL A   1      30.579  24.878  25.763  1.00  0.00     0.118 A 
ATOM     84  N   UNL A   1      31.295  25.594  24.828  1.00  0.00    -0.222 N 
BRANCH  84  85
ATOM     85  C   UNL A   1      31.349  27.015  24.773  1.00  0.00     0.158 A 
ATOM     86  C   UNL A   1      30.566  27.710  23.869  1.00  0.00     0.078 A 
ATOM     87  N   UNL A   1      32.141  27.612  25.695  1.00  0.00    -0.209 NA
ATOM     88  C   UNL A   1      30.602  29.091  23.996  1.00  0.00     0.077 A 
ATOM     89  C   UNL A   1      32.180  28.951  25.658  1.00  0.00     0.165 A 
ATOM     90  N   UNL A   1      31.447  29.715  24.843  1.00  0.00    -0.228 NA
BRANCH  88  91
ATOM     91  C   UNL A   1      29.669  30.000  23.318  1.00  0.00     0.003 A 
ATOM     92  C   UNL A   1      29.187  31.145  23.968  1.00  0.00     0.030 A 
ATOM     93  C   UNL A   1      29.334  29.831  21.967  1.00  0.00     0.030 A 
ATOM     94  C   UNL A   1      28.392  32.037  23.264  1.00  0.00     0.111 A 
ATOM     95  C   UNL A   1      28.510  30.763  21.353  1.00  0.00     0.111 A 
ATOM     96  N   UNL A   1      28.017  31.846  21.985  1.00  0.00    -0.265 NA
ENDBRANCH  88  91
BRANCH  89  97
ATOM     97  C   UNL A   1      33.166  29.618  26.491  1.00  0.00     0.055 A 
ATOM     98  C   UNL A   1      34.417  29.027  26.746  1.00  0.00     0.015 A 
ATOM     99  C   UNL A   1      32.910  30.875  27.043  1.00  0.00     0.134 A 
ATOM    100  C   UNL A   1      35.378  29.686  27.516  1.00  0.00     0.001 A 
ATOM    101  C   UNL A   1      33.863  31.538  27.815  1.00  0.00     0.040 A 
ATOM    102  F   UNL A   1      31.720  31.467  26.858  1.00  0.00    -0.206 F 
ATOM    103  C   UNL A   1      35.102  30.944  28.050  1.00  0.00     0.003 A 
ENDBRANCH  89  97
ENDBRANCH  84  85
ENDBRANCH  78  80
ENDBRANCH  77  78
ENDBRANCH  76  77
ENDBRANCH  75  76
ENDBRANCH  74  75
ENDBRANCH  73  74
ENDBRANCH   1  73
TORSDOF 23
ENDMDL
MODEL 2
REMARK VINA RESULT:     -10.0      5.104     10.185
REMARK SMILES O=C(OCCOCCOCCOC(=O)c1ccn(-c2cc(-c3ccncc3)nc(-c3ccccc3F)n2)n1)c1ccc(-c2c3nc(c(-c4cccc(S(=O)(=O)[O-])c4F)c4ccc([nH]4)c(-c4cccc(S(=O)(=O)[O-])c4F)c4nc(c(-c5cccc(S(=O)(=O)[O-])c5F)c5ccc2[nH]5)C=C4)C=C3)cc1
REMARK SMILES IDX 7 1 6 2 5 3 4 4 3 5 2 6 1 7 39 8 40 9 101 10 41 11 100 12
REMARK SMILES IDX 42 13 43 14 44 15 94 16 45 17 99 18 93 19 95 20 46 21 98 22
REMARK SMILES IDX 92 23 91 24 47 26 79 27 59 28 78 29 60 30 63 31 77 32 96 33
REMARK SMILES IDX 61 34 62 35 76 37 97 38 64 39 48 40 49 41 57 42 50 43 52 44
REMARK SMILES IDX 58 45 51 46 53 47 54 48 55 49 56 50 80 51 81 52 89 53 82 54
REMARK SMILES IDX 84 55 90 56 83 57 85 58 86 59 87 60 88 61 65 62 66 63 74 64
REMARK SMILES IDX 67 65 69 66 75 67 68 68 70 69 71 70 72 71 73 72 8 73 9 74
REMARK SMILES IDX 10 75 11 76 12 77 13 78 14 79 15 80 16 81 38 82 17 83 18 84
REMARK SMILES IDX 19 85 20 86 37 87 21 88 29 89 28 90 22 91 23 92 27 93 24 94
REMARK SMILES IDX 26 95 25 96 30 97 31 98 35 99 32 100 34 101 36 102 33 103
REMARK H PARENT 95 25 63 36
REMARK Flexibility Score: inf
ROOT
ATOM      1  C   UNL A   1      46.610  24.435  25.014  1.00  0.00     0.188 C 
ENDROOT
BRANCH   1   2
ATOM      2  O   UNL A   1      45.390  24.014  25.617  1.00  0.00    -0.376 OA
BRANCH   2   3
ATOM      3  C   UNL A   1      44.718  22.960  24.948  1.00  0.00     0.202 C 
BRANCH   3   4
ATOM      4  C   UNL A   1      43.213  23.201  24.838  1.00  0.00     0.261 C 
BRANCH   4   5
ATOM      5  O   UNL A   1      42.404  22.607  25.871  1.00  0.00    -0.460 OA
BRANCH   5   6
ATOM      6  C   UNL A   1      41.185  22.912  26.359  1.00  0.00     0.338 C 
ATOM      7  O   UNL A   1      40.220  22.238  26.006  1.00  0.00    -0.246 OA
BRANCH   6   8
ATOM      8  C   UNL A   1      40.927  24.113  27.192  1.00  0.00     0.060 A 
ATOM      9  C   UNL A   1      39.893  25.023  26.971  1.00  0.00     0.016 A 
ATOM     10  C   UNL A   1      41.865  24.375  28.212  1.00  0.00     0.016 A 
ATOM     11  C   UNL A   1      39.831  26.201  27.702  1.00  0.00     0.010 A 
ATOM     12  C   UNL A   1      41.816  25.561  28.934  1.00  0.00     0.010 A 
ATOM     13  C   UNL A   1      40.833  26.500  28.626  1.00  0.00    -0.014 A 
BRANCH  13  14
ATOM     14  C   UNL A   1      40.881  27.872  29.118  1.00  0.00     0.031 A 
ATOM     15  C   UNL A   1      41.950  28.771  28.597  1.00  0.00     0.074 A 
ATOM     16  C   UNL A   1      39.962  28.317  29.998  1.00  0.00     0.049 A 
ATOM     17  N   UNL A   1      42.831  29.450  29.262  1.00  0.00    -0.248 NA
ATOM     18  C   UNL A   1      42.078  28.890  27.140  1.00  0.00     0.031 C 
ATOM     19  C   UNL A   1      38.709  27.661  30.389  1.00  0.00     0.029 A 
ATOM     20  N   UNL A   1      39.888  29.530  30.616  1.00  0.00    -0.354 N 
ATOM     21  C   UNL A   1      43.511  30.225  28.321  1.00  0.00     0.074 A 
ATOM     22  C   UNL A   1      43.064  29.780  27.025  1.00  0.00     0.031 C 
ATOM     23  C   UNL A   1      37.889  28.579  30.942  1.00  0.00     0.029 A 
ATOM     24  C   UNL A   1      38.609  29.831  31.065  1.00  0.00     0.049 A 
ATOM     25  H   UNL A   1      40.661  30.129  30.733  1.00  0.00     0.167 HD
ATOM     26  C   UNL A   1      44.301  31.283  28.657  1.00  0.00     0.034 A 
ATOM     27  C   UNL A   1      38.147  31.056  31.404  1.00  0.00     0.034 A 
ATOM     28  C   UNL A   1      44.662  31.286  30.043  1.00  0.00     0.049 A 
ATOM     29  C   UNL A   1      39.313  31.914  31.709  1.00  0.00     0.074 A 
ATOM     30  C   UNL A   1      45.406  30.465  30.862  1.00  0.00     0.029 A 
ATOM     31  N   UNL A   1      43.991  32.148  30.872  1.00  0.00    -0.354 N 
ATOM     32  N   UNL A   1      40.100  31.748  32.736  1.00  0.00    -0.248 NA
ATOM     33  C   UNL A   1      39.824  32.785  30.664  1.00  0.00     0.031 C 
ATOM     34  C   UNL A   1      44.802  30.579  32.146  1.00  0.00     0.029 A 
ATOM     35  C   UNL A   1      43.729  31.466  32.030  1.00  0.00     0.049 A 
ATOM     36  H   UNL A   1      43.745  33.081  30.674  1.00  0.00     0.167 HD
ATOM     37  C   UNL A   1      41.352  32.145  32.287  1.00  0.00     0.074 A 
ATOM     38  C   UNL A   1      41.092  32.900  31.066  1.00  0.00     0.031 C 
ATOM     39  C   UNL A   1      42.496  31.584  32.783  1.00  0.00     0.034 A 
BRANCH  26  40
ATOM     40  C   UNL A   1      44.590  32.466  27.774  1.00  0.00     0.023 A 
ATOM     41  C   UNL A   1      45.743  32.444  26.959  1.00  0.00     0.012 A 
ATOM     42  C   UNL A   1      43.907  33.695  27.885  1.00  0.00     0.148 A 
ATOM     43  C   UNL A   1      46.195  33.590  26.293  1.00  0.00     0.002 A 
ATOM     44  C   UNL A   1      44.313  34.810  27.160  1.00  0.00     0.091 A 
ATOM     45  F   UNL A   1      42.927  33.825  28.787  1.00  0.00    -0.205 F 
ATOM     46  C   UNL A   1      45.470  34.772  26.379  1.00  0.00     0.022 A 
BRANCH  44  47
ATOM     47  S   UNL A   1      43.335  36.315  27.181  1.00  0.00     0.127 S 
ATOM     48  O   UNL A   1      42.203  35.944  26.341  1.00  0.00    -0.237 OA
ATOM     49  O   UNL A   1      43.028  36.465  28.604  1.00  0.00    -0.237 OA
ATOM     50  O   UNL A   1      44.237  37.336  26.658  1.00  0.00    -0.744 OA
ENDBRANCH  44  47
ENDBRANCH  26  40
BRANCH  27  51
ATOM     51  C   UNL A   1      36.786  31.602  31.208  1.00  0.00     0.023 A 
ATOM     52  C   UNL A   1      36.077  32.107  32.312  1.00  0.00     0.012 A 
ATOM     53  C   UNL A   1      36.280  31.860  29.911  1.00  0.00     0.148 A 
ATOM     54  C   UNL A   1      34.914  32.865  32.134  1.00  0.00     0.002 A 
ATOM     55  C   UNL A   1      35.116  32.601  29.739  1.00  0.00     0.091 A 
ATOM     56  F   UNL A   1      36.983  31.455  28.845  1.00  0.00    -0.205 F 
ATOM     57  C   UNL A   1      34.436  33.116  30.849  1.00  0.00     0.022 A 
BRANCH  55  58
ATOM     58  S   UNL A   1      34.444  32.961  28.109  1.00  0.00     0.127 S 
ATOM     59  O   UNL A   1      35.563  33.650  27.466  1.00  0.00    -0.237 OA
ATOM     60  O   UNL A   1      34.171  31.626  27.588  1.00  0.00    -0.237 OA
ATOM     61  O   UNL A   1      33.275  33.804  28.333  1.00  0.00    -0.744 OA
ENDBRANCH  55  58
ENDBRANCH  27  51
BRANCH  39  62
ATOM     62  C   UNL A   1      42.402  30.722  34.021  1.00  0.00     0.023 A 
ATOM     63  C   UNL A   1      42.090  29.349  33.935  1.00  0.00     0.012 A 
ATOM     64  C   UNL A   1      42.854  31.236  35.252  1.00  0.00     0.148 A 
ATOM     65  C   UNL A   1      42.205  28.514  35.048  1.00  0.00     0.002 A 
ATOM     66  C   UNL A   1      43.018  30.390  36.344  1.00  0.00     0.091 A 
ATOM     67  F   UNL A   1      43.160  32.542  35.323  1.00  0.00    -0.205 F 
ATOM     68  C   UNL A   1      42.685  29.030  36.248  1.00  0.00     0.022 A 
BRANCH  66  69
ATOM     69  S   UNL A   1      43.785  30.954  37.867  1.00  0.00     0.127 S 
ATOM     70  O   UNL A   1      44.649  32.033  37.395  1.00  0.00    -0.237 OA
ATOM     71  O   UNL A   1      42.635  31.394  38.659  1.00  0.00    -0.237 OA
ATOM     72  O   UNL A   1      44.470  29.791  38.420  1.00  0.00    -0.744 OA
ENDBRANCH  66  69
ENDBRANCH  39  62
ENDBRANCH  13  14
ENDBRANCH   6   8
ENDBRANCH   5   6
ENDBRANCH   4   5
ENDBRANCH   3   4
ENDBRANCH   2   3
ENDBRANCH   1   2
BRANCH   1  73
ATOM     73  C   UNL A   1      47.600  25.125  25.980  1.00  0.00     0.188 C 
BRANCH  73  74
ATOM     74  O   UNL A   1      48.231  24.449  27.069  1.00  0.00    -0.376 OA
BRANCH  74  75
ATOM     75  C   UNL A   1      48.889  25.185  28.078  1.00  0.00     0.202 C 
BRANCH  75  76
ATOM     76  C   UNL A   1      48.837  26.701  27.862  1.00  0.00     0.261 C 
BRANCH  76  77
ATOM     77  O   UNL A   1      47.963  27.396  28.766  1.00  0.00    -0.458 OA
BRANCH  77  78
ATOM     78  C   UNL A   1      46.631  27.327  28.474  1.00  0.00     0.358 C 
ATOM     79  O   UNL A   1      46.077  27.963  27.573  1.00  0.00    -0.244 OA
BRANCH  78  80
ATOM     80  C   UNL A   1      45.879  26.495  29.422  1.00  0.00     0.170 A 
ATOM     81  C   UNL A   1      45.355  25.212  29.126  1.00  0.00     0.058 A 
ATOM     82  N   UNL A   1      45.670  26.820  30.721  1.00  0.00    -0.159 NA
ATOM     83  C   UNL A   1      45.016  24.682  30.342  1.00  0.00     0.118 A 
ATOM     84  N   UNL A   1      45.264  25.650  31.292  1.00  0.00    -0.222 N 
BRANCH  84  85
ATOM     85  C   UNL A   1      45.304  25.407  32.694  1.00  0.00     0.158 A 
ATOM     86  C   UNL A   1      44.202  25.684  33.483  1.00  0.00     0.078 A 
ATOM     87  N   UNL A   1      46.438  24.834  33.163  1.00  0.00    -0.209 NA
ATOM     88  C   UNL A   1      44.308  25.285  34.807  1.00  0.00     0.077 A 
ATOM     89  C   UNL A   1      46.471  24.588  34.479  1.00  0.00     0.165 A 
ATOM     90  N   UNL A   1      45.455  24.794  35.322  1.00  0.00    -0.228 NA
BRANCH  88  91
ATOM     91  C   UNL A   1      43.178  25.251  35.745  1.00  0.00     0.003 A 
ATOM     92  C   UNL A   1      43.351  25.624  37.085  1.00  0.00     0.030 A 
ATOM     93  C   UNL A   1      41.875  24.977  35.310  1.00  0.00     0.030 A 
ATOM     94  C   UNL A   1      42.243  25.682  37.918  1.00  0.00     0.111 A 
ATOM     95  C   UNL A   1      40.831  25.035  36.223  1.00  0.00     0.111 A 
ATOM     96  N   UNL A   1      40.998  25.359  37.520  1.00  0.00    -0.265 NA
ENDBRANCH  88  91
BRANCH  89  97
ATOM     97  C   UNL A   1      47.737  24.164  35.052  1.00  0.00     0.055 A 
ATOM     98  C   UNL A   1      48.540  25.063  35.778  1.00  0.00     0.015 A 
ATOM     99  C   UNL A   1      48.182  22.847  34.920  1.00  0.00     0.134 A 
ATOM    100  C   UNL A   1      49.739  24.644  36.361  1.00  0.00     0.001 A 
ATOM    101  C   UNL A   1      49.379  22.423  35.496  1.00  0.00     0.040 A 
ATOM    102  F   UNL A   1      47.471  21.959  34.209  1.00  0.00    -0.206 F 
ATOM    103  C   UNL A   1      50.158  23.322  36.222  1.00  0.00     0.003 A 
ENDBRANCH  89  97
ENDBRANCH  84  85
ENDBRANCH  78  80
ENDBRANCH  77  78
ENDBRANCH  76  77
ENDBRANCH  75  76
ENDBRANCH  74  75
ENDBRANCH  73  74
ENDBRANCH   1  73
TORSDOF 23
ENDMDL
MODEL 3
REMARK VINA RESULT:      -9.8      4.557     10.911
REMARK SMILES O=C(OCCOCCOCCOC(=O)c1ccn(-c2cc(-c3ccncc3)nc(-c3ccccc3F)n2)n1)c1ccc(-c2c3nc(c(-c4cccc(S(=O)(=O)[O-])c4F)c4ccc([nH]4)c(-c4cccc(S(=O)(=O)[O-])c4F)c4nc(c(-c5cccc(S(=O)(=O)[O-])c5F)c5ccc2[nH]5)C=C4)C=C3)cc1
REMARK SMILES IDX 7 1 6 2 5 3 4 4 3 5 2 6 1 7 39 8 40 9 101 10 41 11 100 12
REMARK SMILES IDX 42 13 43 14 44 15 94 16 45 17 99 18 93 19 95 20 46 21 98 22
REMARK SMILES IDX 92 23 91 24 47 26 79 27 59 28 78 29 60 30 63 31 77 32 96 33
REMARK SMILES IDX 61 34 62 35 76 37 97 38 64 39 48 40 49 41 57 42 50 43 52 44
REMARK SMILES IDX 58 45 51 46 53 47 54 48 55 49 56 50 80 51 81 52 89 53 82 54
REMARK SMILES IDX 84 55 90 56 83 57 85 58 86 59 87 60 88 61 65 62 66 63 74 64
REMARK SMILES IDX 67 65 69 66 75 67 68 68 70 69 71 70 72 71 73 72 8 73 9 74
REMARK SMILES IDX 10 75 11 76 12 77 13 78 14 79 15 80 16 81 38 82 17 83 18 84
REMARK SMILES IDX 19 85 20 86 37 87 21 88 29 89 28 90 22 91 23 92 27 93 24 94
REMARK SMILES IDX 26 95 25 96 30 97 31 98 35 99 32 100 34 101 36 102 33 103
REMARK H PARENT 95 25 63 36
REMARK Flexibility Score: inf
ROOT
ATOM      1  C   UNL A   1      38.405  33.333  37.354  1.00  0.00     0.188 C 
ENDROOT
BRANCH   1   2
ATOM      2  O   UNL A   1      37.990  33.974  36.152  1.00  0.00    -0.376 OA
BRANCH   2   3
ATOM      3  C   UNL A   1      36.952  33.318  35.444  1.00  0.00     0.202 C 
BRANCH   3   4
ATOM      4  C   UNL A   1      37.436  32.059  34.725  1.00  0.00     0.261 C 
BRANCH   4   5
ATOM      5  O   UNL A   1      37.177  32.005  33.310  1.00  0.00    -0.460 OA
BRANCH   5   6
ATOM      6  C   UNL A   1      36.949  30.978  32.467  1.00  0.00     0.338 C 
ATOM      7  O   UNL A   1      35.792  30.609  32.283  1.00  0.00    -0.246 OA
BRANCH   6   8
ATOM      8  C   UNL A   1      38.040  30.176  31.858  1.00  0.00     0.060 A 
ATOM      9  C   UNL A   1      39.016  29.490  32.580  1.00  0.00     0.016 A 
ATOM     10  C   UNL A   1      38.122  30.208  30.450  1.00  0.00     0.016 A 
ATOM     11  C   UNL A   1      40.089  28.905  31.921  1.00  0.00     0.010 A 
ATOM     12  C   UNL A   1      39.204  29.638  29.789  1.00  0.00     0.010 A 
ATOM     13  C   UNL A   1      40.217  29.046  30.539  1.00  0.00    -0.014 A 
BRANCH  13  14
ATOM     14  C   UNL A   1      41.509  28.689  29.963  1.00  0.00     0.031 A 
ATOM     15  C   UNL A   1      41.702  27.295  29.473  1.00  0.00     0.074 A 
ATOM     16  C   UNL A   1      42.488  29.610  29.851  1.00  0.00     0.049 A 
ATOM     17  N   UNL A   1      42.621  26.442  29.802  1.00  0.00    -0.248 NA
ATOM     18  C   UNL A   1      40.711  26.770  28.527  1.00  0.00     0.031 C 
ATOM     19  C   UNL A   1      42.370  31.062  30.024  1.00  0.00     0.029 A 
ATOM     20  N   UNL A   1      43.768  29.448  29.410  1.00  0.00    -0.354 N 
ATOM     21  C   UNL A   1      42.436  25.335  28.971  1.00  0.00     0.074 A 
ATOM     22  C   UNL A   1      41.198  25.557  28.266  1.00  0.00     0.031 C 
ATOM     23  C   UNL A   1      43.427  31.659  29.433  1.00  0.00     0.029 A 
ATOM     24  C   UNL A   1      44.344  30.634  28.976  1.00  0.00     0.049 A 
ATOM     25  H   UNL A   1      44.234  28.581  29.402  1.00  0.00     0.167 HD
ATOM     26  C   UNL A   1      43.374  24.363  28.805  1.00  0.00     0.034 A 
ATOM     27  C   UNL A   1      45.440  30.752  28.193  1.00  0.00     0.034 A 
ATOM     28  C   UNL A   1      44.380  24.382  29.824  1.00  0.00     0.049 A 
ATOM     29  C   UNL A   1      46.208  29.490  28.291  1.00  0.00     0.074 A 
ATOM     30  C   UNL A   1      44.397  24.172  31.186  1.00  0.00     0.029 A 
ATOM     31  N   UNL A   1      45.596  24.931  29.506  1.00  0.00    -0.354 N 
ATOM     32  N   UNL A   1      46.821  29.085  29.369  1.00  0.00    -0.248 NA
ATOM     33  C   UNL A   1      46.016  28.481  27.263  1.00  0.00     0.031 C 
ATOM     34  C   UNL A   1      45.436  25.012  31.677  1.00  0.00     0.029 A 
ATOM     35  C   UNL A   1      45.990  25.681  30.582  1.00  0.00     0.049 A 
ATOM     36  H   UNL A   1      46.093  24.808  28.665  1.00  0.00     0.167 HD
ATOM     37  C   UNL A   1      46.719  27.701  29.331  1.00  0.00     0.074 A 
ATOM     38  C   UNL A   1      46.347  27.389  27.956  1.00  0.00     0.031 C 
ATOM     39  C   UNL A   1      46.664  26.961  30.479  1.00  0.00     0.034 A 
BRANCH  26  40
ATOM     40  C   UNL A   1      43.522  23.498  27.582  1.00  0.00     0.023 A 
ATOM     41  C   UNL A   1      44.150  24.036  26.438  1.00  0.00     0.012 A 
ATOM     42  C   UNL A   1      42.861  22.262  27.428  1.00  0.00     0.148 A 
ATOM     43  C   UNL A   1      44.118  23.377  25.203  1.00  0.00     0.002 A 
ATOM     44  C   UNL A   1      42.898  21.573  26.221  1.00  0.00     0.091 A 
ATOM     45  F   UNL A   1      42.090  21.800  28.419  1.00  0.00    -0.205 F 
ATOM     46  C   UNL A   1      43.506  22.134  25.097  1.00  0.00     0.022 A 
BRANCH  44  47
ATOM     47  S   UNL A   1      42.199  19.925  26.092  1.00  0.00     0.127 S 
ATOM     48  O   UNL A   1      42.837  19.427  24.879  1.00  0.00    -0.237 OA
ATOM     49  O   UNL A   1      42.652  19.298  27.334  1.00  0.00    -0.237 OA
ATOM     50  O   UNL A   1      40.758  20.151  26.033  1.00  0.00    -0.744 OA
ENDBRANCH  44  47
ENDBRANCH  26  40
BRANCH  27  51
ATOM     51  C   UNL A   1      45.713  31.772  27.156  1.00  0.00     0.023 A 
ATOM     52  C   UNL A   1      44.650  32.282  26.390  1.00  0.00     0.012 A 
ATOM     53  C   UNL A   1      46.965  32.427  27.086  1.00  0.00     0.148 A 
ATOM     54  C   UNL A   1      44.819  33.422  25.596  1.00  0.00     0.002 A 
ATOM     55  C   UNL A   1      47.133  33.551  26.284  1.00  0.00     0.091 A 
ATOM     56  F   UNL A   1      47.967  32.004  27.868  1.00  0.00    -0.205 F 
ATOM     57  C   UNL A   1      46.057  34.059  25.547  1.00  0.00     0.022 A 
BRANCH  55  58
ATOM     58  S   UNL A   1      48.704  34.421  26.174  1.00  0.00     0.127 S 
ATOM     59  O   UNL A   1      48.711  35.192  27.418  1.00  0.00    -0.237 OA
ATOM     60  O   UNL A   1      49.662  33.320  26.134  1.00  0.00    -0.237 OA
ATOM     61  O   UNL A   1      48.628  35.238  24.968  1.00  0.00    -0.744 OA
ENDBRANCH  55  58
ENDBRANCH  27  51
BRANCH  39  62
ATOM     62  C   UNL A   1      46.989  27.635  31.792  1.00  0.00     0.023 A 
ATOM     63  C   UNL A   1      48.311  27.685  32.281  1.00  0.00     0.012 A 
ATOM     64  C   UNL A   1      46.005  28.421  32.422  1.00  0.00     0.148 A 
ATOM     65  C   UNL A   1      48.642  28.479  33.381  1.00  0.00     0.002 A 
ATOM     66  C   UNL A   1      46.350  29.253  33.483  1.00  0.00     0.091 A 
ATOM     67  F   UNL A   1      44.752  28.378  31.942  1.00  0.00    -0.205 F 
ATOM     68  C   UNL A   1      47.665  29.276  33.972  1.00  0.00     0.022 A 
BRANCH  66  69
ATOM     69  S   UNL A   1      45.181  30.424  34.181  1.00  0.00     0.127 S 
ATOM     70  O   UNL A   1      44.326  29.561  34.992  1.00  0.00    -0.237 OA
ATOM     71  O   UNL A   1      46.049  31.321  34.949  1.00  0.00    -0.237 OA
ATOM     72  O   UNL A   1      44.534  31.065  33.042  1.00  0.00    -0.744 OA
ENDBRANCH  66  69
ENDBRANCH  39  62
ENDBRANCH  13  14
ENDBRANCH   6   8
ENDBRANCH   5   6
ENDBRANCH   4   5
ENDBRANCH   3   4
ENDBRANCH   2   3
ENDBRANCH   1   2
BRANCH   1  73
ATOM     73  C   UNL A   1      39.826  32.726  37.302  1.00  0.00     0.188 C 
BRANCH  73  74
ATOM     74  O   UNL A   1      40.720  32.919  36.204  1.00  0.00    -0.376 OA
BRANCH  74  75
ATOM     75  C   UNL A   1      41.169  31.813  35.449  1.00  0.00     0.202 C 
BRANCH  75  76
ATOM     76  C   UNL A   1      41.270  32.100  33.948  1.00  0.00     0.261 C 
BRANCH  76  77
ATOM     77  O   UNL A   1      40.953  33.453  33.582  1.00  0.00    -0.458 OA
BRANCH  77  78
ATOM     78  C   UNL A   1      41.435  33.870  32.375  1.00  0.00     0.358 C 
ATOM     79  O   UNL A   1      42.621  34.121  32.144  1.00  0.00    -0.244 OA
BRANCH  78  80
ATOM     80  C   UNL A   1      40.377  34.107  31.386  1.00  0.00     0.170 A 
ATOM     81  C   UNL A   1      40.553  34.024  29.983  1.00  0.00     0.058 A 
ATOM     82  N   UNL A   1      39.081  34.350  31.702  1.00  0.00    -0.159 NA
ATOM     83  C   UNL A   1      39.284  34.008  29.469  1.00  0.00     0.118 A 
ATOM     84  N   UNL A   1      38.414  34.153  30.528  1.00  0.00    -0.222 N 
BRANCH  84  85
ATOM     85  C   UNL A   1      37.013  33.915  30.454  1.00  0.00     0.158 A 
ATOM     86  C   UNL A   1      36.139  34.627  31.255  1.00  0.00     0.078 A 
ATOM     87  N   UNL A   1      36.614  33.023  29.515  1.00  0.00    -0.209 NA
ATOM     88  C   UNL A   1      34.793  34.407  31.004  1.00  0.00     0.077 A 
ATOM     89  C   UNL A   1      35.294  32.810  29.431  1.00  0.00     0.165 A 
ATOM     90  N   UNL A   1      34.367  33.462  30.139  1.00  0.00    -0.228 NA
BRANCH  88  91
ATOM     91  C   UNL A   1      33.711  35.233  31.555  1.00  0.00     0.003 A 
ATOM     92  C   UNL A   1      32.731  34.667  32.381  1.00  0.00     0.030 A 
ATOM     93  C   UNL A   1      33.696  36.624  31.386  1.00  0.00     0.030 A 
ATOM     94  C   UNL A   1      31.785  35.494  32.970  1.00  0.00     0.111 A 
ATOM     95  C   UNL A   1      32.693  37.368  31.993  1.00  0.00     0.111 A 
ATOM     96  N   UNL A   1      31.729  36.823  32.760  1.00  0.00    -0.265 NA
ENDBRANCH  88  91
BRANCH  89  97
ATOM     97  C   UNL A   1      34.841  31.721  28.583  1.00  0.00     0.055 A 
ATOM     98  C   UNL A   1      35.568  30.519  28.500  1.00  0.00     0.015 A 
ATOM     99  C   UNL A   1      33.660  31.825  27.845  1.00  0.00     0.134 A 
ATOM    100  C   UNL A   1      35.113  29.458  27.713  1.00  0.00     0.001 A 
ATOM    101  C   UNL A   1      33.201  30.771  27.056  1.00  0.00     0.040 A 
ATOM    102  F   UNL A   1      32.948  32.962  27.862  1.00  0.00    -0.206 F 
ATOM    103  C   UNL A   1      33.926  29.583  26.992  1.00  0.00     0.003 A 
ENDBRANCH  89  97
ENDBRANCH  84  85
ENDBRANCH  78  80
ENDBRANCH  77  78
ENDBRANCH  76  77
ENDBRANCH  75  76
ENDBRANCH  74  75
ENDBRANCH  73  74
ENDBRANCH   1  73
TORSDOF 23
ENDMDL
