MODEL 1
REMARK VINA RESULT:     -10.2      0.000      0.000
REMARK SMILES O=C(OCCOCCOCCOC(=O)c1cc(S[C@H]2CCO[C@@]3(CCOC3)C2)cs1)c1ccc(-c2c3nc(c(-c4cccc(S(=O)(=O)[O-])c4F)c4ccc([nH]4)c(-c4cccc(S(=O)(=O)[O-])c4F)c4nc(c(-c5cccc(S(=O)(=O)[O-])c5F)c5ccc2[nH]5)C=C4)C=C3)cc1
REMARK SMILES IDX 7 1 6 2 5 3 4 4 3 5 2 6 1 7 31 8 32 9 93 10 33 11 92 12
REMARK SMILES IDX 34 13 35 14 36 15 86 16 37 17 91 18 85 19 87 20 38 21 90 22
REMARK SMILES IDX 84 23 83 24 39 26 71 27 51 28 70 29 52 30 55 31 69 32 88 33
REMARK SMILES IDX 53 34 54 35 68 37 89 38 56 39 40 40 41 41 49 42 42 43 44 44
REMARK SMILES IDX 50 45 43 46 45 47 46 48 47 49 48 50 72 51 73 52 81 53 74 54
REMARK SMILES IDX 76 55 82 56 75 57 77 58 78 59 79 60 80 61 57 62 58 63 66 64
REMARK SMILES IDX 59 65 61 66 67 67 60 68 62 69 63 70 64 71 65 72 8 73 9 74
REMARK SMILES IDX 10 75 11 76 12 77 13 78 14 79 15 80 16 81 30 82 17 83 29 84
REMARK SMILES IDX 18 85 19 86 20 87 28 88 21 89 23 90 22 91 24 92 27 93 25 94
REMARK SMILES IDX 26 95
REMARK H PARENT 87 25 55 36
REMARK Flexibility Score: inf
ROOT
ATOM      1  C   UNL A   1      33.481  29.547  27.307  1.00  0.00     0.188 C 
ENDROOT
BRANCH   1   2
ATOM      2  O   UNL A   1      32.611  30.678  27.470  1.00  0.00    -0.376 OA
BRANCH   2   3
ATOM      3  C   UNL A   1      33.034  31.826  26.736  1.00  0.00     0.202 C 
BRANCH   3   4
ATOM      4  C   UNL A   1      32.051  32.996  26.837  1.00  0.00     0.261 C 
BRANCH   4   5
ATOM      5  O   UNL A   1      32.331  33.789  28.006  1.00  0.00    -0.460 OA
BRANCH   5   6
ATOM      6  C   UNL A   1      33.509  34.372  28.346  1.00  0.00     0.338 C 
ATOM      7  O   UNL A   1      33.660  35.577  28.157  1.00  0.00    -0.246 OA
BRANCH   6   8
ATOM      8  C   UNL A   1      34.585  33.625  29.057  1.00  0.00     0.060 A 
ATOM      9  C   UNL A   1      34.400  32.394  29.688  1.00  0.00     0.016 A 
ATOM     10  C   UNL A   1      35.876  34.174  29.021  1.00  0.00     0.016 A 
ATOM     11  C   UNL A   1      35.446  31.802  30.406  1.00  0.00     0.010 A 
ATOM     12  C   UNL A   1      36.942  33.542  29.676  1.00  0.00     0.010 A 
ATOM     13  C   UNL A   1      36.724  32.379  30.425  1.00  0.00    -0.014 A 
BRANCH  13  14
ATOM     14  C   UNL A   1      37.803  31.768  31.249  1.00  0.00     0.031 A 
ATOM     15  C   UNL A   1      38.692  30.693  30.677  1.00  0.00     0.074 A 
ATOM     16  C   UNL A   1      37.998  32.178  32.518  1.00  0.00     0.049 A 
ATOM     17  N   UNL A   1      39.739  30.118  31.215  1.00  0.00    -0.248 NA
ATOM     18  C   UNL A   1      38.361  30.188  29.334  1.00  0.00     0.031 C 
ATOM     19  C   UNL A   1      37.158  33.132  33.244  1.00  0.00     0.029 A 
ATOM     20  N   UNL A   1      38.961  31.821  33.430  1.00  0.00    -0.354 N 
ATOM     21  C   UNL A   1      40.172  29.169  30.295  1.00  0.00     0.074 A 
ATOM     22  C   UNL A   1      39.266  29.234  29.168  1.00  0.00     0.031 C 
ATOM     23  C   UNL A   1      37.634  33.267  34.495  1.00  0.00     0.029 A 
ATOM     24  C   UNL A   1      38.809  32.421  34.658  1.00  0.00     0.049 A 
ATOM     25  H   UNL A   1      39.691  31.194  33.225  1.00  0.00     0.167 HD
ATOM     26  C   UNL A   1      41.238  28.337  30.360  1.00  0.00     0.034 A 
ATOM     27  C   UNL A   1      39.537  32.304  35.784  1.00  0.00     0.034 A 
ATOM     28  C   UNL A   1      42.179  28.290  31.445  1.00  0.00     0.049 A 
ATOM     29  C   UNL A   1      40.781  31.456  35.780  1.00  0.00     0.074 A 
ATOM     30  C   UNL A   1      43.324  27.520  31.564  1.00  0.00     0.029 A 
ATOM     31  N   UNL A   1      42.083  29.041  32.602  1.00  0.00    -0.354 N 
ATOM     32  N   UNL A   1      41.304  30.761  34.801  1.00  0.00    -0.248 NA
ATOM     33  C   UNL A   1      41.565  31.420  37.026  1.00  0.00     0.031 C 
ATOM     34  C   UNL A   1      43.927  27.814  32.793  1.00  0.00     0.029 A 
ATOM     35  C   UNL A   1      43.145  28.754  33.442  1.00  0.00     0.049 A 
ATOM     36  H   UNL A   1      41.365  29.686  32.800  1.00  0.00     0.167 HD
ATOM     37  C   UNL A   1      42.476  30.216  35.313  1.00  0.00     0.074 A 
ATOM     38  C   UNL A   1      42.626  30.719  36.660  1.00  0.00     0.031 C 
ATOM     39  C   UNL A   1      43.326  29.328  34.744  1.00  0.00     0.034 A 
BRANCH  26  40
ATOM     40  C   UNL A   1      41.494  27.456  29.171  1.00  0.00     0.023 A 
ATOM     41  C   UNL A   1      40.913  26.173  29.144  1.00  0.00     0.012 A 
ATOM     42  C   UNL A   1      42.264  27.897  28.080  1.00  0.00     0.148 A 
ATOM     43  C   UNL A   1      41.104  25.333  28.049  1.00  0.00     0.002 A 
ATOM     44  C   UNL A   1      42.434  27.061  26.982  1.00  0.00     0.091 A 
ATOM     45  F   UNL A   1      42.833  29.109  28.143  1.00  0.00    -0.205 F 
ATOM     46  C   UNL A   1      41.857  25.780  26.966  1.00  0.00     0.022 A 
BRANCH  44  47
ATOM     47  S   UNL A   1      43.359  27.565  25.528  1.00  0.00     0.127 S 
ATOM     48  O   UNL A   1      44.280  28.551  26.093  1.00  0.00    -0.237 OA
ATOM     49  O   UNL A   1      43.990  26.314  25.106  1.00  0.00    -0.237 OA
ATOM     50  O   UNL A   1      42.371  28.086  24.594  1.00  0.00    -0.744 OA
ENDBRANCH  44  47
ENDBRANCH  26  40
BRANCH  27  51
ATOM     51  C   UNL A   1      39.159  33.027  37.029  1.00  0.00     0.023 A 
ATOM     52  C   UNL A   1      39.744  34.281  37.293  1.00  0.00     0.012 A 
ATOM     53  C   UNL A   1      38.337  32.429  38.001  1.00  0.00     0.148 A 
ATOM     54  C   UNL A   1      39.614  34.869  38.548  1.00  0.00     0.002 A 
ATOM     55  C   UNL A   1      38.151  33.061  39.224  1.00  0.00     0.091 A 
ATOM     56  F   UNL A   1      37.793  31.233  37.738  1.00  0.00    -0.205 F 
ATOM     57  C   UNL A   1      38.821  34.258  39.516  1.00  0.00     0.022 A 
BRANCH  55  58
ATOM     58  S   UNL A   1      36.994  32.425  40.439  1.00  0.00     0.127 S 
ATOM     59  O   UNL A   1      35.711  32.653  39.784  1.00  0.00    -0.237 OA
ATOM     60  O   UNL A   1      37.394  31.019  40.539  1.00  0.00    -0.237 OA
ATOM     61  O   UNL A   1      37.256  33.203  41.642  1.00  0.00    -0.744 OA
ENDBRANCH  55  58
ENDBRANCH  27  51
BRANCH  39  62
ATOM     62  C   UNL A   1      44.472  28.853  35.590  1.00  0.00     0.023 A 
ATOM     63  C   UNL A   1      45.726  29.482  35.448  1.00  0.00     0.012 A 
ATOM     64  C   UNL A   1      44.326  27.801  36.510  1.00  0.00     0.148 A 
ATOM     65  C   UNL A   1      46.826  29.047  36.186  1.00  0.00     0.002 A 
ATOM     66  C   UNL A   1      45.420  27.394  37.267  1.00  0.00     0.091 A 
ATOM     67  F   UNL A   1      43.136  27.189  36.610  1.00  0.00    -0.205 F 
ATOM     68  C   UNL A   1      46.672  28.009  37.101  1.00  0.00     0.022 A 
BRANCH  66  69
ATOM     69  S   UNL A   1      45.259  26.102  38.503  1.00  0.00     0.127 S 
ATOM     70  O   UNL A   1      46.596  26.073  39.090  1.00  0.00    -0.237 OA
ATOM     71  O   UNL A   1      44.217  26.625  39.389  1.00  0.00    -0.237 OA
ATOM     72  O   UNL A   1      44.860  24.916  37.755  1.00  0.00    -0.744 OA
ENDBRANCH  66  69
ENDBRANCH  39  62
ENDBRANCH  13  14
ENDBRANCH   6   8
ENDBRANCH   5   6
ENDBRANCH   4   5
ENDBRANCH   3   4
ENDBRANCH   2   3
ENDBRANCH   1   2
BRANCH   1  73
ATOM     73  C   UNL A   1      33.666  29.257  25.818  1.00  0.00     0.188 C 
BRANCH  73  74
ATOM     74  O   UNL A   1      32.525  28.609  25.242  1.00  0.00    -0.376 OA
BRANCH  74  75
ATOM     75  C   UNL A   1      32.669  27.216  24.975  1.00  0.00     0.202 C 
BRANCH  75  76
ATOM     76  C   UNL A   1      33.441  26.906  23.692  1.00  0.00     0.261 C 
BRANCH  76  77
ATOM     77  O   UNL A   1      32.603  26.830  22.526  1.00  0.00    -0.459 OA
BRANCH  77  78
ATOM     78  C   UNL A   1      32.768  25.710  21.766  1.00  0.00     0.348 C 
ATOM     79  O   UNL A   1      33.188  25.707  20.611  1.00  0.00    -0.245 OA
BRANCH  78  80
ATOM     80  C   UNL A   1      32.332  24.545  22.492  1.00  0.00     0.113 A 
ATOM     81  C   UNL A   1      33.060  23.425  22.855  1.00  0.00     0.042 A 
ATOM     82  S   UNL A   1      30.742  24.491  23.123  1.00  0.00    -0.136 S 
ATOM     83  C   UNL A   1      32.432  22.755  23.939  1.00  0.00     0.019 A 
ATOM     84  C   UNL A   1      31.117  23.131  24.088  1.00  0.00     0.080 A 
BRANCH  83  85
ATOM     85  S   UNL A   1      33.198  21.617  25.028  1.00  0.00    -0.122 SA
BRANCH  85  86
ATOM     86  C   UNL A   1      32.750  19.968  24.389  1.00  0.00     0.057 C 
ATOM     87  C   UNL A   1      32.526  19.894  22.877  1.00  0.00     0.043 C 
ATOM     88  C   UNL A   1      33.880  18.991  24.726  1.00  0.00     0.053 C 
ATOM     89  C   UNL A   1      32.143  18.468  22.519  1.00  0.00     0.162 C 
ATOM     90  C   UNL A   1      33.555  17.561  24.264  1.00  0.00     0.095 C 
ATOM     91  O   UNL A   1      33.170  17.551  22.874  1.00  0.00    -0.372 OA
ATOM     92  C   UNL A   1      34.771  16.640  24.369  1.00  0.00     0.066 C 
ATOM     93  C   UNL A   1      32.503  16.870  25.147  1.00  0.00     0.195 C 
ATOM     94  C   UNL A   1      34.373  15.558  25.346  1.00  0.00     0.163 C 
ATOM     95  O   UNL A   1      32.947  15.523  25.367  1.00  0.00    -0.378 OA
ENDBRANCH  85  86
ENDBRANCH  83  85
ENDBRANCH  78  80
ENDBRANCH  77  78
ENDBRANCH  76  77
ENDBRANCH  75  76
ENDBRANCH  74  75
ENDBRANCH  73  74
ENDBRANCH   1  73
TORSDOF 22
ENDMDL
MODEL 2
REMARK VINA RESULT:      -9.6      5.707     11.085
REMARK SMILES O=C(OCCOCCOCCOC(=O)c1cc(S[C@H]2CCO[C@@]3(CCOC3)C2)cs1)c1ccc(-c2c3nc(c(-c4cccc(S(=O)(=O)[O-])c4F)c4ccc([nH]4)c(-c4cccc(S(=O)(=O)[O-])c4F)c4nc(c(-c5cccc(S(=O)(=O)[O-])c5F)c5ccc2[nH]5)C=C4)C=C3)cc1
REMARK SMILES IDX 7 1 6 2 5 3 4 4 3 5 2 6 1 7 31 8 32 9 93 10 33 11 92 12
REMARK SMILES IDX 34 13 35 14 36 15 86 16 37 17 91 18 85 19 87 20 38 21 90 22
REMARK SMILES IDX 84 23 83 24 39 26 71 27 51 28 70 29 52 30 55 31 69 32 88 33
REMARK SMILES IDX 53 34 54 35 68 37 89 38 56 39 40 40 41 41 49 42 42 43 44 44
REMARK SMILES IDX 50 45 43 46 45 47 46 48 47 49 48 50 72 51 73 52 81 53 74 54
REMARK SMILES IDX 76 55 82 56 75 57 77 58 78 59 79 60 80 61 57 62 58 63 66 64
REMARK SMILES IDX 59 65 61 66 67 67 60 68 62 69 63 70 64 71 65 72 8 73 9 74
REMARK SMILES IDX 10 75 11 76 12 77 13 78 14 79 15 80 16 81 30 82 17 83 29 84
REMARK SMILES IDX 18 85 19 86 20 87 28 88 21 89 23 90 22 91 24 92 27 93 25 94
REMARK SMILES IDX 26 95
REMARK H PARENT 87 25 55 36
REMARK Flexibility Score: inf
ROOT
ATOM      1  C   UNL A   1      43.509  18.780  25.573  1.00  0.00     0.188 C 
ENDROOT
BRANCH   1   2
ATOM      2  O   UNL A   1      42.080  18.912  25.625  1.00  0.00    -0.376 OA
BRANCH   2   3
ATOM      3  C   UNL A   1      41.627  19.742  26.693  1.00  0.00     0.202 C 
BRANCH   3   4
ATOM      4  C   UNL A   1      40.252  20.360  26.428  1.00  0.00     0.261 C 
BRANCH   4   5
ATOM      5  O   UNL A   1      40.370  21.778  26.207  1.00  0.00    -0.460 OA
BRANCH   5   6
ATOM      6  C   UNL A   1      39.407  22.721  26.359  1.00  0.00     0.338 C 
ATOM      7  O   UNL A   1      38.226  22.397  26.249  1.00  0.00    -0.246 OA
BRANCH   6   8
ATOM      8  C   UNL A   1      39.723  24.115  26.779  1.00  0.00     0.060 A 
ATOM      9  C   UNL A   1      40.205  25.104  25.918  1.00  0.00     0.016 A 
ATOM     10  C   UNL A   1      39.450  24.461  28.111  1.00  0.00     0.016 A 
ATOM     11  C   UNL A   1      40.557  26.364  26.414  1.00  0.00     0.010 A 
ATOM     12  C   UNL A   1      39.732  25.747  28.591  1.00  0.00     0.010 A 
ATOM     13  C   UNL A   1      40.343  26.694  27.761  1.00  0.00    -0.014 A 
BRANCH  13  14
ATOM     14  C   UNL A   1      40.787  28.016  28.281  1.00  0.00     0.031 A 
ATOM     15  C   UNL A   1      42.252  28.373  28.326  1.00  0.00     0.074 A 
ATOM     16  C   UNL A   1      39.878  28.913  28.712  1.00  0.00     0.049 A 
ATOM     17  N   UNL A   1      42.813  29.510  28.655  1.00  0.00    -0.248 NA
ATOM     18  C   UNL A   1      43.213  27.318  27.965  1.00  0.00     0.031 C 
ATOM     19  C   UNL A   1      38.437  28.678  28.828  1.00  0.00     0.029 A 
ATOM     20  N   UNL A   1      40.041  30.202  29.157  1.00  0.00    -0.354 N 
ATOM     21  C   UNL A   1      44.185  29.300  28.570  1.00  0.00     0.074 A 
ATOM     22  C   UNL A   1      44.374  27.922  28.171  1.00  0.00     0.031 C 
ATOM     23  C   UNL A   1      37.856  29.781  29.331  1.00  0.00     0.029 A 
ATOM     24  C   UNL A   1      38.872  30.799  29.565  1.00  0.00     0.049 A 
ATOM     25  H   UNL A   1      40.914  30.656  29.182  1.00  0.00     0.167 HD
ATOM     26  C   UNL A   1      45.199  30.173  28.775  1.00  0.00     0.034 A 
ATOM     27  C   UNL A   1      38.646  32.027  30.067  1.00  0.00     0.034 A 
ATOM     28  C   UNL A   1      45.034  31.558  29.124  1.00  0.00     0.049 A 
ATOM     29  C   UNL A   1      39.784  33.008  30.174  1.00  0.00     0.074 A 
ATOM     30  C   UNL A   1      46.007  32.529  29.290  1.00  0.00     0.029 A 
ATOM     31  N   UNL A   1      43.817  32.168  29.363  1.00  0.00    -0.354 N 
ATOM     32  N   UNL A   1      41.042  32.852  29.844  1.00  0.00    -0.248 NA
ATOM     33  C   UNL A   1      39.457  34.354  30.673  1.00  0.00     0.031 C 
ATOM     34  C   UNL A   1      45.374  33.734  29.621  1.00  0.00     0.029 A 
ATOM     35  C   UNL A   1      44.011  33.502  29.677  1.00  0.00     0.049 A 
ATOM     36  H   UNL A   1      42.941  31.721  29.317  1.00  0.00     0.167 HD
ATOM     37  C   UNL A   1      41.648  34.079  30.089  1.00  0.00     0.074 A 
ATOM     38  C   UNL A   1      40.610  34.987  30.523  1.00  0.00     0.031 C 
ATOM     39  C   UNL A   1      42.958  34.414  30.022  1.00  0.00     0.034 A 
BRANCH  26  40
ATOM     40  C   UNL A   1      46.595  29.670  28.546  1.00  0.00     0.023 A 
ATOM     41  C   UNL A   1      47.169  29.829  27.269  1.00  0.00     0.012 A 
ATOM     42  C   UNL A   1      47.347  29.085  29.581  1.00  0.00     0.148 A 
ATOM     43  C   UNL A   1      48.471  29.399  27.020  1.00  0.00     0.002 A 
ATOM     44  C   UNL A   1      48.652  28.677  29.330  1.00  0.00     0.091 A 
ATOM     45  F   UNL A   1      46.768  28.916  30.778  1.00  0.00    -0.205 F 
ATOM     46  C   UNL A   1      49.214  28.831  28.052  1.00  0.00     0.022 A 
BRANCH  44  47
ATOM     47  S   UNL A   1      49.695  27.967  30.608  1.00  0.00     0.127 S 
ATOM     48  O   UNL A   1      50.074  26.691  30.004  1.00  0.00    -0.237 OA
ATOM     49  O   UNL A   1      50.783  28.942  30.705  1.00  0.00    -0.237 OA
ATOM     50  O   UNL A   1      48.857  27.880  31.796  1.00  0.00    -0.744 OA
ENDBRANCH  44  47
ENDBRANCH  26  40
BRANCH  27  51
ATOM     51  C   UNL A   1      37.284  32.453  30.488  1.00  0.00     0.023 A 
ATOM     52  C   UNL A   1      36.826  32.104  31.773  1.00  0.00     0.012 A 
ATOM     53  C   UNL A   1      36.403  33.079  29.588  1.00  0.00     0.148 A 
ATOM     54  C   UNL A   1      35.485  32.262  32.111  1.00  0.00     0.002 A 
ATOM     55  C   UNL A   1      35.084  33.302  29.962  1.00  0.00     0.091 A 
ATOM     56  F   UNL A   1      36.851  33.400  28.366  1.00  0.00    -0.205 F 
ATOM     57  C   UNL A   1      34.612  32.856  31.204  1.00  0.00     0.022 A 
BRANCH  55  58
ATOM     58  S   UNL A   1      33.960  34.233  28.918  1.00  0.00     0.127 S 
ATOM     59  O   UNL A   1      33.522  33.220  27.965  1.00  0.00    -0.237 OA
ATOM     60  O   UNL A   1      32.936  34.662  29.875  1.00  0.00    -0.237 OA
ATOM     61  O   UNL A   1      34.766  35.322  28.384  1.00  0.00    -0.744 OA
ENDBRANCH  55  58
ENDBRANCH  27  51
BRANCH  39  62
ATOM     62  C   UNL A   1      43.321  35.811  30.437  1.00  0.00     0.023 A 
ATOM     63  C   UNL A   1      43.471  36.797  29.440  1.00  0.00     0.012 A 
ATOM     64  C   UNL A   1      43.515  36.155  31.785  1.00  0.00     0.148 A 
ATOM     65  C   UNL A   1      43.843  38.097  29.778  1.00  0.00     0.002 A 
ATOM     66  C   UNL A   1      43.856  37.463  32.118  1.00  0.00     0.091 A 
ATOM     67  F   UNL A   1      43.403  35.199  32.720  1.00  0.00    -0.205 F 
ATOM     68  C   UNL A   1      44.028  38.432  31.117  1.00  0.00     0.022 A 
BRANCH  66  69
ATOM     69  S   UNL A   1      44.045  37.960  33.832  1.00  0.00     0.127 S 
ATOM     70  O   UNL A   1      42.657  38.081  34.270  1.00  0.00    -0.237 OA
ATOM     71  O   UNL A   1      44.773  36.835  34.422  1.00  0.00    -0.237 OA
ATOM     72  O   UNL A   1      44.811  39.199  33.779  1.00  0.00    -0.744 OA
ENDBRANCH  66  69
ENDBRANCH  39  62
ENDBRANCH  13  14
ENDBRANCH   6   8
ENDBRANCH   5   6
ENDBRANCH   4   5
ENDBRANCH   3   4
ENDBRANCH   2   3
ENDBRANCH   1   2
BRANCH   1  73
ATOM     73  C   UNL A   1      44.156  20.113  25.948  1.00  0.00     0.188 C 
BRANCH  73  74
ATOM     74  O   UNL A   1      44.564  20.866  24.798  1.00  0.00    -0.376 OA
BRANCH  74  75
ATOM     75  C   UNL A   1      44.220  22.250  24.807  1.00  0.00     0.202 C 
BRANCH  75  76
ATOM     76  C   UNL A   1      43.507  22.704  26.082  1.00  0.00     0.261 C 
BRANCH  76  77
ATOM     77  O   UNL A   1      44.342  23.479  26.958  1.00  0.00    -0.459 OA
BRANCH  77  78
ATOM     78  C   UNL A   1      44.011  23.417  28.279  1.00  0.00     0.348 C 
ATOM     79  O   UNL A   1      43.131  22.697  28.745  1.00  0.00    -0.245 OA
BRANCH  78  80
ATOM     80  C   UNL A   1      44.803  24.352  29.037  1.00  0.00     0.113 A 
ATOM     81  C   UNL A   1      44.530  24.924  30.267  1.00  0.00     0.042 A 
ATOM     82  S   UNL A   1      46.355  24.795  28.469  1.00  0.00    -0.136 S 
ATOM     83  C   UNL A   1      45.728  25.386  30.877  1.00  0.00     0.019 A 
ATOM     84  C   UNL A   1      46.754  25.512  29.969  1.00  0.00     0.080 A 
BRANCH  83  85
ATOM     85  S   UNL A   1      45.953  25.719  32.581  1.00  0.00    -0.122 SA
BRANCH  85  86
ATOM     86  C   UNL A   1      44.508  24.974  33.409  1.00  0.00     0.057 C 
ATOM     87  C   UNL A   1      44.562  23.453  33.570  1.00  0.00     0.043 C 
ATOM     88  C   UNL A   1      44.387  25.573  34.813  1.00  0.00     0.053 C 
ATOM     89  C   UNL A   1      43.283  22.998  34.252  1.00  0.00     0.162 C 
ATOM     90  C   UNL A   1      43.158  25.031  35.560  1.00  0.00     0.095 C 
ATOM     91  O   UNL A   1      43.143  23.589  35.537  1.00  0.00    -0.372 OA
ATOM     92  C   UNL A   1      43.171  25.428  37.037  1.00  0.00     0.066 C 
ATOM     93  C   UNL A   1      41.835  25.619  35.043  1.00  0.00     0.195 C 
ATOM     94  C   UNL A   1      41.930  26.265  37.241  1.00  0.00     0.163 C 
ATOM     95  O   UNL A   1      41.028  25.931  36.188  1.00  0.00    -0.378 OA
ENDBRANCH  85  86
ENDBRANCH  83  85
ENDBRANCH  78  80
ENDBRANCH  77  78
ENDBRANCH  76  77
ENDBRANCH  75  76
ENDBRANCH  74  75
ENDBRANCH  73  74
ENDBRANCH   1  73
TORSDOF 22
ENDMDL
MODEL 3
REMARK VINA RESULT:      -9.6      5.734     11.004
REMARK SMILES O=C(OCCOCCOCCOC(=O)c1cc(S[C@H]2CCO[C@@]3(CCOC3)C2)cs1)c1ccc(-c2c3nc(c(-c4cccc(S(=O)(=O)[O-])c4F)c4ccc([nH]4)c(-c4cccc(S(=O)(=O)[O-])c4F)c4nc(c(-c5cccc(S(=O)(=O)[O-])c5F)c5ccc2[nH]5)C=C4)C=C3)cc1
REMARK SMILES IDX 7 1 6 2 5 3 4 4 3 5 2 6 1 7 31 8 32 9 93 10 33 11 92 12
REMARK SMILES IDX 34 13 35 14 36 15 86 16 37 17 91 18 85 19 87 20 38 21 90 22
REMARK SMILES IDX 84 23 83 24 39 26 71 27 51 28 70 29 52 30 55 31 69 32 88 33
REMARK SMILES IDX 53 34 54 35 68 37 89 38 56 39 40 40 41 41 49 42 42 43 44 44
REMARK SMILES IDX 50 45 43 46 45 47 46 48 47 49 48 50 72 51 73 52 81 53 74 54
REMARK SMILES IDX 76 55 82 56 75 57 77 58 78 59 79 60 80 61 57 62 58 63 66 64
REMARK SMILES IDX 59 65 61 66 67 67 60 68 62 69 63 70 64 71 65 72 8 73 9 74
REMARK SMILES IDX 10 75 11 76 12 77 13 78 14 79 15 80 16 81 30 82 17 83 29 84
REMARK SMILES IDX 18 85 19 86 20 87 28 88 21 89 23 90 22 91 24 92 27 93 25 94
REMARK SMILES IDX 26 95
REMARK H PARENT 87 25 55 36
REMARK Flexibility Score: inf
ROOT
ATOM      1  C   UNL A   1      43.374  19.249  25.290  1.00  0.00     0.188 C 
ENDROOT
BRANCH   1   2
ATOM      2  O   UNL A   1      41.941  19.276  25.379  1.00  0.00    -0.376 OA
BRANCH   2   3
ATOM      3  C   UNL A   1      41.460  19.952  26.539  1.00  0.00     0.202 C 
BRANCH   3   4
ATOM      4  C   UNL A   1      40.108  20.634  26.316  1.00  0.00     0.261 C 
BRANCH   4   5
ATOM      5  O   UNL A   1      40.265  22.065  26.285  1.00  0.00    -0.460 OA
BRANCH   5   6
ATOM      6  C   UNL A   1      39.306  23.006  26.480  1.00  0.00     0.338 C 
ATOM      7  O   UNL A   1      38.123  22.685  26.391  1.00  0.00    -0.246 OA
BRANCH   6   8
ATOM      8  C   UNL A   1      39.633  24.391  26.920  1.00  0.00     0.060 A 
ATOM      9  C   UNL A   1      40.187  25.368  26.091  1.00  0.00     0.016 A 
ATOM     10  C   UNL A   1      39.294  24.742  28.236  1.00  0.00     0.016 A 
ATOM     11  C   UNL A   1      40.543  26.618  26.609  1.00  0.00     0.010 A 
ATOM     12  C   UNL A   1      39.581  26.020  28.734  1.00  0.00     0.010 A 
ATOM     13  C   UNL A   1      40.262  26.952  27.942  1.00  0.00    -0.014 A 
BRANCH  13  14
ATOM     14  C   UNL A   1      40.709  28.262  28.490  1.00  0.00     0.031 A 
ATOM     15  C   UNL A   1      42.174  28.540  28.720  1.00  0.00     0.074 A 
ATOM     16  C   UNL A   1      39.805  29.218  28.780  1.00  0.00     0.049 A 
ATOM     17  N   UNL A   1      42.752  29.653  29.098  1.00  0.00    -0.248 NA
ATOM     18  C   UNL A   1      43.112  27.424  28.510  1.00  0.00     0.031 C 
ATOM     19  C   UNL A   1      38.350  29.065  28.709  1.00  0.00     0.029 A 
ATOM     20  N   UNL A   1      39.982  30.508  29.216  1.00  0.00    -0.354 N 
ATOM     21  C   UNL A   1      44.108  29.367  29.199  1.00  0.00     0.074 A 
ATOM     22  C   UNL A   1      44.269  27.970  28.856  1.00  0.00     0.031 C 
ATOM     23  C   UNL A   1      37.772  30.211  29.109  1.00  0.00     0.029 A 
ATOM     24  C   UNL A   1      38.806  31.178  29.454  1.00  0.00     0.049 A 
ATOM     25  H   UNL A   1      40.869  30.914  29.347  1.00  0.00     0.167 HD
ATOM     26  C   UNL A   1      45.136  30.189  29.519  1.00  0.00     0.034 A 
ATOM     27  C   UNL A   1      38.587  32.430  29.898  1.00  0.00     0.034 A 
ATOM     28  C   UNL A   1      45.006  31.589  29.815  1.00  0.00     0.049 A 
ATOM     29  C   UNL A   1      39.756  33.350  30.134  1.00  0.00     0.074 A 
ATOM     30  C   UNL A   1      46.003  32.511  30.088  1.00  0.00     0.029 A 
ATOM     31  N   UNL A   1      43.805  32.271  29.879  1.00  0.00    -0.354 N 
ATOM     32  N   UNL A   1      41.035  33.118  29.976  1.00  0.00    -0.248 NA
ATOM     33  C   UNL A   1      39.444  34.725  30.559  1.00  0.00     0.031 C 
ATOM     34  C   UNL A   1      45.402  33.757  30.309  1.00  0.00     0.029 A 
ATOM     35  C   UNL A   1      44.032  33.600  30.190  1.00  0.00     0.049 A 
ATOM     36  H   UNL A   1      42.918  31.871  29.726  1.00  0.00     0.167 HD
ATOM     37  C   UNL A   1      41.673  34.316  30.275  1.00  0.00     0.074 A 
ATOM     38  C   UNL A   1      40.641  35.290  30.550  1.00  0.00     0.031 C 
ATOM     39  C   UNL A   1      42.998  34.577  30.374  1.00  0.00     0.034 A 
BRANCH  26  40
ATOM     40  C   UNL A   1      46.518  29.605  29.485  1.00  0.00     0.023 A 
ATOM     41  C   UNL A   1      47.089  29.150  30.690  1.00  0.00     0.012 A 
ATOM     42  C   UNL A   1      47.231  29.469  28.280  1.00  0.00     0.148 A 
ATOM     43  C   UNL A   1      48.360  28.578  30.699  1.00  0.00     0.002 A 
ATOM     44  C   UNL A   1      48.490  28.879  28.294  1.00  0.00     0.091 A 
ATOM     45  F   UNL A   1      46.680  29.938  27.152  1.00  0.00    -0.205 F 
ATOM     46  C   UNL A   1      49.056  28.436  29.501  1.00  0.00     0.022 A 
BRANCH  44  47
ATOM     47  S   UNL A   1      49.444  28.624  26.794  1.00  0.00     0.127 S 
ATOM     48  O   UNL A   1      48.529  27.806  25.999  1.00  0.00    -0.237 OA
ATOM     49  O   UNL A   1      49.626  29.989  26.300  1.00  0.00    -0.237 OA
ATOM     50  O   UNL A   1      50.673  27.967  27.217  1.00  0.00    -0.744 OA
ENDBRANCH  44  47
ENDBRANCH  26  40
BRANCH  27  51
ATOM     51  C   UNL A   1      37.208  32.941  30.126  1.00  0.00     0.023 A 
ATOM     52  C   UNL A   1      36.426  33.312  29.015  1.00  0.00     0.012 A 
ATOM     53  C   UNL A   1      36.723  33.182  31.424  1.00  0.00     0.148 A 
ATOM     54  C   UNL A   1      35.241  34.021  29.192  1.00  0.00     0.002 A 
ATOM     55  C   UNL A   1      35.502  33.822  31.592  1.00  0.00     0.091 A 
ATOM     56  F   UNL A   1      37.481  32.829  32.472  1.00  0.00    -0.205 F 
ATOM     57  C   UNL A   1      34.780  34.281  30.480  1.00  0.00     0.022 A 
BRANCH  55  58
ATOM     58  S   UNL A   1      34.761  34.016  33.215  1.00  0.00     0.127 S 
ATOM     59  O   UNL A   1      35.239  35.336  33.610  1.00  0.00    -0.237 OA
ATOM     60  O   UNL A   1      33.330  33.944  32.910  1.00  0.00    -0.237 OA
ATOM     61  O   UNL A   1      35.261  32.887  33.987  1.00  0.00    -0.744 OA
ENDBRANCH  55  58
ENDBRANCH  27  51
BRANCH  39  62
ATOM     62  C   UNL A   1      43.382  35.964  30.805  1.00  0.00     0.023 A 
ATOM     63  C   UNL A   1      43.472  36.245  32.183  1.00  0.00     0.012 A 
ATOM     64  C   UNL A   1      43.649  36.980  29.872  1.00  0.00     0.148 A 
ATOM     65  C   UNL A   1      43.789  37.529  32.627  1.00  0.00     0.002 A 
ATOM     66  C   UNL A   1      43.996  38.251  30.321  1.00  0.00     0.091 A 
ATOM     67  F   UNL A   1      43.527  36.707  28.564  1.00  0.00    -0.205 F 
ATOM     68  C   UNL A   1      44.059  38.529  31.696  1.00  0.00     0.022 A 
BRANCH  66  69
ATOM     69  S   UNL A   1      44.413  39.558  29.164  1.00  0.00     0.127 S 
ATOM     70  O   UNL A   1      45.323  40.385  29.952  1.00  0.00    -0.237 OA
ATOM     71  O   UNL A   1      45.050  38.831  28.064  1.00  0.00    -0.237 OA
ATOM     72  O   UNL A   1      43.136  40.166  28.811  1.00  0.00    -0.744 OA
ENDBRANCH  66  69
ENDBRANCH  39  62
ENDBRANCH  13  14
ENDBRANCH   6   8
ENDBRANCH   5   6
ENDBRANCH   4   5
ENDBRANCH   3   4
ENDBRANCH   2   3
ENDBRANCH   1   2
BRANCH   1  73
ATOM     73  C   UNL A   1      43.934  20.618  25.672  1.00  0.00     0.188 C 
BRANCH  73  74
ATOM     74  O   UNL A   1      44.146  21.460  24.531  1.00  0.00    -0.376 OA
BRANCH  74  75
ATOM     75  C   UNL A   1      43.885  22.848  24.725  1.00  0.00     0.202 C 
BRANCH  75  76
ATOM     76  C   UNL A   1      43.250  23.177  26.077  1.00  0.00     0.261 C 
BRANCH  76  77
ATOM     77  O   UNL A   1      44.119  23.914  26.952  1.00  0.00    -0.459 OA
BRANCH  77  78
ATOM     78  C   UNL A   1      44.143  23.481  28.245  1.00  0.00     0.348 C 
ATOM     79  O   UNL A   1      43.543  22.492  28.661  1.00  0.00    -0.245 OA
BRANCH  78  80
ATOM     80  C   UNL A   1      44.928  24.375  29.057  1.00  0.00     0.113 A 
ATOM     81  C   UNL A   1      44.661  24.854  30.327  1.00  0.00     0.042 A 
ATOM     82  S   UNL A   1      46.465  24.886  28.504  1.00  0.00    -0.136 S 
ATOM     83  C   UNL A   1      45.859  25.295  30.954  1.00  0.00     0.019 A 
ATOM     84  C   UNL A   1      46.871  25.503  30.045  1.00  0.00     0.080 A 
BRANCH  83  85
ATOM     85  S   UNL A   1      46.100  25.513  32.674  1.00  0.00    -0.122 SA
BRANCH  85  86
ATOM     86  C   UNL A   1      44.586  24.858  33.456  1.00  0.00     0.057 C 
ATOM     87  C   UNL A   1      44.557  23.341  33.647  1.00  0.00     0.043 C 
ATOM     88  C   UNL A   1      44.440  25.492  34.842  1.00  0.00     0.053 C 
ATOM     89  C   UNL A   1      43.230  22.964  34.285  1.00  0.00     0.162 C 
ATOM     90  C   UNL A   1      43.155  25.028  35.548  1.00  0.00     0.095 C 
ATOM     91  O   UNL A   1      43.069  23.588  35.552  1.00  0.00    -0.372 OA
ATOM     92  C   UNL A   1      43.130  25.454  37.017  1.00  0.00     0.066 C 
ATOM     93  C   UNL A   1      41.886  25.670  34.966  1.00  0.00     0.195 C 
ATOM     94  C   UNL A   1      41.926  26.356  37.153  1.00  0.00     0.163 C 
ATOM     95  O   UNL A   1      41.050  26.046  36.070  1.00  0.00    -0.378 OA
ENDBRANCH  85  86
ENDBRANCH  83  85
ENDBRANCH  78  80
ENDBRANCH  77  78
ENDBRANCH  76  77
ENDBRANCH  75  76
ENDBRANCH  74  75
ENDBRANCH  73  74
ENDBRANCH   1  73
TORSDOF 22
ENDMDL
