MODEL 1
REMARK VINA RESULT:     -14.7      0.000      0.000
REMARK SMILES Cc1ccccc1C(=O)Nc1ccc(N2CCCCC2)cc1C(=O)OCCOCCOCCOC(=O)c1ccc(-c2c3nc(c(-c4cccc(S(=O)(=O)[O-])c4F)c4ccc([nH]4)c(-c4cccc(S(=O)(=O)[O-])c4F)c4nc(c(-c5cccc(S(=O)(=O)[O-])c5F)c5ccc2[nH]5)C=C4)C=C3)cc1
REMARK SMILES IDX 30 1 29 2 28 3 27 4 26 5 25 6 23 7 24 8 22 9 11 10 12 11
REMARK SMILES IDX 13 12 21 13 14 14 10 15 8 16 9 17 7 19 1 20 2 21 3 22 4 23
REMARK SMILES IDX 6 24 5 25 15 26 16 27 20 28 17 29 19 30 18 31 31 32 32 33
REMARK SMILES IDX 33 34 34 35 35 36 36 37 37 38 38 39 99 40 39 41 98 42 40 43
REMARK SMILES IDX 41 44 42 45 92 46 43 47 97 48 91 49 93 50 44 51 96 52 90 53
REMARK SMILES IDX 89 54 45 56 77 57 57 58 76 59 58 60 61 61 75 62 94 63 59 64
REMARK SMILES IDX 60 65 74 67 95 68 62 69 46 70 47 71 55 72 48 73 50 74 56 75
REMARK SMILES IDX 49 76 51 77 52 78 53 79 54 80 78 81 79 82 87 83 80 84 82 85
REMARK SMILES IDX 88 86 81 87 83 88 84 89 85 90 86 91 63 92 64 93 72 94 65 95
REMARK SMILES IDX 67 96 73 97 66 98 68 99 69 100 70 101 71 102
REMARK H PARENT 10 18 93 55 61 66
REMARK Flexibility Score: inf
ROOT
ATOM      1  C   UNL A   1      42.467  19.485  26.101  1.00  0.00     0.188 C 
ENDROOT
BRANCH   1   2
ATOM      2  C   UNL A   1      41.776  20.029  27.331  1.00  0.00     0.188 C 
BRANCH   2   3
ATOM      3  O   UNL A   1      41.126  21.292  27.525  1.00  0.00    -0.376 OA
BRANCH   3   4
ATOM      4  C   UNL A   1      40.125  21.941  26.661  1.00  0.00     0.202 C 
BRANCH   4   5
ATOM      5  C   UNL A   1      38.476  21.689  25.797  1.00  0.00     0.261 C 
BRANCH   5   6
ATOM      6  O   UNL A   1      36.879  22.497  25.104  1.00  0.00    -0.460 OA
BRANCH   6   7
ATOM      7  C   UNL A   1      35.129  22.387  25.474  1.00  0.00     0.340 C 
ATOM      8  O   UNL A   1      34.533  22.611  26.540  1.00  0.00    -0.246 OA
BRANCH   7   9
ATOM      9  C   UNL A   1      34.073  22.038  24.493  1.00  0.00     0.085 A 
ATOM     10  C   UNL A   1      33.199  22.698  23.486  1.00  0.00     0.056 A 
ATOM     11  C   UNL A   1      32.128  21.827  23.148  1.00  0.00     0.029 A 
ATOM     12  C   UNL A   1      32.164  20.418  23.469  1.00  0.00     0.028 A 
ATOM     13  C   UNL A   1      33.876  20.754  24.984  1.00  0.00     0.043 A 
ATOM     14  C   UNL A   1      33.097  19.862  24.342  1.00  0.00     0.038 A 
BRANCH  10  15
ATOM     15  N   UNL A   1      33.384  23.840  22.210  1.00  0.00    -0.321 N 
ATOM     16  C   UNL A   1      33.177  25.483  21.898  1.00  0.00     0.255 C 
ATOM     17  O   UNL A   1      33.250  25.797  20.696  1.00  0.00    -0.269 OA
ATOM     18  H   UNL A   1      33.718  23.386  21.403  1.00  0.00     0.170 HD
BRANCH  16  19
ATOM     19  C   UNL A   1      33.051  26.799  23.010  1.00  0.00     0.043 A 
ATOM     20  C   UNL A   1      30.894  25.439  23.060  1.00  0.00     0.045 C 
ATOM     21  C   UNL A   1      31.509  27.149  22.910  1.00  0.00    -0.038 A 
ATOM     22  C   UNL A   1      30.563  28.823  23.715  1.00  0.00     0.004 A 
ATOM     23  C   UNL A   1      31.234  29.756  24.881  1.00  0.00     0.000 A 
ATOM     24  C   UNL A   1      33.840  27.930  24.190  1.00  0.00     0.014 A 
ATOM     25  C   UNL A   1      32.852  29.312  25.129  1.00  0.00     0.001 A 
ENDBRANCH  16  19
ENDBRANCH  10  15
BRANCH  14  26
ATOM     26  N   UNL A   1      33.366  18.537  24.593  1.00  0.00    -0.372 N 
ATOM     27  C   UNL A   1      34.689  18.000  24.292  1.00  0.00     0.116 C 
ATOM     28  C   UNL A   1      32.821  17.935  25.840  1.00  0.00     0.116 C 
ATOM     29  C   UNL A   1      34.455  16.542  23.901  1.00  0.00     0.021 C 
ATOM     30  C   UNL A   1      32.397  16.544  25.452  1.00  0.00     0.021 C 
ATOM     31  C   UNL A   1      33.607  15.766  24.932  1.00  0.00     0.004 C 
ENDBRANCH  14  26
ENDBRANCH   7   9
ENDBRANCH   6   7
ENDBRANCH   5   6
ENDBRANCH   4   5
ENDBRANCH   3   4
ENDBRANCH   2   3
ENDBRANCH   1   2
BRANCH   1  32
ATOM     32  O   UNL A   1      42.982  20.500  25.280  1.00  0.00    -0.376 OA
BRANCH  32  33
ATOM     33  C   UNL A   1      44.382  20.803  25.417  1.00  0.00     0.202 C 
BRANCH  33  34
ATOM     34  C   UNL A   1      45.048  22.358  26.019  1.00  0.00     0.261 C 
BRANCH  34  35
ATOM     35  O   UNL A   1      45.249  23.964  25.150  1.00  0.00    -0.460 OA
BRANCH  35  36
ATOM     36  C   UNL A   1      46.114  25.441  25.324  1.00  0.00     0.338 C 
ATOM     37  O   UNL A   1      46.758  25.752  24.324  1.00  0.00    -0.246 OA
BRANCH  36  38
ATOM     38  C   UNL A   1      46.284  26.335  26.989  1.00  0.00     0.060 A 
ATOM     39  C   UNL A   1      47.622  27.126  28.014  1.00  0.00     0.016 A 
ATOM     40  C   UNL A   1      44.539  26.559  28.013  1.00  0.00     0.016 A 
ATOM     41  C   UNL A   1      46.911  27.624  29.745  1.00  0.00     0.010 A 
ATOM     42  C   UNL A   1      44.143  27.009  29.340  1.00  0.00     0.010 A 
ATOM     43  C   UNL A   1      45.082  27.331  30.293  1.00  0.00    -0.014 A 
BRANCH  43  44
ATOM     44  C   UNL A   1      43.724  27.805  31.670  1.00  0.00     0.031 A 
ATOM     45  C   UNL A   1      42.641  29.346  31.295  1.00  0.00     0.074 A 
ATOM     46  C   UNL A   1      43.323  27.231  32.933  1.00  0.00     0.049 A 
ATOM     47  N   UNL A   1      42.873  30.586  31.705  1.00  0.00    -0.248 NA
ATOM     48  C   UNL A   1      41.823  29.646  29.834  1.00  0.00     0.031 C 
ATOM     49  C   UNL A   1      42.078  27.405  33.739  1.00  0.00     0.029 A 
ATOM     50  N   UNL A   1      43.814  26.183  33.776  1.00  0.00    -0.354 N 
ATOM     51  C   UNL A   1      42.072  31.440  30.945  1.00  0.00     0.074 A 
ATOM     52  C   UNL A   1      42.073  30.928  29.640  1.00  0.00     0.031 C 
ATOM     53  C   UNL A   1      42.191  26.845  34.987  1.00  0.00     0.029 A 
ATOM     54  C   UNL A   1      43.528  26.270  35.138  1.00  0.00     0.049 A 
ATOM     55  H   UNL A   1      44.332  25.430  33.410  1.00  0.00     0.167 HD
ATOM     56  C   UNL A   1      40.892  31.889  31.466  1.00  0.00     0.034 A 
ATOM     57  C   UNL A   1      44.465  26.384  36.151  1.00  0.00     0.034 A 
ATOM     58  C   UNL A   1      40.771  31.330  32.825  1.00  0.00     0.049 A 
ATOM     59  C   UNL A   1      44.351  27.872  36.519  1.00  0.00     0.074 A 
ATOM     60  C   UNL A   1      40.073  30.270  33.379  1.00  0.00     0.029 A 
ATOM     61  N   UNL A   1      41.862  31.517  33.672  1.00  0.00    -0.354 N 
ATOM     62  N   UNL A   1      43.502  28.675  35.926  1.00  0.00    -0.248 NA
ATOM     63  C   UNL A   1      45.070  28.553  37.585  1.00  0.00     0.031 C 
ATOM     64  C   UNL A   1      40.710  29.931  34.627  1.00  0.00     0.029 A 
ATOM     65  C   UNL A   1      41.846  30.711  34.793  1.00  0.00     0.049 A 
ATOM     66  H   UNL A   1      42.580  32.165  33.488  1.00  0.00     0.167 HD
ATOM     67  C   UNL A   1      43.582  29.932  36.387  1.00  0.00     0.074 A 
ATOM     68  C   UNL A   1      44.510  29.775  37.509  1.00  0.00     0.031 C 
ATOM     69  C   UNL A   1      42.882  30.964  35.813  1.00  0.00     0.034 A 
BRANCH  56  70
ATOM     70  C   UNL A   1      39.753  32.464  30.594  1.00  0.00     0.023 A 
ATOM     71  C   UNL A   1      39.861  33.832  30.300  1.00  0.00     0.012 A 
ATOM     72  C   UNL A   1      38.633  31.791  29.988  1.00  0.00     0.148 A 
ATOM     73  C   UNL A   1      38.955  34.494  29.462  1.00  0.00     0.002 A 
ATOM     74  C   UNL A   1      37.695  32.468  29.194  1.00  0.00     0.091 A 
ATOM     75  F   UNL A   1      38.475  30.468  30.104  1.00  0.00    -0.205 F 
ATOM     76  C   UNL A   1      37.871  33.820  28.913  1.00  0.00     0.022 A 
BRANCH  74  77
ATOM     77  S   UNL A   1      36.231  31.679  28.469  1.00  0.00     0.127 S 
ATOM     78  O   UNL A   1      36.818  30.584  27.690  1.00  0.00    -0.237 OA
ATOM     79  O   UNL A   1      35.489  31.244  29.650  1.00  0.00    -0.237 OA
ATOM     80  O   UNL A   1      35.570  32.692  27.654  1.00  0.00    -0.744 OA
ENDBRANCH  74  77
ENDBRANCH  56  70
BRANCH  57  81
ATOM     81  C   UNL A   1      45.813  25.547  36.111  1.00  0.00     0.023 A 
ATOM     82  C   UNL A   1      47.027  26.261  36.291  1.00  0.00     0.012 A 
ATOM     83  C   UNL A   1      45.905  24.193  36.488  1.00  0.00     0.148 A 
ATOM     84  C   UNL A   1      48.046  25.780  37.150  1.00  0.00     0.002 A 
ATOM     85  C   UNL A   1      46.562  23.942  37.694  1.00  0.00     0.091 A 
ATOM     86  F   UNL A   1      45.034  23.269  36.057  1.00  0.00    -0.205 F 
ATOM     87  C   UNL A   1      47.801  24.618  37.901  1.00  0.00     0.022 A 
BRANCH  85  88
ATOM     88  S   UNL A   1      45.282  24.660  38.897  1.00  0.00     0.127 S 
ATOM     89  O   UNL A   1      44.063  25.007  38.296  1.00  0.00    -0.237 OA
ATOM     90  O   UNL A   1      45.143  23.419  39.636  1.00  0.00    -0.237 OA
ATOM     91  O   UNL A   1      45.921  25.885  39.317  1.00  0.00    -0.744 OA
ENDBRANCH  85  88
ENDBRANCH  57  81
BRANCH  69  92
ATOM     92  C   UNL A   1      43.098  32.399  36.231  1.00  0.00     0.023 A 
ATOM     93  C   UNL A   1      44.272  33.082  35.893  1.00  0.00     0.012 A 
ATOM     94  C   UNL A   1      42.120  33.139  36.945  1.00  0.00     0.148 A 
ATOM     95  C   UNL A   1      44.586  34.313  36.452  1.00  0.00     0.002 A 
ATOM     96  C   UNL A   1      42.347  34.451  37.303  1.00  0.00     0.091 A 
ATOM     97  F   UNL A   1      40.974  32.581  37.351  1.00  0.00    -0.205 F 
ATOM     98  C   UNL A   1      43.613  35.007  37.146  1.00  0.00     0.022 A 
BRANCH  96  99
ATOM     99  S   UNL A   1      41.032  35.506  37.903  1.00  0.00     0.127 S 
ATOM    100  O   UNL A   1      41.701  36.805  37.948  1.00  0.00    -0.237 OA
ATOM    101  O   UNL A   1      40.034  35.367  36.841  1.00  0.00    -0.237 OA
ATOM    102  O   UNL A   1      40.617  34.965  39.189  1.00  0.00    -0.744 OA
ENDBRANCH  96  99
ENDBRANCH  69  92
ENDBRANCH  43  44
ENDBRANCH  36  38
ENDBRANCH  35  36
ENDBRANCH  34  35
ENDBRANCH  33  34
ENDBRANCH  32  33
ENDBRANCH   1  32
TORSDOF 23
ENDMDL
MODEL 2
REMARK VINA RESULT:     -14.0      2.904      4.013
REMARK SMILES Cc1ccccc1C(=O)Nc1ccc(N2CCCCC2)cc1C(=O)OCCOCCOCCOC(=O)c1ccc(-c2c3nc(c(-c4cccc(S(=O)(=O)[O-])c4F)c4ccc([nH]4)c(-c4cccc(S(=O)(=O)[O-])c4F)c4nc(c(-c5cccc(S(=O)(=O)[O-])c5F)c5ccc2[nH]5)C=C4)C=C3)cc1
REMARK SMILES IDX 30 1 29 2 28 3 27 4 26 5 25 6 23 7 24 8 22 9 11 10 12 11
REMARK SMILES IDX 13 12 21 13 14 14 10 15 8 16 9 17 7 19 1 20 2 21 3 22 4 23
REMARK SMILES IDX 6 24 5 25 15 26 16 27 20 28 17 29 19 30 18 31 31 32 32 33
REMARK SMILES IDX 33 34 34 35 35 36 36 37 37 38 38 39 99 40 39 41 98 42 40 43
REMARK SMILES IDX 41 44 42 45 92 46 43 47 97 48 91 49 93 50 44 51 96 52 90 53
REMARK SMILES IDX 89 54 45 56 77 57 57 58 76 59 58 60 61 61 75 62 94 63 59 64
REMARK SMILES IDX 60 65 74 67 95 68 62 69 46 70 47 71 55 72 48 73 50 74 56 75
REMARK SMILES IDX 49 76 51 77 52 78 53 79 54 80 78 81 79 82 87 83 80 84 82 85
REMARK SMILES IDX 88 86 81 87 83 88 84 89 85 90 86 91 63 92 64 93 72 94 65 95
REMARK SMILES IDX 67 96 73 97 66 98 68 99 69 100 70 101 71 102
REMARK H PARENT 10 18 93 55 61 66
REMARK Flexibility Score: inf
ROOT
ATOM      1  C   UNL A   1      42.428  20.286  26.133  1.00  0.00     0.188 C 
ENDROOT
BRANCH   1   2
ATOM      2  C   UNL A   1      42.091  21.597  26.806  1.00  0.00     0.188 C 
BRANCH   2   3
ATOM      3  O   UNL A   1      41.240  22.658  26.355  1.00  0.00    -0.376 OA
BRANCH   3   4
ATOM      4  C   UNL A   1      39.869  22.563  25.828  1.00  0.00     0.202 C 
BRANCH   4   5
ATOM      5  C   UNL A   1      38.062  22.404  26.321  1.00  0.00     0.261 C 
BRANCH   5   6
ATOM      6  O   UNL A   1      36.254  22.970  26.021  1.00  0.00    -0.460 OA
BRANCH   6   7
ATOM      7  C   UNL A   1      34.650  22.170  26.013  1.00  0.00     0.340 C 
ATOM      8  O   UNL A   1      33.993  21.712  26.962  1.00  0.00    -0.246 OA
BRANCH   7   9
ATOM      9  C   UNL A   1      33.807  21.968  24.810  1.00  0.00     0.085 A 
ATOM     10  C   UNL A   1      33.132  22.767  23.752  1.00  0.00     0.056 A 
ATOM     11  C   UNL A   1      32.158  21.961  23.102  1.00  0.00     0.029 A 
ATOM     12  C   UNL A   1      32.152  20.522  23.233  1.00  0.00     0.028 A 
ATOM     13  C   UNL A   1      33.538  20.631  25.079  1.00  0.00     0.043 A 
ATOM     14  C   UNL A   1      32.908  19.843  24.187  1.00  0.00     0.038 A 
BRANCH  10  15
ATOM     15  N   UNL A   1      33.541  24.066  22.700  1.00  0.00    -0.321 N 
ATOM     16  C   UNL A   1      33.500  25.750  22.639  1.00  0.00     0.255 C 
ATOM     17  O   UNL A   1      33.725  26.235  21.515  1.00  0.00    -0.269 OA
ATOM     18  H   UNL A   1      33.922  23.712  21.864  1.00  0.00     0.170 HD
BRANCH  16  19
ATOM     19  C   UNL A   1      33.362  26.887  23.932  1.00  0.00     0.043 A 
ATOM     20  C   UNL A   1      31.038  26.072  23.270  1.00  0.00     0.045 C 
ATOM     21  C   UNL A   1      31.989  27.597  23.582  1.00  0.00    -0.038 A 
ATOM     22  C   UNL A   1      31.217  29.312  24.479  1.00  0.00     0.004 A 
ATOM     23  C   UNL A   1      31.749  29.888  25.916  1.00  0.00     0.000 A 
ATOM     24  C   UNL A   1      34.041  27.624  25.446  1.00  0.00     0.014 A 
ATOM     25  C   UNL A   1      33.139  29.049  26.405  1.00  0.00     0.001 A 
ENDBRANCH  16  19
ENDBRANCH  10  15
BRANCH  14  26
ATOM     26  N   UNL A   1      33.143  18.493  24.305  1.00  0.00    -0.372 N 
ATOM     27  C   UNL A   1      32.553  17.753  25.417  1.00  0.00     0.116 C 
ATOM     28  C   UNL A   1      33.147  17.671  23.066  1.00  0.00     0.116 C 
ATOM     29  C   UNL A   1      33.552  16.644  25.739  1.00  0.00     0.021 C 
ATOM     30  C   UNL A   1      34.255  16.671  23.261  1.00  0.00     0.021 C 
ATOM     31  C   UNL A   1      33.967  15.822  24.500  1.00  0.00     0.004 C 
ENDBRANCH  14  26
ENDBRANCH   7   9
ENDBRANCH   6   7
ENDBRANCH   5   6
ENDBRANCH   4   5
ENDBRANCH   3   4
ENDBRANCH   2   3
ENDBRANCH   1   2
BRANCH   1  32
ATOM     32  O   UNL A   1      43.231  20.457  24.995  1.00  0.00    -0.376 OA
BRANCH  32  33
ATOM     33  C   UNL A   1      44.653  20.527  25.204  1.00  0.00     0.202 C 
BRANCH  33  34
ATOM     34  C   UNL A   1      45.535  21.960  25.831  1.00  0.00     0.261 C 
BRANCH  34  35
ATOM     35  O   UNL A   1      45.745  23.628  25.088  1.00  0.00    -0.460 OA
BRANCH  35  36
ATOM     36  C   UNL A   1      46.143  25.229  25.573  1.00  0.00     0.338 C 
ATOM     37  O   UNL A   1      46.225  26.019  24.634  1.00  0.00    -0.246 OA
BRANCH  36  38
ATOM     38  C   UNL A   1      46.682  25.657  27.341  1.00  0.00     0.060 A 
ATOM     39  C   UNL A   1      48.196  26.294  28.218  1.00  0.00     0.016 A 
ATOM     40  C   UNL A   1      45.242  25.393  28.754  1.00  0.00     0.016 A 
ATOM     41  C   UNL A   1      47.919  26.222  30.134  1.00  0.00     0.010 A 
ATOM     42  C   UNL A   1      45.170  25.421  30.209  1.00  0.00     0.010 A 
ATOM     43  C   UNL A   1      46.302  25.582  30.975  1.00  0.00    -0.014 A 
BRANCH  43  44
ATOM     44  C   UNL A   1      45.312  25.507  32.701  1.00  0.00     0.031 A 
ATOM     45  C   UNL A   1      44.195  27.018  33.102  1.00  0.00     0.074 A 
ATOM     46  C   UNL A   1      45.210  24.538  33.765  1.00  0.00     0.049 A 
ATOM     47  N   UNL A   1      44.536  28.075  33.828  1.00  0.00    -0.248 NA
ATOM     48  C   UNL A   1      43.062  27.716  32.043  1.00  0.00     0.031 C 
ATOM     49  C   UNL A   1      44.192  24.368  34.844  1.00  0.00     0.029 A 
ATOM     50  N   UNL A   1      45.869  23.308  34.089  1.00  0.00    -0.354 N 
ATOM     51  C   UNL A   1      43.592  29.074  33.588  1.00  0.00     0.074 A 
ATOM     52  C   UNL A   1      43.279  29.006  32.223  1.00  0.00     0.031 C 
ATOM     53  C   UNL A   1      44.586  23.448  35.783  1.00  0.00     0.029 A 
ATOM     54  C   UNL A   1      45.911  22.939  35.432  1.00  0.00     0.049 A 
ATOM     55  H   UNL A   1      46.275  22.745  33.392  1.00  0.00     0.167 HD
ATOM     56  C   UNL A   1      42.574  29.260  34.479  1.00  0.00     0.034 A 
ATOM     57  C   UNL A   1      47.061  22.783  36.188  1.00  0.00     0.034 A 
ATOM     58  C   UNL A   1      42.766  28.291  35.574  1.00  0.00     0.049 A 
ATOM     59  C   UNL A   1      47.060  24.066  37.033  1.00  0.00     0.074 A 
ATOM     60  C   UNL A   1      42.202  27.068  35.897  1.00  0.00     0.029 A 
ATOM     61  N   UNL A   1      44.029  28.266  36.165  1.00  0.00    -0.354 N 
ATOM     62  N   UNL A   1      46.108  24.962  36.942  1.00  0.00    -0.248 NA
ATOM     63  C   UNL A   1      48.019  24.414  38.070  1.00  0.00     0.031 C 
ATOM     64  C   UNL A   1      43.109  26.390  36.789  1.00  0.00     0.029 A 
ATOM     65  C   UNL A   1      44.264  27.145  36.937  1.00  0.00     0.049 A 
ATOM     66  H   UNL A   1      44.693  28.982  36.043  1.00  0.00     0.167 HD
ATOM     67  C   UNL A   1      46.313  26.008  37.755  1.00  0.00     0.074 A 
ATOM     68  C   UNL A   1      47.476  25.560  38.524  1.00  0.00     0.031 C 
ATOM     69  C   UNL A   1      45.513  27.124  37.721  1.00  0.00     0.034 A 
BRANCH  56  70
ATOM     70  C   UNL A   1      41.271  30.011  34.123  1.00  0.00     0.023 A 
ATOM     71  C   UNL A   1      41.282  31.387  34.401  1.00  0.00     0.012 A 
ATOM     72  C   UNL A   1      40.073  29.520  33.492  1.00  0.00     0.148 A 
ATOM     73  C   UNL A   1      40.212  32.228  34.071  1.00  0.00     0.002 A 
ATOM     74  C   UNL A   1      38.980  30.355  33.214  1.00  0.00     0.091 A 
ATOM     75  F   UNL A   1      39.977  28.251  33.082  1.00  0.00    -0.205 F 
ATOM     76  C   UNL A   1      39.061  31.718  33.485  1.00  0.00     0.022 A 
BRANCH  74  77
ATOM     77  S   UNL A   1      37.425  29.769  32.486  1.00  0.00     0.127 S 
ATOM     78  O   UNL A   1      36.532  30.915  32.688  1.00  0.00    -0.237 OA
ATOM     79  O   UNL A   1      37.795  29.537  31.092  1.00  0.00    -0.237 OA
ATOM     80  O   UNL A   1      37.034  28.580  33.234  1.00  0.00    -0.744 OA
ENDBRANCH  74  77
ENDBRANCH  56  70
BRANCH  57  81
ATOM     81  C   UNL A   1      48.350  22.086  35.574  1.00  0.00     0.023 A 
ATOM     82  C   UNL A   1      49.612  22.641  35.916  1.00  0.00     0.012 A 
ATOM     83  C   UNL A   1      48.417  20.721  35.237  1.00  0.00     0.148 A 
ATOM     84  C   UNL A   1      50.701  21.818  36.295  1.00  0.00     0.002 A 
ATOM     85  C   UNL A   1      49.200  19.926  36.076  1.00  0.00     0.091 A 
ATOM     86  F   UNL A   1      47.453  20.109  34.533  1.00  0.00    -0.205 F 
ATOM     87  C   UNL A   1      50.488  20.434  36.419  1.00  0.00     0.022 A 
BRANCH  85  88
ATOM     88  S   UNL A   1      48.114  19.956  37.631  1.00  0.00     0.127 S 
ATOM     89  O   UNL A   1      47.982  21.225  38.214  1.00  0.00    -0.237 OA
ATOM     90  O   UNL A   1      46.906  19.607  36.907  1.00  0.00    -0.237 OA
ATOM     91  O   UNL A   1      48.878  19.139  38.546  1.00  0.00    -0.744 OA
ENDBRANCH  85  88
ENDBRANCH  57  81
BRANCH  69  92
ATOM     92  C   UNL A   1      45.843  28.362  38.521  1.00  0.00     0.023 A 
ATOM     93  C   UNL A   1      46.486  29.455  37.929  1.00  0.00     0.012 A 
ATOM     94  C   UNL A   1      45.490  28.500  39.888  1.00  0.00     0.148 A 
ATOM     95  C   UNL A   1      46.995  30.500  38.689  1.00  0.00     0.002 A 
ATOM     96  C   UNL A   1      45.799  29.649  40.586  1.00  0.00     0.091 A 
ATOM     97  F   UNL A   1      44.903  27.507  40.566  1.00  0.00    -0.205 F 
ATOM     98  C   UNL A   1      46.637  30.605  40.019  1.00  0.00     0.022 A 
BRANCH  96  99
ATOM     99  S   UNL A   1      45.092  29.995  42.193  1.00  0.00     0.127 S 
ATOM    100  O   UNL A   1      45.512  31.379  42.402  1.00  0.00    -0.237 OA
ATOM    101  O   UNL A   1      43.662  29.821  41.930  1.00  0.00    -0.237 OA
ATOM    102  O   UNL A   1      45.654  29.018  43.116  1.00  0.00    -0.744 OA
ENDBRANCH  96  99
ENDBRANCH  69  92
ENDBRANCH  43  44
ENDBRANCH  36  38
ENDBRANCH  35  36
ENDBRANCH  34  35
ENDBRANCH  33  34
ENDBRANCH  32  33
ENDBRANCH   1  32
TORSDOF 23
ENDMDL
MODEL 3
REMARK VINA RESULT:     -13.8      3.041      4.174
REMARK SMILES Cc1ccccc1C(=O)Nc1ccc(N2CCCCC2)cc1C(=O)OCCOCCOCCOC(=O)c1ccc(-c2c3nc(c(-c4cccc(S(=O)(=O)[O-])c4F)c4ccc([nH]4)c(-c4cccc(S(=O)(=O)[O-])c4F)c4nc(c(-c5cccc(S(=O)(=O)[O-])c5F)c5ccc2[nH]5)C=C4)C=C3)cc1
REMARK SMILES IDX 30 1 29 2 28 3 27 4 26 5 25 6 23 7 24 8 22 9 11 10 12 11
REMARK SMILES IDX 13 12 21 13 14 14 10 15 8 16 9 17 7 19 1 20 2 21 3 22 4 23
REMARK SMILES IDX 6 24 5 25 15 26 16 27 20 28 17 29 19 30 18 31 31 32 32 33
REMARK SMILES IDX 33 34 34 35 35 36 36 37 37 38 38 39 99 40 39 41 98 42 40 43
REMARK SMILES IDX 41 44 42 45 92 46 43 47 97 48 91 49 93 50 44 51 96 52 90 53
REMARK SMILES IDX 89 54 45 56 77 57 57 58 76 59 58 60 61 61 75 62 94 63 59 64
REMARK SMILES IDX 60 65 74 67 95 68 62 69 46 70 47 71 55 72 48 73 50 74 56 75
REMARK SMILES IDX 49 76 51 77 52 78 53 79 54 80 78 81 79 82 87 83 80 84 82 85
REMARK SMILES IDX 88 86 81 87 83 88 84 89 85 90 86 91 63 92 64 93 72 94 65 95
REMARK SMILES IDX 67 96 73 97 66 98 68 99 69 100 70 101 71 102
REMARK H PARENT 10 18 93 55 61 66
REMARK Flexibility Score: inf
ROOT
ATOM      1  C   UNL A   1      40.051  25.622  27.280  1.00  0.00     0.188 C 
ENDROOT
BRANCH   1   2
ATOM      2  C   UNL A   1      39.169  24.407  27.452  1.00  0.00     0.188 C 
BRANCH   2   3
ATOM      3  O   UNL A   1      39.154  23.181  26.710  1.00  0.00    -0.376 OA
BRANCH   3   4
ATOM      4  C   UNL A   1      38.202  22.760  25.669  1.00  0.00     0.202 C 
BRANCH   4   5
ATOM      5  C   UNL A   1      36.726  23.319  24.648  1.00  0.00     0.261 C 
BRANCH   5   6
ATOM      6  O   UNL A   1      35.629  23.018  23.102  1.00  0.00    -0.460 OA
BRANCH   6   7
ATOM      7  C   UNL A   1      33.871  22.852  22.797  1.00  0.00     0.340 C 
ATOM      8  O   UNL A   1      33.243  22.945  21.730  1.00  0.00    -0.246 OA
BRANCH   7   9
ATOM      9  C   UNL A   1      32.858  22.515  23.827  1.00  0.00     0.085 A 
ATOM     10  C   UNL A   1      31.851  23.190  24.689  1.00  0.00     0.056 A 
ATOM     11  C   UNL A   1      31.467  22.313  25.740  1.00  0.00     0.029 A 
ATOM     12  C   UNL A   1      31.751  20.897  25.690  1.00  0.00     0.028 A 
ATOM     13  C   UNL A   1      33.311  21.215  24.015  1.00  0.00     0.043 A 
ATOM     14  C   UNL A   1      32.629  20.330  24.769  1.00  0.00     0.038 A 
BRANCH  10  15
ATOM     15  N   UNL A   1      30.610  24.367  24.493  1.00  0.00    -0.321 N 
ATOM     16  C   UNL A   1      30.146  25.874  25.088  1.00  0.00     0.255 C 
ATOM     17  O   UNL A   1      28.997  26.229  24.765  1.00  0.00    -0.269 OA
ATOM     18  H   UNL A   1      29.964  24.062  23.816  1.00  0.00     0.170 HD
BRANCH  16  19
ATOM     19  C   UNL A   1      31.087  27.056  25.927  1.00  0.00     0.043 A 
ATOM     20  C   UNL A   1      31.235  27.481  23.417  1.00  0.00     0.045 C 
ATOM     21  C   UNL A   1      32.273  27.296  24.904  1.00  0.00    -0.038 A 
ATOM     22  C   UNL A   1      34.024  28.366  25.267  1.00  0.00     0.004 A 
ATOM     23  C   UNL A   1      34.190  29.415  26.513  1.00  0.00     0.000 A 
ATOM     24  C   UNL A   1      31.341  28.104  27.387  1.00  0.00     0.014 A 
ATOM     25  C   UNL A   1      32.861  29.298  27.559  1.00  0.00     0.001 A 
ENDBRANCH  16  19
ENDBRANCH  10  15
BRANCH  14  26
ATOM     26  N   UNL A   1      32.850  19.002  24.486  1.00  0.00    -0.372 N 
ATOM     27  C   UNL A   1      32.552  17.991  25.496  1.00  0.00     0.116 C 
ATOM     28  C   UNL A   1      32.509  18.509  23.125  1.00  0.00     0.116 C 
ATOM     29  C   UNL A   1      33.571  16.877  25.264  1.00  0.00     0.021 C 
ATOM     30  C   UNL A   1      33.602  17.537  22.774  1.00  0.00     0.021 C 
ATOM     31  C   UNL A   1      33.625  16.400  23.797  1.00  0.00     0.004 C 
ENDBRANCH  14  26
ENDBRANCH   7   9
ENDBRANCH   6   7
ENDBRANCH   5   6
ENDBRANCH   4   5
ENDBRANCH   3   4
ENDBRANCH   2   3
ENDBRANCH   1   2
BRANCH   1  32
ATOM     32  O   UNL A   1      40.719  25.630  26.045  1.00  0.00    -0.376 OA
BRANCH  32  33
ATOM     33  C   UNL A   1      42.038  25.057  26.015  1.00  0.00     0.202 C 
BRANCH  33  34
ATOM     34  C   UNL A   1      42.458  23.469  25.288  1.00  0.00     0.261 C 
BRANCH  34  35
ATOM     35  O   UNL A   1      44.044  22.544  25.323  1.00  0.00    -0.460 OA
BRANCH  35  36
ATOM     36  C   UNL A   1      45.614  22.675  26.013  1.00  0.00     0.338 C 
ATOM     37  O   UNL A   1      46.403  21.827  25.600  1.00  0.00    -0.246 OA
BRANCH  36  38
ATOM     38  C   UNL A   1      45.995  23.826  27.473  1.00  0.00     0.060 A 
ATOM     39  C   UNL A   1      47.265  25.104  27.942  1.00  0.00     0.016 A 
ATOM     40  C   UNL A   1      44.667  23.713  29.011  1.00  0.00     0.016 A 
ATOM     41  C   UNL A   1      46.997  25.646  29.783  1.00  0.00     0.010 A 
ATOM     42  C   UNL A   1      44.574  24.235  30.368  1.00  0.00     0.010 A 
ATOM     43  C   UNL A   1      45.609  24.946  30.930  1.00  0.00    -0.014 A 
BRANCH  43  44
ATOM     44  C   UNL A   1      44.659  25.231  32.656  1.00  0.00     0.031 A 
ATOM     45  C   UNL A   1      43.734  26.905  32.847  1.00  0.00     0.074 A 
ATOM     46  C   UNL A   1      44.470  24.439  33.848  1.00  0.00     0.049 A 
ATOM     47  N   UNL A   1      44.213  28.005  33.413  1.00  0.00    -0.248 NA
ATOM     48  C   UNL A   1      42.666  27.577  31.708  1.00  0.00     0.031 C 
ATOM     49  C   UNL A   1      43.465  24.544  34.947  1.00  0.00     0.029 A 
ATOM     50  N   UNL A   1      44.989  23.198  34.338  1.00  0.00    -0.354 N 
ATOM     51  C   UNL A   1      43.387  29.066  33.040  1.00  0.00     0.074 A 
ATOM     52  C   UNL A   1      43.035  28.845  31.701  1.00  0.00     0.031 C 
ATOM     53  C   UNL A   1      43.772  23.725  36.005  1.00  0.00     0.029 A 
ATOM     54  C   UNL A   1      45.020  23.018  35.720  1.00  0.00     0.049 A 
ATOM     55  H   UNL A   1      45.311  22.499  33.725  1.00  0.00     0.167 HD
ATOM     56  C   UNL A   1      42.418  29.494  33.904  1.00  0.00     0.034 A 
ATOM     57  C   UNL A   1      46.163  22.834  36.482  1.00  0.00     0.034 A 
ATOM     58  C   UNL A   1      42.523  28.672  35.123  1.00  0.00     0.049 A 
ATOM     59  C   UNL A   1      46.330  24.214  37.137  1.00  0.00     0.074 A 
ATOM     60  C   UNL A   1      41.828  27.582  35.621  1.00  0.00     0.029 A 
ATOM     61  N   UNL A   1      43.788  28.580  35.703  1.00  0.00    -0.354 N 
ATOM     62  N   UNL A   1      45.487  25.195  36.926  1.00  0.00    -0.248 NA
ATOM     63  C   UNL A   1      47.348  24.588  38.106  1.00  0.00     0.031 C 
ATOM     64  C   UNL A   1      42.671  26.933  36.594  1.00  0.00     0.029 A 
ATOM     65  C   UNL A   1      43.909  27.559  36.625  1.00  0.00     0.049 A 
ATOM     66  H   UNL A   1      44.527  29.189  35.476  1.00  0.00     0.167 HD
ATOM     67  C   UNL A   1      45.831  26.313  37.581  1.00  0.00     0.074 A 
ATOM     68  C   UNL A   1      46.953  25.842  38.397  1.00  0.00     0.031 C 
ATOM     69  C   UNL A   1      45.166  27.499  37.394  1.00  0.00     0.034 A 
BRANCH  56  70
ATOM     70  C   UNL A   1      41.203  30.336  33.454  1.00  0.00     0.023 A 
ATOM     71  C   UNL A   1      41.436  31.718  33.369  1.00  0.00     0.012 A 
ATOM     72  C   UNL A   1      39.889  29.908  33.050  1.00  0.00     0.148 A 
ATOM     73  C   UNL A   1      40.466  32.615  32.907  1.00  0.00     0.002 A 
ATOM     74  C   UNL A   1      38.901  30.815  32.640  1.00  0.00     0.091 A 
ATOM     75  F   UNL A   1      39.575  28.610  32.985  1.00  0.00    -0.205 F 
ATOM     76  C   UNL A   1      39.199  32.172  32.547  1.00  0.00     0.022 A 
BRANCH  74  77
ATOM     77  S   UNL A   1      37.211  30.330  32.190  1.00  0.00     0.127 S 
ATOM     78  O   UNL A   1      37.145  28.944  32.667  1.00  0.00    -0.237 OA
ATOM     79  O   UNL A   1      36.397  31.268  32.959  1.00  0.00    -0.237 OA
ATOM     80  O   UNL A   1      37.110  30.459  30.741  1.00  0.00    -0.744 OA
ENDBRANCH  74  77
ENDBRANCH  56  70
BRANCH  57  81
ATOM     81  C   UNL A   1      47.346  21.911  35.963  1.00  0.00     0.023 A 
ATOM     82  C   UNL A   1      48.663  22.437  36.047  1.00  0.00     0.012 A 
ATOM     83  C   UNL A   1      47.309  20.504  35.984  1.00  0.00     0.148 A 
ATOM     84  C   UNL A   1      49.740  21.655  36.534  1.00  0.00     0.002 A 
ATOM     85  C   UNL A   1      48.129  19.888  36.932  1.00  0.00     0.091 A 
ATOM     86  F   UNL A   1      46.250  19.810  35.542  1.00  0.00    -0.205 F 
ATOM     87  C   UNL A   1      49.468  20.367  37.026  1.00  0.00     0.022 A 
BRANCH  85  88
ATOM     88  S   UNL A   1      47.203  20.388  38.511  1.00  0.00     0.127 S 
ATOM     89  O   UNL A   1      45.953  20.981  38.279  1.00  0.00    -0.237 OA
ATOM     90  O   UNL A   1      47.035  19.018  38.958  1.00  0.00    -0.237 OA
ATOM     91  O   UNL A   1      48.071  21.408  39.055  1.00  0.00    -0.744 OA
ENDBRANCH  85  88
ENDBRANCH  57  81
BRANCH  69  92
ATOM     92  C   UNL A   1      45.657  28.790  38.008  1.00  0.00     0.023 A 
ATOM     93  C   UNL A   1      45.262  29.175  39.294  1.00  0.00     0.012 A 
ATOM     94  C   UNL A   1      46.565  29.652  37.341  1.00  0.00     0.148 A 
ATOM     95  C   UNL A   1      45.517  30.448  39.784  1.00  0.00     0.002 A 
ATOM     96  C   UNL A   1      46.999  30.819  37.935  1.00  0.00     0.091 A 
ATOM     97  F   UNL A   1      46.985  29.403  36.095  1.00  0.00    -0.205 F 
ATOM     98  C   UNL A   1      46.402  31.267  39.109  1.00  0.00     0.022 A 
BRANCH  96  99
ATOM     99  S   UNL A   1      48.377  31.754  37.279  1.00  0.00     0.127 S 
ATOM    100  O   UNL A   1      48.494  32.826  38.266  1.00  0.00    -0.237 OA
ATOM    101  O   UNL A   1      49.453  30.763  37.320  1.00  0.00    -0.237 OA
ATOM    102  O   UNL A   1      47.997  32.171  35.936  1.00  0.00    -0.744 OA
ENDBRANCH  96  99
ENDBRANCH  69  92
ENDBRANCH  43  44
ENDBRANCH  36  38
ENDBRANCH  35  36
ENDBRANCH  34  35
ENDBRANCH  33  34
ENDBRANCH  32  33
ENDBRANCH   1  32
TORSDOF 23
ENDMDL
