MODEL 1
REMARK VINA RESULT:      -7.7      0.000      0.000
REMARK SMILES C[C@@H](C(=O)OCCOCCOCCOC(=O)c1ccc(-c2c3nc(c(-c4cccc(S(=O)(=O)[O-])c4F)c4ccc([nH]4)c(-c4cccc(S(=O)(=O)[O-])c4F)c4nc(c(-c5cccc(S(=O)(=O)[O-])c5F)c5ccc2[nH]5)C=C4)C=C3)cc1)c1ccc(C[C@H]2CCC[C@@H]2O)cc1F
REMARK SMILES IDX 9 1 8 2 7 3 6 4 5 5 3 6 4 7 2 8 1 9 80 10 81 11 92 12 82 13
REMARK SMILES IDX 91 14 93 15 83 16 84 17 85 18 86 19 89 20 87 21 88 22 90 23
REMARK SMILES IDX 10 25 11 26 12 27 13 28 14 29 15 30 16 31 17 32 18 33 79 34
REMARK SMILES IDX 19 35 78 36 20 37 21 38 22 39 72 40 23 41 77 42 71 43 73 44
REMARK SMILES IDX 24 45 76 46 70 47 69 48 25 50 57 51 37 52 56 53 38 54 41 55
REMARK SMILES IDX 55 56 74 57 39 58 40 59 54 61 75 62 42 63 26 64 27 65 35 66
REMARK SMILES IDX 28 67 30 68 36 69 29 70 31 71 32 72 33 73 34 74 58 75 59 76
REMARK SMILES IDX 67 77 60 78 62 79 68 80 61 81 63 82 64 83 65 84 66 85 43 86
REMARK SMILES IDX 44 87 52 88 45 89 47 90 53 91 46 92 48 93 49 94 50 95 51 96
REMARK H PARENT 90 24 73 49 41 60
REMARK Flexibility Score: inf
ROOT
ATOM      1  C   UNL A   1      44.806  21.946  23.983  1.00  0.00     0.188 C 
ENDROOT
BRANCH   1   2
ATOM      2  O   UNL A   1      43.580  22.428  24.524  1.00  0.00    -0.376 OA
BRANCH   2   3
ATOM      3  C   UNL A   1      43.631  23.221  25.706  1.00  0.00     0.202 C 
BRANCH   3   4
ATOM      4  C   UNL A   1      42.326  23.831  26.240  1.00  0.00     0.261 C 
BRANCH   4   5
ATOM      5  O   UNL A   1      42.052  25.180  25.798  1.00  0.00    -0.463 OA
BRANCH   5   6
ATOM      6  C   UNL A   1      40.811  25.666  26.082  1.00  0.00     0.313 C 
ATOM      7  O   UNL A   1      39.795  24.979  26.057  1.00  0.00    -0.252 OA
BRANCH   6   8
ATOM      8  C   UNL A   1      40.757  27.179  26.367  1.00  0.00     0.129 C 
ATOM      9  C   UNL A   1      41.865  28.082  25.814  1.00  0.00     0.025 C 
BRANCH   8  10
ATOM     10  C   UNL A   1      40.516  27.450  27.846  1.00  0.00     0.002 A 
ATOM     11  C   UNL A   1      39.228  27.708  28.326  1.00  0.00     0.008 A 
ATOM     12  C   UNL A   1      41.558  27.418  28.776  1.00  0.00     0.127 A 
ATOM     13  C   UNL A   1      39.008  27.943  29.689  1.00  0.00     0.004 A 
ATOM     14  C   UNL A   1      41.346  27.640  30.129  1.00  0.00     0.043 A 
ATOM     15  F   UNL A   1      42.816  27.217  28.374  1.00  0.00    -0.207 F 
ATOM     16  C   UNL A   1      40.070  27.939  30.601  1.00  0.00    -0.045 A 
BRANCH  16  17
ATOM     17  C   UNL A   1      39.876  28.294  32.055  1.00  0.00     0.041 C 
BRANCH  17  18
ATOM     18  C   UNL A   1      39.050  29.563  32.316  1.00  0.00     0.022 C 
ATOM     19  C   UNL A   1      39.262  30.736  31.343  1.00  0.00     0.007 C 
ATOM     20  C   UNL A   1      37.534  29.348  32.326  1.00  0.00     0.117 C 
ATOM     21  C   UNL A   1      37.886  31.385  31.157  1.00  0.00     0.003 C 
ATOM     22  C   UNL A   1      36.994  30.764  32.223  1.00  0.00     0.032 C 
BRANCH  20  23
ATOM     23  O   UNL A   1      37.067  28.686  33.487  1.00  0.00    -0.393 OA
ATOM     24  H   UNL A   1      36.610  27.868  33.231  1.00  0.00     0.210 HD
ENDBRANCH  20  23
ENDBRANCH  17  18
ENDBRANCH  16  17
ENDBRANCH   8  10
ENDBRANCH   6   8
ENDBRANCH   5   6
ENDBRANCH   4   5
ENDBRANCH   3   4
ENDBRANCH   2   3
ENDBRANCH   1   2
BRANCH   1  25
ATOM     25  C   UNL A   1      46.110  22.494  24.588  1.00  0.00     0.188 C 
BRANCH  25  26
ATOM     26  O   UNL A   1      46.597  23.649  23.946  1.00  0.00    -0.376 OA
BRANCH  26  27
ATOM     27  C   UNL A   1      46.858  24.808  24.707  1.00  0.00     0.202 C 
BRANCH  27  28
ATOM     28  C   UNL A   1      48.188  25.566  24.582  1.00  0.00     0.261 C 
BRANCH  28  29
ATOM     29  O   UNL A   1      48.699  26.219  25.751  1.00  0.00    -0.460 OA
BRANCH  29  30
ATOM     30  C   UNL A   1      48.849  27.562  25.717  1.00  0.00     0.338 C 
ATOM     31  O   UNL A   1      49.527  28.199  24.927  1.00  0.00    -0.246 OA
BRANCH  30  32
ATOM     32  C   UNL A   1      47.890  28.145  26.688  1.00  0.00     0.060 A 
ATOM     33  C   UNL A   1      48.382  28.800  27.823  1.00  0.00     0.016 A 
ATOM     34  C   UNL A   1      46.510  28.061  26.474  1.00  0.00     0.016 A 
ATOM     35  C   UNL A   1      47.495  29.347  28.756  1.00  0.00     0.010 A 
ATOM     36  C   UNL A   1      45.623  28.604  27.412  1.00  0.00     0.010 A 
ATOM     37  C   UNL A   1      46.109  29.235  28.569  1.00  0.00    -0.014 A 
BRANCH  37  38
ATOM     38  C   UNL A   1      45.176  29.617  29.661  1.00  0.00     0.031 A 
ATOM     39  C   UNL A   1      44.553  30.986  29.622  1.00  0.00     0.074 A 
ATOM     40  C   UNL A   1      44.896  28.787  30.682  1.00  0.00     0.049 A 
ATOM     41  N   UNL A   1      43.727  31.545  30.466  1.00  0.00    -0.248 NA
ATOM     42  C   UNL A   1      44.925  31.839  28.482  1.00  0.00     0.031 C 
ATOM     43  C   UNL A   1      45.455  27.450  30.862  1.00  0.00     0.029 A 
ATOM     44  N   UNL A   1      44.079  28.958  31.775  1.00  0.00    -0.354 N 
ATOM     45  C   UNL A   1      43.504  32.827  29.980  1.00  0.00     0.074 A 
ATOM     46  C   UNL A   1      44.278  32.960  28.765  1.00  0.00     0.031 C 
ATOM     47  C   UNL A   1      44.962  26.919  31.996  1.00  0.00     0.029 A 
ATOM     48  C   UNL A   1      44.086  27.894  32.646  1.00  0.00     0.049 A 
ATOM     49  H   UNL A   1      43.538  29.769  31.920  1.00  0.00     0.167 HD
ATOM     50  C   UNL A   1      42.729  33.810  30.497  1.00  0.00     0.034 A 
ATOM     51  C   UNL A   1      43.479  27.735  33.841  1.00  0.00     0.034 A 
ATOM     52  C   UNL A   1      41.973  33.695  31.713  1.00  0.00     0.049 A 
ATOM     53  C   UNL A   1      42.629  28.850  34.401  1.00  0.00     0.074 A 
ATOM     54  C   UNL A   1      41.144  34.635  32.301  1.00  0.00     0.029 A 
ATOM     55  N   UNL A   1      41.972  32.587  32.544  1.00  0.00    -0.354 N 
ATOM     56  N   UNL A   1      42.331  30.011  33.868  1.00  0.00    -0.248 NA
ATOM     57  C   UNL A   1      42.019  28.627  35.721  1.00  0.00     0.031 C 
ATOM     58  C   UNL A   1      40.668  34.107  33.504  1.00  0.00     0.029 A 
ATOM     59  C   UNL A   1      41.165  32.821  33.644  1.00  0.00     0.049 A 
ATOM     60  H   UNL A   1      42.472  31.755  32.377  1.00  0.00     0.167 HD
ATOM     61  C   UNL A   1      41.484  30.643  34.775  1.00  0.00     0.074 A 
ATOM     62  C   UNL A   1      41.289  29.724  35.876  1.00  0.00     0.031 C 
ATOM     63  C   UNL A   1      40.933  31.881  34.712  1.00  0.00     0.034 A 
BRANCH  50  64
ATOM     64  C   UNL A   1      42.666  35.108  29.735  1.00  0.00     0.023 A 
ATOM     65  C   UNL A   1      41.747  35.253  28.676  1.00  0.00     0.012 A 
ATOM     66  C   UNL A   1      43.490  36.193  30.091  1.00  0.00     0.148 A 
ATOM     67  C   UNL A   1      41.676  36.445  27.958  1.00  0.00     0.002 A 
ATOM     68  C   UNL A   1      43.381  37.394  29.401  1.00  0.00     0.091 A 
ATOM     69  F   UNL A   1      44.373  36.026  31.087  1.00  0.00    -0.205 F 
ATOM     70  C   UNL A   1      42.485  37.517  28.326  1.00  0.00     0.022 A 
BRANCH  68  71
ATOM     71  S   UNL A   1      44.322  38.856  29.848  1.00  0.00     0.127 S 
ATOM     72  O   UNL A   1      45.690  38.419  29.576  1.00  0.00    -0.237 OA
ATOM     73  O   UNL A   1      43.802  39.853  28.912  1.00  0.00    -0.237 OA
ATOM     74  O   UNL A   1      44.017  39.119  31.248  1.00  0.00    -0.744 OA
ENDBRANCH  68  71
ENDBRANCH  50  64
BRANCH  51  75
ATOM     75  C   UNL A   1      43.638  26.461  34.604  1.00  0.00     0.023 A 
ATOM     76  C   UNL A   1      42.665  25.449  34.484  1.00  0.00     0.012 A 
ATOM     77  C   UNL A   1      44.739  26.254  35.457  1.00  0.00     0.148 A 
ATOM     78  C   UNL A   1      42.769  24.269  35.222  1.00  0.00     0.002 A 
ATOM     79  C   UNL A   1      44.869  25.052  36.141  1.00  0.00     0.091 A 
ATOM     80  F   UNL A   1      45.640  27.239  35.580  1.00  0.00    -0.205 F 
ATOM     81  C   UNL A   1      43.877  24.065  36.040  1.00  0.00     0.022 A 
BRANCH  79  82
ATOM     82  S   UNL A   1      46.322  24.653  37.118  1.00  0.00     0.127 S 
ATOM     83  O   UNL A   1      47.395  24.826  36.142  1.00  0.00    -0.237 OA
ATOM     84  O   UNL A   1      46.270  25.677  38.164  1.00  0.00    -0.237 OA
ATOM     85  O   UNL A   1      46.114  23.293  37.596  1.00  0.00    -0.744 OA
ENDBRANCH  79  82
ENDBRANCH  51  75
BRANCH  63  86
ATOM     86  C   UNL A   1      40.024  32.313  35.837  1.00  0.00     0.023 A 
ATOM     87  C   UNL A   1      38.627  32.199  35.701  1.00  0.00     0.012 A 
ATOM     88  C   UNL A   1      40.564  32.751  37.064  1.00  0.00     0.148 A 
ATOM     89  C   UNL A   1      37.780  32.545  36.756  1.00  0.00     0.002 A 
ATOM     90  C   UNL A   1      39.718  33.045  38.126  1.00  0.00     0.091 A 
ATOM     91  F   UNL A   1      41.896  32.869  37.169  1.00  0.00    -0.205 F 
ATOM     92  C   UNL A   1      38.326  32.956  37.970  1.00  0.00     0.022 A 
BRANCH  90  93
ATOM     93  S   UNL A   1      40.333  33.487  39.757  1.00  0.00     0.127 S 
ATOM     94  O   UNL A   1      41.110  32.301  40.113  1.00  0.00    -0.237 OA
ATOM     95  O   UNL A   1      41.132  34.678  39.473  1.00  0.00    -0.237 OA
ATOM     96  O   UNL A   1      39.154  33.729  40.579  1.00  0.00    -0.744 OA
ENDBRANCH  90  93
ENDBRANCH  63  86
ENDBRANCH  37  38
ENDBRANCH  30  32
ENDBRANCH  29  30
ENDBRANCH  28  29
ENDBRANCH  27  28
ENDBRANCH  26  27
ENDBRANCH  25  26
ENDBRANCH   1  25
TORSDOF 24
ENDMDL
MODEL 2
REMARK VINA RESULT:      -7.1      4.763     10.972
REMARK SMILES C[C@@H](C(=O)OCCOCCOCCOC(=O)c1ccc(-c2c3nc(c(-c4cccc(S(=O)(=O)[O-])c4F)c4ccc([nH]4)c(-c4cccc(S(=O)(=O)[O-])c4F)c4nc(c(-c5cccc(S(=O)(=O)[O-])c5F)c5ccc2[nH]5)C=C4)C=C3)cc1)c1ccc(C[C@H]2CCC[C@@H]2O)cc1F
REMARK SMILES IDX 9 1 8 2 7 3 6 4 5 5 3 6 4 7 2 8 1 9 80 10 81 11 92 12 82 13
REMARK SMILES IDX 91 14 93 15 83 16 84 17 85 18 86 19 89 20 87 21 88 22 90 23
REMARK SMILES IDX 10 25 11 26 12 27 13 28 14 29 15 30 16 31 17 32 18 33 79 34
REMARK SMILES IDX 19 35 78 36 20 37 21 38 22 39 72 40 23 41 77 42 71 43 73 44
REMARK SMILES IDX 24 45 76 46 70 47 69 48 25 50 57 51 37 52 56 53 38 54 41 55
REMARK SMILES IDX 55 56 74 57 39 58 40 59 54 61 75 62 42 63 26 64 27 65 35 66
REMARK SMILES IDX 28 67 30 68 36 69 29 70 31 71 32 72 33 73 34 74 58 75 59 76
REMARK SMILES IDX 67 77 60 78 62 79 68 80 61 81 63 82 64 83 65 84 66 85 43 86
REMARK SMILES IDX 44 87 52 88 45 89 47 90 53 91 46 92 48 93 49 94 50 95 51 96
REMARK H PARENT 90 24 73 49 41 60
REMARK Flexibility Score: inf
ROOT
ATOM      1  C   UNL A   1      49.939  19.891  40.280  1.00  0.00     0.188 C 
ENDROOT
BRANCH   1   2
ATOM      2  O   UNL A   1      48.658  20.026  40.888  1.00  0.00    -0.376 OA
BRANCH   2   3
ATOM      3  C   UNL A   1      47.832  18.870  40.983  1.00  0.00     0.202 C 
BRANCH   3   4
ATOM      4  C   UNL A   1      47.152  18.344  39.709  1.00  0.00     0.261 C 
BRANCH   4   5
ATOM      5  O   UNL A   1      47.577  18.976  38.481  1.00  0.00    -0.463 OA
BRANCH   5   6
ATOM      6  C   UNL A   1      46.634  19.704  37.821  1.00  0.00     0.313 C 
ATOM      7  O   UNL A   1      45.569  19.234  37.430  1.00  0.00    -0.252 OA
BRANCH   6   8
ATOM      8  C   UNL A   1      47.029  21.163  37.525  1.00  0.00     0.129 C 
ATOM      9  C   UNL A   1      47.140  22.155  38.688  1.00  0.00     0.025 C 
BRANCH   8  10
ATOM     10  C   UNL A   1      46.192  21.739  36.392  1.00  0.00     0.002 A 
ATOM     11  C   UNL A   1      45.206  22.698  36.646  1.00  0.00     0.008 A 
ATOM     12  C   UNL A   1      46.398  21.360  35.063  1.00  0.00     0.127 A 
ATOM     13  C   UNL A   1      44.447  23.237  35.598  1.00  0.00     0.004 A 
ATOM     14  C   UNL A   1      45.657  21.897  34.019  1.00  0.00     0.043 A 
ATOM     15  F   UNL A   1      47.297  20.419  34.760  1.00  0.00    -0.207 F 
ATOM     16  C   UNL A   1      44.647  22.820  34.277  1.00  0.00    -0.045 A 
BRANCH  16  17
ATOM     17  C   UNL A   1      43.772  23.305  33.146  1.00  0.00     0.041 C 
BRANCH  17  18
ATOM     18  C   UNL A   1      44.522  23.730  31.873  1.00  0.00     0.022 C 
ATOM     19  C   UNL A   1      43.946  23.234  30.535  1.00  0.00     0.007 C 
ATOM     20  C   UNL A   1      44.660  25.244  31.689  1.00  0.00     0.117 C 
ATOM     21  C   UNL A   1      44.152  24.378  29.536  1.00  0.00     0.003 C 
ATOM     22  C   UNL A   1      45.076  25.367  30.233  1.00  0.00     0.032 C 
BRANCH  20  23
ATOM     23  O   UNL A   1      45.606  25.833  32.562  1.00  0.00    -0.393 OA
ATOM     24  H   UNL A   1      45.838  25.201  33.261  1.00  0.00     0.210 HD
ENDBRANCH  20  23
ENDBRANCH  17  18
ENDBRANCH  16  17
ENDBRANCH   8  10
ENDBRANCH   6   8
ENDBRANCH   5   6
ENDBRANCH   4   5
ENDBRANCH   3   4
ENDBRANCH   2   3
ENDBRANCH   1   2
BRANCH   1  25
ATOM     25  C   UNL A   1      50.518  21.127  39.570  1.00  0.00     0.188 C 
BRANCH  25  26
ATOM     26  O   UNL A   1      50.884  20.897  38.230  1.00  0.00    -0.376 OA
BRANCH  26  27
ATOM     27  C   UNL A   1      50.644  19.632  37.652  1.00  0.00     0.202 C 
BRANCH  27  28
ATOM     28  C   UNL A   1      51.741  18.881  36.884  1.00  0.00     0.261 C 
BRANCH  28  29
ATOM     29  O   UNL A   1      51.935  19.209  35.502  1.00  0.00    -0.460 OA
BRANCH  29  30
ATOM     30  C   UNL A   1      52.763  20.233  35.199  1.00  0.00     0.338 C 
ATOM     31  O   UNL A   1      53.983  20.205  35.189  1.00  0.00    -0.246 OA
BRANCH  30  32
ATOM     32  C   UNL A   1      51.928  21.350  34.692  1.00  0.00     0.060 A 
ATOM     33  C   UNL A   1      52.431  22.656  34.742  1.00  0.00     0.016 A 
ATOM     34  C   UNL A   1      50.659  21.112  34.153  1.00  0.00     0.016 A 
ATOM     35  C   UNL A   1      51.655  23.723  34.278  1.00  0.00     0.010 A 
ATOM     36  C   UNL A   1      49.881  22.183  33.695  1.00  0.00     0.010 A 
ATOM     37  C   UNL A   1      50.367  23.499  33.771  1.00  0.00    -0.014 A 
BRANCH  37  38
ATOM     38  C   UNL A   1      49.466  24.646  33.489  1.00  0.00     0.031 A 
ATOM     39  C   UNL A   1      48.591  25.158  34.600  1.00  0.00     0.074 A 
ATOM     40  C   UNL A   1      49.398  25.215  32.272  1.00  0.00     0.049 A 
ATOM     41  N   UNL A   1      47.719  26.131  34.588  1.00  0.00    -0.248 NA
ATOM     42  C   UNL A   1      48.713  24.470  35.895  1.00  0.00     0.031 C 
ATOM     43  C   UNL A   1      50.160  24.797  31.100  1.00  0.00     0.029 A 
ATOM     44  N   UNL A   1      48.631  26.263  31.817  1.00  0.00    -0.354 N 
ATOM     45  C   UNL A   1      47.161  26.152  35.860  1.00  0.00     0.074 A 
ATOM     46  C   UNL A   1      47.799  25.098  36.619  1.00  0.00     0.031 C 
ATOM     47  C   UNL A   1      49.828  25.583  30.059  1.00  0.00     0.029 A 
ATOM     48  C   UNL A   1      48.796  26.532  30.479  1.00  0.00     0.049 A 
ATOM     49  H   UNL A   1      48.021  26.774  32.397  1.00  0.00     0.167 HD
ATOM     50  C   UNL A   1      46.203  26.971  36.356  1.00  0.00     0.034 A 
ATOM     51  C   UNL A   1      48.170  27.421  29.679  1.00  0.00     0.034 A 
ATOM     52  C   UNL A   1      45.549  28.007  35.604  1.00  0.00     0.049 A 
ATOM     53  C   UNL A   1      47.097  28.314  30.253  1.00  0.00     0.074 A 
ATOM     54  C   UNL A   1      44.580  28.896  36.033  1.00  0.00     0.029 A 
ATOM     55  N   UNL A   1      45.775  28.276  34.265  1.00  0.00    -0.354 N 
ATOM     56  N   UNL A   1      46.668  28.404  31.489  1.00  0.00    -0.248 NA
ATOM     57  C   UNL A   1      46.431  29.241  29.324  1.00  0.00     0.031 C 
ATOM     58  C   UNL A   1      44.196  29.683  34.943  1.00  0.00     0.029 A 
ATOM     59  C   UNL A   1      44.957  29.311  33.846  1.00  0.00     0.049 A 
ATOM     60  H   UNL A   1      46.421  27.800  33.694  1.00  0.00     0.167 HD
ATOM     61  C   UNL A   1      45.703  29.408  31.488  1.00  0.00     0.074 A 
ATOM     62  C   UNL A   1      45.633  29.920  30.136  1.00  0.00     0.031 C 
ATOM     63  C   UNL A   1      44.930  29.853  32.511  1.00  0.00     0.034 A 
BRANCH  50  64
ATOM     64  C   UNL A   1      45.802  26.769  37.794  1.00  0.00     0.023 A 
ATOM     65  C   UNL A   1      44.818  25.812  38.117  1.00  0.00     0.012 A 
ATOM     66  C   UNL A   1      46.422  27.501  38.824  1.00  0.00     0.148 A 
ATOM     67  C   UNL A   1      44.432  25.613  39.441  1.00  0.00     0.002 A 
ATOM     68  C   UNL A   1      46.064  27.265  40.145  1.00  0.00     0.091 A 
ATOM     69  F   UNL A   1      47.338  28.423  38.493  1.00  0.00    -0.205 F 
ATOM     70  C   UNL A   1      45.061  26.332  40.455  1.00  0.00     0.022 A 
BRANCH  68  71
ATOM     71  S   UNL A   1      46.870  28.082  41.527  1.00  0.00     0.127 S 
ATOM     72  O   UNL A   1      46.851  29.478  41.094  1.00  0.00    -0.237 OA
ATOM     73  O   UNL A   1      45.964  27.774  42.634  1.00  0.00    -0.237 OA
ATOM     74  O   UNL A   1      48.191  27.480  41.637  1.00  0.00    -0.744 OA
ENDBRANCH  68  71
ENDBRANCH  50  64
BRANCH  51  75
ATOM     75  C   UNL A   1      48.540  27.529  28.236  1.00  0.00     0.023 A 
ATOM     76  C   UNL A   1      49.675  28.274  27.860  1.00  0.00     0.012 A 
ATOM     77  C   UNL A   1      47.767  26.909  27.236  1.00  0.00     0.148 A 
ATOM     78  C   UNL A   1      50.014  28.427  26.514  1.00  0.00     0.002 A 
ATOM     79  C   UNL A   1      48.145  27.012  25.903  1.00  0.00     0.091 A 
ATOM     80  F   UNL A   1      46.675  26.227  27.611  1.00  0.00    -0.205 F 
ATOM     81  C   UNL A   1      49.257  27.786  25.538  1.00  0.00     0.022 A 
BRANCH  79  82
ATOM     82  S   UNL A   1      47.303  26.120  24.592  1.00  0.00     0.127 S 
ATOM     83  O   UNL A   1      47.372  24.743  25.076  1.00  0.00    -0.237 OA
ATOM     84  O   UNL A   1      45.968  26.720  24.631  1.00  0.00    -0.237 OA
ATOM     85  O   UNL A   1      48.056  26.402  23.378  1.00  0.00    -0.744 OA
ENDBRANCH  79  82
ENDBRANCH  51  75
BRANCH  63  86
ATOM     86  C   UNL A   1      43.967  30.982  32.235  1.00  0.00     0.023 A 
ATOM     87  C   UNL A   1      44.419  32.316  32.242  1.00  0.00     0.012 A 
ATOM     88  C   UNL A   1      42.629  30.709  31.881  1.00  0.00     0.148 A 
ATOM     89  C   UNL A   1      43.548  33.363  31.935  1.00  0.00     0.002 A 
ATOM     90  C   UNL A   1      41.782  31.752  31.526  1.00  0.00     0.091 A 
ATOM     91  F   UNL A   1      42.212  29.435  31.894  1.00  0.00    -0.205 F 
ATOM     92  C   UNL A   1      42.235  33.080  31.567  1.00  0.00     0.022 A 
BRANCH  90  93
ATOM     93  S   UNL A   1      40.104  31.477  30.943  1.00  0.00     0.127 S 
ATOM     94  O   UNL A   1      39.927  32.589  30.010  1.00  0.00    -0.237 OA
ATOM     95  O   UNL A   1      40.208  30.163  30.312  1.00  0.00    -0.237 OA
ATOM     96  O   UNL A   1      39.255  31.516  32.126  1.00  0.00    -0.744 OA
ENDBRANCH  90  93
ENDBRANCH  63  86
ENDBRANCH  37  38
ENDBRANCH  30  32
ENDBRANCH  29  30
ENDBRANCH  28  29
ENDBRANCH  27  28
ENDBRANCH  26  27
ENDBRANCH  25  26
ENDBRANCH   1  25
TORSDOF 24
ENDMDL
MODEL 3
REMARK VINA RESULT:      -7.0      3.699     10.284
REMARK SMILES C[C@@H](C(=O)OCCOCCOCCOC(=O)c1ccc(-c2c3nc(c(-c4cccc(S(=O)(=O)[O-])c4F)c4ccc([nH]4)c(-c4cccc(S(=O)(=O)[O-])c4F)c4nc(c(-c5cccc(S(=O)(=O)[O-])c5F)c5ccc2[nH]5)C=C4)C=C3)cc1)c1ccc(C[C@H]2CCC[C@@H]2O)cc1F
REMARK SMILES IDX 9 1 8 2 7 3 6 4 5 5 3 6 4 7 2 8 1 9 80 10 81 11 92 12 82 13
REMARK SMILES IDX 91 14 93 15 83 16 84 17 85 18 86 19 89 20 87 21 88 22 90 23
REMARK SMILES IDX 10 25 11 26 12 27 13 28 14 29 15 30 16 31 17 32 18 33 79 34
REMARK SMILES IDX 19 35 78 36 20 37 21 38 22 39 72 40 23 41 77 42 71 43 73 44
REMARK SMILES IDX 24 45 76 46 70 47 69 48 25 50 57 51 37 52 56 53 38 54 41 55
REMARK SMILES IDX 55 56 74 57 39 58 40 59 54 61 75 62 42 63 26 64 27 65 35 66
REMARK SMILES IDX 28 67 30 68 36 69 29 70 31 71 32 72 33 73 34 74 58 75 59 76
REMARK SMILES IDX 67 77 60 78 62 79 68 80 61 81 63 82 64 83 65 84 66 85 43 86
REMARK SMILES IDX 44 87 52 88 45 89 47 90 53 91 46 92 48 93 49 94 50 95 51 96
REMARK H PARENT 90 24 73 49 41 60
REMARK Flexibility Score: inf
ROOT
ATOM      1  C   UNL A   1      36.210  33.867  34.852  1.00  0.00     0.188 C 
ENDROOT
BRANCH   1   2
ATOM      2  O   UNL A   1      37.008  32.991  35.641  1.00  0.00    -0.376 OA
BRANCH   2   3
ATOM      3  C   UNL A   1      37.677  31.916  34.988  1.00  0.00     0.202 C 
BRANCH   3   4
ATOM      4  C   UNL A   1      38.780  31.165  35.749  1.00  0.00     0.261 C 
BRANCH   4   5
ATOM      5  O   UNL A   1      39.218  29.931  35.137  1.00  0.00    -0.463 OA
BRANCH   5   6
ATOM      6  C   UNL A   1      40.540  29.627  35.273  1.00  0.00     0.313 C 
ATOM      7  O   UNL A   1      41.248  30.080  36.167  1.00  0.00    -0.252 OA
BRANCH   6   8
ATOM      8  C   UNL A   1      41.115  28.723  34.167  1.00  0.00     0.129 C 
ATOM      9  C   UNL A   1      40.186  28.224  33.054  1.00  0.00     0.025 C 
BRANCH   8  10
ATOM     10  C   UNL A   1      41.923  27.577  34.761  1.00  0.00     0.002 A 
ATOM     11  C   UNL A   1      41.658  27.109  36.053  1.00  0.00     0.008 A 
ATOM     12  C   UNL A   1      42.928  26.934  34.034  1.00  0.00     0.127 A 
ATOM     13  C   UNL A   1      42.394  26.045  36.591  1.00  0.00     0.004 A 
ATOM     14  C   UNL A   1      43.653  25.873  34.557  1.00  0.00     0.043 A 
ATOM     15  F   UNL A   1      43.255  27.361  32.811  1.00  0.00    -0.207 F 
ATOM     16  C   UNL A   1      43.418  25.435  35.858  1.00  0.00    -0.045 A 
BRANCH  16  17
ATOM     17  C   UNL A   1      44.295  24.360  36.453  1.00  0.00     0.041 C 
BRANCH  17  18
ATOM     18  C   UNL A   1      45.199  23.622  35.452  1.00  0.00     0.022 C 
ATOM     19  C   UNL A   1      46.656  23.379  35.887  1.00  0.00     0.007 C 
ATOM     20  C   UNL A   1      44.693  22.238  35.034  1.00  0.00     0.117 C 
ATOM     21  C   UNL A   1      47.037  22.001  35.336  1.00  0.00     0.003 C 
ATOM     22  C   UNL A   1      45.916  21.618  34.380  1.00  0.00     0.032 C 
BRANCH  20  23
ATOM     23  O   UNL A   1      43.587  22.288  34.151  1.00  0.00    -0.393 OA
ATOM     24  H   UNL A   1      42.763  22.231  34.661  1.00  0.00     0.210 HD
ENDBRANCH  20  23
ENDBRANCH  17  18
ENDBRANCH  16  17
ENDBRANCH   8  10
ENDBRANCH   6   8
ENDBRANCH   5   6
ENDBRANCH   4   5
ENDBRANCH   3   4
ENDBRANCH   2   3
ENDBRANCH   1   2
BRANCH   1  25
ATOM     25  C   UNL A   1      36.821  34.392  33.541  1.00  0.00     0.188 C 
BRANCH  25  26
ATOM     26  O   UNL A   1      35.961  35.230  32.805  1.00  0.00    -0.376 OA
BRANCH  26  27
ATOM     27  C   UNL A   1      34.648  34.799  32.520  1.00  0.00     0.202 C 
BRANCH  27  28
ATOM     28  C   UNL A   1      34.052  34.923  31.111  1.00  0.00     0.261 C 
BRANCH  28  29
ATOM     29  O   UNL A   1      34.895  34.599  29.997  1.00  0.00    -0.460 OA
BRANCH  29  30
ATOM     30  C   UNL A   1      34.967  33.307  29.606  1.00  0.00     0.338 C 
ATOM     31  O   UNL A   1      34.146  32.703  28.934  1.00  0.00    -0.246 OA
BRANCH  30  32
ATOM     32  C   UNL A   1      36.313  32.800  29.974  1.00  0.00     0.060 A 
ATOM     33  C   UNL A   1      37.445  33.408  29.420  1.00  0.00     0.016 A 
ATOM     34  C   UNL A   1      36.460  31.739  30.875  1.00  0.00     0.016 A 
ATOM     35  C   UNL A   1      38.722  32.939  29.746  1.00  0.00     0.010 A 
ATOM     36  C   UNL A   1      37.739  31.267  31.195  1.00  0.00     0.010 A 
ATOM     37  C   UNL A   1      38.878  31.852  30.619  1.00  0.00    -0.014 A 
BRANCH  37  38
ATOM     38  C   UNL A   1      40.211  31.217  30.788  1.00  0.00     0.031 A 
ATOM     39  C   UNL A   1      41.121  31.743  31.866  1.00  0.00     0.074 A 
ATOM     40  C   UNL A   1      40.628  30.212  29.997  1.00  0.00     0.049 A 
ATOM     41  N   UNL A   1      42.328  31.362  32.191  1.00  0.00    -0.248 NA
ATOM     42  C   UNL A   1      40.597  32.854  32.675  1.00  0.00     0.031 C 
ATOM     43  C   UNL A   1      39.865  29.632  28.896  1.00  0.00     0.029 A 
ATOM     44  N   UNL A   1      41.812  29.513  29.991  1.00  0.00    -0.354 N 
ATOM     45  C   UNL A   1      42.724  32.208  33.219  1.00  0.00     0.074 A 
ATOM     46  C   UNL A   1      41.626  33.117  33.467  1.00  0.00     0.031 C 
ATOM     47  C   UNL A   1      40.598  28.661  28.321  1.00  0.00     0.029 A 
ATOM     48  C   UNL A   1      41.899  28.578  28.985  1.00  0.00     0.049 A 
ATOM     49  H   UNL A   1      42.531  29.665  30.647  1.00  0.00     0.167 HD
ATOM     50  C   UNL A   1      43.896  32.232  33.897  1.00  0.00     0.034 A 
ATOM     51  C   UNL A   1      42.918  27.769  28.625  1.00  0.00     0.034 A 
ATOM     52  C   UNL A   1      45.000  31.347  33.645  1.00  0.00     0.049 A 
ATOM     53  C   UNL A   1      44.219  27.823  29.390  1.00  0.00     0.074 A 
ATOM     54  C   UNL A   1      46.219  31.288  34.297  1.00  0.00     0.029 A 
ATOM     55  N   UNL A   1      45.034  30.386  32.647  1.00  0.00    -0.354 N 
ATOM     56  N   UNL A   1      44.534  28.545  30.439  1.00  0.00    -0.248 NA
ATOM     57  C   UNL A   1      45.302  26.939  28.929  1.00  0.00     0.031 C 
ATOM     58  C   UNL A   1      47.002  30.313  33.672  1.00  0.00     0.029 A 
ATOM     59  C   UNL A   1      46.255  29.734  32.659  1.00  0.00     0.049 A 
ATOM     60  H   UNL A   1      44.297  30.196  32.021  1.00  0.00     0.167 HD
ATOM     61  C   UNL A   1      45.837  28.185  30.775  1.00  0.00     0.074 A 
ATOM     62  C   UNL A   1      46.242  27.158  29.839  1.00  0.00     0.031 C 
ATOM     63  C   UNL A   1      46.633  28.676  31.758  1.00  0.00     0.034 A 
BRANCH  50  64
ATOM     64  C   UNL A   1      44.041  33.263  34.985  1.00  0.00     0.023 A 
ATOM     65  C   UNL A   1      44.467  34.567  34.660  1.00  0.00     0.012 A 
ATOM     66  C   UNL A   1      43.723  32.950  36.321  1.00  0.00     0.148 A 
ATOM     67  C   UNL A   1      44.610  35.533  35.654  1.00  0.00     0.002 A 
ATOM     68  C   UNL A   1      43.823  33.932  37.298  1.00  0.00     0.091 A 
ATOM     69  F   UNL A   1      43.343  31.697  36.612  1.00  0.00    -0.205 F 
ATOM     70  C   UNL A   1      44.279  35.219  36.970  1.00  0.00     0.022 A 
BRANCH  68  71
ATOM     71  S   UNL A   1      43.347  33.649  39.007  1.00  0.00     0.127 S 
ATOM     72  O   UNL A   1      43.707  34.923  39.627  1.00  0.00    -0.237 OA
ATOM     73  O   UNL A   1      41.909  33.411  38.888  1.00  0.00    -0.237 OA
ATOM     74  O   UNL A   1      44.119  32.498  39.454  1.00  0.00    -0.744 OA
ENDBRANCH  68  71
ENDBRANCH  50  64
BRANCH  51  75
ATOM     75  C   UNL A   1      42.761  26.820  27.483  1.00  0.00     0.023 A 
ATOM     76  C   UNL A   1      42.985  27.269  26.167  1.00  0.00     0.012 A 
ATOM     77  C   UNL A   1      42.380  25.481  27.695  1.00  0.00     0.148 A 
ATOM     78  C   UNL A   1      42.799  26.411  25.081  1.00  0.00     0.002 A 
ATOM     79  C   UNL A   1      42.258  24.616  26.614  1.00  0.00     0.091 A 
ATOM     80  F   UNL A   1      42.144  25.080  28.952  1.00  0.00    -0.205 F 
ATOM     81  C   UNL A   1      42.449  25.083  25.305  1.00  0.00     0.022 A 
BRANCH  79  82
ATOM     82  S   UNL A   1      41.932  22.862  26.818  1.00  0.00     0.127 S 
ATOM     83  O   UNL A   1      42.975  22.472  27.763  1.00  0.00    -0.237 OA
ATOM     84  O   UNL A   1      40.575  22.871  27.366  1.00  0.00    -0.237 OA
ATOM     85  O   UNL A   1      42.040  22.285  25.484  1.00  0.00    -0.744 OA
ENDBRANCH  79  82
ENDBRANCH  51  75
BRANCH  63  86
ATOM     86  C   UNL A   1      48.013  28.084  31.915  1.00  0.00     0.023 A 
ATOM     87  C   UNL A   1      49.110  28.660  31.245  1.00  0.00     0.012 A 
ATOM     88  C   UNL A   1      48.233  27.008  32.800  1.00  0.00     0.148 A 
ATOM     89  C   UNL A   1      50.399  28.153  31.426  1.00  0.00     0.002 A 
ATOM     90  C   UNL A   1      49.524  26.542  33.015  1.00  0.00     0.091 A 
ATOM     91  F   UNL A   1      47.174  26.463  33.416  1.00  0.00    -0.205 F 
ATOM     92  C   UNL A   1      50.606  27.104  32.318  1.00  0.00     0.022 A 
BRANCH  90  93
ATOM     93  S   UNL A   1      49.901  25.261  34.218  1.00  0.00     0.127 S 
ATOM     94  O   UNL A   1      49.227  24.101  33.639  1.00  0.00    -0.237 OA
ATOM     95  O   UNL A   1      51.361  25.208  34.166  1.00  0.00    -0.237 OA
ATOM     96  O   UNL A   1      49.356  25.729  35.486  1.00  0.00    -0.744 OA
ENDBRANCH  90  93
ENDBRANCH  63  86
ENDBRANCH  37  38
ENDBRANCH  30  32
ENDBRANCH  29  30
ENDBRANCH  28  29
ENDBRANCH  27  28
ENDBRANCH  26  27
ENDBRANCH  25  26
ENDBRANCH   1  25
TORSDOF 24
ENDMDL
