MODEL 1
REMARK VINA RESULT:     -10.3      0.000      0.000
REMARK SMILES CC(=O)Nc1ccc(/C=C2/CCc3oc(C(=O)OCCOCCOCCOC(=O)c4ccc(-c5c6nc(c(-c7cccc(S(=O)(=O)[O-])c7F)c7ccc([nH]7)c(-c7cccc(S(=O)(=O)[O-])c7F)c7nc(c(-c8cccc(S(=O)(=O)[O-])c8F)c8ccc5[nH]8)C=C7)C=C6)cc4)c(C)c3C2=O)cc1
REMARK SMILES IDX 23 1 22 2 21 3 20 4 19 5 18 6 16 7 17 8 15 9 9 10 10 11
REMARK SMILES IDX 11 12 96 13 12 14 95 15 97 16 13 17 93 18 14 19 94 20 8 21
REMARK SMILES IDX 5 22 6 23 99 24 7 25 98 26 4 27 1 28 2 29 3 30 24 32 25 33
REMARK SMILES IDX 26 34 27 35 28 36 29 37 30 38 31 39 92 40 32 41 91 42 33 43
REMARK SMILES IDX 34 44 35 45 85 46 36 47 90 48 84 49 86 50 37 51 89 52 83 53
REMARK SMILES IDX 82 54 38 56 70 57 50 58 69 59 51 60 54 61 68 62 87 63 52 64
REMARK SMILES IDX 53 65 67 67 88 68 55 69 39 70 40 71 48 72 41 73 43 74 49 75
REMARK SMILES IDX 42 76 44 77 45 78 46 79 47 80 71 81 72 82 80 83 73 84 75 85
REMARK SMILES IDX 81 86 74 87 76 88 77 89 78 90 79 91 56 92 57 93 65 94 58 95
REMARK SMILES IDX 60 96 66 97 59 98 61 99 62 100 63 101 64 102
REMARK H PARENT 4 31 86 55 54 66
REMARK Flexibility Score: inf
ROOT
ATOM      1  C   UNL A   1      33.529  28.732  26.975  1.00  0.00     0.188 C 
ENDROOT
BRANCH   1   2
ATOM      2  C   UNL A   1      31.981  28.708  26.961  1.00  0.00     0.188 C 
BRANCH   2   3
ATOM      3  O   UNL A   1      31.220  28.456  25.786  1.00  0.00    -0.376 OA
BRANCH   3   4
ATOM      4  C   UNL A   1      31.829  28.487  24.508  1.00  0.00     0.202 C 
BRANCH   4   5
ATOM      5  C   UNL A   1      30.952  28.140  23.294  1.00  0.00     0.261 C 
BRANCH   5   6
ATOM      6  O   UNL A   1      30.870  26.742  22.974  1.00  0.00    -0.457 OA
BRANCH   6   7
ATOM      7  C   UNL A   1      30.190  25.967  23.868  1.00  0.00     0.374 C 
ATOM      8  O   UNL A   1      29.066  26.209  24.291  1.00  0.00    -0.242 OA
BRANCH   7   9
ATOM      9  C   UNL A   1      30.930  24.753  24.154  1.00  0.00     0.215 A 
ATOM     10  C   UNL A   1      35.197  21.218  24.657  1.00  0.00     0.016 C 
ATOM     11  C   UNL A   1      33.861  21.333  24.809  1.00  0.00     0.001 C 
ATOM     12  C   UNL A   1      32.872  20.564  23.937  1.00  0.00     0.048 C 
ATOM     13  C   UNL A   1      33.175  22.304  25.725  1.00  0.00     0.192 C 
ATOM     14  C   UNL A   1      32.048  21.512  23.025  1.00  0.00     0.081 C 
ATOM     15  C   UNL A   1      32.253  23.143  24.992  1.00  0.00     0.067 A 
ATOM     16  O   UNL A   1      33.335  22.338  26.937  1.00  0.00    -0.289 OA
ATOM     17  C   UNL A   1      31.758  22.763  23.767  1.00  0.00     0.116 A 
ATOM     18  C   UNL A   1      31.673  24.405  25.283  1.00  0.00     0.014 A 
ATOM     19  O   UNL A   1      30.953  23.719  23.242  1.00  0.00    -0.453 OA
ATOM     20  C   UNL A   1      31.845  25.182  26.538  1.00  0.00     0.049 C 
BRANCH  10  21
ATOM     21  C   UNL A   1      36.342  21.997  25.190  1.00  0.00    -0.025 A 
ATOM     22  C   UNL A   1      38.710  23.318  26.065  1.00  0.00     0.041 A 
ATOM     23  C   UNL A   1      37.528  24.025  25.861  1.00  0.00     0.027 A 
ATOM     24  C   UNL A   1      38.690  21.937  25.904  1.00  0.00     0.027 A 
ATOM     25  C   UNL A   1      36.367  23.374  25.415  1.00  0.00     0.010 A 
ATOM     26  C   UNL A   1      37.522  21.287  25.477  1.00  0.00     0.010 A 
BRANCH  22  27
ATOM     27  N   UNL A   1      39.837  24.049  26.472  1.00  0.00    -0.326 N 
ATOM     28  C   UNL A   1      38.877  25.310  28.389  1.00  0.00     0.114 C 
ATOM     29  C   UNL A   1      39.976  25.042  27.398  1.00  0.00     0.221 C 
ATOM     30  O   UNL A   1      41.037  25.669  27.456  1.00  0.00    -0.275 OA
ATOM     31  H   UNL A   1      40.670  23.802  26.011  1.00  0.00     0.169 HD
ENDBRANCH  22  27
ENDBRANCH  10  21
ENDBRANCH   7   9
ENDBRANCH   6   7
ENDBRANCH   5   6
ENDBRANCH   4   5
ENDBRANCH   3   4
ENDBRANCH   2   3
ENDBRANCH   1   2
BRANCH   1  32
ATOM     32  O   UNL A   1      34.129  30.004  26.783  1.00  0.00    -0.376 OA
BRANCH  32  33
ATOM     33  C   UNL A   1      33.571  31.084  27.520  1.00  0.00     0.202 C 
BRANCH  33  34
ATOM     34  C   UNL A   1      34.558  31.826  28.416  1.00  0.00     0.261 C 
BRANCH  34  35
ATOM     35  O   UNL A   1      35.918  31.501  28.171  1.00  0.00    -0.460 OA
BRANCH  35  36
ATOM     36  C   UNL A   1      36.482  30.636  29.037  1.00  0.00     0.338 C 
ATOM     37  O   UNL A   1      35.937  30.056  29.960  1.00  0.00    -0.246 OA
BRANCH  36  38
ATOM     38  C   UNL A   1      37.913  30.557  28.730  1.00  0.00     0.060 A 
ATOM     39  C   UNL A   1      38.353  29.469  27.972  1.00  0.00     0.016 A 
ATOM     40  C   UNL A   1      38.799  31.395  29.421  1.00  0.00     0.016 A 
ATOM     41  C   UNL A   1      39.673  29.089  28.086  1.00  0.00     0.010 A 
ATOM     42  C   UNL A   1      40.109  31.005  29.548  1.00  0.00     0.010 A 
ATOM     43  C   UNL A   1      40.497  29.806  28.956  1.00  0.00    -0.014 A 
BRANCH  43  44
ATOM     44  C   UNL A   1      41.763  29.216  29.334  1.00  0.00     0.031 A 
ATOM     45  C   UNL A   1      41.922  28.911  30.767  1.00  0.00     0.074 A 
ATOM     46  C   UNL A   1      42.646  28.847  28.385  1.00  0.00     0.049 A 
ATOM     47  N   UNL A   1      42.842  29.341  31.566  1.00  0.00    -0.248 NA
ATOM     48  C   UNL A   1      40.875  28.110  31.417  1.00  0.00     0.031 C 
ATOM     49  C   UNL A   1      42.429  28.831  26.933  1.00  0.00     0.029 A 
ATOM     50  N   UNL A   1      43.858  28.240  28.528  1.00  0.00    -0.354 N 
ATOM     51  C   UNL A   1      42.616  28.679  32.766  1.00  0.00     0.074 A 
ATOM     52  C   UNL A   1      41.311  28.081  32.675  1.00  0.00     0.031 C 
ATOM     53  C   UNL A   1      43.338  28.012  26.364  1.00  0.00     0.029 A 
ATOM     54  C   UNL A   1      44.253  27.545  27.391  1.00  0.00     0.049 A 
ATOM     55  H   UNL A   1      44.397  28.288  29.350  1.00  0.00     0.167 HD
ATOM     56  C   UNL A   1      43.618  28.453  33.655  1.00  0.00     0.034 A 
ATOM     57  C   UNL A   1      45.190  26.569  27.326  1.00  0.00     0.034 A 
ATOM     58  C   UNL A   1      44.762  29.288  33.420  1.00  0.00     0.049 A 
ATOM     59  C   UNL A   1      46.037  26.675  28.537  1.00  0.00     0.074 A 
ATOM     60  C   UNL A   1      44.978  30.649  33.352  1.00  0.00     0.029 A 
ATOM     61  N   UNL A   1      45.874  28.698  32.872  1.00  0.00    -0.354 N 
ATOM     62  N   UNL A   1      46.867  27.654  28.765  1.00  0.00    -0.248 NA
ATOM     63  C   UNL A   1      45.685  25.874  29.699  1.00  0.00     0.031 C 
ATOM     64  C   UNL A   1      45.998  30.817  32.373  1.00  0.00     0.029 A 
ATOM     65  C   UNL A   1      46.359  29.548  31.914  1.00  0.00     0.049 A 
ATOM     66  H   UNL A   1      46.253  27.824  33.121  1.00  0.00     0.167 HD
ATOM     67  C   UNL A   1      46.791  27.865  30.136  1.00  0.00     0.074 A 
ATOM     68  C   UNL A   1      46.165  26.659  30.668  1.00  0.00     0.031 C 
ATOM     69  C   UNL A   1      46.964  29.111  30.672  1.00  0.00     0.034 A 
BRANCH  56  70
ATOM     70  C   UNL A   1      43.689  27.231  34.529  1.00  0.00     0.023 A 
ATOM     71  C   UNL A   1      43.683  27.423  35.926  1.00  0.00     0.012 A 
ATOM     72  C   UNL A   1      44.014  25.941  34.055  1.00  0.00     0.148 A 
ATOM     73  C   UNL A   1      44.009  26.385  36.805  1.00  0.00     0.002 A 
ATOM     74  C   UNL A   1      44.243  24.891  34.934  1.00  0.00     0.091 A 
ATOM     75  F   UNL A   1      44.246  25.741  32.752  1.00  0.00    -0.205 F 
ATOM     76  C   UNL A   1      44.271  25.112  36.310  1.00  0.00     0.022 A 
BRANCH  74  77
ATOM     77  S   UNL A   1      44.498  23.225  34.315  1.00  0.00     0.127 S 
ATOM     78  O   UNL A   1      44.412  22.436  35.539  1.00  0.00    -0.237 OA
ATOM     79  O   UNL A   1      43.373  23.061  33.392  1.00  0.00    -0.237 OA
ATOM     80  O   UNL A   1      45.798  23.270  33.657  1.00  0.00    -0.744 OA
ENDBRANCH  74  77
ENDBRANCH  56  70
BRANCH  57  81
ATOM     81  C   UNL A   1      45.274  25.423  26.392  1.00  0.00     0.023 A 
ATOM     82  C   UNL A   1      46.400  25.285  25.560  1.00  0.00     0.012 A 
ATOM     83  C   UNL A   1      44.364  24.342  26.461  1.00  0.00     0.148 A 
ATOM     84  C   UNL A   1      46.620  24.110  24.831  1.00  0.00     0.002 A 
ATOM     85  C   UNL A   1      44.570  23.187  25.714  1.00  0.00     0.091 A 
ATOM     86  F   UNL A   1      43.344  24.403  27.329  1.00  0.00    -0.205 F 
ATOM     87  C   UNL A   1      45.705  23.063  24.905  1.00  0.00     0.022 A 
BRANCH  85  88
ATOM     88  S   UNL A   1      43.408  21.815  25.756  1.00  0.00     0.127 S 
ATOM     89  O   UNL A   1      42.226  22.390  25.114  1.00  0.00    -0.237 OA
ATOM     90  O   UNL A   1      44.103  20.804  24.965  1.00  0.00    -0.237 OA
ATOM     91  O   UNL A   1      43.222  21.505  27.169  1.00  0.00    -0.744 OA
ENDBRANCH  85  88
ENDBRANCH  57  81
BRANCH  69  92
ATOM     92  C   UNL A   1      47.516  30.203  29.787  1.00  0.00     0.023 A 
ATOM     93  C   UNL A   1      48.904  30.433  29.676  1.00  0.00     0.012 A 
ATOM     94  C   UNL A   1      46.649  30.876  28.907  1.00  0.00     0.148 A 
ATOM     95  C   UNL A   1      49.414  31.330  28.735  1.00  0.00     0.002 A 
ATOM     96  C   UNL A   1      47.163  31.730  27.937  1.00  0.00     0.091 A 
ATOM     97  F   UNL A   1      45.331  30.646  29.011  1.00  0.00    -0.205 F 
ATOM     98  C   UNL A   1      48.544  31.969  27.855  1.00  0.00     0.022 A 
BRANCH  96  99
ATOM     99  S   UNL A   1      46.110  32.465  26.682  1.00  0.00     0.127 S 
ATOM    100  O   UNL A   1      45.059  33.085  27.486  1.00  0.00    -0.237 OA
ATOM    101  O   UNL A   1      47.010  33.412  26.021  1.00  0.00    -0.237 OA
ATOM    102  O   UNL A   1      45.686  31.361  25.830  1.00  0.00    -0.744 OA
ENDBRANCH  96  99
ENDBRANCH  69  92
ENDBRANCH  43  44
ENDBRANCH  36  38
ENDBRANCH  35  36
ENDBRANCH  34  35
ENDBRANCH  33  34
ENDBRANCH  32  33
ENDBRANCH   1  32
TORSDOF 22
ENDMDL
MODEL 2
REMARK VINA RESULT:     -10.0      2.293      3.715
REMARK SMILES CC(=O)Nc1ccc(/C=C2/CCc3oc(C(=O)OCCOCCOCCOC(=O)c4ccc(-c5c6nc(c(-c7cccc(S(=O)(=O)[O-])c7F)c7ccc([nH]7)c(-c7cccc(S(=O)(=O)[O-])c7F)c7nc(c(-c8cccc(S(=O)(=O)[O-])c8F)c8ccc5[nH]8)C=C7)C=C6)cc4)c(C)c3C2=O)cc1
REMARK SMILES IDX 23 1 22 2 21 3 20 4 19 5 18 6 16 7 17 8 15 9 9 10 10 11
REMARK SMILES IDX 11 12 96 13 12 14 95 15 97 16 13 17 93 18 14 19 94 20 8 21
REMARK SMILES IDX 5 22 6 23 99 24 7 25 98 26 4 27 1 28 2 29 3 30 24 32 25 33
REMARK SMILES IDX 26 34 27 35 28 36 29 37 30 38 31 39 92 40 32 41 91 42 33 43
REMARK SMILES IDX 34 44 35 45 85 46 36 47 90 48 84 49 86 50 37 51 89 52 83 53
REMARK SMILES IDX 82 54 38 56 70 57 50 58 69 59 51 60 54 61 68 62 87 63 52 64
REMARK SMILES IDX 53 65 67 67 88 68 55 69 39 70 40 71 48 72 41 73 43 74 49 75
REMARK SMILES IDX 42 76 44 77 45 78 46 79 47 80 71 81 72 82 80 83 73 84 75 85
REMARK SMILES IDX 81 86 74 87 76 88 77 89 78 90 79 91 56 92 57 93 65 94 58 95
REMARK SMILES IDX 60 96 66 97 59 98 61 99 62 100 63 101 64 102
REMARK H PARENT 4 31 86 55 54 66
REMARK Flexibility Score: inf
ROOT
ATOM      1  C   UNL A   1      31.058  31.597  26.448  1.00  0.00     0.188 C 
ENDROOT
BRANCH   1   2
ATOM      2  C   UNL A   1      30.697  31.480  24.948  1.00  0.00     0.188 C 
BRANCH   2   3
ATOM      3  O   UNL A   1      29.371  31.628  24.455  1.00  0.00    -0.376 OA
BRANCH   3   4
ATOM      4  C   UNL A   1      29.107  31.608  23.065  1.00  0.00     0.202 C 
BRANCH   4   5
ATOM      5  C   UNL A   1      28.375  30.382  22.497  1.00  0.00     0.261 C 
BRANCH   5   6
ATOM      6  O   UNL A   1      29.197  29.227  22.269  1.00  0.00    -0.457 OA
BRANCH   6   7
ATOM      7  C   UNL A   1      28.988  28.174  23.111  1.00  0.00     0.374 C 
ATOM      8  O   UNL A   1      27.900  27.652  23.323  1.00  0.00    -0.242 OA
BRANCH   7   9
ATOM      9  C   UNL A   1      30.250  27.677  23.627  1.00  0.00     0.215 A 
ATOM     10  C   UNL A   1      33.990  24.231  25.884  1.00  0.00     0.016 C 
ATOM     11  C   UNL A   1      33.820  25.479  25.399  1.00  0.00     0.001 C 
ATOM     12  C   UNL A   1      33.907  26.718  26.287  1.00  0.00     0.048 C 
ATOM     13  C   UNL A   1      33.395  25.813  23.999  1.00  0.00     0.192 C 
ATOM     14  C   UNL A   1      32.536  27.437  26.410  1.00  0.00     0.081 C 
ATOM     15  C   UNL A   1      32.199  26.626  24.002  1.00  0.00     0.067 A 
ATOM     16  O   UNL A   1      34.013  25.487  22.996  1.00  0.00    -0.289 OA
ATOM     17  C   UNL A   1      31.828  27.352  25.109  1.00  0.00     0.116 A 
ATOM     18  C   UNL A   1      31.215  26.879  23.011  1.00  0.00     0.014 A 
ATOM     19  O   UNL A   1      30.655  27.998  24.905  1.00  0.00    -0.453 OA
ATOM     20  C   UNL A   1      31.227  26.379  21.612  1.00  0.00     0.049 C 
BRANCH  10  21
ATOM     21  C   UNL A   1      33.738  22.886  25.312  1.00  0.00    -0.025 A 
ATOM     22  C   UNL A   1      33.093  20.250  24.445  1.00  0.00     0.041 A 
ATOM     23  C   UNL A   1      33.264  21.285  23.529  1.00  0.00     0.027 A 
ATOM     24  C   UNL A   1      33.318  20.516  25.792  1.00  0.00     0.027 A 
ATOM     25  C   UNL A   1      33.566  22.585  23.960  1.00  0.00     0.010 A 
ATOM     26  C   UNL A   1      33.639  21.814  26.216  1.00  0.00     0.010 A 
BRANCH  22  27
ATOM     27  N   UNL A   1      32.752  18.987  23.936  1.00  0.00    -0.326 N 
ATOM     28  C   UNL A   1      34.852  17.740  24.404  1.00  0.00     0.114 C 
ATOM     29  C   UNL A   1      33.500  17.860  23.755  1.00  0.00     0.221 C 
ATOM     30  O   UNL A   1      33.028  16.918  23.115  1.00  0.00    -0.275 OA
ATOM     31  H   UNL A   1      31.811  18.899  23.661  1.00  0.00     0.169 HD
ENDBRANCH  22  27
ENDBRANCH  10  21
ENDBRANCH   7   9
ENDBRANCH   6   7
ENDBRANCH   5   6
ENDBRANCH   4   5
ENDBRANCH   3   4
ENDBRANCH   2   3
ENDBRANCH   1   2
BRANCH   1  32
ATOM     32  O   UNL A   1      31.530  32.867  26.873  1.00  0.00    -0.376 OA
BRANCH  32  33
ATOM     33  C   UNL A   1      32.775  32.882  27.557  1.00  0.00     0.202 C 
BRANCH  33  34
ATOM     34  C   UNL A   1      33.341  31.505  27.890  1.00  0.00     0.261 C 
BRANCH  34  35
ATOM     35  O   UNL A   1      34.700  31.522  28.301  1.00  0.00    -0.460 OA
BRANCH  35  36
ATOM     36  C   UNL A   1      35.458  30.494  27.872  1.00  0.00     0.338 C 
ATOM     37  O   UNL A   1      35.249  29.773  26.911  1.00  0.00    -0.246 OA
BRANCH  36  38
ATOM     38  C   UNL A   1      36.568  30.325  28.815  1.00  0.00     0.060 A 
ATOM     39  C   UNL A   1      37.665  31.180  28.682  1.00  0.00     0.016 A 
ATOM     40  C   UNL A   1      36.610  29.170  29.609  1.00  0.00     0.016 A 
ATOM     41  C   UNL A   1      38.881  30.757  29.173  1.00  0.00     0.010 A 
ATOM     42  C   UNL A   1      37.825  28.742  30.081  1.00  0.00     0.010 A 
ATOM     43  C   UNL A   1      38.954  29.497  29.771  1.00  0.00    -0.014 A 
BRANCH  43  44
ATOM     44  C   UNL A   1      40.263  28.916  29.974  1.00  0.00     0.031 A 
ATOM     45  C   UNL A   1      40.788  28.990  31.349  1.00  0.00     0.074 A 
ATOM     46  C   UNL A   1      40.859  28.228  28.979  1.00  0.00     0.049 A 
ATOM     47  N   UNL A   1      41.894  29.531  31.741  1.00  0.00    -0.248 NA
ATOM     48  C   UNL A   1      39.933  28.490  32.435  1.00  0.00     0.031 C 
ATOM     49  C   UNL A   1      40.266  27.847  27.690  1.00  0.00     0.029 A 
ATOM     50  N   UNL A   1      42.053  27.574  28.982  1.00  0.00    -0.354 N 
ATOM     51  C   UNL A   1      41.979  29.236  33.096  1.00  0.00     0.074 A 
ATOM     52  C   UNL A   1      40.684  28.756  33.502  1.00  0.00     0.031 C 
ATOM     53  C   UNL A   1      40.978  26.827  27.167  1.00  0.00     0.029 A 
ATOM     54  C   UNL A   1      42.122  26.568  28.025  1.00  0.00     0.049 A 
ATOM     55  H   UNL A   1      42.791  27.789  29.597  1.00  0.00     0.167 HD
ATOM     56  C   UNL A   1      43.175  29.163  33.736  1.00  0.00     0.034 A 
ATOM     57  C   UNL A   1      42.990  25.529  28.006  1.00  0.00     0.034 A 
ATOM     58  C   UNL A   1      44.232  29.798  33.001  1.00  0.00     0.049 A 
ATOM     59  C   UNL A   1      44.128  25.875  28.890  1.00  0.00     0.074 A 
ATOM     60  C   UNL A   1      44.448  31.066  32.503  1.00  0.00     0.029 A 
ATOM     61  N   UNL A   1      45.149  28.984  32.383  1.00  0.00    -0.354 N 
ATOM     62  N   UNL A   1      45.007  26.800  28.621  1.00  0.00    -0.248 NA
ATOM     63  C   UNL A   1      44.079  25.448  30.280  1.00  0.00     0.031 C 
ATOM     64  C   UNL A   1      45.177  30.873  31.295  1.00  0.00     0.029 A 
ATOM     65  C   UNL A   1      45.381  29.500  31.136  1.00  0.00     0.049 A 
ATOM     66  H   UNL A   1      45.564  28.177  32.766  1.00  0.00     0.167 HD
ATOM     67  C   UNL A   1      45.299  27.373  29.852  1.00  0.00     0.074 A 
ATOM     68  C   UNL A   1      44.812  26.414  30.839  1.00  0.00     0.031 C 
ATOM     69  C   UNL A   1      45.630  28.696  29.958  1.00  0.00     0.034 A 
BRANCH  56  70
ATOM     70  C   UNL A   1      43.450  28.217  34.872  1.00  0.00     0.023 A 
ATOM     71  C   UNL A   1      43.920  28.765  36.083  1.00  0.00     0.012 A 
ATOM     72  C   UNL A   1      43.513  26.812  34.730  1.00  0.00     0.148 A 
ATOM     73  C   UNL A   1      44.449  27.954  37.092  1.00  0.00     0.002 A 
ATOM     74  C   UNL A   1      43.949  26.006  35.772  1.00  0.00     0.091 A 
ATOM     75  F   UNL A   1      43.285  26.245  33.539  1.00  0.00    -0.205 F 
ATOM     76  C   UNL A   1      44.447  26.571  36.945  1.00  0.00     0.022 A 
BRANCH  74  77
ATOM     77  S   UNL A   1      43.873  24.217  35.632  1.00  0.00     0.127 S 
ATOM     78  O   UNL A   1      44.548  23.794  36.854  1.00  0.00    -0.237 OA
ATOM     79  O   UNL A   1      42.430  23.970  35.603  1.00  0.00    -0.237 OA
ATOM     80  O   UNL A   1      44.548  23.916  34.375  1.00  0.00    -0.744 OA
ENDBRANCH  74  77
ENDBRANCH  56  70
BRANCH  57  81
ATOM     81  C   UNL A   1      42.804  24.172  27.441  1.00  0.00     0.023 A 
ATOM     82  C   UNL A   1      41.578  23.506  27.625  1.00  0.00     0.012 A 
ATOM     83  C   UNL A   1      43.735  23.611  26.537  1.00  0.00     0.148 A 
ATOM     84  C   UNL A   1      41.285  22.328  26.926  1.00  0.00     0.002 A 
ATOM     85  C   UNL A   1      43.453  22.426  25.866  1.00  0.00     0.091 A 
ATOM     86  F   UNL A   1      44.861  24.283  26.260  1.00  0.00    -0.205 F 
ATOM     87  C   UNL A   1      42.222  21.787  26.049  1.00  0.00     0.022 A 
BRANCH  85  88
ATOM     88  S   UNL A   1      44.635  21.672  24.740  1.00  0.00     0.127 S 
ATOM     89  O   UNL A   1      44.129  20.304  24.628  1.00  0.00    -0.237 OA
ATOM     90  O   UNL A   1      44.473  22.485  23.539  1.00  0.00    -0.237 OA
ATOM     91  O   UNL A   1      45.927  21.771  25.410  1.00  0.00    -0.744 OA
ENDBRANCH  85  88
ENDBRANCH  57  81
BRANCH  69  92
ATOM     92  C   UNL A   1      45.951  29.458  28.694  1.00  0.00     0.023 A 
ATOM     93  C   UNL A   1      44.933  29.995  27.876  1.00  0.00     0.012 A 
ATOM     94  C   UNL A   1      47.287  29.812  28.427  1.00  0.00     0.148 A 
ATOM     95  C   UNL A   1      45.239  30.835  26.804  1.00  0.00     0.002 A 
ATOM     96  C   UNL A   1      47.583  30.690  27.390  1.00  0.00     0.091 A 
ATOM     97  F   UNL A   1      48.249  29.307  29.215  1.00  0.00    -0.205 F 
ATOM     98  C   UNL A   1      46.563  31.195  26.569  1.00  0.00     0.022 A 
BRANCH  96  99
ATOM     99  S   UNL A   1      49.250  31.306  27.133  1.00  0.00     0.127 S 
ATOM    100  O   UNL A   1      49.838  30.263  26.297  1.00  0.00    -0.237 OA
ATOM    101  O   UNL A   1      49.019  32.579  26.447  1.00  0.00    -0.237 OA
ATOM    102  O   UNL A   1      49.826  31.450  28.464  1.00  0.00    -0.744 OA
ENDBRANCH  96  99
ENDBRANCH  69  92
ENDBRANCH  43  44
ENDBRANCH  36  38
ENDBRANCH  35  36
ENDBRANCH  34  35
ENDBRANCH  33  34
ENDBRANCH  32  33
ENDBRANCH   1  32
TORSDOF 22
ENDMDL
MODEL 3
REMARK VINA RESULT:      -9.9      2.946      6.857
REMARK SMILES CC(=O)Nc1ccc(/C=C2/CCc3oc(C(=O)OCCOCCOCCOC(=O)c4ccc(-c5c6nc(c(-c7cccc(S(=O)(=O)[O-])c7F)c7ccc([nH]7)c(-c7cccc(S(=O)(=O)[O-])c7F)c7nc(c(-c8cccc(S(=O)(=O)[O-])c8F)c8ccc5[nH]8)C=C7)C=C6)cc4)c(C)c3C2=O)cc1
REMARK SMILES IDX 23 1 22 2 21 3 20 4 19 5 18 6 16 7 17 8 15 9 9 10 10 11
REMARK SMILES IDX 11 12 96 13 12 14 95 15 97 16 13 17 93 18 14 19 94 20 8 21
REMARK SMILES IDX 5 22 6 23 99 24 7 25 98 26 4 27 1 28 2 29 3 30 24 32 25 33
REMARK SMILES IDX 26 34 27 35 28 36 29 37 30 38 31 39 92 40 32 41 91 42 33 43
REMARK SMILES IDX 34 44 35 45 85 46 36 47 90 48 84 49 86 50 37 51 89 52 83 53
REMARK SMILES IDX 82 54 38 56 70 57 50 58 69 59 51 60 54 61 68 62 87 63 52 64
REMARK SMILES IDX 53 65 67 67 88 68 55 69 39 70 40 71 48 72 41 73 43 74 49 75
REMARK SMILES IDX 42 76 44 77 45 78 46 79 47 80 71 81 72 82 80 83 73 84 75 85
REMARK SMILES IDX 81 86 74 87 76 88 77 89 78 90 79 91 56 92 57 93 65 94 58 95
REMARK SMILES IDX 60 96 66 97 59 98 61 99 62 100 63 101 64 102
REMARK H PARENT 4 31 86 55 54 66
REMARK Flexibility Score: inf
ROOT
ATOM      1  C   UNL A   1      32.938  24.656  26.461  1.00  0.00     0.188 C 
ENDROOT
BRANCH   1   2
ATOM      2  C   UNL A   1      32.616  23.331  27.192  1.00  0.00     0.188 C 
BRANCH   2   3
ATOM      3  O   UNL A   1      31.696  22.370  26.687  1.00  0.00    -0.376 OA
BRANCH   3   4
ATOM      4  C   UNL A   1      31.108  22.532  25.410  1.00  0.00     0.202 C 
BRANCH   4   5
ATOM      5  C   UNL A   1      31.911  22.053  24.191  1.00  0.00     0.261 C 
BRANCH   5   6
ATOM      6  O   UNL A   1      31.658  22.766  22.970  1.00  0.00    -0.457 OA
BRANCH   6   7
ATOM      7  C   UNL A   1      32.650  23.607  22.557  1.00  0.00     0.374 C 
ATOM      8  O   UNL A   1      33.696  23.250  22.030  1.00  0.00    -0.242 OA
BRANCH   7   9
ATOM      9  C   UNL A   1      32.242  24.990  22.714  1.00  0.00     0.215 A 
ATOM     10  C   UNL A   1      31.064  29.856  25.141  1.00  0.00     0.016 C 
ATOM     11  C   UNL A   1      31.082  29.213  23.955  1.00  0.00     0.001 C 
ATOM     12  C   UNL A   1      29.807  28.891  23.182  1.00  0.00     0.048 C 
ATOM     13  C   UNL A   1      32.300  28.615  23.315  1.00  0.00     0.192 C 
ATOM     14  C   UNL A   1      29.549  27.362  23.104  1.00  0.00     0.081 C 
ATOM     15  C   UNL A   1      32.107  27.208  23.049  1.00  0.00     0.067 A 
ATOM     16  O   UNL A   1      33.299  29.251  23.006  1.00  0.00    -0.289 OA
ATOM     17  C   UNL A   1      30.848  26.661  22.962  1.00  0.00     0.116 A 
ATOM     18  C   UNL A   1      33.020  26.143  22.828  1.00  0.00     0.014 A 
ATOM     19  O   UNL A   1      30.905  25.322  22.757  1.00  0.00    -0.453 OA
ATOM     20  C   UNL A   1      34.499  26.258  22.746  1.00  0.00     0.049 C 
BRANCH  10  21
ATOM     21  C   UNL A   1      32.098  30.082  26.181  1.00  0.00    -0.025 A 
ATOM     22  C   UNL A   1      34.230  30.300  28.058  1.00  0.00     0.041 A 
ATOM     23  C   UNL A   1      33.533  31.427  27.631  1.00  0.00     0.027 A 
ATOM     24  C   UNL A   1      33.813  29.053  27.604  1.00  0.00     0.027 A 
ATOM     25  C   UNL A   1      32.494  31.318  26.694  1.00  0.00     0.010 A 
ATOM     26  C   UNL A   1      32.760  28.947  26.683  1.00  0.00     0.010 A 
BRANCH  22  27
ATOM     27  N   UNL A   1      35.282  30.498  28.966  1.00  0.00    -0.326 N 
ATOM     28  C   UNL A   1      37.233  30.096  27.476  1.00  0.00     0.114 C 
ATOM     29  C   UNL A   1      36.627  30.305  28.837  1.00  0.00     0.221 C 
ATOM     30  O   UNL A   1      37.345  30.373  29.838  1.00  0.00    -0.275 OA
ATOM     31  H   UNL A   1      35.001  30.834  29.847  1.00  0.00     0.169 HD
ENDBRANCH  22  27
ENDBRANCH  10  21
ENDBRANCH   7   9
ENDBRANCH   6   7
ENDBRANCH   5   6
ENDBRANCH   4   5
ENDBRANCH   3   4
ENDBRANCH   2   3
ENDBRANCH   1   2
BRANCH   1  32
ATOM     32  O   UNL A   1      34.215  24.727  25.843  1.00  0.00    -0.376 OA
BRANCH  32  33
ATOM     33  C   UNL A   1      34.844  23.487  25.549  1.00  0.00     0.202 C 
BRANCH  33  34
ATOM     34  C   UNL A   1      36.281  23.600  25.049  1.00  0.00     0.261 C 
BRANCH  34  35
ATOM     35  O   UNL A   1      37.257  23.551  26.079  1.00  0.00    -0.460 OA
BRANCH  35  36
ATOM     36  C   UNL A   1      38.172  22.567  25.979  1.00  0.00     0.338 C 
ATOM     37  O   UNL A   1      37.969  21.398  25.697  1.00  0.00    -0.246 OA
BRANCH  36  38
ATOM     38  C   UNL A   1      39.478  23.121  26.346  1.00  0.00     0.060 A 
ATOM     39  C   UNL A   1      40.162  22.520  27.405  1.00  0.00     0.016 A 
ATOM     40  C   UNL A   1      39.853  24.368  25.823  1.00  0.00     0.016 A 
ATOM     41  C   UNL A   1      41.093  23.272  28.088  1.00  0.00     0.010 A 
ATOM     42  C   UNL A   1      40.766  25.122  26.516  1.00  0.00     0.010 A 
ATOM     43  C   UNL A   1      41.298  24.595  27.691  1.00  0.00    -0.014 A 
BRANCH  43  44
ATOM     44  C   UNL A   1      42.003  25.475  28.597  1.00  0.00     0.031 A 
ATOM     45  C   UNL A   1      41.415  26.815  28.771  1.00  0.00     0.074 A 
ATOM     46  C   UNL A   1      43.036  25.007  29.326  1.00  0.00     0.049 A 
ATOM     47  N   UNL A   1      41.981  27.957  28.561  1.00  0.00    -0.248 NA
ATOM     48  C   UNL A   1      39.992  26.896  29.131  1.00  0.00     0.031 C 
ATOM     49  C   UNL A   1      43.479  23.611  29.436  1.00  0.00     0.029 A 
ATOM     50  N   UNL A   1      43.793  25.652  30.257  1.00  0.00    -0.354 N 
ATOM     51  C   UNL A   1      41.054  28.903  28.980  1.00  0.00     0.074 A 
ATOM     52  C   UNL A   1      39.802  28.214  29.152  1.00  0.00     0.031 C 
ATOM     53  C   UNL A   1      44.221  23.477  30.555  1.00  0.00     0.029 A 
ATOM     54  C   UNL A   1      44.391  24.785  31.164  1.00  0.00     0.049 A 
ATOM     55  H   UNL A   1      43.904  26.630  30.285  1.00  0.00     0.167 HD
ATOM     56  C   UNL A   1      41.435  30.136  29.404  1.00  0.00     0.034 A 
ATOM     57  C   UNL A   1      44.887  25.107  32.382  1.00  0.00     0.034 A 
ATOM     58  C   UNL A   1      42.770  30.470  28.995  1.00  0.00     0.049 A 
ATOM     59  C   UNL A   1      45.106  26.572  32.407  1.00  0.00     0.074 A 
ATOM     60  C   UNL A   1      43.426  30.560  27.784  1.00  0.00     0.029 A 
ATOM     61  N   UNL A   1      43.748  30.453  29.959  1.00  0.00    -0.354 N 
ATOM     62  N   UNL A   1      46.024  27.185  31.714  1.00  0.00    -0.248 NA
ATOM     63  C   UNL A   1      44.044  27.422  32.924  1.00  0.00     0.031 C 
ATOM     64  C   UNL A   1      44.762  30.147  28.052  1.00  0.00     0.029 A 
ATOM     65  C   UNL A   1      44.849  29.848  29.414  1.00  0.00     0.049 A 
ATOM     66  H   UNL A   1      43.673  30.811  30.872  1.00  0.00     0.167 HD
ATOM     67  C   UNL A   1      45.434  28.385  31.337  1.00  0.00     0.074 A 
ATOM     68  C   UNL A   1      44.283  28.533  32.222  1.00  0.00     0.031 C 
ATOM     69  C   UNL A   1      45.753  28.991  30.153  1.00  0.00     0.034 A 
BRANCH  56  70
ATOM     70  C   UNL A   1      40.715  30.900  30.481  1.00  0.00     0.023 A 
ATOM     71  C   UNL A   1      40.493  32.277  30.271  1.00  0.00     0.012 A 
ATOM     72  C   UNL A   1      40.477  30.397  31.779  1.00  0.00     0.148 A 
ATOM     73  C   UNL A   1      40.077  33.114  31.311  1.00  0.00     0.002 A 
ATOM     74  C   UNL A   1      39.972  31.213  32.782  1.00  0.00     0.091 A 
ATOM     75  F   UNL A   1      40.866  29.158  32.102  1.00  0.00    -0.205 F 
ATOM     76  C   UNL A   1      39.799  32.579  32.564  1.00  0.00     0.022 A 
BRANCH  74  77
ATOM     77  S   UNL A   1      39.526  30.523  34.379  1.00  0.00     0.127 S 
ATOM     78  O   UNL A   1      40.828  30.135  34.910  1.00  0.00    -0.237 OA
ATOM     79  O   UNL A   1      38.900  31.667  35.046  1.00  0.00    -0.237 OA
ATOM     80  O   UNL A   1      38.598  29.442  34.067  1.00  0.00    -0.744 OA
ENDBRANCH  74  77
ENDBRANCH  56  70
BRANCH  57  81
ATOM     81  C   UNL A   1      44.987  24.264  33.596  1.00  0.00     0.023 A 
ATOM     82  C   UNL A   1      43.834  23.642  34.108  1.00  0.00     0.012 A 
ATOM     83  C   UNL A   1      46.239  23.886  34.134  1.00  0.00     0.148 A 
ATOM     84  C   UNL A   1      43.923  22.670  35.111  1.00  0.00     0.002 A 
ATOM     85  C   UNL A   1      46.322  22.940  35.151  1.00  0.00     0.091 A 
ATOM     86  F   UNL A   1      47.359  24.380  33.589  1.00  0.00    -0.205 F 
ATOM     87  C   UNL A   1      45.165  22.320  35.634  1.00  0.00     0.022 A 
BRANCH  85  88
ATOM     88  S   UNL A   1      47.899  22.469  35.877  1.00  0.00     0.127 S 
ATOM     89  O   UNL A   1      48.390  23.743  36.403  1.00  0.00    -0.237 OA
ATOM     90  O   UNL A   1      47.490  21.505  36.893  1.00  0.00    -0.237 OA
ATOM     91  O   UNL A   1      48.692  21.939  34.774  1.00  0.00    -0.744 OA
ENDBRANCH  85  88
ENDBRANCH  57  81
BRANCH  69  92
ATOM     92  C   UNL A   1      46.959  28.491  29.393  1.00  0.00     0.023 A 
ATOM     93  C   UNL A   1      48.252  28.995  29.644  1.00  0.00     0.012 A 
ATOM     94  C   UNL A   1      46.824  27.364  28.559  1.00  0.00     0.148 A 
ATOM     95  C   UNL A   1      49.379  28.414  29.057  1.00  0.00     0.002 A 
ATOM     96  C   UNL A   1      47.952  26.757  28.019  1.00  0.00     0.091 A 
ATOM     97  F   UNL A   1      45.591  26.883  28.333  1.00  0.00    -0.205 F 
ATOM     98  C   UNL A   1      49.230  27.286  28.255  1.00  0.00     0.022 A 
BRANCH  96  99
ATOM     99  S   UNL A   1      47.838  25.217  27.102  1.00  0.00     0.127 S 
ATOM    100  O   UNL A   1      47.016  24.394  27.984  1.00  0.00    -0.237 OA
ATOM    101  O   UNL A   1      47.176  25.630  25.862  1.00  0.00    -0.237 OA
ATOM    102  O   UNL A   1      49.212  24.768  26.915  1.00  0.00    -0.744 OA
ENDBRANCH  96  99
ENDBRANCH  69  92
ENDBRANCH  43  44
ENDBRANCH  36  38
ENDBRANCH  35  36
ENDBRANCH  34  35
ENDBRANCH  33  34
ENDBRANCH  32  33
ENDBRANCH   1  32
TORSDOF 22
ENDMDL
