MODEL 1
REMARK VINA RESULT:      -8.6      0.000      0.000
REMARK SMILES CNC(=O)CNC(=O)NC[C@H](CC(C)C)C(=O)OCCOCCOCCOC(=O)c1ccc(-c2c3nc(c(-c4cccc(S(=O)(=O)[O-])c4F)c4ccc([nH]4)c(-c4cccc(S(=O)(=O)[O-])c4F)c4nc(c(-c5cccc(S(=O)(=O)[O-])c5F)c5ccc2[nH]5)C=C4)C=C3)cc1
REMARK SMILES IDX 22 1 21 2 20 3 19 4 18 5 16 6 17 7 11 8 10 9 9 10 6 11 7 12
REMARK SMILES IDX 8 14 5 16 3 17 1 18 2 19 4 21 12 22 13 23 14 24 15 25 23 26
REMARK SMILES IDX 24 27 25 28 26 29 27 30 28 31 29 32 30 33 31 34 92 35 32 36
REMARK SMILES IDX 91 37 33 38 34 39 35 40 85 41 36 42 90 43 84 44 86 45 37 46
REMARK SMILES IDX 89 47 83 48 82 49 38 51 70 52 50 53 69 54 51 55 54 56 68 57
REMARK SMILES IDX 87 58 52 59 53 60 67 62 88 63 55 64 39 65 40 66 48 67 41 68
REMARK SMILES IDX 43 69 49 70 42 71 44 72 45 73 46 74 47 75 71 76 72 77 80 78
REMARK SMILES IDX 73 79 75 80 81 81 74 82 76 83 77 84 78 85 79 86 56 87 57 88
REMARK SMILES IDX 65 89 58 90 60 91 66 92 59 93 61 94 62 95 63 96 64 97
REMARK H PARENT 6 13 9 15 2 20 86 50 54 61
REMARK Flexibility Score: inf
ROOT
ATOM      1  C   UNL A   1      40.932  21.725  26.416  1.00  0.00     0.188 C 
ENDROOT
BRANCH   1   2
ATOM      2  O   UNL A   1      39.624  21.209  26.249  1.00  0.00    -0.376 OA
BRANCH   2   3
ATOM      3  C   UNL A   1      38.572  22.136  26.009  1.00  0.00     0.202 C 
BRANCH   3   4
ATOM      4  C   UNL A   1      37.260  21.599  25.422  1.00  0.00     0.261 C 
BRANCH   4   5
ATOM      5  O   UNL A   1      36.066  21.956  26.154  1.00  0.00    -0.463 OA
BRANCH   5   6
ATOM      6  C   UNL A   1      35.445  23.082  25.734  1.00  0.00     0.310 C 
ATOM      7  O   UNL A   1      35.995  24.180  25.662  1.00  0.00    -0.252 OA
BRANCH   6   8
ATOM      8  C   UNL A   1      33.983  22.936  25.362  1.00  0.00     0.119 C 
BRANCH   8   9
ATOM      9  C   UNL A   1      33.116  23.248  26.589  1.00  0.00     0.133 C 
BRANCH   9  10
ATOM     10  N   UNL A   1      31.848  22.548  26.614  1.00  0.00    -0.337 N 
ATOM     11  N   UNL A   1      30.278  23.771  25.331  1.00  0.00    -0.329 N 
ATOM     12  C   UNL A   1      30.619  22.774  26.144  1.00  0.00     0.315 C 
ATOM     13  H   UNL A   1      29.310  23.775  25.147  1.00  0.00     0.165 HD
ATOM     14  O   UNL A   1      29.736  21.978  26.474  1.00  0.00    -0.249 OA
ATOM     15  H   UNL A   1      31.908  21.692  27.098  1.00  0.00     0.165 HD
BRANCH  11  16
ATOM     16  C   UNL A   1      30.959  24.859  24.642  1.00  0.00     0.217 C 
BRANCH  16  17
ATOM     17  C   UNL A   1      30.294  26.238  24.736  1.00  0.00     0.239 C 
ATOM     18  C   UNL A   1      31.937  27.282  26.383  1.00  0.00     0.142 C 
ATOM     19  N   UNL A   1      30.767  27.224  25.548  1.00  0.00    -0.358 N 
ATOM     20  H   UNL A   1      30.212  28.037  25.567  1.00  0.00     0.163 HD
ATOM     21  O   UNL A   1      29.220  26.457  24.167  1.00  0.00    -0.273 OA
ENDBRANCH  16  17
ENDBRANCH  11  16
ENDBRANCH   9  10
ENDBRANCH   8   9
BRANCH   8  22
ATOM     22  C   UNL A   1      33.432  21.787  24.494  1.00  0.00     0.020 C 
BRANCH  22  23
ATOM     23  C   UNL A   1      33.125  21.925  22.995  1.00  0.00    -0.017 C 
ATOM     24  C   UNL A   1      31.673  21.711  22.591  1.00  0.00     0.007 C 
ATOM     25  C   UNL A   1      33.559  23.329  22.539  1.00  0.00     0.007 C 
ENDBRANCH  22  23
ENDBRANCH   8  22
ENDBRANCH   6   8
ENDBRANCH   5   6
ENDBRANCH   4   5
ENDBRANCH   3   4
ENDBRANCH   2   3
ENDBRANCH   1   2
BRANCH   1  26
ATOM     26  C   UNL A   1      42.061  20.738  26.731  1.00  0.00     0.188 C 
BRANCH  26  27
ATOM     27  O   UNL A   1      41.824  19.377  26.394  1.00  0.00    -0.376 OA
BRANCH  27  28
ATOM     28  C   UNL A   1      42.947  18.505  26.562  1.00  0.00     0.202 C 
BRANCH  28  29
ATOM     29  C   UNL A   1      43.764  18.249  25.285  1.00  0.00     0.261 C 
BRANCH  29  30
ATOM     30  O   UNL A   1      44.917  19.101  25.143  1.00  0.00    -0.460 OA
BRANCH  30  31
ATOM     31  C   UNL A   1      44.887  20.027  24.155  1.00  0.00     0.338 C 
ATOM     32  O   UNL A   1      44.608  19.827  22.983  1.00  0.00    -0.246 OA
BRANCH  31  33
ATOM     33  C   UNL A   1      44.986  21.375  24.775  1.00  0.00     0.060 A 
ATOM     34  C   UNL A   1      44.565  22.485  24.026  1.00  0.00     0.016 A 
ATOM     35  C   UNL A   1      45.404  21.547  26.099  1.00  0.00     0.016 A 
ATOM     36  C   UNL A   1      44.617  23.768  24.579  1.00  0.00     0.010 A 
ATOM     37  C   UNL A   1      45.452  22.829  26.651  1.00  0.00     0.010 A 
ATOM     38  C   UNL A   1      45.099  23.951  25.881  1.00  0.00    -0.014 A 
BRANCH  38  39
ATOM     39  C   UNL A   1      45.447  25.307  26.374  1.00  0.00     0.031 A 
ATOM     40  C   UNL A   1      44.331  26.181  26.883  1.00  0.00     0.074 A 
ATOM     41  C   UNL A   1      46.705  25.782  26.340  1.00  0.00     0.049 A 
ATOM     42  N   UNL A   1      44.369  27.419  27.299  1.00  0.00    -0.248 NA
ATOM     43  C   UNL A   1      42.988  25.576  26.913  1.00  0.00     0.031 C 
ATOM     44  C   UNL A   1      47.877  25.053  25.862  1.00  0.00     0.029 A 
ATOM     45  N   UNL A   1      47.194  27.019  26.687  1.00  0.00    -0.354 N 
ATOM     46  C   UNL A   1      43.056  27.754  27.604  1.00  0.00     0.074 A 
ATOM     47  C   UNL A   1      42.243  26.592  27.317  1.00  0.00     0.031 C 
ATOM     48  C   UNL A   1      48.946  25.870  25.909  1.00  0.00     0.029 A 
ATOM     49  C   UNL A   1      48.529  27.185  26.399  1.00  0.00     0.049 A 
ATOM     50  H   UNL A   1      46.641  27.722  27.101  1.00  0.00     0.167 HD
ATOM     51  C   UNL A   1      42.566  28.916  28.094  1.00  0.00     0.034 A 
ATOM     52  C   UNL A   1      49.316  28.277  26.494  1.00  0.00     0.034 A 
ATOM     53  C   UNL A   1      43.366  30.066  28.405  1.00  0.00     0.049 A 
ATOM     54  C   UNL A   1      48.744  29.568  27.028  1.00  0.00     0.074 A 
ATOM     55  C   UNL A   1      42.965  31.262  28.974  1.00  0.00     0.029 A 
ATOM     56  N   UNL A   1      44.724  30.177  28.153  1.00  0.00    -0.354 N 
ATOM     57  N   UNL A   1      47.530  29.822  27.456  1.00  0.00    -0.248 NA
ATOM     58  C   UNL A   1      49.660  30.717  27.119  1.00  0.00     0.031 C 
ATOM     59  C   UNL A   1      44.077  32.108  29.039  1.00  0.00     0.029 A 
ATOM     60  C   UNL A   1      45.175  31.428  28.537  1.00  0.00     0.049 A 
ATOM     61  H   UNL A   1      45.285  29.470  27.761  1.00  0.00     0.167 HD
ATOM     62  C   UNL A   1      47.546  31.144  27.892  1.00  0.00     0.074 A 
ATOM     63  C   UNL A   1      48.895  31.632  27.699  1.00  0.00     0.031 C 
ATOM     64  C   UNL A   1      46.531  31.892  28.392  1.00  0.00     0.034 A 
BRANCH  51  65
ATOM     65  C   UNL A   1      41.085  28.989  28.347  1.00  0.00     0.023 A 
ATOM     66  C   UNL A   1      40.198  29.152  27.263  1.00  0.00     0.012 A 
ATOM     67  C   UNL A   1      40.570  28.858  29.651  1.00  0.00     0.148 A 
ATOM     68  C   UNL A   1      38.823  29.215  27.476  1.00  0.00     0.002 A 
ATOM     69  C   UNL A   1      39.196  28.877  29.850  1.00  0.00     0.091 A 
ATOM     70  F   UNL A   1      41.432  28.733  30.670  1.00  0.00    -0.205 F 
ATOM     71  C   UNL A   1      38.321  29.066  28.767  1.00  0.00     0.022 A 
BRANCH  69  72
ATOM     72  S   UNL A   1      38.452  28.619  31.464  1.00  0.00     0.127 S 
ATOM     73  O   UNL A   1      37.067  29.016  31.216  1.00  0.00    -0.237 OA
ATOM     74  O   UNL A   1      38.648  27.184  31.668  1.00  0.00    -0.237 OA
ATOM     75  O   UNL A   1      39.193  29.469  32.386  1.00  0.00    -0.744 OA
ENDBRANCH  69  72
ENDBRANCH  51  65
BRANCH  52  76
ATOM     76  C   UNL A   1      50.749  28.200  26.089  1.00  0.00     0.023 A 
ATOM     77  C   UNL A   1      51.750  28.145  27.078  1.00  0.00     0.012 A 
ATOM     78  C   UNL A   1      51.122  28.182  24.731  1.00  0.00     0.148 A 
ATOM     79  C   UNL A   1      53.098  28.098  26.722  1.00  0.00     0.002 A 
ATOM     80  C   UNL A   1      52.464  28.083  24.384  1.00  0.00     0.091 A 
ATOM     81  F   UNL A   1      50.154  28.258  23.807  1.00  0.00    -0.205 F 
ATOM     82  C   UNL A   1      53.455  28.057  25.378  1.00  0.00     0.022 A 
BRANCH  80  83
ATOM     83  S   UNL A   1      53.010  27.911  22.682  1.00  0.00     0.127 S 
ATOM     84  O   UNL A   1      52.168  26.817  22.206  1.00  0.00    -0.237 OA
ATOM     85  O   UNL A   1      52.684  29.226  22.128  1.00  0.00    -0.237 OA
ATOM     86  O   UNL A   1      54.436  27.625  22.753  1.00  0.00    -0.744 OA
ENDBRANCH  80  83
ENDBRANCH  52  76
BRANCH  64  87
ATOM     87  C   UNL A   1      46.827  33.313  28.799  1.00  0.00     0.023 A 
ATOM     88  C   UNL A   1      47.378  33.578  30.068  1.00  0.00     0.012 A 
ATOM     89  C   UNL A   1      46.647  34.377  27.890  1.00  0.00     0.148 A 
ATOM     90  C   UNL A   1      47.718  34.880  30.437  1.00  0.00     0.002 A 
ATOM     91  C   UNL A   1      47.033  35.664  28.246  1.00  0.00     0.091 A 
ATOM     92  F   UNL A   1      46.108  34.110  26.691  1.00  0.00    -0.205 F 
ATOM     93  C   UNL A   1      47.558  35.919  29.524  1.00  0.00     0.022 A 
BRANCH  91  94
ATOM     94  S   UNL A   1      46.955  37.047  27.101  1.00  0.00     0.127 S 
ATOM     95  O   UNL A   1      45.550  37.439  27.203  1.00  0.00    -0.237 OA
ATOM     96  O   UNL A   1      47.897  37.997  27.693  1.00  0.00    -0.237 OA
ATOM     97  O   UNL A   1      47.363  36.518  25.807  1.00  0.00    -0.744 OA
ENDBRANCH  91  94
ENDBRANCH  64  87
ENDBRANCH  38  39
ENDBRANCH  31  33
ENDBRANCH  30  31
ENDBRANCH  29  30
ENDBRANCH  28  29
ENDBRANCH  27  28
ENDBRANCH  26  27
ENDBRANCH   1  26
TORSDOF 26
ENDMDL
MODEL 2
REMARK VINA RESULT:      -8.0      1.498      1.909
REMARK SMILES CNC(=O)CNC(=O)NC[C@H](CC(C)C)C(=O)OCCOCCOCCOC(=O)c1ccc(-c2c3nc(c(-c4cccc(S(=O)(=O)[O-])c4F)c4ccc([nH]4)c(-c4cccc(S(=O)(=O)[O-])c4F)c4nc(c(-c5cccc(S(=O)(=O)[O-])c5F)c5ccc2[nH]5)C=C4)C=C3)cc1
REMARK SMILES IDX 22 1 21 2 20 3 19 4 18 5 16 6 17 7 11 8 10 9 9 10 6 11 7 12
REMARK SMILES IDX 8 14 5 16 3 17 1 18 2 19 4 21 12 22 13 23 14 24 15 25 23 26
REMARK SMILES IDX 24 27 25 28 26 29 27 30 28 31 29 32 30 33 31 34 92 35 32 36
REMARK SMILES IDX 91 37 33 38 34 39 35 40 85 41 36 42 90 43 84 44 86 45 37 46
REMARK SMILES IDX 89 47 83 48 82 49 38 51 70 52 50 53 69 54 51 55 54 56 68 57
REMARK SMILES IDX 87 58 52 59 53 60 67 62 88 63 55 64 39 65 40 66 48 67 41 68
REMARK SMILES IDX 43 69 49 70 42 71 44 72 45 73 46 74 47 75 71 76 72 77 80 78
REMARK SMILES IDX 73 79 75 80 81 81 74 82 76 83 77 84 78 85 79 86 56 87 57 88
REMARK SMILES IDX 65 89 58 90 60 91 66 92 59 93 61 94 62 95 63 96 64 97
REMARK H PARENT 6 13 9 15 2 20 86 50 54 61
REMARK Flexibility Score: inf
ROOT
ATOM      1  C   UNL A   1      40.854  21.705  26.456  1.00  0.00     0.188 C 
ENDROOT
BRANCH   1   2
ATOM      2  O   UNL A   1      39.538  21.192  26.366  1.00  0.00    -0.376 OA
BRANCH   2   3
ATOM      3  C   UNL A   1      38.488  22.108  26.078  1.00  0.00     0.202 C 
BRANCH   3   4
ATOM      4  C   UNL A   1      37.274  21.588  25.298  1.00  0.00     0.261 C 
BRANCH   4   5
ATOM      5  O   UNL A   1      35.987  21.980  25.828  1.00  0.00    -0.463 OA
BRANCH   5   6
ATOM      6  C   UNL A   1      35.615  23.252  25.563  1.00  0.00     0.310 C 
ATOM      7  O   UNL A   1      36.190  24.241  26.015  1.00  0.00    -0.252 OA
BRANCH   6   8
ATOM      8  C   UNL A   1      34.402  23.419  24.670  1.00  0.00     0.119 C 
BRANCH   8   9
ATOM      9  C   UNL A   1      33.461  22.223  24.866  1.00  0.00     0.133 C 
BRANCH   9  10
ATOM     10  N   UNL A   1      32.484  22.055  23.810  1.00  0.00    -0.337 N 
ATOM     11  N   UNL A   1      30.776  23.671  24.092  1.00  0.00    -0.329 N 
ATOM     12  C   UNL A   1      31.312  22.611  23.492  1.00  0.00     0.315 C 
ATOM     13  H   UNL A   1      29.885  23.883  23.727  1.00  0.00     0.165 HD
ATOM     14  O   UNL A   1      30.691  22.111  22.550  1.00  0.00    -0.249 OA
ATOM     15  H   UNL A   1      32.751  21.360  23.166  1.00  0.00     0.165 HD
BRANCH  11  16
ATOM     16  C   UNL A   1      31.158  24.601  25.146  1.00  0.00     0.217 C 
BRANCH  16  17
ATOM     17  C   UNL A   1      30.110  24.853  26.236  1.00  0.00     0.239 C 
ATOM     18  C   UNL A   1      29.742  22.421  26.907  1.00  0.00     0.142 C 
ATOM     19  N   UNL A   1      29.518  23.842  26.930  1.00  0.00    -0.358 N 
ATOM     20  H   UNL A   1      28.815  24.133  27.555  1.00  0.00     0.163 HD
ATOM     21  O   UNL A   1      29.670  25.991  26.434  1.00  0.00    -0.273 OA
ENDBRANCH  16  17
ENDBRANCH  11  16
ENDBRANCH   9  10
ENDBRANCH   8   9
BRANCH   8  22
ATOM     22  C   UNL A   1      34.476  23.911  23.211  1.00  0.00     0.020 C 
BRANCH  22  23
ATOM     23  C   UNL A   1      34.108  25.338  22.774  1.00  0.00    -0.017 C 
ATOM     24  C   UNL A   1      32.881  25.464  21.881  1.00  0.00     0.007 C 
ATOM     25  C   UNL A   1      33.883  26.187  24.037  1.00  0.00     0.007 C 
ENDBRANCH  22  23
ENDBRANCH   8  22
ENDBRANCH   6   8
ENDBRANCH   5   6
ENDBRANCH   4   5
ENDBRANCH   3   4
ENDBRANCH   2   3
ENDBRANCH   1   2
BRANCH   1  26
ATOM     26  C   UNL A   1      42.002  20.710  26.661  1.00  0.00     0.188 C 
BRANCH  26  27
ATOM     27  O   UNL A   1      41.722  19.349  26.361  1.00  0.00    -0.376 OA
BRANCH  27  28
ATOM     28  C   UNL A   1      42.819  18.448  26.542  1.00  0.00     0.202 C 
BRANCH  28  29
ATOM     29  C   UNL A   1      43.723  18.274  25.310  1.00  0.00     0.261 C 
BRANCH  29  30
ATOM     30  O   UNL A   1      44.830  19.195  25.257  1.00  0.00    -0.460 OA
BRANCH  30  31
ATOM     31  C   UNL A   1      44.836  20.102  24.251  1.00  0.00     0.338 C 
ATOM     32  O   UNL A   1      44.582  19.883  23.077  1.00  0.00    -0.246 OA
BRANCH  31  33
ATOM     33  C   UNL A   1      44.940  21.460  24.848  1.00  0.00     0.060 A 
ATOM     34  C   UNL A   1      44.541  22.560  24.072  1.00  0.00     0.016 A 
ATOM     35  C   UNL A   1      45.341  21.653  26.174  1.00  0.00     0.016 A 
ATOM     36  C   UNL A   1      44.597  23.852  24.603  1.00  0.00     0.010 A 
ATOM     37  C   UNL A   1      45.393  22.944  26.703  1.00  0.00     0.010 A 
ATOM     38  C   UNL A   1      45.062  24.055  25.908  1.00  0.00    -0.014 A 
BRANCH  38  39
ATOM     39  C   UNL A   1      45.416  25.417  26.381  1.00  0.00     0.031 A 
ATOM     40  C   UNL A   1      44.306  26.299  26.888  1.00  0.00     0.074 A 
ATOM     41  C   UNL A   1      46.675  25.890  26.330  1.00  0.00     0.049 A 
ATOM     42  N   UNL A   1      44.350  27.542  27.289  1.00  0.00    -0.248 NA
ATOM     43  C   UNL A   1      42.963  25.696  26.938  1.00  0.00     0.031 C 
ATOM     44  C   UNL A   1      47.842  25.153  25.850  1.00  0.00     0.029 A 
ATOM     45  N   UNL A   1      47.168  27.130  26.657  1.00  0.00    -0.354 N 
ATOM     46  C   UNL A   1      43.040  27.882  27.602  1.00  0.00     0.074 A 
ATOM     47  C   UNL A   1      42.223  26.718  27.337  1.00  0.00     0.031 C 
ATOM     48  C   UNL A   1      48.912  25.969  25.878  1.00  0.00     0.029 A 
ATOM     49  C   UNL A   1      48.500  27.291  26.355  1.00  0.00     0.049 A 
ATOM     50  H   UNL A   1      46.620  27.839  27.067  1.00  0.00     0.167 HD
ATOM     51  C   UNL A   1      42.555  29.051  28.082  1.00  0.00     0.034 A 
ATOM     52  C   UNL A   1      49.290  28.383  26.429  1.00  0.00     0.034 A 
ATOM     53  C   UNL A   1      43.360  30.204  28.371  1.00  0.00     0.049 A 
ATOM     54  C   UNL A   1      48.724  29.681  26.952  1.00  0.00     0.074 A 
ATOM     55  C   UNL A   1      42.966  31.407  28.929  1.00  0.00     0.029 A 
ATOM     56  N   UNL A   1      44.715  30.309  28.106  1.00  0.00    -0.354 N 
ATOM     57  N   UNL A   1      47.515  29.942  27.387  1.00  0.00    -0.248 NA
ATOM     58  C   UNL A   1      49.643  30.830  27.020  1.00  0.00     0.031 C 
ATOM     59  C   UNL A   1      44.078  32.252  28.973  1.00  0.00     0.029 A 
ATOM     60  C   UNL A   1      45.171  31.565  28.470  1.00  0.00     0.049 A 
ATOM     61  H   UNL A   1      45.272  29.597  27.717  1.00  0.00     0.167 HD
ATOM     62  C   UNL A   1      47.536  31.270  27.807  1.00  0.00     0.074 A 
ATOM     63  C   UNL A   1      48.884  31.753  27.596  1.00  0.00     0.031 C 
ATOM     64  C   UNL A   1      46.526  32.025  28.307  1.00  0.00     0.034 A 
BRANCH  51  65
ATOM     65  C   UNL A   1      41.077  29.129  28.346  1.00  0.00     0.023 A 
ATOM     66  C   UNL A   1      40.180  29.274  27.268  1.00  0.00     0.012 A 
ATOM     67  C   UNL A   1      40.573  29.021  29.657  1.00  0.00     0.148 A 
ATOM     68  C   UNL A   1      38.807  29.341  27.493  1.00  0.00     0.002 A 
ATOM     69  C   UNL A   1      39.202  29.044  29.869  1.00  0.00     0.091 A 
ATOM     70  F   UNL A   1      41.445  28.914  30.670  1.00  0.00    -0.205 F 
ATOM     71  C   UNL A   1      38.317  29.215  28.791  1.00  0.00     0.022 A 
BRANCH  69  72
ATOM     72  S   UNL A   1      38.473  28.815  31.494  1.00  0.00     0.127 S 
ATOM     73  O   UNL A   1      39.036  29.946  32.231  1.00  0.00    -0.237 OA
ATOM     74  O   UNL A   1      37.042  28.925  31.208  1.00  0.00    -0.237 OA
ATOM     75  O   UNL A   1      38.902  27.498  31.942  1.00  0.00    -0.744 OA
ENDBRANCH  69  72
ENDBRANCH  51  65
BRANCH  52  76
ATOM     76  C   UNL A   1      50.719  28.298  26.012  1.00  0.00     0.023 A 
ATOM     77  C   UNL A   1      51.076  28.605  24.684  1.00  0.00     0.012 A 
ATOM     78  C   UNL A   1      51.722  27.916  26.923  1.00  0.00     0.148 A 
ATOM     79  C   UNL A   1      52.403  28.507  24.265  1.00  0.00     0.002 A 
ATOM     80  C   UNL A   1      53.049  27.871  26.512  1.00  0.00     0.091 A 
ATOM     81  F   UNL A   1      51.358  27.607  28.175  1.00  0.00    -0.205 F 
ATOM     82  C   UNL A   1      53.390  28.151  25.179  1.00  0.00     0.022 A 
BRANCH  80  83
ATOM     83  S   UNL A   1      54.400  27.531  27.646  1.00  0.00     0.127 S 
ATOM     84  O   UNL A   1      54.115  26.156  28.047  1.00  0.00    -0.237 OA
ATOM     85  O   UNL A   1      55.567  27.691  26.777  1.00  0.00    -0.237 OA
ATOM     86  O   UNL A   1      54.291  28.532  28.699  1.00  0.00    -0.744 OA
ENDBRANCH  80  83
ENDBRANCH  52  76
BRANCH  64  87
ATOM     87  C   UNL A   1      46.828  33.451  28.693  1.00  0.00     0.023 A 
ATOM     88  C   UNL A   1      47.419  33.728  29.941  1.00  0.00     0.012 A 
ATOM     89  C   UNL A   1      46.613  34.506  27.783  1.00  0.00     0.148 A 
ATOM     90  C   UNL A   1      47.764  35.034  30.290  1.00  0.00     0.002 A 
ATOM     91  C   UNL A   1      47.003  35.798  28.117  1.00  0.00     0.091 A 
ATOM     92  F   UNL A   1      46.036  34.227  26.605  1.00  0.00    -0.205 F 
ATOM     93  C   UNL A   1      47.569  36.066  29.375  1.00  0.00     0.022 A 
BRANCH  91  94
ATOM     94  S   UNL A   1      46.880  37.172  26.965  1.00  0.00     0.127 S 
ATOM     95  O   UNL A   1      45.433  37.287  26.792  1.00  0.00    -0.237 OA
ATOM     96  O   UNL A   1      47.493  38.267  27.717  1.00  0.00    -0.237 OA
ATOM     97  O   UNL A   1      47.620  36.766  25.778  1.00  0.00    -0.744 OA
ENDBRANCH  91  94
ENDBRANCH  64  87
ENDBRANCH  38  39
ENDBRANCH  31  33
ENDBRANCH  30  31
ENDBRANCH  29  30
ENDBRANCH  28  29
ENDBRANCH  27  28
ENDBRANCH  26  27
ENDBRANCH   1  26
TORSDOF 26
ENDMDL
MODEL 3
REMARK VINA RESULT:      -7.8      5.785      9.534
REMARK SMILES CNC(=O)CNC(=O)NC[C@H](CC(C)C)C(=O)OCCOCCOCCOC(=O)c1ccc(-c2c3nc(c(-c4cccc(S(=O)(=O)[O-])c4F)c4ccc([nH]4)c(-c4cccc(S(=O)(=O)[O-])c4F)c4nc(c(-c5cccc(S(=O)(=O)[O-])c5F)c5ccc2[nH]5)C=C4)C=C3)cc1
REMARK SMILES IDX 22 1 21 2 20 3 19 4 18 5 16 6 17 7 11 8 10 9 9 10 6 11 7 12
REMARK SMILES IDX 8 14 5 16 3 17 1 18 2 19 4 21 12 22 13 23 14 24 15 25 23 26
REMARK SMILES IDX 24 27 25 28 26 29 27 30 28 31 29 32 30 33 31 34 92 35 32 36
REMARK SMILES IDX 91 37 33 38 34 39 35 40 85 41 36 42 90 43 84 44 86 45 37 46
REMARK SMILES IDX 89 47 83 48 82 49 38 51 70 52 50 53 69 54 51 55 54 56 68 57
REMARK SMILES IDX 87 58 52 59 53 60 67 62 88 63 55 64 39 65 40 66 48 67 41 68
REMARK SMILES IDX 43 69 49 70 42 71 44 72 45 73 46 74 47 75 71 76 72 77 80 78
REMARK SMILES IDX 73 79 75 80 81 81 74 82 76 83 77 84 78 85 79 86 56 87 57 88
REMARK SMILES IDX 65 89 58 90 60 91 66 92 59 93 61 94 62 95 63 96 64 97
REMARK H PARENT 6 13 9 15 2 20 86 50 54 61
REMARK Flexibility Score: inf
ROOT
ATOM      1  C   UNL A   1      38.906  21.247  25.488  1.00  0.00     0.188 C 
ENDROOT
BRANCH   1   2
ATOM      2  O   UNL A   1      38.047  22.318  25.145  1.00  0.00    -0.376 OA
BRANCH   2   3
ATOM      3  C   UNL A   1      36.713  22.002  24.765  1.00  0.00     0.202 C 
BRANCH   3   4
ATOM      4  C   UNL A   1      35.582  22.379  25.731  1.00  0.00     0.261 C 
BRANCH   4   5
ATOM      5  O   UNL A   1      34.731  23.462  25.291  1.00  0.00    -0.463 OA
BRANCH   5   6
ATOM      6  C   UNL A   1      33.403  23.246  25.425  1.00  0.00     0.310 C 
ATOM      7  O   UNL A   1      32.807  23.296  26.499  1.00  0.00    -0.252 OA
BRANCH   6   8
ATOM      8  C   UNL A   1      32.653  22.905  24.154  1.00  0.00     0.119 C 
BRANCH   8   9
ATOM      9  C   UNL A   1      31.669  24.036  23.827  1.00  0.00     0.133 C 
BRANCH   9  10
ATOM     10  N   UNL A   1      30.728  24.331  24.888  1.00  0.00    -0.337 N 
ATOM     11  N   UNL A   1      30.762  26.661  25.309  1.00  0.00    -0.329 N 
ATOM     12  C   UNL A   1      30.368  25.418  25.575  1.00  0.00     0.315 C 
ATOM     13  H   UNL A   1      30.412  27.302  25.971  1.00  0.00     0.165 HD
ATOM     14  O   UNL A   1      29.587  25.255  26.517  1.00  0.00    -0.249 OA
ATOM     15  H   UNL A   1      30.230  23.531  25.173  1.00  0.00     0.165 HD
BRANCH  11  16
ATOM     16  C   UNL A   1      31.575  27.324  24.299  1.00  0.00     0.217 C 
BRANCH  16  17
ATOM     17  C   UNL A   1      32.000  28.764  24.612  1.00  0.00     0.239 C 
ATOM     18  C   UNL A   1      33.922  28.911  22.944  1.00  0.00     0.142 C 
ATOM     19  N   UNL A   1      33.057  29.365  23.999  1.00  0.00    -0.358 N 
ATOM     20  H   UNL A   1      33.265  30.266  24.337  1.00  0.00     0.163 HD
ATOM     21  O   UNL A   1      31.466  29.389  25.535  1.00  0.00    -0.273 OA
ENDBRANCH  16  17
ENDBRANCH  11  16
ENDBRANCH   9  10
ENDBRANCH   8   9
BRANCH   8  22
ATOM     22  C   UNL A   1      32.102  21.500  23.836  1.00  0.00     0.020 C 
BRANCH  22  23
ATOM     23  C   UNL A   1      32.890  20.203  24.078  1.00  0.00    -0.017 C 
ATOM     24  C   UNL A   1      32.916  19.698  25.514  1.00  0.00     0.007 C 
ATOM     25  C   UNL A   1      32.294  19.102  23.183  1.00  0.00     0.007 C 
ENDBRANCH  22  23
ENDBRANCH   8  22
ENDBRANCH   6   8
ENDBRANCH   5   6
ENDBRANCH   4   5
ENDBRANCH   3   4
ENDBRANCH   2   3
ENDBRANCH   1   2
BRANCH   1  26
ATOM     26  C   UNL A   1      39.896  21.456  26.639  1.00  0.00     0.188 C 
BRANCH  26  27
ATOM     27  O   UNL A   1      41.277  21.386  26.307  1.00  0.00    -0.376 OA
BRANCH  27  28
ATOM     28  C   UNL A   1      41.872  22.628  25.920  1.00  0.00     0.202 C 
BRANCH  28  29
ATOM     29  C   UNL A   1      43.380  22.558  25.625  1.00  0.00     0.261 C 
BRANCH  29  30
ATOM     30  O   UNL A   1      44.217  22.786  26.775  1.00  0.00    -0.460 OA
BRANCH  30  31
ATOM     31  C   UNL A   1      45.092  23.817  26.712  1.00  0.00     0.338 C 
ATOM     32  O   UNL A   1      45.989  23.957  25.894  1.00  0.00    -0.246 OA
BRANCH  31  33
ATOM     33  C   UNL A   1      44.622  24.887  27.632  1.00  0.00     0.060 A 
ATOM     34  C   UNL A   1      45.241  26.145  27.561  1.00  0.00     0.016 A 
ATOM     35  C   UNL A   1      43.536  24.692  28.492  1.00  0.00     0.016 A 
ATOM     36  C   UNL A   1      44.813  27.187  28.389  1.00  0.00     0.010 A 
ATOM     37  C   UNL A   1      43.107  25.735  29.316  1.00  0.00     0.010 A 
ATOM     38  C   UNL A   1      43.770  26.975  29.300  1.00  0.00    -0.014 A 
BRANCH  38  39
ATOM     39  C   UNL A   1      43.505  27.953  30.386  1.00  0.00     0.031 A 
ATOM     40  C   UNL A   1      44.194  27.742  31.708  1.00  0.00     0.074 A 
ATOM     41  C   UNL A   1      42.650  28.980  30.234  1.00  0.00     0.049 A 
ATOM     42  N   UNL A   1      44.074  28.413  32.823  1.00  0.00    -0.248 NA
ATOM     43  C   UNL A   1      45.136  26.612  31.783  1.00  0.00     0.031 C 
ATOM     44  C   UNL A   1      41.906  29.295  29.017  1.00  0.00     0.029 A 
ATOM     45  N   UNL A   1      42.237  29.929  31.138  1.00  0.00    -0.354 N 
ATOM     46  C   UNL A   1      44.893  27.767  33.741  1.00  0.00     0.074 A 
ATOM     47  C   UNL A   1      45.498  26.646  33.056  1.00  0.00     0.031 C 
ATOM     48  C   UNL A   1      41.097  30.342  29.261  1.00  0.00     0.029 A 
ATOM     49  C   UNL A   1      41.250  30.757  30.656  1.00  0.00     0.049 A 
ATOM     50  H   UNL A   1      42.612  30.010  32.045  1.00  0.00     0.167 HD
ATOM     51  C   UNL A   1      45.137  28.082  35.034  1.00  0.00     0.034 A 
ATOM     52  C   UNL A   1      40.533  31.718  31.276  1.00  0.00     0.034 A 
ATOM     53  C   UNL A   1      44.561  29.206  35.717  1.00  0.00     0.049 A 
ATOM     54  C   UNL A   1      40.810  32.041  32.724  1.00  0.00     0.074 A 
ATOM     55  C   UNL A   1      44.807  29.645  37.005  1.00  0.00     0.029 A 
ATOM     56  N   UNL A   1      43.608  30.055  35.178  1.00  0.00    -0.354 N 
ATOM     57  N   UNL A   1      41.699  31.518  33.535  1.00  0.00    -0.248 NA
ATOM     58  C   UNL A   1      40.002  33.110  33.336  1.00  0.00     0.031 C 
ATOM     59  C   UNL A   1      43.980  30.743  37.258  1.00  0.00     0.029 A 
ATOM     60  C   UNL A   1      43.240  31.005  36.116  1.00  0.00     0.049 A 
ATOM     61  H   UNL A   1      43.247  29.992  34.266  1.00  0.00     0.167 HD
ATOM     62  C   UNL A   1      41.578  32.212  34.736  1.00  0.00     0.074 A 
ATOM     63  C   UNL A   1      40.546  33.208  34.542  1.00  0.00     0.031 C 
ATOM     64  C   UNL A   1      42.249  32.029  35.900  1.00  0.00     0.034 A 
BRANCH  51  65
ATOM     65  C   UNL A   1      46.093  27.202  35.791  1.00  0.00     0.023 A 
ATOM     66  C   UNL A   1      47.454  27.561  35.877  1.00  0.00     0.012 A 
ATOM     67  C   UNL A   1      45.639  26.043  36.448  1.00  0.00     0.148 A 
ATOM     68  C   UNL A   1      48.354  26.762  36.579  1.00  0.00     0.002 A 
ATOM     69  C   UNL A   1      46.532  25.276  37.183  1.00  0.00     0.091 A 
ATOM     70  F   UNL A   1      44.346  25.705  36.327  1.00  0.00    -0.205 F 
ATOM     71  C   UNL A   1      47.892  25.626  37.241  1.00  0.00     0.022 A 
BRANCH  69  72
ATOM     72  S   UNL A   1      46.019  23.839  38.130  1.00  0.00     0.127 S 
ATOM     73  O   UNL A   1      47.299  23.349  38.638  1.00  0.00    -0.237 OA
ATOM     74  O   UNL A   1      45.147  24.433  39.143  1.00  0.00    -0.237 OA
ATOM     75  O   UNL A   1      45.342  22.960  37.187  1.00  0.00    -0.744 OA
ENDBRANCH  69  72
ENDBRANCH  51  65
BRANCH  52  76
ATOM     76  C   UNL A   1      39.485  32.466  30.525  1.00  0.00     0.023 A 
ATOM     77  C   UNL A   1      39.809  33.693  29.914  1.00  0.00     0.012 A 
ATOM     78  C   UNL A   1      38.172  31.969  30.415  1.00  0.00     0.148 A 
ATOM     79  C   UNL A   1      38.838  34.424  29.228  1.00  0.00     0.002 A 
ATOM     80  C   UNL A   1      37.224  32.677  29.687  1.00  0.00     0.091 A 
ATOM     81  F   UNL A   1      37.880  30.811  31.024  1.00  0.00    -0.205 F 
ATOM     82  C   UNL A   1      37.550  33.912  29.105  1.00  0.00     0.022 A 
BRANCH  80  83
ATOM     83  S   UNL A   1      35.571  32.042  29.381  1.00  0.00     0.127 S 
ATOM     84  O   UNL A   1      35.102  32.928  28.319  1.00  0.00    -0.237 OA
ATOM     85  O   UNL A   1      35.851  30.669  28.960  1.00  0.00    -0.237 OA
ATOM     86  O   UNL A   1      34.866  32.151  30.651  1.00  0.00    -0.744 OA
ENDBRANCH  80  83
ENDBRANCH  52  76
BRANCH  64  87
ATOM     87  C   UNL A   1      41.923  32.935  37.060  1.00  0.00     0.023 A 
ATOM     88  C   UNL A   1      42.751  34.039  37.341  1.00  0.00     0.012 A 
ATOM     89  C   UNL A   1      40.745  32.748  37.814  1.00  0.00     0.148 A 
ATOM     90  C   UNL A   1      42.430  34.925  38.370  1.00  0.00     0.002 A 
ATOM     91  C   UNL A   1      40.405  33.662  38.805  1.00  0.00     0.091 A 
ATOM     92  F   UNL A   1      39.975  31.684  37.543  1.00  0.00    -0.205 F 
ATOM     93  C   UNL A   1      41.253  34.745  39.092  1.00  0.00     0.022 A 
BRANCH  91  94
ATOM     94  S   UNL A   1      38.861  33.564  39.720  1.00  0.00     0.127 S 
ATOM     95  O   UNL A   1      39.038  32.322  40.471  1.00  0.00    -0.237 OA
ATOM     96  O   UNL A   1      38.903  34.780  40.533  1.00  0.00    -0.237 OA
ATOM     97  O   UNL A   1      37.804  33.543  38.719  1.00  0.00    -0.744 OA
ENDBRANCH  91  94
ENDBRANCH  64  87
ENDBRANCH  38  39
ENDBRANCH  31  33
ENDBRANCH  30  31
ENDBRANCH  29  30
ENDBRANCH  28  29
ENDBRANCH  27  28
ENDBRANCH  26  27
ENDBRANCH   1  26
TORSDOF 26
ENDMDL
