MODEL 1
REMARK VINA RESULT:     -10.0      0.000      0.000
REMARK SMILES O=C1NC(=S)S/C1=C\c1ccc(OCc2cn(-c3ccc(C(=O)OCCOCCOCCOC(=O)c4ccc(-c5c6nc(c(-c7cccc(S(=O)(=O)[O-])c7F)c7ccc([nH]7)c(-c7cccc(S(=O)(=O)[O-])c7F)c7nc(c(-c8cccc(S(=O)(=O)[O-])c8F)c8ccc5[nH]8)C=C7)C=C6)cc4)cc3)nn2)cc1
REMARK SMILES IDX 28 1 27 2 26 3 25 4 24 5 22 6 23 7 21 8 18 9 19 10 100 11
REMARK SMILES IDX 20 12 99 13 17 14 15 15 16 16 102 17 101 18 14 19 13 20
REMARK SMILES IDX 12 21 9 22 10 23 104 24 11 25 103 26 8 27 1 28 2 29 3 30
REMARK SMILES IDX 7 31 4 32 6 34 5 35 29 36 30 37 31 38 32 39 33 40 34 41
REMARK SMILES IDX 35 42 36 43 37 44 98 45 38 46 97 47 39 48 40 49 41 50 91 51
REMARK SMILES IDX 42 52 96 53 90 54 92 55 43 56 95 57 89 58 88 59 44 61 76 62
REMARK SMILES IDX 56 63 75 64 57 65 60 66 74 67 93 68 58 69 59 70 73 72 94 73
REMARK SMILES IDX 61 74 45 75 46 76 54 77 47 78 49 79 55 80 48 81 50 82 51 83
REMARK SMILES IDX 52 84 53 85 77 86 78 87 86 88 79 89 81 90 87 91 80 92 82 93
REMARK SMILES IDX 83 94 84 95 85 96 62 97 63 98 71 99 64 100 66 101 72 102
REMARK SMILES IDX 65 103 67 104 68 105 69 106 70 107
REMARK H PARENT 3 33 92 60 60 71
REMARK Flexibility Score: inf
ROOT
ATOM      1  C   UNL A   1      37.030  22.656  25.446  1.00  0.00     0.188 C 
ENDROOT
BRANCH   1   2
ATOM      2  O   UNL A   1      35.949  22.761  26.346  1.00  0.00    -0.376 OA
BRANCH   2   3
ATOM      3  C   UNL A   1      34.604  22.682  25.910  1.00  0.00     0.202 C 
BRANCH   3   4
ATOM      4  C   UNL A   1      34.042  21.597  24.971  1.00  0.00     0.261 C 
BRANCH   4   5
ATOM      5  O   UNL A   1      33.969  21.909  23.577  1.00  0.00    -0.460 OA
BRANCH   5   6
ATOM      6  C   UNL A   1      32.725  21.974  23.056  1.00  0.00     0.338 C 
ATOM      7  O   UNL A   1      32.048  21.046  22.637  1.00  0.00    -0.246 OA
BRANCH   6   8
ATOM      8  C   UNL A   1      32.192  23.342  23.205  1.00  0.00     0.060 A 
ATOM      9  C   UNL A   1      31.368  25.974  23.593  1.00  0.00     0.066 A 
ATOM     10  C   UNL A   1      32.535  25.711  22.862  1.00  0.00     0.029 A 
ATOM     11  C   UNL A   1      30.560  24.918  24.041  1.00  0.00     0.029 A 
ATOM     12  C   UNL A   1      32.965  24.397  22.705  1.00  0.00     0.018 A 
ATOM     13  C   UNL A   1      30.961  23.595  23.821  1.00  0.00     0.018 A 
BRANCH   9  14
ATOM     14  N   UNL A   1      31.091  27.311  23.962  1.00  0.00    -0.220 N 
ATOM     15  C   UNL A   1      31.173  29.272  24.918  1.00  0.00     0.120 A 
ATOM     16  C   UNL A   1      31.355  27.927  25.167  1.00  0.00     0.144 A 
ATOM     17  N   UNL A   1      30.753  29.424  23.625  1.00  0.00    -0.131 NA
ATOM     18  N   UNL A   1      30.708  28.234  23.054  1.00  0.00    -0.062 NA
BRANCH  15  19
ATOM     19  C   UNL A   1      31.484  30.468  25.758  1.00  0.00     0.289 C 
BRANCH  19  20
ATOM     20  O   UNL A   1      32.222  30.203  26.961  1.00  0.00    -0.487 OA
BRANCH  20  21
ATOM     21  C   UNL A   1      33.258  31.040  27.275  1.00  0.00     0.119 A 
ATOM     22  C   UNL A   1      35.490  32.474  28.197  1.00  0.00    -0.024 A 
ATOM     23  C   UNL A   1      35.625  31.136  27.815  1.00  0.00     0.012 A 
ATOM     24  C   UNL A   1      34.258  33.111  28.024  1.00  0.00     0.012 A 
ATOM     25  C   UNL A   1      34.511  30.425  27.358  1.00  0.00     0.047 A 
ATOM     26  C   UNL A   1      33.155  32.403  27.545  1.00  0.00     0.047 A 
BRANCH  22  27
ATOM     27  C   UNL A   1      36.607  33.200  28.803  1.00  0.00     0.029 C 
ATOM     28  O   UNL A   1      38.750  34.765  29.993  1.00  0.00    -0.268 OA
ATOM     29  C   UNL A   1      37.772  34.405  30.627  1.00  0.00     0.263 C 
ATOM     30  N   UNL A   1      37.533  34.698  31.941  1.00  0.00    -0.307 N 
ATOM     31  C   UNL A   1      36.647  33.597  30.084  1.00  0.00     0.080 C 
ATOM     32  C   UNL A   1      36.388  34.226  32.507  1.00  0.00     0.145 C 
ATOM     33  H   UNL A   1      38.170  35.236  32.463  1.00  0.00     0.171 HD
ATOM     34  S   UNL A   1      35.479  33.314  31.325  1.00  0.00    -0.055 SA
ATOM     35  S   UNL A   1      35.955  34.500  34.079  1.00  0.00    -0.052 S 
ENDBRANCH  22  27
ENDBRANCH  20  21
ENDBRANCH  19  20
ENDBRANCH  15  19
ENDBRANCH   9  14
ENDBRANCH   6   8
ENDBRANCH   5   6
ENDBRANCH   4   5
ENDBRANCH   3   4
ENDBRANCH   2   3
ENDBRANCH   1   2
BRANCH   1  36
ATOM     36  C   UNL A   1      38.008  21.466  25.528  1.00  0.00     0.188 C 
BRANCH  36  37
ATOM     37  O   UNL A   1      39.371  21.741  25.768  1.00  0.00    -0.376 OA
BRANCH  37  38
ATOM     38  C   UNL A   1      40.245  20.815  26.390  1.00  0.00     0.202 C 
BRANCH  38  39
ATOM     39  C   UNL A   1      41.766  20.774  26.252  1.00  0.00     0.261 C 
BRANCH  39  40
ATOM     40  O   UNL A   1      42.334  21.568  25.239  1.00  0.00    -0.460 OA
BRANCH  40  41
ATOM     41  C   UNL A   1      43.655  21.354  25.079  1.00  0.00     0.338 C 
ATOM     42  O   UNL A   1      44.204  20.301  24.800  1.00  0.00    -0.246 OA
BRANCH  41  43
ATOM     43  C   UNL A   1      44.363  22.578  25.433  1.00  0.00     0.060 A 
ATOM     44  C   UNL A   1      45.230  22.510  26.524  1.00  0.00     0.016 A 
ATOM     45  C   UNL A   1      43.855  23.785  24.933  1.00  0.00     0.016 A 
ATOM     46  C   UNL A   1      45.414  23.653  27.263  1.00  0.00     0.010 A 
ATOM     47  C   UNL A   1      44.006  24.911  25.695  1.00  0.00     0.010 A 
ATOM     48  C   UNL A   1      44.716  24.806  26.888  1.00  0.00    -0.014 A 
BRANCH  48  49
ATOM     49  C   UNL A   1      44.850  25.979  27.716  1.00  0.00     0.031 A 
ATOM     50  C   UNL A   1      46.010  26.792  27.306  1.00  0.00     0.074 A 
ATOM     51  C   UNL A   1      43.937  26.301  28.651  1.00  0.00     0.049 A 
ATOM     52  N   UNL A   1      47.139  26.903  27.922  1.00  0.00    -0.248 NA
ATOM     53  C   UNL A   1      46.015  27.334  25.937  1.00  0.00     0.031 C 
ATOM     54  C   UNL A   1      42.631  25.676  28.875  1.00  0.00     0.029 A 
ATOM     55  N   UNL A   1      43.923  27.359  29.506  1.00  0.00    -0.354 N 
ATOM     56  C   UNL A   1      47.876  27.781  27.135  1.00  0.00     0.074 A 
ATOM     57  C   UNL A   1      47.277  27.751  25.832  1.00  0.00     0.031 C 
ATOM     58  C   UNL A   1      41.861  26.513  29.608  1.00  0.00     0.029 A 
ATOM     59  C   UNL A   1      42.656  27.667  29.995  1.00  0.00     0.049 A 
ATOM     60  H   UNL A   1      44.731  27.860  29.755  1.00  0.00     0.167 HD
ATOM     61  C   UNL A   1      48.657  28.730  27.718  1.00  0.00     0.034 A 
ATOM     62  C   UNL A   1      42.282  28.834  30.580  1.00  0.00     0.034 A 
ATOM     63  C   UNL A   1      48.908  28.403  29.103  1.00  0.00     0.049 A 
ATOM     64  C   UNL A   1      43.521  29.530  31.002  1.00  0.00     0.074 A 
ATOM     65  C   UNL A   1      49.450  27.325  29.775  1.00  0.00     0.029 A 
ATOM     66  N   UNL A   1      48.196  29.121  30.032  1.00  0.00    -0.354 N 
ATOM     67  N   UNL A   1      44.294  29.114  31.963  1.00  0.00    -0.248 NA
ATOM     68  C   UNL A   1      44.128  30.468  30.070  1.00  0.00     0.031 C 
ATOM     69  C   UNL A   1      48.699  27.222  30.982  1.00  0.00     0.029 A 
ATOM     70  C   UNL A   1      47.788  28.278  31.026  1.00  0.00     0.049 A 
ATOM     71  H   UNL A   1      48.009  30.087  29.987  1.00  0.00     0.167 HD
ATOM     72  C   UNL A   1      45.578  29.342  31.486  1.00  0.00     0.074 A 
ATOM     73  C   UNL A   1      45.413  30.291  30.389  1.00  0.00     0.031 C 
ATOM     74  C   UNL A   1      46.601  28.503  31.823  1.00  0.00     0.034 A 
BRANCH  61  75
ATOM     75  C   UNL A   1      48.795  30.156  27.212  1.00  0.00     0.023 A 
ATOM     76  C   UNL A   1      50.112  30.652  27.095  1.00  0.00     0.012 A 
ATOM     77  C   UNL A   1      47.751  31.112  27.133  1.00  0.00     0.148 A 
ATOM     78  C   UNL A   1      50.379  32.021  27.002  1.00  0.00     0.002 A 
ATOM     79  C   UNL A   1      48.017  32.464  26.962  1.00  0.00     0.091 A 
ATOM     80  F   UNL A   1      46.484  30.758  27.341  1.00  0.00    -0.205 F 
ATOM     81  C   UNL A   1      49.331  32.929  26.936  1.00  0.00     0.022 A 
BRANCH  79  82
ATOM     82  S   UNL A   1      46.695  33.677  26.829  1.00  0.00     0.127 S 
ATOM     83  O   UNL A   1      47.449  34.925  26.763  1.00  0.00    -0.237 OA
ATOM     84  O   UNL A   1      46.051  33.272  25.579  1.00  0.00    -0.237 OA
ATOM     85  O   UNL A   1      45.865  33.499  28.013  1.00  0.00    -0.744 OA
ENDBRANCH  79  82
ENDBRANCH  61  75
BRANCH  62  86
ATOM     86  C   UNL A   1      40.976  29.536  30.584  1.00  0.00     0.023 A 
ATOM     87  C   UNL A   1      40.487  30.088  29.381  1.00  0.00     0.012 A 
ATOM     88  C   UNL A   1      40.081  29.413  31.669  1.00  0.00     0.148 A 
ATOM     89  C   UNL A   1      39.145  30.464  29.249  1.00  0.00     0.002 A 
ATOM     90  C   UNL A   1      38.749  29.797  31.536  1.00  0.00     0.091 A 
ATOM     91  F   UNL A   1      40.507  28.833  32.797  1.00  0.00    -0.205 F 
ATOM     92  C   UNL A   1      38.273  30.309  30.322  1.00  0.00     0.022 A 
BRANCH  90  93
ATOM     93  S   UNL A   1      37.559  29.600  32.870  1.00  0.00     0.127 S 
ATOM     94  O   UNL A   1      37.632  28.163  33.133  1.00  0.00    -0.237 OA
ATOM     95  O   UNL A   1      38.133  30.443  33.915  1.00  0.00    -0.237 OA
ATOM     96  O   UNL A   1      36.280  30.045  32.331  1.00  0.00    -0.744 OA
ENDBRANCH  90  93
ENDBRANCH  62  86
BRANCH  74  97
ATOM     97  C   UNL A   1      46.402  27.575  32.992  1.00  0.00     0.023 A 
ATOM     98  C   UNL A   1      46.598  27.966  34.332  1.00  0.00     0.012 A 
ATOM     99  C   UNL A   1      45.854  26.310  32.724  1.00  0.00     0.148 A 
ATOM    100  C   UNL A   1      46.273  27.099  35.380  1.00  0.00     0.002 A 
ATOM    101  C   UNL A   1      45.483  25.475  33.766  1.00  0.00     0.091 A 
ATOM    102  F   UNL A   1      45.684  25.951  31.441  1.00  0.00    -0.205 F 
ATOM    103  C   UNL A   1      45.701  25.859  35.098  1.00  0.00     0.022 A 
BRANCH 101 104
ATOM    104  S   UNL A   1      44.628  23.931  33.451  1.00  0.00     0.127 S 
ATOM    105  O   UNL A   1      45.670  22.943  33.720  1.00  0.00    -0.237 OA
ATOM    106  O   UNL A   1      43.543  23.962  34.433  1.00  0.00    -0.237 OA
ATOM    107  O   UNL A   1      44.173  24.006  32.067  1.00  0.00    -0.744 OA
ENDBRANCH 101 104
ENDBRANCH  74  97
ENDBRANCH  48  49
ENDBRANCH  41  43
ENDBRANCH  40  41
ENDBRANCH  39  40
ENDBRANCH  38  39
ENDBRANCH  37  38
ENDBRANCH  36  37
ENDBRANCH   1  36
TORSDOF 25
ENDMDL
MODEL 2
REMARK VINA RESULT:      -9.7      2.649      5.361
REMARK SMILES O=C1NC(=S)S/C1=C\c1ccc(OCc2cn(-c3ccc(C(=O)OCCOCCOCCOC(=O)c4ccc(-c5c6nc(c(-c7cccc(S(=O)(=O)[O-])c7F)c7ccc([nH]7)c(-c7cccc(S(=O)(=O)[O-])c7F)c7nc(c(-c8cccc(S(=O)(=O)[O-])c8F)c8ccc5[nH]8)C=C7)C=C6)cc4)cc3)nn2)cc1
REMARK SMILES IDX 28 1 27 2 26 3 25 4 24 5 22 6 23 7 21 8 18 9 19 10 100 11
REMARK SMILES IDX 20 12 99 13 17 14 15 15 16 16 102 17 101 18 14 19 13 20
REMARK SMILES IDX 12 21 9 22 10 23 104 24 11 25 103 26 8 27 1 28 2 29 3 30
REMARK SMILES IDX 7 31 4 32 6 34 5 35 29 36 30 37 31 38 32 39 33 40 34 41
REMARK SMILES IDX 35 42 36 43 37 44 98 45 38 46 97 47 39 48 40 49 41 50 91 51
REMARK SMILES IDX 42 52 96 53 90 54 92 55 43 56 95 57 89 58 88 59 44 61 76 62
REMARK SMILES IDX 56 63 75 64 57 65 60 66 74 67 93 68 58 69 59 70 73 72 94 73
REMARK SMILES IDX 61 74 45 75 46 76 54 77 47 78 49 79 55 80 48 81 50 82 51 83
REMARK SMILES IDX 52 84 53 85 77 86 78 87 86 88 79 89 81 90 87 91 80 92 82 93
REMARK SMILES IDX 83 94 84 95 85 96 62 97 63 98 71 99 64 100 66 101 72 102
REMARK SMILES IDX 65 103 67 104 68 105 69 106 70 107
REMARK H PARENT 3 33 92 60 60 71
REMARK Flexibility Score: inf
ROOT
ATOM      1  C   UNL A   1      36.681  21.650  25.296  1.00  0.00     0.188 C 
ENDROOT
BRANCH   1   2
ATOM      2  O   UNL A   1      35.630  21.386  26.198  1.00  0.00    -0.376 OA
BRANCH   2   3
ATOM      3  C   UNL A   1      34.284  21.700  25.889  1.00  0.00     0.202 C 
BRANCH   3   4
ATOM      4  C   UNL A   1      33.475  21.080  24.733  1.00  0.00     0.261 C 
BRANCH   4   5
ATOM      5  O   UNL A   1      33.613  21.678  23.441  1.00  0.00    -0.460 OA
BRANCH   5   6
ATOM      6  C   UNL A   1      32.461  21.905  22.775  1.00  0.00     0.338 C 
ATOM      7  O   UNL A   1      31.776  21.087  22.178  1.00  0.00    -0.246 OA
BRANCH   6   8
ATOM      8  C   UNL A   1      32.024  23.298  22.997  1.00  0.00     0.060 A 
ATOM      9  C   UNL A   1      31.381  25.955  23.528  1.00  0.00     0.066 A 
ATOM     10  C   UNL A   1      32.544  25.652  22.808  1.00  0.00     0.029 A 
ATOM     11  C   UNL A   1      30.488  24.935  23.892  1.00  0.00     0.029 A 
ATOM     12  C   UNL A   1      32.884  24.322  22.579  1.00  0.00     0.018 A 
ATOM     13  C   UNL A   1      30.799  23.603  23.600  1.00  0.00     0.018 A 
BRANCH   9  14
ATOM     14  N   UNL A   1      31.190  27.284  23.973  1.00  0.00    -0.220 N 
ATOM     15  C   UNL A   1      31.424  29.192  25.007  1.00  0.00     0.120 A 
ATOM     16  C   UNL A   1      31.558  27.830  25.184  1.00  0.00     0.144 A 
ATOM     17  N   UNL A   1      30.932  29.423  23.752  1.00  0.00    -0.131 NA
ATOM     18  N   UNL A   1      30.795  28.265  23.133  1.00  0.00    -0.062 NA
BRANCH  15  19
ATOM     19  C   UNL A   1      31.843  30.332  25.876  1.00  0.00     0.289 C 
BRANCH  19  20
ATOM     20  O   UNL A   1      32.599  29.975  27.043  1.00  0.00    -0.487 OA
BRANCH  20  21
ATOM     21  C   UNL A   1      33.652  30.774  27.396  1.00  0.00     0.119 A 
ATOM     22  C   UNL A   1      35.895  32.132  28.402  1.00  0.00    -0.024 A 
ATOM     23  C   UNL A   1      35.996  30.788  28.033  1.00  0.00     0.012 A 
ATOM     24  C   UNL A   1      34.697  32.813  28.175  1.00  0.00     0.012 A 
ATOM     25  C   UNL A   1      34.877  30.115  27.534  1.00  0.00     0.047 A 
ATOM     26  C   UNL A   1      33.589  32.142  27.654  1.00  0.00     0.047 A 
BRANCH  22  27
ATOM     27  C   UNL A   1      37.012  32.821  29.050  1.00  0.00     0.029 C 
ATOM     28  O   UNL A   1      39.163  34.315  30.315  1.00  0.00    -0.268 OA
ATOM     29  C   UNL A   1      38.137  34.018  30.904  1.00  0.00     0.263 C 
ATOM     30  N   UNL A   1      37.842  34.359  32.196  1.00  0.00    -0.307 N 
ATOM     31  C   UNL A   1      37.004  33.250  30.320  1.00  0.00     0.080 C 
ATOM     32  C   UNL A   1      36.647  33.957  32.709  1.00  0.00     0.145 C 
ATOM     33  H   UNL A   1      38.476  34.880  32.738  1.00  0.00     0.171 HD
ATOM     34  S   UNL A   1      35.759  33.056  31.502  1.00  0.00    -0.055 SA
ATOM     35  S   UNL A   1      36.145  34.294  34.248  1.00  0.00    -0.052 S 
ENDBRANCH  22  27
ENDBRANCH  20  21
ENDBRANCH  19  20
ENDBRANCH  15  19
ENDBRANCH   9  14
ENDBRANCH   6   8
ENDBRANCH   5   6
ENDBRANCH   4   5
ENDBRANCH   3   4
ENDBRANCH   2   3
ENDBRANCH   1   2
BRANCH   1  36
ATOM     36  C   UNL A   1      37.811  20.622  25.083  1.00  0.00     0.188 C 
BRANCH  36  37
ATOM     37  O   UNL A   1      39.074  20.895  25.650  1.00  0.00    -0.376 OA
BRANCH  37  38
ATOM     38  C   UNL A   1      40.028  19.885  25.929  1.00  0.00     0.202 C 
BRANCH  38  39
ATOM     39  C   UNL A   1      41.459  20.102  26.415  1.00  0.00     0.261 C 
BRANCH  39  40
ATOM     40  O   UNL A   1      41.769  21.373  26.933  1.00  0.00    -0.460 OA
BRANCH  40  41
ATOM     41  C   UNL A   1      42.281  22.210  26.008  1.00  0.00     0.338 C 
ATOM     42  O   UNL A   1      42.846  21.907  24.970  1.00  0.00    -0.246 OA
BRANCH  41  43
ATOM     43  C   UNL A   1      42.175  23.572  26.515  1.00  0.00     0.060 A 
ATOM     44  C   UNL A   1      43.129  24.486  26.068  1.00  0.00     0.016 A 
ATOM     45  C   UNL A   1      41.404  23.773  27.668  1.00  0.00     0.016 A 
ATOM     46  C   UNL A   1      43.473  25.512  26.913  1.00  0.00     0.010 A 
ATOM     47  C   UNL A   1      41.778  24.771  28.526  1.00  0.00     0.010 A 
ATOM     48  C   UNL A   1      42.858  25.573  28.169  1.00  0.00    -0.014 A 
BRANCH  48  49
ATOM     49  C   UNL A   1      43.284  26.605  29.083  1.00  0.00     0.031 A 
ATOM     50  C   UNL A   1      44.311  26.102  30.013  1.00  0.00     0.074 A 
ATOM     51  C   UNL A   1      42.850  27.874  28.978  1.00  0.00     0.049 A 
ATOM     52  N   UNL A   1      44.160  25.823  31.264  1.00  0.00    -0.248 NA
ATOM     53  C   UNL A   1      45.574  25.611  29.437  1.00  0.00     0.031 C 
ATOM     54  C   UNL A   1      42.066  28.462  27.889  1.00  0.00     0.029 A 
ATOM     55  N   UNL A   1      43.151  28.949  29.755  1.00  0.00    -0.354 N 
ATOM     56  C   UNL A   1      45.418  25.400  31.679  1.00  0.00     0.074 A 
ATOM     57  C   UNL A   1      46.118  25.005  30.492  1.00  0.00     0.031 C 
ATOM     58  C   UNL A   1      42.177  29.809  27.943  1.00  0.00     0.029 A 
ATOM     59  C   UNL A   1      42.937  30.173  29.126  1.00  0.00     0.049 A 
ATOM     60  H   UNL A   1      43.489  28.869  30.675  1.00  0.00     0.167 HD
ATOM     61  C   UNL A   1      45.897  25.773  32.896  1.00  0.00     0.034 A 
ATOM     62  C   UNL A   1      43.445  31.372  29.510  1.00  0.00     0.034 A 
ATOM     63  C   UNL A   1      44.824  26.233  33.747  1.00  0.00     0.049 A 
ATOM     64  C   UNL A   1      43.882  31.234  30.919  1.00  0.00     0.074 A 
ATOM     65  C   UNL A   1      43.636  25.699  34.208  1.00  0.00     0.029 A 
ATOM     66  N   UNL A   1      44.728  27.592  33.917  1.00  0.00    -0.354 N 
ATOM     67  N   UNL A   1      43.062  31.084  31.920  1.00  0.00    -0.248 NA
ATOM     68  C   UNL A   1      45.259  30.840  31.172  1.00  0.00     0.031 C 
ATOM     69  C   UNL A   1      42.725  26.793  34.248  1.00  0.00     0.029 A 
ATOM     70  C   UNL A   1      43.411  27.953  33.882  1.00  0.00     0.049 A 
ATOM     71  H   UNL A   1      45.487  28.208  34.041  1.00  0.00     0.167 HD
ATOM     72  C   UNL A   1      43.689  30.149  32.732  1.00  0.00     0.074 A 
ATOM     73  C   UNL A   1      45.083  30.140  32.295  1.00  0.00     0.031 C 
ATOM     74  C   UNL A   1      42.953  29.258  33.459  1.00  0.00     0.034 A 
BRANCH  61  75
ATOM     75  C   UNL A   1      47.337  26.176  33.163  1.00  0.00     0.023 A 
ATOM     76  C   UNL A   1      47.707  27.477  32.754  1.00  0.00     0.012 A 
ATOM     77  C   UNL A   1      48.395  25.294  33.498  1.00  0.00     0.148 A 
ATOM     78  C   UNL A   1      49.046  27.847  32.597  1.00  0.00     0.002 A 
ATOM     79  C   UNL A   1      49.724  25.690  33.415  1.00  0.00     0.091 A 
ATOM     80  F   UNL A   1      48.154  24.017  33.788  1.00  0.00    -0.205 F 
ATOM     81  C   UNL A   1      50.056  26.953  32.927  1.00  0.00     0.022 A 
BRANCH  79  82
ATOM     82  S   UNL A   1      51.069  24.586  33.870  1.00  0.00     0.127 S 
ATOM     83  O   UNL A   1      52.236  25.371  33.482  1.00  0.00    -0.237 OA
ATOM     84  O   UNL A   1      50.861  24.451  35.313  1.00  0.00    -0.237 OA
ATOM     85  O   UNL A   1      50.852  23.356  33.118  1.00  0.00    -0.744 OA
ENDBRANCH  79  82
ENDBRANCH  61  75
BRANCH  62  86
ATOM     86  C   UNL A   1      43.830  32.557  28.706  1.00  0.00     0.023 A 
ATOM     87  C   UNL A   1      44.714  32.394  27.618  1.00  0.00     0.012 A 
ATOM     88  C   UNL A   1      43.123  33.774  28.807  1.00  0.00     0.148 A 
ATOM     89  C   UNL A   1      44.854  33.388  26.642  1.00  0.00     0.002 A 
ATOM     90  C   UNL A   1      43.272  34.764  27.840  1.00  0.00     0.091 A 
ATOM     91  F   UNL A   1      42.232  33.925  29.795  1.00  0.00    -0.205 F 
ATOM     92  C   UNL A   1      44.126  34.569  26.747  1.00  0.00     0.022 A 
BRANCH  90  93
ATOM     93  S   UNL A   1      42.343  36.304  27.894  1.00  0.00     0.127 S 
ATOM     94  O   UNL A   1      42.734  36.938  26.635  1.00  0.00    -0.237 OA
ATOM     95  O   UNL A   1      40.965  35.824  27.935  1.00  0.00    -0.237 OA
ATOM     96  O   UNL A   1      42.804  37.005  29.086  1.00  0.00    -0.744 OA
ENDBRANCH  90  93
ENDBRANCH  62  86
BRANCH  74  97
ATOM     97  C   UNL A   1      41.489  29.544  33.658  1.00  0.00     0.023 A 
ATOM     98  C   UNL A   1      40.994  30.363  34.692  1.00  0.00     0.012 A 
ATOM     99  C   UNL A   1      40.603  29.083  32.669  1.00  0.00     0.148 A 
ATOM    100  C   UNL A   1      39.636  30.695  34.747  1.00  0.00     0.002 A 
ATOM    101  C   UNL A   1      39.269  29.458  32.698  1.00  0.00     0.091 A 
ATOM    102  F   UNL A   1      41.091  28.295  31.698  1.00  0.00    -0.205 F 
ATOM    103  C   UNL A   1      38.777  30.256  33.742  1.00  0.00     0.022 A 
BRANCH 101 104
ATOM    104  S   UNL A   1      38.160  29.023  31.358  1.00  0.00     0.127 S 
ATOM    105  O   UNL A   1      38.867  29.550  30.193  1.00  0.00    -0.237 OA
ATOM    106  O   UNL A   1      38.118  27.562  31.441  1.00  0.00    -0.237 OA
ATOM    107  O   UNL A   1      36.890  29.669  31.669  1.00  0.00    -0.744 OA
ENDBRANCH 101 104
ENDBRANCH  74  97
ENDBRANCH  48  49
ENDBRANCH  41  43
ENDBRANCH  40  41
ENDBRANCH  39  40
ENDBRANCH  38  39
ENDBRANCH  37  38
ENDBRANCH  36  37
ENDBRANCH   1  36
TORSDOF 25
ENDMDL
MODEL 3
REMARK VINA RESULT:      -9.3      3.051      6.377
REMARK SMILES O=C1NC(=S)S/C1=C\c1ccc(OCc2cn(-c3ccc(C(=O)OCCOCCOCCOC(=O)c4ccc(-c5c6nc(c(-c7cccc(S(=O)(=O)[O-])c7F)c7ccc([nH]7)c(-c7cccc(S(=O)(=O)[O-])c7F)c7nc(c(-c8cccc(S(=O)(=O)[O-])c8F)c8ccc5[nH]8)C=C7)C=C6)cc4)cc3)nn2)cc1
REMARK SMILES IDX 28 1 27 2 26 3 25 4 24 5 22 6 23 7 21 8 18 9 19 10 100 11
REMARK SMILES IDX 20 12 99 13 17 14 15 15 16 16 102 17 101 18 14 19 13 20
REMARK SMILES IDX 12 21 9 22 10 23 104 24 11 25 103 26 8 27 1 28 2 29 3 30
REMARK SMILES IDX 7 31 4 32 6 34 5 35 29 36 30 37 31 38 32 39 33 40 34 41
REMARK SMILES IDX 35 42 36 43 37 44 98 45 38 46 97 47 39 48 40 49 41 50 91 51
REMARK SMILES IDX 42 52 96 53 90 54 92 55 43 56 95 57 89 58 88 59 44 61 76 62
REMARK SMILES IDX 56 63 75 64 57 65 60 66 74 67 93 68 58 69 59 70 73 72 94 73
REMARK SMILES IDX 61 74 45 75 46 76 54 77 47 78 49 79 55 80 48 81 50 82 51 83
REMARK SMILES IDX 52 84 53 85 77 86 78 87 86 88 79 89 81 90 87 91 80 92 82 93
REMARK SMILES IDX 83 94 84 95 85 96 62 97 63 98 71 99 64 100 66 101 72 102
REMARK SMILES IDX 65 103 67 104 68 105 69 106 70 107
REMARK H PARENT 3 33 92 60 60 71
REMARK Flexibility Score: inf
ROOT
ATOM      1  C   UNL A   1      35.016  22.208  24.983  1.00  0.00     0.188 C 
ENDROOT
BRANCH   1   2
ATOM      2  O   UNL A   1      33.645  21.948  24.774  1.00  0.00    -0.376 OA
BRANCH   2   3
ATOM      3  C   UNL A   1      32.963  22.414  23.625  1.00  0.00     0.202 C 
BRANCH   3   4
ATOM      4  C   UNL A   1      33.632  23.107  22.421  1.00  0.00     0.261 C 
BRANCH   4   5
ATOM      5  O   UNL A   1      34.280  24.359  22.661  1.00  0.00    -0.460 OA
BRANCH   5   6
ATOM      6  C   UNL A   1      33.561  25.459  22.354  1.00  0.00     0.338 C 
ATOM      7  O   UNL A   1      32.886  25.647  21.352  1.00  0.00    -0.246 OA
BRANCH   6   8
ATOM      8  C   UNL A   1      33.559  26.391  23.499  1.00  0.00     0.060 A 
ATOM      9  C   UNL A   1      33.728  28.244  25.571  1.00  0.00     0.066 A 
ATOM     10  C   UNL A   1      33.512  28.686  24.259  1.00  0.00     0.029 A 
ATOM     11  C   UNL A   1      33.756  26.871  25.860  1.00  0.00     0.029 A 
ATOM     12  C   UNL A   1      33.469  27.761  23.220  1.00  0.00     0.018 A 
ATOM     13  C   UNL A   1      33.643  25.941  24.821  1.00  0.00     0.018 A 
BRANCH   9  14
ATOM     14  N   UNL A   1      34.028  29.204  26.565  1.00  0.00    -0.220 N 
ATOM     15  C   UNL A   1      35.036  30.735  27.752  1.00  0.00     0.120 A 
ATOM     16  C   UNL A   1      35.271  29.588  27.022  1.00  0.00     0.144 A 
ATOM     17  N   UNL A   1      33.689  30.972  27.771  1.00  0.00    -0.131 NA
ATOM     18  N   UNL A   1      33.087  30.044  27.049  1.00  0.00    -0.062 NA
BRANCH  15  19
ATOM     19  C   UNL A   1      35.986  31.724  28.342  1.00  0.00     0.289 C 
BRANCH  19  20
ATOM     20  O   UNL A   1      35.412  32.651  29.277  1.00  0.00    -0.487 OA
BRANCH  20  21
ATOM     21  C   UNL A   1      35.926  32.685  30.544  1.00  0.00     0.119 A 
ATOM     22  C   UNL A   1      37.087  32.365  33.081  1.00  0.00    -0.024 A 
ATOM     23  C   UNL A   1      37.802  32.013  31.934  1.00  0.00     0.012 A 
ATOM     24  C   UNL A   1      35.832  32.964  32.945  1.00  0.00     0.012 A 
ATOM     25  C   UNL A   1      37.220  32.173  30.672  1.00  0.00     0.047 A 
ATOM     26  C   UNL A   1      35.265  33.143  31.682  1.00  0.00     0.047 A 
BRANCH  22  27
ATOM     27  C   UNL A   1      37.619  32.084  34.416  1.00  0.00     0.029 C 
ATOM     28  O   UNL A   1      38.803  31.495  37.006  1.00  0.00    -0.268 OA
ATOM     29  C   UNL A   1      38.960  32.565  36.442  1.00  0.00     0.263 C 
ATOM     30  N   UNL A   1      39.716  33.602  36.915  1.00  0.00    -0.307 N 
ATOM     31  C   UNL A   1      38.377  32.934  35.124  1.00  0.00     0.080 C 
ATOM     32  C   UNL A   1      39.798  34.733  36.162  1.00  0.00     0.145 C 
ATOM     33  H   UNL A   1      40.187  33.532  37.776  1.00  0.00     0.171 HD
ATOM     34  S   UNL A   1      38.853  34.541  34.704  1.00  0.00    -0.055 SA
ATOM     35  S   UNL A   1      40.674  36.067  36.595  1.00  0.00    -0.052 S 
ENDBRANCH  22  27
ENDBRANCH  20  21
ENDBRANCH  19  20
ENDBRANCH  15  19
ENDBRANCH   9  14
ENDBRANCH   6   8
ENDBRANCH   5   6
ENDBRANCH   4   5
ENDBRANCH   3   4
ENDBRANCH   2   3
ENDBRANCH   1   2
BRANCH   1  36
ATOM     36  C   UNL A   1      36.046  21.061  24.957  1.00  0.00     0.188 C 
BRANCH  36  37
ATOM     37  O   UNL A   1      37.110  21.101  25.883  1.00  0.00    -0.376 OA
BRANCH  37  38
ATOM     38  C   UNL A   1      38.472  21.110  25.492  1.00  0.00     0.202 C 
BRANCH  38  39
ATOM     39  C   UNL A   1      39.601  21.888  26.166  1.00  0.00     0.261 C 
BRANCH  39  40
ATOM     40  O   UNL A   1      39.226  22.913  27.054  1.00  0.00    -0.460 OA
BRANCH  40  41
ATOM     41  C   UNL A   1      38.669  23.972  26.433  1.00  0.00     0.338 C 
ATOM     42  O   UNL A   1      37.873  23.951  25.509  1.00  0.00    -0.246 OA
BRANCH  41  43
ATOM     43  C   UNL A   1      39.283  25.185  26.957  1.00  0.00     0.060 A 
ATOM     44  C   UNL A   1      40.335  25.727  26.220  1.00  0.00     0.016 A 
ATOM     45  C   UNL A   1      39.055  25.493  28.306  1.00  0.00     0.016 A 
ATOM     46  C   UNL A   1      41.306  26.415  26.906  1.00  0.00     0.010 A 
ATOM     47  C   UNL A   1      40.044  26.141  28.993  1.00  0.00     0.010 A 
ATOM     48  C   UNL A   1      41.188  26.520  28.296  1.00  0.00    -0.014 A 
BRANCH  48  49
ATOM     49  C   UNL A   1      42.252  27.172  29.020  1.00  0.00     0.031 A 
ATOM     50  C   UNL A   1      41.871  28.544  29.406  1.00  0.00     0.074 A 
ATOM     51  C   UNL A   1      43.379  26.525  29.369  1.00  0.00     0.049 A 
ATOM     52  N   UNL A   1      42.294  29.646  28.885  1.00  0.00    -0.248 NA
ATOM     53  C   UNL A   1      40.704  28.705  30.290  1.00  0.00     0.031 C 
ATOM     54  C   UNL A   1      43.654  25.091  29.258  1.00  0.00     0.029 A 
ATOM     55  N   UNL A   1      44.464  26.997  30.041  1.00  0.00    -0.354 N 
ATOM     56  C   UNL A   1      41.642  30.641  29.605  1.00  0.00     0.074 A 
ATOM     57  C   UNL A   1      40.497  30.019  30.201  1.00  0.00     0.031 C 
ATOM     58  C   UNL A   1      44.695  24.778  30.064  1.00  0.00     0.029 A 
ATOM     59  C   UNL A   1      45.222  25.999  30.649  1.00  0.00     0.049 A 
ATOM     60  H   UNL A   1      44.691  27.952  30.093  1.00  0.00     0.167 HD
ATOM     61  C   UNL A   1      42.307  31.774  29.958  1.00  0.00     0.034 A 
ATOM     62  C   UNL A   1      46.139  26.176  31.635  1.00  0.00     0.034 A 
ATOM     63  C   UNL A   1      43.499  31.936  29.159  1.00  0.00     0.049 A 
ATOM     64  C   UNL A   1      46.507  27.612  31.640  1.00  0.00     0.074 A 
ATOM     65  C   UNL A   1      43.774  32.012  27.807  1.00  0.00     0.029 A 
ATOM     66  N   UNL A   1      44.687  31.636  29.779  1.00  0.00    -0.354 N 
ATOM     67  N   UNL A   1      47.186  28.189  30.690  1.00  0.00    -0.248 NA
ATOM     68  C   UNL A   1      45.756  28.507  32.506  1.00  0.00     0.031 C 
ATOM     69  C   UNL A   1      45.024  31.349  27.643  1.00  0.00     0.029 A 
ATOM     70  C   UNL A   1      45.489  30.964  28.901  1.00  0.00     0.049 A 
ATOM     71  H   UNL A   1      44.922  31.867  30.707  1.00  0.00     0.167 HD
ATOM     72  C   UNL A   1      46.572  29.425  30.539  1.00  0.00     0.074 A 
ATOM     73  C   UNL A   1      45.796  29.616  31.762  1.00  0.00     0.031 C 
ATOM     74  C   UNL A   1      46.507  30.021  29.313  1.00  0.00     0.034 A 
BRANCH  61  75
ATOM     75  C   UNL A   1      42.163  32.468  31.302  1.00  0.00     0.023 A 
ATOM     76  C   UNL A   1      42.033  33.875  31.267  1.00  0.00     0.012 A 
ATOM     77  C   UNL A   1      42.440  31.891  32.566  1.00  0.00     0.148 A 
ATOM     78  C   UNL A   1      42.258  34.664  32.398  1.00  0.00     0.002 A 
ATOM     79  C   UNL A   1      42.588  32.673  33.705  1.00  0.00     0.091 A 
ATOM     80  F   UNL A   1      42.690  30.588  32.682  1.00  0.00    -0.205 F 
ATOM     81  C   UNL A   1      42.537  34.063  33.619  1.00  0.00     0.022 A 
BRANCH  79  82
ATOM     82  S   UNL A   1      42.908  31.942  35.317  1.00  0.00     0.127 S 
ATOM     83  O   UNL A   1      44.235  31.369  35.119  1.00  0.00    -0.237 OA
ATOM     84  O   UNL A   1      42.862  33.120  36.186  1.00  0.00    -0.237 OA
ATOM     85  O   UNL A   1      41.831  30.988  35.548  1.00  0.00    -0.744 OA
ENDBRANCH  79  82
ENDBRANCH  61  75
BRANCH  62  86
ATOM     86  C   UNL A   1      46.543  25.284  32.748  1.00  0.00     0.023 A 
ATOM     87  C   UNL A   1      47.905  25.201  33.105  1.00  0.00     0.012 A 
ATOM     88  C   UNL A   1      45.590  24.749  33.642  1.00  0.00     0.148 A 
ATOM     89  C   UNL A   1      48.302  24.647  34.329  1.00  0.00     0.002 A 
ATOM     90  C   UNL A   1      45.989  24.190  34.853  1.00  0.00     0.091 A 
ATOM     91  F   UNL A   1      44.289  24.874  33.352  1.00  0.00    -0.205 F 
ATOM     92  C   UNL A   1      47.344  24.151  35.207  1.00  0.00     0.022 A 
BRANCH  90  93
ATOM     93  S   UNL A   1      44.807  23.555  36.050  1.00  0.00     0.127 S 
ATOM     94  O   UNL A   1      44.504  22.232  35.505  1.00  0.00    -0.237 OA
ATOM     95  O   UNL A   1      45.596  23.544  37.279  1.00  0.00    -0.237 OA
ATOM     96  O   UNL A   1      43.682  24.481  36.029  1.00  0.00    -0.744 OA
ENDBRANCH  90  93
ENDBRANCH  62  86
BRANCH  74  97
ATOM     97  C   UNL A   1      47.418  29.513  28.228  1.00  0.00     0.023 A 
ATOM     98  C   UNL A   1      48.760  29.921  28.091  1.00  0.00     0.012 A 
ATOM     99  C   UNL A   1      46.934  28.475  27.414  1.00  0.00     0.148 A 
ATOM    100  C   UNL A   1      49.593  29.317  27.143  1.00  0.00     0.002 A 
ATOM    101  C   UNL A   1      47.777  27.843  26.514  1.00  0.00     0.091 A 
ATOM    102  F   UNL A   1      45.650  28.106  27.553  1.00  0.00    -0.205 F 
ATOM    103  C   UNL A   1      49.107  28.268  26.365  1.00  0.00     0.022 A 
BRANCH 101 104
ATOM    104  S   UNL A   1      47.230  26.407  25.590  1.00  0.00     0.127 S 
ATOM    105  O   UNL A   1      46.499  27.017  24.482  1.00  0.00    -0.237 OA
ATOM    106  O   UNL A   1      48.494  25.769  25.215  1.00  0.00    -0.237 OA
ATOM    107  O   UNL A   1      46.425  25.621  26.519  1.00  0.00    -0.744 OA
ENDBRANCH 101 104
ENDBRANCH  74  97
ENDBRANCH  48  49
ENDBRANCH  41  43
ENDBRANCH  40  41
ENDBRANCH  39  40
ENDBRANCH  38  39
ENDBRANCH  37  38
ENDBRANCH  36  37
ENDBRANCH   1  36
TORSDOF 25
ENDMDL
