MODEL 1
REMARK VINA RESULT:     -10.5      0.000      0.000
REMARK SMILES Cc1oc(-c2ccc(Cl)cc2[N+](=O)[O-])cc1C(=O)OCCOCCOCCOC(=O)c1ccc(-c2c3nc(c(-c4cccc(S(=O)(=O)[O-])c4F)c4ccc([nH]4)c(-c4cccc(S(=O)(=O)[O-])c4F)c4nc(c(-c5cccc(S(=O)(=O)[O-])c5F)c5ccc2[nH]5)C=C4)C=C3)cc1
REMARK SMILES IDX 24 1 23 2 22 3 21 4 20 5 19 6 17 7 18 8 16 9 1 10 2 11 3 12
REMARK SMILES IDX 4 13 15 14 5 15 6 16 11 17 7 18 10 19 8 20 9 21 12 22 13 23
REMARK SMILES IDX 14 24 25 25 26 26 27 27 28 28 29 29 30 30 31 31 32 32 93 33
REMARK SMILES IDX 33 34 92 35 34 36 35 37 36 38 86 39 37 40 91 41 85 42 87 43
REMARK SMILES IDX 38 44 90 45 84 46 83 47 39 49 71 50 51 51 70 52 52 53 55 54
REMARK SMILES IDX 69 55 88 56 53 57 54 58 68 60 89 61 56 62 40 63 41 64 49 65
REMARK SMILES IDX 42 66 44 67 50 68 43 69 45 70 46 71 47 72 48 73 72 74 73 75
REMARK SMILES IDX 81 76 74 77 76 78 82 79 75 80 77 81 78 82 79 83 80 84 57 85
REMARK SMILES IDX 58 86 66 87 59 88 61 89 67 90 60 91 62 92 63 93 64 94 65 95
REMARK H PARENT 87 48 55 59
REMARK Flexibility Score: inf
ROOT
ATOM      1  C   UNL A   1      35.610  18.881  24.929  1.00  0.00     0.188 C 
ENDROOT
BRANCH   1   2
ATOM      2  C   UNL A   1      34.243  18.365  24.433  1.00  0.00     0.188 C 
BRANCH   2   3
ATOM      3  O   UNL A   1      33.046  18.878  24.995  1.00  0.00    -0.376 OA
BRANCH   3   4
ATOM      4  C   UNL A   1      32.404  19.990  24.383  1.00  0.00     0.202 C 
BRANCH   4   5
ATOM      5  C   UNL A   1      32.640  21.362  25.006  1.00  0.00     0.261 C 
BRANCH   5   6
ATOM      6  O   UNL A   1      33.177  21.225  26.331  1.00  0.00    -0.460 OA
BRANCH   6   7
ATOM      7  C   UNL A   1      33.015  22.318  27.126  1.00  0.00     0.341 C 
ATOM      8  O   UNL A   1      32.964  22.282  28.349  1.00  0.00    -0.246 OA
BRANCH   7   9
ATOM      9  C   UNL A   1      33.064  23.564  26.392  1.00  0.00     0.101 A 
ATOM     10  C   UNL A   1      35.593  23.901  25.693  1.00  0.00     0.088 C 
ATOM     11  C   UNL A   1      34.150  24.206  25.816  1.00  0.00     0.116 A 
ATOM     12  O   UNL A   1      33.740  25.356  25.194  1.00  0.00    -0.460 OA
ATOM     13  C   UNL A   1      32.397  25.454  25.382  1.00  0.00     0.142 A 
ATOM     14  C   UNL A   1      31.940  24.396  26.126  1.00  0.00     0.067 A 
BRANCH  13  15
ATOM     15  C   UNL A   1      31.729  26.572  24.752  1.00  0.00     0.095 A 
ATOM     16  C   UNL A   1      31.273  26.428  23.431  1.00  0.00     0.021 A 
ATOM     17  C   UNL A   1      31.563  27.818  25.378  1.00  0.00     0.281 A 
ATOM     18  C   UNL A   1      30.682  27.504  22.759  1.00  0.00     0.022 A 
ATOM     19  C   UNL A   1      30.971  28.901  24.712  1.00  0.00     0.107 A 
ATOM     20  C   UNL A   1      30.539  28.734  23.400  1.00  0.00     0.047 A 
ATOM     21  Cl  UNL A   1      29.825  30.057  22.567  1.00  0.00    -0.084 Cl
BRANCH  17  22
ATOM     22  N   UNL A   1      32.002  28.042  26.752  1.00  0.00     0.063 N 
ATOM     23  O   UNL A   1      31.189  27.772  27.649  1.00  0.00    -0.258 OA
ATOM     24  O   UNL A   1      33.121  28.535  26.938  1.00  0.00    -0.258 OA
ENDBRANCH  17  22
ENDBRANCH  13  15
ENDBRANCH   7   9
ENDBRANCH   6   7
ENDBRANCH   5   6
ENDBRANCH   4   5
ENDBRANCH   3   4
ENDBRANCH   2   3
ENDBRANCH   1   2
BRANCH   1  25
ATOM     25  O   UNL A   1      36.088  20.171  24.585  1.00  0.00    -0.376 OA
BRANCH  25  26
ATOM     26  C   UNL A   1      37.359  20.600  25.048  1.00  0.00     0.202 C 
BRANCH  26  27
ATOM     27  C   UNL A   1      38.475  19.574  25.234  1.00  0.00     0.261 C 
BRANCH  27  28
ATOM     28  O   UNL A   1      39.184  19.717  26.470  1.00  0.00    -0.460 OA
BRANCH  28  29
ATOM     29  C   UNL A   1      40.487  20.069  26.337  1.00  0.00     0.338 C 
ATOM     30  O   UNL A   1      41.375  19.433  25.794  1.00  0.00    -0.246 OA
BRANCH  29  31
ATOM     31  C   UNL A   1      40.673  21.448  26.817  1.00  0.00     0.060 A 
ATOM     32  C   UNL A   1      40.150  22.489  26.039  1.00  0.00     0.016 A 
ATOM     33  C   UNL A   1      41.411  21.717  27.972  1.00  0.00     0.016 A 
ATOM     34  C   UNL A   1      40.401  23.812  26.394  1.00  0.00     0.010 A 
ATOM     35  C   UNL A   1      41.673  23.043  28.316  1.00  0.00     0.010 A 
ATOM     36  C   UNL A   1      41.197  24.093  27.512  1.00  0.00    -0.014 A 
BRANCH  36  37
ATOM     37  C   UNL A   1      41.664  25.477  27.752  1.00  0.00     0.031 A 
ATOM     38  C   UNL A   1      43.057  25.853  27.330  1.00  0.00     0.074 A 
ATOM     39  C   UNL A   1      40.868  26.377  28.354  1.00  0.00     0.049 A 
ATOM     40  N   UNL A   1      43.679  26.995  27.458  1.00  0.00    -0.248 NA
ATOM     41  C   UNL A   1      43.856  24.801  26.678  1.00  0.00     0.031 C 
ATOM     42  C   UNL A   1      39.504  26.122  28.816  1.00  0.00     0.029 A 
ATOM     43  N   UNL A   1      41.109  27.679  28.707  1.00  0.00    -0.354 N 
ATOM     44  C   UNL A   1      44.945  26.797  26.923  1.00  0.00     0.074 A 
ATOM     45  C   UNL A   1      45.008  25.423  26.475  1.00  0.00     0.031 C 
ATOM     46  C   UNL A   1      39.040  27.228  29.424  1.00  0.00     0.029 A 
ATOM     47  C   UNL A   1      40.078  28.258  29.408  1.00  0.00     0.049 A 
ATOM     48  H   UNL A   1      41.940  28.156  28.480  1.00  0.00     0.167 HD
ATOM     49  C   UNL A   1      45.959  27.685  26.798  1.00  0.00     0.034 A 
ATOM     50  C   UNL A   1      39.993  29.472  29.985  1.00  0.00     0.034 A 
ATOM     51  C   UNL A   1      45.893  29.052  27.234  1.00  0.00     0.049 A 
ATOM     52  C   UNL A   1      41.146  30.434  29.855  1.00  0.00     0.074 A 
ATOM     53  C   UNL A   1      46.852  30.042  27.108  1.00  0.00     0.029 A 
ATOM     54  N   UNL A   1      44.815  29.620  27.893  1.00  0.00    -0.354 N 
ATOM     55  N   UNL A   1      42.283  30.279  29.217  1.00  0.00    -0.248 NA
ATOM     56  C   UNL A   1      40.992  31.749  30.494  1.00  0.00     0.031 C 
ATOM     57  C   UNL A   1      46.357  31.206  27.707  1.00  0.00     0.029 A 
ATOM     58  C   UNL A   1      45.085  30.944  28.192  1.00  0.00     0.049 A 
ATOM     59  H   UNL A   1      43.979  29.150  28.117  1.00  0.00     0.167 HD
ATOM     60  C   UNL A   1      42.963  31.485  29.351  1.00  0.00     0.074 A 
ATOM     61  C   UNL A   1      42.103  32.368  30.113  1.00  0.00     0.031 C 
ATOM     62  C   UNL A   1      44.194  31.828  28.898  1.00  0.00     0.034 A 
BRANCH  49  63
ATOM     63  C   UNL A   1      47.216  27.210  26.124  1.00  0.00     0.023 A 
ATOM     64  C   UNL A   1      47.381  27.428  24.741  1.00  0.00     0.012 A 
ATOM     65  C   UNL A   1      48.247  26.595  26.857  1.00  0.00     0.148 A 
ATOM     66  C   UNL A   1      48.544  27.019  24.092  1.00  0.00     0.002 A 
ATOM     67  C   UNL A   1      49.419  26.221  26.211  1.00  0.00     0.091 A 
ATOM     68  F   UNL A   1      48.058  26.370  28.165  1.00  0.00    -0.205 F 
ATOM     69  C   UNL A   1      49.567  26.425  24.828  1.00  0.00     0.022 A 
BRANCH  67  70
ATOM     70  S   UNL A   1      50.815  25.506  27.086  1.00  0.00     0.127 S 
ATOM     71  O   UNL A   1      51.765  25.286  25.997  1.00  0.00    -0.237 OA
ATOM     72  O   UNL A   1      51.186  26.580  28.010  1.00  0.00    -0.237 OA
ATOM     73  O   UNL A   1      50.306  24.304  27.732  1.00  0.00    -0.744 OA
ENDBRANCH  67  70
ENDBRANCH  49  63
BRANCH  50  74
ATOM     74  C   UNL A   1      38.750  29.868  30.705  1.00  0.00     0.023 A 
ATOM     75  C   UNL A   1      38.517  29.379  32.004  1.00  0.00     0.012 A 
ATOM     76  C   UNL A   1      37.809  30.734  30.117  1.00  0.00     0.148 A 
ATOM     77  C   UNL A   1      37.357  29.725  32.696  1.00  0.00     0.002 A 
ATOM     78  C   UNL A   1      36.678  31.114  30.830  1.00  0.00     0.091 A 
ATOM     79  F   UNL A   1      38.037  31.170  28.870  1.00  0.00    -0.205 F 
ATOM     80  C   UNL A   1      36.442  30.600  32.114  1.00  0.00     0.022 A 
BRANCH  78  81
ATOM     81  S   UNL A   1      35.512  32.327  30.201  1.00  0.00     0.127 S 
ATOM     82  O   UNL A   1      35.184  31.775  28.890  1.00  0.00    -0.237 OA
ATOM     83  O   UNL A   1      34.434  32.254  31.189  1.00  0.00    -0.237 OA
ATOM     84  O   UNL A   1      36.234  33.593  30.197  1.00  0.00    -0.744 OA
ENDBRANCH  78  81
ENDBRANCH  50  74
BRANCH  62  85
ATOM     85  C   UNL A   1      44.686  33.223  29.183  1.00  0.00     0.023 A 
ATOM     86  C   UNL A   1      45.414  33.476  30.362  1.00  0.00     0.012 A 
ATOM     87  C   UNL A   1      44.505  34.258  28.245  1.00  0.00     0.148 A 
ATOM     88  C   UNL A   1      45.934  34.745  30.614  1.00  0.00     0.002 A 
ATOM     89  C   UNL A   1      45.064  35.509  28.482  1.00  0.00     0.091 A 
ATOM     90  F   UNL A   1      43.791  34.003  27.139  1.00  0.00    -0.205 F 
ATOM     91  C   UNL A   1      45.771  35.756  29.670  1.00  0.00     0.022 A 
BRANCH  89  92
ATOM     92  S   UNL A   1      44.980  36.838  27.276  1.00  0.00     0.127 S 
ATOM     93  O   UNL A   1      45.935  36.385  26.267  1.00  0.00    -0.237 OA
ATOM     94  O   UNL A   1      43.579  36.792  26.854  1.00  0.00    -0.237 OA
ATOM     95  O   UNL A   1      45.351  38.050  27.996  1.00  0.00    -0.744 OA
ENDBRANCH  89  92
ENDBRANCH  62  85
ENDBRANCH  36  37
ENDBRANCH  29  31
ENDBRANCH  28  29
ENDBRANCH  27  28
ENDBRANCH  26  27
ENDBRANCH  25  26
ENDBRANCH   1  25
TORSDOF 22
ENDMDL
MODEL 2
REMARK VINA RESULT:      -9.7      1.638      2.031
REMARK SMILES Cc1oc(-c2ccc(Cl)cc2[N+](=O)[O-])cc1C(=O)OCCOCCOCCOC(=O)c1ccc(-c2c3nc(c(-c4cccc(S(=O)(=O)[O-])c4F)c4ccc([nH]4)c(-c4cccc(S(=O)(=O)[O-])c4F)c4nc(c(-c5cccc(S(=O)(=O)[O-])c5F)c5ccc2[nH]5)C=C4)C=C3)cc1
REMARK SMILES IDX 24 1 23 2 22 3 21 4 20 5 19 6 17 7 18 8 16 9 1 10 2 11 3 12
REMARK SMILES IDX 4 13 15 14 5 15 6 16 11 17 7 18 10 19 8 20 9 21 12 22 13 23
REMARK SMILES IDX 14 24 25 25 26 26 27 27 28 28 29 29 30 30 31 31 32 32 93 33
REMARK SMILES IDX 33 34 92 35 34 36 35 37 36 38 86 39 37 40 91 41 85 42 87 43
REMARK SMILES IDX 38 44 90 45 84 46 83 47 39 49 71 50 51 51 70 52 52 53 55 54
REMARK SMILES IDX 69 55 88 56 53 57 54 58 68 60 89 61 56 62 40 63 41 64 49 65
REMARK SMILES IDX 42 66 44 67 50 68 43 69 45 70 46 71 47 72 48 73 72 74 73 75
REMARK SMILES IDX 81 76 74 77 76 78 82 79 75 80 77 81 78 82 79 83 80 84 57 85
REMARK SMILES IDX 58 86 66 87 59 88 61 89 67 90 60 91 62 92 63 93 64 94 65 95
REMARK H PARENT 87 48 55 59
REMARK Flexibility Score: inf
ROOT
ATOM      1  C   UNL A   1      36.667  20.174  24.846  1.00  0.00     0.188 C 
ENDROOT
BRANCH   1   2
ATOM      2  C   UNL A   1      35.195  19.736  24.992  1.00  0.00     0.188 C 
BRANCH   2   3
ATOM      3  O   UNL A   1      34.234  20.642  25.509  1.00  0.00    -0.376 OA
BRANCH   3   4
ATOM      4  C   UNL A   1      33.257  21.200  24.639  1.00  0.00     0.202 C 
BRANCH   4   5
ATOM      5  C   UNL A   1      32.184  22.084  25.269  1.00  0.00     0.261 C 
BRANCH   5   6
ATOM      6  O   UNL A   1      32.780  23.033  26.166  1.00  0.00    -0.460 OA
BRANCH   6   7
ATOM      7  C   UNL A   1      33.584  23.954  25.568  1.00  0.00     0.341 C 
ATOM      8  O   UNL A   1      34.807  23.956  25.639  1.00  0.00    -0.246 OA
BRANCH   7   9
ATOM      9  C   UNL A   1      32.861  24.856  24.698  1.00  0.00     0.101 A 
ATOM     10  C   UNL A   1      33.305  24.009  22.233  1.00  0.00     0.088 C 
ATOM     11  C   UNL A   1      32.770  24.864  23.315  1.00  0.00     0.116 A 
ATOM     12  O   UNL A   1      31.954  25.886  22.903  1.00  0.00    -0.460 OA
ATOM     13  C   UNL A   1      31.534  26.536  24.020  1.00  0.00     0.142 A 
ATOM     14  C   UNL A   1      32.078  25.959  25.142  1.00  0.00     0.067 A 
BRANCH  13  15
ATOM     15  C   UNL A   1      30.602  27.626  23.832  1.00  0.00     0.095 A 
ATOM     16  C   UNL A   1      29.290  27.329  23.426  1.00  0.00     0.021 A 
ATOM     17  C   UNL A   1      30.961  28.975  23.979  1.00  0.00     0.281 A 
ATOM     18  C   UNL A   1      28.374  28.354  23.166  1.00  0.00     0.022 A 
ATOM     19  C   UNL A   1      30.049  30.009  23.721  1.00  0.00     0.107 A 
ATOM     20  C   UNL A   1      28.759  29.687  23.310  1.00  0.00     0.047 A 
ATOM     21  Cl  UNL A   1      27.637  30.944  22.976  1.00  0.00    -0.084 Cl
BRANCH  17  22
ATOM     22  N   UNL A   1      32.301  29.363  24.406  1.00  0.00     0.063 N 
ATOM     23  O   UNL A   1      32.418  29.783  25.567  1.00  0.00    -0.258 OA
ATOM     24  O   UNL A   1      33.221  29.304  23.581  1.00  0.00    -0.258 OA
ENDBRANCH  17  22
ENDBRANCH  13  15
ENDBRANCH   7   9
ENDBRANCH   6   7
ENDBRANCH   5   6
ENDBRANCH   4   5
ENDBRANCH   3   4
ENDBRANCH   2   3
ENDBRANCH   1   2
BRANCH   1  25
ATOM     25  O   UNL A   1      37.151  21.368  25.440  1.00  0.00    -0.376 OA
BRANCH  25  26
ATOM     26  C   UNL A   1      38.496  21.438  25.889  1.00  0.00     0.202 C 
BRANCH  26  27
ATOM     27  C   UNL A   1      39.407  20.224  25.719  1.00  0.00     0.261 C 
BRANCH  27  28
ATOM     28  O   UNL A   1      40.345  20.059  26.789  1.00  0.00    -0.460 OA
BRANCH  28  29
ATOM     29  C   UNL A   1      41.570  20.589  26.556  1.00  0.00     0.338 C 
ATOM     30  O   UNL A   1      42.513  20.059  25.993  1.00  0.00    -0.246 OA
BRANCH  29  31
ATOM     31  C   UNL A   1      41.572  22.008  26.949  1.00  0.00     0.060 A 
ATOM     32  C   UNL A   1      41.458  22.969  25.936  1.00  0.00     0.016 A 
ATOM     33  C   UNL A   1      41.756  22.388  28.280  1.00  0.00     0.016 A 
ATOM     34  C   UNL A   1      41.570  24.321  26.249  1.00  0.00     0.010 A 
ATOM     35  C   UNL A   1      41.883  23.743  28.588  1.00  0.00     0.010 A 
ATOM     36  C   UNL A   1      41.822  24.711  27.570  1.00  0.00    -0.014 A 
BRANCH  36  37
ATOM     37  C   UNL A   1      42.180  26.116  27.866  1.00  0.00     0.031 A 
ATOM     38  C   UNL A   1      43.568  26.592  27.541  1.00  0.00     0.074 A 
ATOM     39  C   UNL A   1      41.290  26.947  28.434  1.00  0.00     0.049 A 
ATOM     40  N   UNL A   1      44.103  27.769  27.730  1.00  0.00    -0.248 NA
ATOM     41  C   UNL A   1      44.475  25.610  26.920  1.00  0.00     0.031 C 
ATOM     42  C   UNL A   1      39.920  26.593  28.803  1.00  0.00     0.029 A 
ATOM     43  N   UNL A   1      41.421  28.254  28.826  1.00  0.00    -0.354 N 
ATOM     44  C   UNL A   1      45.411  27.667  27.272  1.00  0.00     0.074 A 
ATOM     45  C   UNL A   1      45.593  26.311  26.803  1.00  0.00     0.031 C 
ATOM     46  C   UNL A   1      39.346  27.652  29.403  1.00  0.00     0.029 A 
ATOM     47  C   UNL A   1      40.312  28.748  29.472  1.00  0.00     0.049 A 
ATOM     48  H   UNL A   1      42.231  28.789  28.662  1.00  0.00     0.167 HD
ATOM     49  C   UNL A   1      46.369  28.622  27.229  1.00  0.00     0.034 A 
ATOM     50  C   UNL A   1      40.111  29.940  30.066  1.00  0.00     0.034 A 
ATOM     51  C   UNL A   1      46.185  29.971  27.687  1.00  0.00     0.049 A 
ATOM     52  C   UNL A   1      41.204  30.978  30.028  1.00  0.00     0.074 A 
ATOM     53  C   UNL A   1      47.082  31.024  27.641  1.00  0.00     0.029 A 
ATOM     54  N   UNL A   1      45.033  30.452  28.287  1.00  0.00    -0.354 N 
ATOM     55  N   UNL A   1      42.385  30.913  29.460  1.00  0.00    -0.248 NA
ATOM     56  C   UNL A   1      40.923  32.264  30.681  1.00  0.00     0.031 C 
ATOM     57  C   UNL A   1      46.474  32.139  28.230  1.00  0.00     0.029 A 
ATOM     58  C   UNL A   1      45.195  31.783  28.628  1.00  0.00     0.049 A 
ATOM     59  H   UNL A   1      44.217  29.923  28.448  1.00  0.00     0.167 HD
ATOM     60  C   UNL A   1      42.974  32.157  29.660  1.00  0.00     0.074 A 
ATOM     61  C   UNL A   1      42.011  32.963  30.384  1.00  0.00     0.031 C 
ATOM     62  C   UNL A   1      44.205  32.590  29.293  1.00  0.00     0.034 A 
BRANCH  49  63
ATOM     63  C   UNL A   1      47.694  28.246  26.627  1.00  0.00     0.023 A 
ATOM     64  C   UNL A   1      48.812  28.086  27.470  1.00  0.00     0.012 A 
ATOM     65  C   UNL A   1      47.825  28.007  25.247  1.00  0.00     0.148 A 
ATOM     66  C   UNL A   1      50.049  27.717  26.944  1.00  0.00     0.002 A 
ATOM     67  C   UNL A   1      49.054  27.605  24.734  1.00  0.00     0.091 A 
ATOM     68  F   UNL A   1      46.757  28.194  24.459  1.00  0.00    -0.205 F 
ATOM     69  C   UNL A   1      50.168  27.467  25.579  1.00  0.00     0.022 A 
BRANCH  67  70
ATOM     70  S   UNL A   1      49.286  27.200  23.000  1.00  0.00     0.127 S 
ATOM     71  O   UNL A   1      48.402  26.047  22.845  1.00  0.00    -0.237 OA
ATOM     72  O   UNL A   1      48.824  28.418  22.331  1.00  0.00    -0.237 OA
ATOM     73  O   UNL A   1      50.709  26.930  22.843  1.00  0.00    -0.744 OA
ENDBRANCH  67  70
ENDBRANCH  49  63
BRANCH  50  74
ATOM     74  C   UNL A   1      38.803  30.237  30.713  1.00  0.00     0.023 A 
ATOM     75  C   UNL A   1      38.570  29.808  32.033  1.00  0.00     0.012 A 
ATOM     76  C   UNL A   1      37.797  30.950  30.034  1.00  0.00     0.148 A 
ATOM     77  C   UNL A   1      37.350  30.063  32.659  1.00  0.00     0.002 A 
ATOM     78  C   UNL A   1      36.601  31.244  30.680  1.00  0.00     0.091 A 
ATOM     79  F   UNL A   1      38.028  31.329  28.769  1.00  0.00    -0.205 F 
ATOM     80  C   UNL A   1      36.370  30.789  31.987  1.00  0.00     0.022 A 
BRANCH  78  81
ATOM     81  S   UNL A   1      35.335  32.273  29.929  1.00  0.00     0.127 S 
ATOM     82  O   UNL A   1      36.113  33.423  29.477  1.00  0.00    -0.237 OA
ATOM     83  O   UNL A   1      34.834  31.409  28.860  1.00  0.00    -0.237 OA
ATOM     84  O   UNL A   1      34.368  32.534  30.988  1.00  0.00    -0.744 OA
ENDBRANCH  78  81
ENDBRANCH  50  74
BRANCH  62  85
ATOM     85  C   UNL A   1      44.584  34.007  29.636  1.00  0.00     0.023 A 
ATOM     86  C   UNL A   1      45.358  34.261  30.784  1.00  0.00     0.012 A 
ATOM     87  C   UNL A   1      44.250  35.072  28.776  1.00  0.00     0.148 A 
ATOM     88  C   UNL A   1      45.775  35.557  31.085  1.00  0.00     0.002 A 
ATOM     89  C   UNL A   1      44.706  36.355  29.058  1.00  0.00     0.091 A 
ATOM     90  F   UNL A   1      43.495  34.813  27.698  1.00  0.00    -0.205 F 
ATOM     91  C   UNL A   1      45.461  36.600  30.216  1.00  0.00     0.022 A 
BRANCH  89  92
ATOM     92  S   UNL A   1      44.426  37.735  27.943  1.00  0.00     0.127 S 
ATOM     93  O   UNL A   1      43.807  37.073  26.797  1.00  0.00    -0.237 OA
ATOM     94  O   UNL A   1      43.521  38.586  28.717  1.00  0.00    -0.237 OA
ATOM     95  O   UNL A   1      45.738  38.321  27.700  1.00  0.00    -0.744 OA
ENDBRANCH  89  92
ENDBRANCH  62  85
ENDBRANCH  36  37
ENDBRANCH  29  31
ENDBRANCH  28  29
ENDBRANCH  27  28
ENDBRANCH  26  27
ENDBRANCH  25  26
ENDBRANCH   1  25
TORSDOF 22
ENDMDL
MODEL 3
REMARK VINA RESULT:      -9.0      5.568     15.894
REMARK SMILES Cc1oc(-c2ccc(Cl)cc2[N+](=O)[O-])cc1C(=O)OCCOCCOCCOC(=O)c1ccc(-c2c3nc(c(-c4cccc(S(=O)(=O)[O-])c4F)c4ccc([nH]4)c(-c4cccc(S(=O)(=O)[O-])c4F)c4nc(c(-c5cccc(S(=O)(=O)[O-])c5F)c5ccc2[nH]5)C=C4)C=C3)cc1
REMARK SMILES IDX 24 1 23 2 22 3 21 4 20 5 19 6 17 7 18 8 16 9 1 10 2 11 3 12
REMARK SMILES IDX 4 13 15 14 5 15 6 16 11 17 7 18 10 19 8 20 9 21 12 22 13 23
REMARK SMILES IDX 14 24 25 25 26 26 27 27 28 28 29 29 30 30 31 31 32 32 93 33
REMARK SMILES IDX 33 34 92 35 34 36 35 37 36 38 86 39 37 40 91 41 85 42 87 43
REMARK SMILES IDX 38 44 90 45 84 46 83 47 39 49 71 50 51 51 70 52 52 53 55 54
REMARK SMILES IDX 69 55 88 56 53 57 54 58 68 60 89 61 56 62 40 63 41 64 49 65
REMARK SMILES IDX 42 66 44 67 50 68 43 69 45 70 46 71 47 72 48 73 72 74 73 75
REMARK SMILES IDX 81 76 74 77 76 78 82 79 75 80 77 81 78 82 79 83 80 84 57 85
REMARK SMILES IDX 58 86 66 87 59 88 61 89 67 90 60 91 62 92 63 93 64 94 65 95
REMARK H PARENT 87 48 55 59
REMARK Flexibility Score: inf
ROOT
ATOM      1  C   UNL A   1      42.691  40.420  29.912  1.00  0.00     0.188 C 
ENDROOT
BRANCH   1   2
ATOM      2  C   UNL A   1      41.766  40.433  28.677  1.00  0.00     0.188 C 
BRANCH   2   3
ATOM      3  O   UNL A   1      41.912  39.444  27.671  1.00  0.00    -0.376 OA
BRANCH   3   4
ATOM      4  C   UNL A   1      42.819  39.664  26.598  1.00  0.00     0.202 C 
BRANCH   4   5
ATOM      5  C   UNL A   1      42.907  41.079  26.036  1.00  0.00     0.261 C 
BRANCH   5   6
ATOM      6  O   UNL A   1      44.201  41.642  26.301  1.00  0.00    -0.460 OA
BRANCH   6   7
ATOM      7  C   UNL A   1      45.062  41.612  25.247  1.00  0.00     0.341 C 
ATOM      8  O   UNL A   1      45.818  40.682  24.997  1.00  0.00    -0.246 OA
BRANCH   7   9
ATOM      9  C   UNL A   1      44.888  42.729  24.343  1.00  0.00     0.101 A 
ATOM     10  C   UNL A   1      45.228  44.909  25.802  1.00  0.00     0.088 C 
ATOM     11  C   UNL A   1      44.952  44.090  24.601  1.00  0.00     0.116 A 
ATOM     12  O   UNL A   1      44.750  44.797  23.444  1.00  0.00    -0.460 OA
ATOM     13  C   UNL A   1      44.547  43.890  22.453  1.00  0.00     0.142 A 
ATOM     14  C   UNL A   1      44.600  42.614  22.954  1.00  0.00     0.067 A 
BRANCH  13  15
ATOM     15  C   UNL A   1      44.372  44.412  21.115  1.00  0.00     0.095 A 
ATOM     16  C   UNL A   1      45.254  45.406  20.658  1.00  0.00     0.021 A 
ATOM     17  C   UNL A   1      43.326  44.014  20.267  1.00  0.00     0.281 A 
ATOM     18  C   UNL A   1      45.082  45.988  19.397  1.00  0.00     0.022 A 
ATOM     19  C   UNL A   1      43.146  44.592  19.002  1.00  0.00     0.107 A 
ATOM     20  C   UNL A   1      44.027  45.582  18.579  1.00  0.00     0.047 A 
ATOM     21  Cl  UNL A   1      43.810  46.309  17.037  1.00  0.00    -0.084 Cl
BRANCH  17  22
ATOM     22  N   UNL A   1      42.376  42.981  20.667  1.00  0.00     0.063 N 
ATOM     23  O   UNL A   1      41.259  43.367  21.047  1.00  0.00    -0.258 OA
ATOM     24  O   UNL A   1      42.750  41.803  20.658  1.00  0.00    -0.258 OA
ENDBRANCH  17  22
ENDBRANCH  13  15
ENDBRANCH   7   9
ENDBRANCH   6   7
ENDBRANCH   5   6
ENDBRANCH   4   5
ENDBRANCH   3   4
ENDBRANCH   2   3
ENDBRANCH   1   2
BRANCH   1  25
ATOM     25  O   UNL A   1      44.006  40.950  29.863  1.00  0.00    -0.376 OA
BRANCH  25  26
ATOM     26  C   UNL A   1      45.091  40.112  29.494  1.00  0.00     0.202 C 
BRANCH  26  27
ATOM     27  C   UNL A   1      45.629  39.095  30.499  1.00  0.00     0.261 C 
BRANCH  27  28
ATOM     28  O   UNL A   1      45.253  37.745  30.205  1.00  0.00    -0.460 OA
BRANCH  28  29
ATOM     29  C   UNL A   1      45.861  36.808  30.973  1.00  0.00     0.338 C 
ATOM     30  O   UNL A   1      46.454  36.982  32.024  1.00  0.00    -0.246 OA
BRANCH  29  31
ATOM     31  C   UNL A   1      45.571  35.470  30.434  1.00  0.00     0.060 A 
ATOM     32  C   UNL A   1      44.947  35.388  29.183  1.00  0.00     0.016 A 
ATOM     33  C   UNL A   1      45.841  34.319  31.177  1.00  0.00     0.016 A 
ATOM     34  C   UNL A   1      44.551  34.148  28.686  1.00  0.00     0.010 A 
ATOM     35  C   UNL A   1      45.429  33.080  30.684  1.00  0.00     0.010 A 
ATOM     36  C   UNL A   1      44.755  32.994  29.454  1.00  0.00    -0.014 A 
BRANCH  36  37
ATOM     37  C   UNL A   1      44.125  31.719  29.045  1.00  0.00     0.031 A 
ATOM     38  C   UNL A   1      42.721  31.428  29.496  1.00  0.00     0.074 A 
ATOM     39  C   UNL A   1      44.801  30.826  28.301  1.00  0.00     0.049 A 
ATOM     40  N   UNL A   1      41.984  30.373  29.274  1.00  0.00    -0.248 NA
ATOM     41  C   UNL A   1      42.061  32.466  30.308  1.00  0.00     0.031 C 
ATOM     42  C   UNL A   1      46.169  30.995  27.815  1.00  0.00     0.029 A 
ATOM     43  N   UNL A   1      44.431  29.585  27.852  1.00  0.00    -0.354 N 
ATOM     44  C   UNL A   1      40.783  30.607  29.931  1.00  0.00     0.074 A 
ATOM     45  C   UNL A   1      40.891  31.901  30.568  1.00  0.00     0.031 C 
ATOM     46  C   UNL A   1      46.538  29.878  27.162  1.00  0.00     0.029 A 
ATOM     47  C   UNL A   1      45.438  28.914  27.200  1.00  0.00     0.049 A 
ATOM     48  H   UNL A   1      43.530  29.208  27.984  1.00  0.00     0.167 HD
ATOM     49  C   UNL A   1      39.681  29.824  29.984  1.00  0.00     0.034 A 
ATOM     50  C   UNL A   1      45.471  27.660  26.708  1.00  0.00     0.034 A 
ATOM     51  C   UNL A   1      39.570  28.542  29.343  1.00  0.00     0.049 A 
ATOM     52  C   UNL A   1      44.239  26.797  26.802  1.00  0.00     0.074 A 
ATOM     53  C   UNL A   1      38.477  27.694  29.300  1.00  0.00     0.029 A 
ATOM     54  N   UNL A   1      40.590  27.917  28.647  1.00  0.00    -0.354 N 
ATOM     55  N   UNL A   1      43.061  27.091  27.301  1.00  0.00    -0.248 NA
ATOM     56  C   UNL A   1      44.330  25.443  26.238  1.00  0.00     0.031 C 
ATOM     57  C   UNL A   1      38.844  26.547  28.589  1.00  0.00     0.029 A 
ATOM     58  C   UNL A   1      40.161  26.688  28.178  1.00  0.00     0.049 A 
ATOM     59  H   UNL A   1      41.490  28.291  28.506  1.00  0.00     0.167 HD
ATOM     60  C   UNL A   1      42.264  25.972  27.081  1.00  0.00     0.074 A 
ATOM     61  C   UNL A   1      43.087  25.003  26.386  1.00  0.00     0.031 C 
ATOM     62  C   UNL A   1      40.972  25.759  27.434  1.00  0.00     0.034 A 
BRANCH  49  63
ATOM     63  C   UNL A   1      38.489  30.354  30.732  1.00  0.00     0.023 A 
ATOM     64  C   UNL A   1      38.382  30.113  32.116  1.00  0.00     0.012 A 
ATOM     65  C   UNL A   1      37.506  31.124  30.083  1.00  0.00     0.148 A 
ATOM     66  C   UNL A   1      37.301  30.610  32.841  1.00  0.00     0.002 A 
ATOM     67  C   UNL A   1      36.448  31.645  30.819  1.00  0.00     0.091 A 
ATOM     68  F   UNL A   1      37.611  31.316  28.761  1.00  0.00    -0.205 F 
ATOM     69  C   UNL A   1      36.339  31.384  32.195  1.00  0.00     0.022 A 
BRANCH  67  70
ATOM     70  S   UNL A   1      35.197  32.705  30.086  1.00  0.00     0.127 S 
ATOM     71  O   UNL A   1      34.619  31.824  29.073  1.00  0.00    -0.237 OA
ATOM     72  O   UNL A   1      34.319  32.984  31.224  1.00  0.00    -0.237 OA
ATOM     73  O   UNL A   1      35.911  33.868  29.576  1.00  0.00    -0.744 OA
ENDBRANCH  67  70
ENDBRANCH  49  63
BRANCH  50  74
ATOM     74  C   UNL A   1      46.703  27.157  26.038  1.00  0.00     0.023 A 
ATOM     75  C   UNL A   1      46.857  27.333  24.650  1.00  0.00     0.012 A 
ATOM     76  C   UNL A   1      47.724  26.520  26.769  1.00  0.00     0.148 A 
ATOM     77  C   UNL A   1      47.995  26.862  23.996  1.00  0.00     0.002 A 
ATOM     78  C   UNL A   1      48.878  26.095  26.119  1.00  0.00     0.091 A 
ATOM     79  F   UNL A   1      47.548  26.340  28.085  1.00  0.00    -0.205 F 
ATOM     80  C   UNL A   1      49.010  26.252  24.731  1.00  0.00     0.022 A 
BRANCH  78  81
ATOM     81  S   UNL A   1      50.280  25.409  27.008  1.00  0.00     0.127 S 
ATOM     82  O   UNL A   1      50.768  26.573  27.742  1.00  0.00    -0.237 OA
ATOM     83  O   UNL A   1      49.643  24.381  27.833  1.00  0.00    -0.237 OA
ATOM     84  O   UNL A   1      51.170  24.883  25.982  1.00  0.00    -0.744 OA
ENDBRANCH  78  81
ENDBRANCH  50  74
BRANCH  62  85
ATOM     85  C   UNL A   1      40.348  24.442  27.057  1.00  0.00     0.023 A 
ATOM     86  C   UNL A   1      39.164  24.427  26.293  1.00  0.00     0.012 A 
ATOM     87  C   UNL A   1      40.979  23.225  27.381  1.00  0.00     0.148 A 
ATOM     88  C   UNL A   1      38.606  23.218  25.877  1.00  0.00     0.002 A 
ATOM     89  C   UNL A   1      40.441  22.026  26.926  1.00  0.00     0.091 A 
ATOM     90  F   UNL A   1      42.094  23.259  28.126  1.00  0.00    -0.205 F 
ATOM     91  C   UNL A   1      39.250  22.021  26.182  1.00  0.00     0.022 A 
BRANCH  89  92
ATOM     92  S   UNL A   1      41.257  20.449  27.193  1.00  0.00     0.127 S 
ATOM     93  O   UNL A   1      42.665  20.811  27.040  1.00  0.00    -0.237 OA
ATOM     94  O   UNL A   1      40.859  20.116  28.562  1.00  0.00    -0.237 OA
ATOM     95  O   UNL A   1      40.724  19.549  26.178  1.00  0.00    -0.744 OA
ENDBRANCH  89  92
ENDBRANCH  62  85
ENDBRANCH  36  37
ENDBRANCH  29  31
ENDBRANCH  28  29
ENDBRANCH  27  28
ENDBRANCH  26  27
ENDBRANCH  25  26
ENDBRANCH   1  25
TORSDOF 22
ENDMDL
