MODEL 1
REMARK VINA RESULT:     -10.9      0.000      0.000
REMARK SMILES CC[C@@H]1CCCN(S(=O)(=O)c2cc(C(=O)OCCOCCOCCOC(=O)c3ccc(-c4c5nc(c(-c6cccc(S(=O)(=O)[O-])c6F)c6ccc([nH]6)c(-c6cccc(S(=O)(=O)[O-])c6F)c6nc(c(-c7cccc(S(=O)(=O)[O-])c7F)c7ccc4[nH]7)C=C6)C=C5)cc3)ccc2F)C1
REMARK SMILES IDX 20 1 19 2 18 3 17 4 16 5 14 6 15 7 13 8 11 9 12 10 93 11
REMARK SMILES IDX 92 12 94 13 91 14 8 15 9 16 10 17 7 18 3 19 4 20 95 21 5 22
REMARK SMILES IDX 6 23 2 24 1 25 21 26 22 27 23 28 24 29 25 30 26 31 27 32
REMARK SMILES IDX 28 33 29 34 90 35 30 36 89 37 31 38 32 39 33 40 83 41 34 42
REMARK SMILES IDX 88 43 82 44 84 45 35 46 87 47 81 48 80 49 36 51 68 52 48 53
REMARK SMILES IDX 67 54 49 55 52 56 66 57 85 58 50 59 51 60 65 62 86 63 53 64
REMARK SMILES IDX 37 65 38 66 46 67 39 68 41 69 47 70 40 71 42 72 43 73 44 74
REMARK SMILES IDX 45 75 69 76 70 77 78 78 71 79 73 80 79 81 72 82 74 83 75 84
REMARK SMILES IDX 76 85 77 86 54 87 55 88 63 89 56 90 58 91 64 92 57 93 59 94
REMARK SMILES IDX 60 95 61 96 62 97
REMARK H PARENT 84 50 52 61
REMARK Flexibility Score: inf
ROOT
ATOM      1  C   UNL A   1      36.112  23.513  25.729  1.00  0.00     0.188 C 
ENDROOT
BRANCH   1   2
ATOM      2  O   UNL A   1      34.872  23.706  26.379  1.00  0.00    -0.376 OA
BRANCH   2   3
ATOM      3  C   UNL A   1      34.434  22.801  27.378  1.00  0.00     0.202 C 
BRANCH   3   4
ATOM      4  C   UNL A   1      33.035  22.168  27.371  1.00  0.00     0.261 C 
BRANCH   4   5
ATOM      5  O   UNL A   1      31.949  23.092  27.226  1.00  0.00    -0.460 OA
BRANCH   5   6
ATOM      6  C   UNL A   1      30.989  22.725  26.331  1.00  0.00     0.338 C 
ATOM      7  O   UNL A   1      29.822  22.522  26.546  1.00  0.00    -0.246 OA
BRANCH   6   8
ATOM      8  C   UNL A   1      31.574  22.757  24.967  1.00  0.00     0.061 A 
ATOM      9  C   UNL A   1      32.318  24.067  23.072  1.00  0.00     0.119 A 
ATOM     10  C   UNL A   1      31.691  23.997  24.322  1.00  0.00     0.040 A 
ATOM     11  C   UNL A   1      32.825  22.911  22.486  1.00  0.00     0.143 A 
ATOM     12  C   UNL A   1      32.685  21.675  23.115  1.00  0.00     0.041 A 
ATOM     13  F   UNL A   1      33.430  22.937  21.291  1.00  0.00    -0.206 F 
ATOM     14  C   UNL A   1      32.063  21.593  24.361  1.00  0.00     0.019 A 
BRANCH   9  15
ATOM     15  S   UNL A   1      32.633  25.641  22.327  1.00  0.00     0.246 S 
ATOM     16  O   UNL A   1      31.818  25.749  21.137  1.00  0.00    -0.207 OA
ATOM     17  O   UNL A   1      34.071  25.778  22.238  1.00  0.00    -0.207 OA
BRANCH  15  18
ATOM     18  N   UNL A   1      32.063  26.804  23.479  1.00  0.00    -0.197 NA
ATOM     19  C   UNL A   1      32.709  28.836  24.853  1.00  0.00     0.004 C 
ATOM     20  C   UNL A   1      31.376  29.479  24.450  1.00  0.00     0.006 C 
ATOM     21  C   UNL A   1      33.153  27.800  23.801  1.00  0.00     0.106 C 
ATOM     22  C   UNL A   1      30.323  28.425  24.159  1.00  0.00     0.017 C 
ATOM     23  C   UNL A   1      30.805  27.485  23.066  1.00  0.00     0.102 C 
BRANCH  19  24
ATOM     24  C   UNL A   1      32.639  28.237  26.274  1.00  0.00     0.001 C 
ATOM     25  C   UNL A   1      32.048  29.224  27.274  1.00  0.00     0.004 C 
ENDBRANCH  19  24
ENDBRANCH  15  18
ENDBRANCH   9  15
ENDBRANCH   6   8
ENDBRANCH   5   6
ENDBRANCH   4   5
ENDBRANCH   3   4
ENDBRANCH   2   3
ENDBRANCH   1   2
BRANCH   1  26
ATOM     26  C   UNL A   1      36.147  23.040  24.263  1.00  0.00     0.188 C 
BRANCH  26  27
ATOM     27  O   UNL A   1      37.011  21.990  23.893  1.00  0.00    -0.376 OA
BRANCH  27  28
ATOM     28  C   UNL A   1      36.952  20.736  24.551  1.00  0.00     0.202 C 
BRANCH  28  29
ATOM     29  C   UNL A   1      38.155  19.872  24.979  1.00  0.00     0.261 C 
BRANCH  29  30
ATOM     30  O   UNL A   1      38.683  20.058  26.290  1.00  0.00    -0.460 OA
BRANCH  30  31
ATOM     31  C   UNL A   1      40.025  20.254  26.343  1.00  0.00     0.338 C 
ATOM     32  O   UNL A   1      40.892  19.527  25.889  1.00  0.00    -0.246 OA
BRANCH  31  33
ATOM     33  C   UNL A   1      40.293  21.596  26.884  1.00  0.00     0.060 A 
ATOM     34  C   UNL A   1      39.635  22.691  26.308  1.00  0.00     0.016 A 
ATOM     35  C   UNL A   1      41.224  21.780  27.907  1.00  0.00     0.016 A 
ATOM     36  C   UNL A   1      39.940  23.984  26.727  1.00  0.00     0.010 A 
ATOM     37  C   UNL A   1      41.543  23.078  28.311  1.00  0.00     0.010 A 
ATOM     38  C   UNL A   1      40.933  24.185  27.694  1.00  0.00    -0.014 A 
BRANCH  38  39
ATOM     39  C   UNL A   1      41.473  25.548  27.912  1.00  0.00     0.031 A 
ATOM     40  C   UNL A   1      42.873  25.846  27.443  1.00  0.00     0.074 A 
ATOM     41  C   UNL A   1      40.740  26.506  28.505  1.00  0.00     0.049 A 
ATOM     42  N   UNL A   1      43.565  26.948  27.555  1.00  0.00    -0.248 NA
ATOM     43  C   UNL A   1      43.588  24.754  26.756  1.00  0.00     0.031 C 
ATOM     44  C   UNL A   1      39.368  26.345  28.985  1.00  0.00     0.029 A 
ATOM     45  N   UNL A   1      41.059  27.803  28.824  1.00  0.00    -0.354 N 
ATOM     46  C   UNL A   1      44.801  26.677  26.979  1.00  0.00     0.074 A 
ATOM     47  C   UNL A   1      44.772  25.304  26.529  1.00  0.00     0.031 C 
ATOM     48  C   UNL A   1      38.974  27.491  29.566  1.00  0.00     0.029 A 
ATOM     49  C   UNL A   1      40.069  28.458  29.517  1.00  0.00     0.049 A 
ATOM     50  H   UNL A   1      41.915  28.223  28.579  1.00  0.00     0.167 HD
ATOM     51  C   UNL A   1      45.857  27.506  26.820  1.00  0.00     0.034 A 
ATOM     52  C   UNL A   1      40.058  29.692  30.065  1.00  0.00     0.034 A 
ATOM     53  C   UNL A   1      45.870  28.882  27.232  1.00  0.00     0.049 A 
ATOM     54  C   UNL A   1      41.260  30.586  29.896  1.00  0.00     0.074 A 
ATOM     55  C   UNL A   1      46.877  29.815  27.061  1.00  0.00     0.029 A 
ATOM     56  N   UNL A   1      44.839  29.519  27.900  1.00  0.00    -0.354 N 
ATOM     57  N   UNL A   1      42.376  30.357  29.246  1.00  0.00    -0.248 NA
ATOM     58  C   UNL A   1      41.194  31.922  30.509  1.00  0.00     0.031 C 
ATOM     59  C   UNL A   1      46.466  31.010  27.654  1.00  0.00     0.029 A 
ATOM     60  C   UNL A   1      45.191  30.831  28.165  1.00  0.00     0.049 A 
ATOM     61  H   UNL A   1      43.982  29.103  28.149  1.00  0.00     0.167 HD
ATOM     62  C   UNL A   1      43.127  31.524  29.344  1.00  0.00     0.074 A 
ATOM     63  C   UNL A   1      42.332  32.469  30.100  1.00  0.00     0.031 C 
ATOM     64  C   UNL A   1      44.368  31.782  28.866  1.00  0.00     0.034 A 
BRANCH  51  65
ATOM     65  C   UNL A   1      47.085  26.974  26.134  1.00  0.00     0.023 A 
ATOM     66  C   UNL A   1      47.265  27.205  24.756  1.00  0.00     0.012 A 
ATOM     67  C   UNL A   1      48.112  26.357  26.876  1.00  0.00     0.148 A 
ATOM     68  C   UNL A   1      48.446  26.823  24.123  1.00  0.00     0.002 A 
ATOM     69  C   UNL A   1      49.303  26.021  26.247  1.00  0.00     0.091 A 
ATOM     70  F   UNL A   1      47.908  26.132  28.181  1.00  0.00    -0.205 F 
ATOM     71  C   UNL A   1      49.470  26.245  24.871  1.00  0.00     0.022 A 
BRANCH  69  72
ATOM     72  S   UNL A   1      50.715  25.352  27.134  1.00  0.00     0.127 S 
ATOM     73  O   UNL A   1      51.091  26.480  27.986  1.00  0.00    -0.237 OA
ATOM     74  O   UNL A   1      50.120  24.222  27.847  1.00  0.00    -0.237 OA
ATOM     75  O   UNL A   1      51.697  24.989  26.121  1.00  0.00    -0.744 OA
ENDBRANCH  69  72
ENDBRANCH  51  65
BRANCH  52  76
ATOM     76  C   UNL A   1      38.850  30.166  30.800  1.00  0.00     0.023 A 
ATOM     77  C   UNL A   1      38.726  29.903  32.178  1.00  0.00     0.012 A 
ATOM     78  C   UNL A   1      37.834  30.893  30.146  1.00  0.00     0.148 A 
ATOM     79  C   UNL A   1      37.602  30.332  32.885  1.00  0.00     0.002 A 
ATOM     80  C   UNL A   1      36.745  31.364  30.869  1.00  0.00     0.091 A 
ATOM     81  F   UNL A   1      37.958  31.113  28.829  1.00  0.00    -0.205 F 
ATOM     82  C   UNL A   1      36.618  31.071  32.235  1.00  0.00     0.022 A 
BRANCH  80  83
ATOM     83  S   UNL A   1      35.489  32.425  30.142  1.00  0.00     0.127 S 
ATOM     84  O   UNL A   1      35.163  31.705  28.914  1.00  0.00    -0.237 OA
ATOM     85  O   UNL A   1      34.445  32.401  31.166  1.00  0.00    -0.237 OA
ATOM     86  O   UNL A   1      36.126  33.723  29.962  1.00  0.00    -0.744 OA
ENDBRANCH  80  83
ENDBRANCH  52  76
BRANCH  64  87
ATOM     87  C   UNL A   1      44.965  33.146  29.110  1.00  0.00     0.023 A 
ATOM     88  C   UNL A   1      45.634  33.403  30.322  1.00  0.00     0.012 A 
ATOM     89  C   UNL A   1      44.992  34.113  28.085  1.00  0.00     0.148 A 
ATOM     90  C   UNL A   1      46.309  34.607  30.516  1.00  0.00     0.002 A 
ATOM     91  C   UNL A   1      45.709  35.289  28.266  1.00  0.00     0.091 A 
ATOM     92  F   UNL A   1      44.341  33.850  26.942  1.00  0.00    -0.205 F 
ATOM     93  C   UNL A   1      46.360  35.542  29.484  1.00  0.00     0.022 A 
BRANCH  91  94
ATOM     94  S   UNL A   1      45.924  36.505  26.959  1.00  0.00     0.127 S 
ATOM     95  O   UNL A   1      46.098  35.652  25.785  1.00  0.00    -0.237 OA
ATOM     96  O   UNL A   1      44.655  37.232  27.002  1.00  0.00    -0.237 OA
ATOM     97  O   UNL A   1      47.090  37.295  27.329  1.00  0.00    -0.744 OA
ENDBRANCH  91  94
ENDBRANCH  64  87
ENDBRANCH  38  39
ENDBRANCH  31  33
ENDBRANCH  30  31
ENDBRANCH  29  30
ENDBRANCH  28  29
ENDBRANCH  27  28
ENDBRANCH  26  27
ENDBRANCH   1  26
TORSDOF 23
ENDMDL
MODEL 2
REMARK VINA RESULT:     -10.2      4.919     10.481
REMARK SMILES CC[C@@H]1CCCN(S(=O)(=O)c2cc(C(=O)OCCOCCOCCOC(=O)c3ccc(-c4c5nc(c(-c6cccc(S(=O)(=O)[O-])c6F)c6ccc([nH]6)c(-c6cccc(S(=O)(=O)[O-])c6F)c6nc(c(-c7cccc(S(=O)(=O)[O-])c7F)c7ccc4[nH]7)C=C6)C=C5)cc3)ccc2F)C1
REMARK SMILES IDX 20 1 19 2 18 3 17 4 16 5 14 6 15 7 13 8 11 9 12 10 93 11
REMARK SMILES IDX 92 12 94 13 91 14 8 15 9 16 10 17 7 18 3 19 4 20 95 21 5 22
REMARK SMILES IDX 6 23 2 24 1 25 21 26 22 27 23 28 24 29 25 30 26 31 27 32
REMARK SMILES IDX 28 33 29 34 90 35 30 36 89 37 31 38 32 39 33 40 83 41 34 42
REMARK SMILES IDX 88 43 82 44 84 45 35 46 87 47 81 48 80 49 36 51 68 52 48 53
REMARK SMILES IDX 67 54 49 55 52 56 66 57 85 58 50 59 51 60 65 62 86 63 53 64
REMARK SMILES IDX 37 65 38 66 46 67 39 68 41 69 47 70 40 71 42 72 43 73 44 74
REMARK SMILES IDX 45 75 69 76 70 77 78 78 71 79 73 80 79 81 72 82 74 83 75 84
REMARK SMILES IDX 76 85 77 86 54 87 55 88 63 89 56 90 58 91 64 92 57 93 59 94
REMARK SMILES IDX 60 95 61 96 62 97
REMARK H PARENT 84 50 52 61
REMARK Flexibility Score: inf
ROOT
ATOM      1  C   UNL A   1      32.813  36.678  31.745  1.00  0.00     0.188 C 
ENDROOT
BRANCH   1   2
ATOM      2  O   UNL A   1      33.002  36.653  30.344  1.00  0.00    -0.376 OA
BRANCH   2   3
ATOM      3  C   UNL A   1      32.928  35.431  29.628  1.00  0.00     0.202 C 
BRANCH   3   4
ATOM      4  C   UNL A   1      33.774  35.148  28.379  1.00  0.00     0.261 C 
BRANCH   4   5
ATOM      5  O   UNL A   1      33.851  33.769  27.994  1.00  0.00    -0.460 OA
BRANCH   5   6
ATOM      6  C   UNL A   1      35.093  33.214  28.065  1.00  0.00     0.338 C 
ATOM      7  O   UNL A   1      36.123  33.750  28.381  1.00  0.00    -0.246 OA
BRANCH   6   8
ATOM      8  C   UNL A   1      34.974  31.752  27.831  1.00  0.00     0.061 A 
ATOM      9  C   UNL A   1      33.683  29.903  26.952  1.00  0.00     0.119 A 
ATOM     10  C   UNL A   1      33.788  31.264  27.263  1.00  0.00     0.040 A 
ATOM     11  C   UNL A   1      34.755  29.050  27.201  1.00  0.00     0.143 A 
ATOM     12  C   UNL A   1      35.924  29.531  27.790  1.00  0.00     0.041 A 
ATOM     13  F   UNL A   1      34.692  27.742  26.918  1.00  0.00    -0.206 F 
ATOM     14  C   UNL A   1      36.040  30.886  28.103  1.00  0.00     0.019 A 
BRANCH   9  15
ATOM     15  S   UNL A   1      32.268  29.302  26.075  1.00  0.00     0.246 S 
ATOM     16  O   UNL A   1      31.580  30.435  25.496  1.00  0.00    -0.207 OA
ATOM     17  O   UNL A   1      31.570  28.410  26.975  1.00  0.00    -0.207 OA
BRANCH  15  18
ATOM     18  N   UNL A   1      32.915  28.346  24.782  1.00  0.00    -0.197 NA
ATOM     19  C   UNL A   1      32.607  26.220  23.433  1.00  0.00     0.004 C 
ATOM     20  C   UNL A   1      32.889  27.034  22.165  1.00  0.00     0.006 C 
ATOM     21  C   UNL A   1      32.053  27.127  24.550  1.00  0.00     0.106 C 
ATOM     22  C   UNL A   1      33.773  28.231  22.465  1.00  0.00     0.017 C 
ATOM     23  C   UNL A   1      33.129  29.112  23.523  1.00  0.00     0.102 C 
BRANCH  19  24
ATOM     24  C   UNL A   1      33.854  25.429  23.884  1.00  0.00     0.001 C 
ATOM     25  C   UNL A   1      34.004  24.123  23.111  1.00  0.00     0.004 C 
ENDBRANCH  19  24
ENDBRANCH  15  18
ENDBRANCH   9  15
ENDBRANCH   6   8
ENDBRANCH   5   6
ENDBRANCH   4   5
ENDBRANCH   3   4
ENDBRANCH   2   3
ENDBRANCH   1   2
BRANCH   1  26
ATOM     26  C   UNL A   1      33.863  37.348  32.651  1.00  0.00     0.188 C 
BRANCH  26  27
ATOM     27  O   UNL A   1      34.556  36.570  33.601  1.00  0.00    -0.376 OA
BRANCH  27  28
ATOM     28  C   UNL A   1      34.532  35.154  33.536  1.00  0.00     0.202 C 
BRANCH  28  29
ATOM     29  C   UNL A   1      35.731  34.233  33.240  1.00  0.00     0.261 C 
BRANCH  29  30
ATOM     30  O   UNL A   1      35.523  32.823  33.286  1.00  0.00    -0.460 OA
BRANCH  30  31
ATOM     31  C   UNL A   1      35.375  32.227  32.076  1.00  0.00     0.338 C 
ATOM     32  O   UNL A   1      34.456  32.379  31.289  1.00  0.00    -0.246 OA
BRANCH  31  33
ATOM     33  C   UNL A   1      36.604  31.484  31.754  1.00  0.00     0.060 A 
ATOM     34  C   UNL A   1      36.778  30.209  32.308  1.00  0.00     0.016 A 
ATOM     35  C   UNL A   1      37.599  32.062  30.964  1.00  0.00     0.016 A 
ATOM     36  C   UNL A   1      37.972  29.520  32.106  1.00  0.00     0.010 A 
ATOM     37  C   UNL A   1      38.803  31.378  30.781  1.00  0.00     0.010 A 
ATOM     38  C   UNL A   1      39.009  30.125  31.385  1.00  0.00    -0.014 A 
BRANCH  38  39
ATOM     39  C   UNL A   1      40.370  29.538  31.433  1.00  0.00     0.031 A 
ATOM     40  C   UNL A   1      41.343  30.074  32.449  1.00  0.00     0.074 A 
ATOM     41  C   UNL A   1      40.735  28.547  30.602  1.00  0.00     0.049 A 
ATOM     42  N   UNL A   1      42.590  29.743  32.655  1.00  0.00    -0.248 NA
ATOM     43  C   UNL A   1      40.844  31.125  33.356  1.00  0.00     0.031 C 
ATOM     44  C   UNL A   1      39.878  27.933  29.591  1.00  0.00     0.029 A 
ATOM     45  N   UNL A   1      41.937  27.897  30.466  1.00  0.00    -0.354 N 
ATOM     46  C   UNL A   1      43.031  30.558  33.691  1.00  0.00     0.074 A 
ATOM     47  C   UNL A   1      41.926  31.410  34.066  1.00  0.00     0.031 C 
ATOM     48  C   UNL A   1      40.591  27.015  28.915  1.00  0.00     0.029 A 
ATOM     49  C   UNL A   1      41.958  26.991  29.433  1.00  0.00     0.049 A 
ATOM     50  H   UNL A   1      42.710  28.064  31.053  1.00  0.00     0.167 HD
ATOM     51  C   UNL A   1      44.244  30.578  34.289  1.00  0.00     0.034 A 
ATOM     52  C   UNL A   1      42.972  26.242  28.949  1.00  0.00     0.034 A 
ATOM     53  C   UNL A   1      45.328  29.704  33.942  1.00  0.00     0.049 A 
ATOM     54  C   UNL A   1      44.322  26.304  29.619  1.00  0.00     0.074 A 
ATOM     55  C   UNL A   1      46.576  29.614  34.533  1.00  0.00     0.029 A 
ATOM     56  N   UNL A   1      45.302  28.778  32.913  1.00  0.00    -0.354 N 
ATOM     57  N   UNL A   1      44.690  26.994  30.673  1.00  0.00    -0.248 NA
ATOM     58  C   UNL A   1      45.390  25.465  29.055  1.00  0.00     0.031 C 
ATOM     59  C   UNL A   1      47.316  28.655  33.841  1.00  0.00     0.029 A 
ATOM     60  C   UNL A   1      46.519  28.122  32.840  1.00  0.00     0.049 A 
ATOM     61  H   UNL A   1      44.533  28.609  32.323  1.00  0.00     0.167 HD
ATOM     62  C   UNL A   1      46.015  26.648  30.916  1.00  0.00     0.074 A 
ATOM     63  C   UNL A   1      46.383  25.673  29.912  1.00  0.00     0.031 C 
ATOM     64  C   UNL A   1      46.855  27.109  31.874  1.00  0.00     0.034 A 
BRANCH  51  65
ATOM     65  C   UNL A   1      44.465  31.547  35.418  1.00  0.00     0.023 A 
ATOM     66  C   UNL A   1      44.926  32.848  35.136  1.00  0.00     0.012 A 
ATOM     67  C   UNL A   1      44.099  31.210  36.736  1.00  0.00     0.148 A 
ATOM     68  C   UNL A   1      45.028  33.798  36.150  1.00  0.00     0.002 A 
ATOM     69  C   UNL A   1      44.161  32.175  37.733  1.00  0.00     0.091 A 
ATOM     70  F   UNL A   1      43.681  29.960  36.982  1.00  0.00    -0.205 F 
ATOM     71  C   UNL A   1      44.632  33.466  37.444  1.00  0.00     0.022 A 
BRANCH  69  72
ATOM     72  S   UNL A   1      43.594  31.878  39.411  1.00  0.00     0.127 S 
ATOM     73  O   UNL A   1      44.056  33.084  40.098  1.00  0.00    -0.237 OA
ATOM     74  O   UNL A   1      42.144  31.796  39.233  1.00  0.00    -0.237 OA
ATOM     75  O   UNL A   1      44.229  30.641  39.842  1.00  0.00    -0.744 OA
ENDBRANCH  69  72
ENDBRANCH  51  65
BRANCH  52  76
ATOM     76  C   UNL A   1      42.739  25.341  27.784  1.00  0.00     0.023 A 
ATOM     77  C   UNL A   1      43.013  25.803  26.482  1.00  0.00     0.012 A 
ATOM     78  C   UNL A   1      42.266  24.025  27.959  1.00  0.00     0.148 A 
ATOM     79  C   UNL A   1      42.797  24.981  25.376  1.00  0.00     0.002 A 
ATOM     80  C   UNL A   1      42.105  23.194  26.857  1.00  0.00     0.091 A 
ATOM     81  F   UNL A   1      41.987  23.611  29.204  1.00  0.00    -0.205 F 
ATOM     82  C   UNL A   1      42.355  23.674  25.563  1.00  0.00     0.022 A 
BRANCH  80  83
ATOM     83  S   UNL A   1      41.656  21.460  27.012  1.00  0.00     0.127 S 
ATOM     84  O   UNL A   1      40.262  21.550  27.440  1.00  0.00    -0.237 OA
ATOM     85  O   UNL A   1      41.849  20.976  25.645  1.00  0.00    -0.237 OA
ATOM     86  O   UNL A   1      42.581  20.898  27.987  1.00  0.00    -0.744 OA
ENDBRANCH  80  83
ENDBRANCH  52  76
BRANCH  64  87
ATOM     87  C   UNL A   1      48.261  26.566  31.922  1.00  0.00     0.023 A 
ATOM     88  C   UNL A   1      49.303  27.280  31.301  1.00  0.00     0.012 A 
ATOM     89  C   UNL A   1      48.568  25.435  32.707  1.00  0.00     0.148 A 
ATOM     90  C   UNL A   1      50.627  26.869  31.447  1.00  0.00     0.002 A 
ATOM     91  C   UNL A   1      49.894  25.061  32.889  1.00  0.00     0.091 A 
ATOM     92  F   UNL A   1      47.558  24.765  33.283  1.00  0.00    -0.205 F 
ATOM     93  C   UNL A   1      50.924  25.772  32.252  1.00  0.00     0.022 A 
BRANCH  91  94
ATOM     94  S   UNL A   1      50.383  23.730  33.992  1.00  0.00     0.127 S 
ATOM     95  O   UNL A   1      49.451  23.907  35.104  1.00  0.00    -0.237 OA
ATOM     96  O   UNL A   1      50.136  22.543  33.174  1.00  0.00    -0.237 OA
ATOM     97  O   UNL A   1      51.784  23.965  34.315  1.00  0.00    -0.744 OA
ENDBRANCH  91  94
ENDBRANCH  64  87
ENDBRANCH  38  39
ENDBRANCH  31  33
ENDBRANCH  30  31
ENDBRANCH  29  30
ENDBRANCH  28  29
ENDBRANCH  27  28
ENDBRANCH  26  27
ENDBRANCH   1  26
TORSDOF 23
ENDMDL
MODEL 3
REMARK VINA RESULT:      -9.7      5.615     10.798
REMARK SMILES CC[C@@H]1CCCN(S(=O)(=O)c2cc(C(=O)OCCOCCOCCOC(=O)c3ccc(-c4c5nc(c(-c6cccc(S(=O)(=O)[O-])c6F)c6ccc([nH]6)c(-c6cccc(S(=O)(=O)[O-])c6F)c6nc(c(-c7cccc(S(=O)(=O)[O-])c7F)c7ccc4[nH]7)C=C6)C=C5)cc3)ccc2F)C1
REMARK SMILES IDX 20 1 19 2 18 3 17 4 16 5 14 6 15 7 13 8 11 9 12 10 93 11
REMARK SMILES IDX 92 12 94 13 91 14 8 15 9 16 10 17 7 18 3 19 4 20 95 21 5 22
REMARK SMILES IDX 6 23 2 24 1 25 21 26 22 27 23 28 24 29 25 30 26 31 27 32
REMARK SMILES IDX 28 33 29 34 90 35 30 36 89 37 31 38 32 39 33 40 83 41 34 42
REMARK SMILES IDX 88 43 82 44 84 45 35 46 87 47 81 48 80 49 36 51 68 52 48 53
REMARK SMILES IDX 67 54 49 55 52 56 66 57 85 58 50 59 51 60 65 62 86 63 53 64
REMARK SMILES IDX 37 65 38 66 46 67 39 68 41 69 47 70 40 71 42 72 43 73 44 74
REMARK SMILES IDX 45 75 69 76 70 77 78 78 71 79 73 80 79 81 72 82 74 83 75 84
REMARK SMILES IDX 76 85 77 86 54 87 55 88 63 89 56 90 58 91 64 92 57 93 59 94
REMARK SMILES IDX 60 95 61 96 62 97
REMARK H PARENT 84 50 52 61
REMARK Flexibility Score: inf
ROOT
ATOM      1  C   UNL A   1      34.470  31.673  28.234  1.00  0.00     0.188 C 
ENDROOT
BRANCH   1   2
ATOM      2  O   UNL A   1      33.976  31.364  26.946  1.00  0.00    -0.376 OA
BRANCH   2   3
ATOM      3  C   UNL A   1      33.235  30.175  26.726  1.00  0.00     0.202 C 
BRANCH   3   4
ATOM      4  C   UNL A   1      33.820  28.775  26.959  1.00  0.00     0.261 C 
BRANCH   4   5
ATOM      5  O   UNL A   1      34.386  28.149  25.801  1.00  0.00    -0.460 OA
BRANCH   5   6
ATOM      6  C   UNL A   1      33.697  28.341  24.641  1.00  0.00     0.338 C 
ATOM      7  O   UNL A   1      34.052  28.952  23.666  1.00  0.00    -0.246 OA
BRANCH   6   8
ATOM      8  C   UNL A   1      32.452  27.533  24.688  1.00  0.00     0.061 A 
ATOM      9  C   UNL A   1      31.379  25.428  25.214  1.00  0.00     0.119 A 
ATOM     10  C   UNL A   1      32.547  26.189  25.076  1.00  0.00     0.040 A 
ATOM     11  C   UNL A   1      30.139  26.012  24.972  1.00  0.00     0.143 A 
ATOM     12  C   UNL A   1      30.048  27.341  24.561  1.00  0.00     0.041 A 
ATOM     13  F   UNL A   1      29.000  25.316  25.091  1.00  0.00    -0.206 F 
ATOM     14  C   UNL A   1      31.204  28.109  24.422  1.00  0.00     0.019 A 
BRANCH   9  15
ATOM     15  S   UNL A   1      31.464  23.788  25.872  1.00  0.00     0.246 S 
ATOM     16  O   UNL A   1      30.551  22.952  25.125  1.00  0.00    -0.207 OA
ATOM     17  O   UNL A   1      31.329  23.909  27.308  1.00  0.00    -0.207 OA
BRANCH  15  18
ATOM     18  N   UNL A   1      33.080  23.254  25.538  1.00  0.00    -0.197 NA
ATOM     19  C   UNL A   1      35.374  22.863  26.547  1.00  0.00     0.004 C 
ATOM     20  C   UNL A   1      35.424  21.521  25.806  1.00  0.00     0.006 C 
ATOM     21  C   UNL A   1      33.914  23.292  26.797  1.00  0.00     0.106 C 
ATOM     22  C   UNL A   1      34.580  21.557  24.545  1.00  0.00     0.017 C 
ATOM     23  C   UNL A   1      33.142  21.919  24.881  1.00  0.00     0.102 C 
BRANCH  19  24
ATOM     24  C   UNL A   1      36.186  23.947  25.804  1.00  0.00     0.001 C 
ATOM     25  C   UNL A   1      37.673  23.613  25.768  1.00  0.00     0.004 C 
ENDBRANCH  19  24
ENDBRANCH  15  18
ENDBRANCH   9  15
ENDBRANCH   6   8
ENDBRANCH   5   6
ENDBRANCH   4   5
ENDBRANCH   3   4
ENDBRANCH   2   3
ENDBRANCH   1   2
BRANCH   1  26
ATOM     26  C   UNL A   1      35.097  33.055  28.506  1.00  0.00     0.188 C 
BRANCH  26  27
ATOM     27  O   UNL A   1      34.505  34.206  27.948  1.00  0.00    -0.376 OA
BRANCH  27  28
ATOM     28  C   UNL A   1      33.258  34.684  28.422  1.00  0.00     0.202 C 
BRANCH  28  29
ATOM     29  C   UNL A   1      33.040  35.664  29.592  1.00  0.00     0.261 C 
BRANCH  29  30
ATOM     30  O   UNL A   1      32.537  35.142  30.821  1.00  0.00    -0.460 OA
BRANCH  30  31
ATOM     31  C   UNL A   1      33.309  35.397  31.907  1.00  0.00     0.338 C 
ATOM     32  O   UNL A   1      33.034  36.116  32.852  1.00  0.00    -0.246 OA
BRANCH  31  33
ATOM     33  C   UNL A   1      34.489  34.517  31.874  1.00  0.00     0.060 A 
ATOM     34  C   UNL A   1      34.319  33.161  32.181  1.00  0.00     0.016 A 
ATOM     35  C   UNL A   1      35.756  35.035  31.600  1.00  0.00     0.016 A 
ATOM     36  C   UNL A   1      35.428  32.321  32.257  1.00  0.00     0.010 A 
ATOM     37  C   UNL A   1      36.868  34.196  31.697  1.00  0.00     0.010 A 
ATOM     38  C   UNL A   1      36.712  32.847  32.066  1.00  0.00    -0.014 A 
BRANCH  38  39
ATOM     39  C   UNL A   1      37.895  32.040  32.449  1.00  0.00     0.031 A 
ATOM     40  C   UNL A   1      38.578  32.348  33.755  1.00  0.00     0.074 A 
ATOM     41  C   UNL A   1      38.352  31.050  31.663  1.00  0.00     0.049 A 
ATOM     42  N   UNL A   1      39.642  31.803  34.280  1.00  0.00    -0.248 NA
ATOM     43  C   UNL A   1      37.980  33.414  34.581  1.00  0.00     0.031 C 
ATOM     44  C   UNL A   1      37.766  30.646  30.386  1.00  0.00     0.029 A 
ATOM     45  N   UNL A   1      39.433  30.218  31.817  1.00  0.00    -0.354 N 
ATOM     46  C   UNL A   1      39.857  32.473  35.479  1.00  0.00     0.074 A 
ATOM     47  C   UNL A   1      38.823  33.475  35.601  1.00  0.00     0.031 C 
ATOM     48  C   UNL A   1      38.513  29.662  29.857  1.00  0.00     0.029 A 
ATOM     49  C   UNL A   1      39.640  29.381  30.746  1.00  0.00     0.049 A 
ATOM     50  H   UNL A   1      40.006  30.221  32.618  1.00  0.00     0.167 HD
ATOM     51  C   UNL A   1      40.819  32.257  36.405  1.00  0.00     0.034 A 
ATOM     52  C   UNL A   1      40.636  28.502  30.505  1.00  0.00     0.034 A 
ATOM     53  C   UNL A   1      41.822  31.235  36.301  1.00  0.00     0.049 A 
ATOM     54  C   UNL A   1      41.711  28.301  31.543  1.00  0.00     0.074 A 
ATOM     55  C   UNL A   1      42.804  30.906  37.218  1.00  0.00     0.029 A 
ATOM     56  N   UNL A   1      41.981  30.386  35.218  1.00  0.00    -0.354 N 
ATOM     57  N   UNL A   1      41.834  28.859  32.724  1.00  0.00    -0.248 NA
ATOM     58  C   UNL A   1      42.771  27.329  31.232  1.00  0.00     0.031 C 
ATOM     59  C   UNL A   1      43.577  29.877  36.676  1.00  0.00     0.029 A 
ATOM     60  C   UNL A   1      43.055  29.543  35.437  1.00  0.00     0.049 A 
ATOM     61  H   UNL A   1      41.412  30.382  34.415  1.00  0.00     0.167 HD
ATOM     62  C   UNL A   1      42.959  28.284  33.307  1.00  0.00     0.074 A 
ATOM     63  C   UNL A   1      43.474  27.319  32.358  1.00  0.00     0.031 C 
ATOM     64  C   UNL A   1      43.524  28.544  34.511  1.00  0.00     0.034 A 
BRANCH  51  65
ATOM     65  C   UNL A   1      40.821  33.110  37.643  1.00  0.00     0.023 A 
ATOM     66  C   UNL A   1      40.148  32.660  38.797  1.00  0.00     0.012 A 
ATOM     67  C   UNL A   1      41.589  34.290  37.702  1.00  0.00     0.148 A 
ATOM     68  C   UNL A   1      40.231  33.376  39.989  1.00  0.00     0.002 A 
ATOM     69  C   UNL A   1      41.704  34.973  38.906  1.00  0.00     0.091 A 
ATOM     70  F   UNL A   1      42.204  34.706  36.587  1.00  0.00    -0.205 F 
ATOM     71  C   UNL A   1      41.021  34.523  40.047  1.00  0.00     0.022 A 
BRANCH  69  72
ATOM     72  S   UNL A   1      42.763  36.410  39.111  1.00  0.00     0.127 S 
ATOM     73  O   UNL A   1      43.957  36.006  38.368  1.00  0.00    -0.237 OA
ATOM     74  O   UNL A   1      41.975  37.463  38.470  1.00  0.00    -0.237 OA
ATOM     75  O   UNL A   1      42.953  36.573  40.545  1.00  0.00    -0.744 OA
ENDBRANCH  69  72
ENDBRANCH  51  65
BRANCH  52  76
ATOM     76  C   UNL A   1      40.644  27.720  29.235  1.00  0.00     0.023 A 
ATOM     77  C   UNL A   1      39.722  26.671  29.059  1.00  0.00     0.012 A 
ATOM     78  C   UNL A   1      41.546  28.023  28.195  1.00  0.00     0.148 A 
ATOM     79  C   UNL A   1      39.713  25.921  27.883  1.00  0.00     0.002 A 
ATOM     80  C   UNL A   1      41.495  27.307  27.005  1.00  0.00     0.091 A 
ATOM     81  F   UNL A   1      42.433  29.009  28.390  1.00  0.00    -0.205 F 
ATOM     82  C   UNL A   1      40.591  26.245  26.852  1.00  0.00     0.022 A 
BRANCH  80  83
ATOM     83  S   UNL A   1      42.504  27.732  25.579  1.00  0.00     0.127 S 
ATOM     84  O   UNL A   1      43.836  27.822  26.171  1.00  0.00    -0.237 OA
ATOM     85  O   UNL A   1      42.296  26.575  24.707  1.00  0.00    -0.237 OA
ATOM     86  O   UNL A   1      41.955  28.979  25.065  1.00  0.00    -0.744 OA
ENDBRANCH  80  83
ENDBRANCH  52  76
BRANCH  64  87
ATOM     87  C   UNL A   1      44.756  27.772  34.911  1.00  0.00     0.023 A 
ATOM     88  C   UNL A   1      46.027  28.346  34.721  1.00  0.00     0.012 A 
ATOM     89  C   UNL A   1      44.644  26.551  35.608  1.00  0.00     0.148 A 
ATOM     90  C   UNL A   1      47.170  27.711  35.206  1.00  0.00     0.002 A 
ATOM     91  C   UNL A   1      45.782  25.950  36.132  1.00  0.00     0.091 A 
ATOM     92  F   UNL A   1      43.423  26.018  35.770  1.00  0.00    -0.205 F 
ATOM     93  C   UNL A   1      47.046  26.524  35.924  1.00  0.00     0.022 A 
BRANCH  91  94
ATOM     94  S   UNL A   1      45.714  24.478  37.162  1.00  0.00     0.127 S 
ATOM     95  O   UNL A   1      47.081  24.414  37.678  1.00  0.00    -0.237 OA
ATOM     96  O   UNL A   1      44.704  24.842  38.155  1.00  0.00    -0.237 OA
ATOM     97  O   UNL A   1      45.333  23.384  36.280  1.00  0.00    -0.744 OA
ENDBRANCH  91  94
ENDBRANCH  64  87
ENDBRANCH  38  39
ENDBRANCH  31  33
ENDBRANCH  30  31
ENDBRANCH  29  30
ENDBRANCH  28  29
ENDBRANCH  27  28
ENDBRANCH  26  27
ENDBRANCH   1  26
TORSDOF 23
ENDMDL
