MODEL 1
REMARK VINA RESULT:     -11.4      0.000      0.000
REMARK SMILES CC(C)(O)C#Cc1ccc(C(=O)N[C@@H](CC2=c3ccccc3=NC2)C(=O)OCCOCCOCCOC(=O)c2ccc(-c3c4nc(c(-c5cccc(S(=O)(=O)[O-])c5F)c5ccc([nH]5)c(-c5cccc(S(=O)(=O)[O-])c5F)c5nc(c(-c6cccc(S(=O)(=O)[O-])c6F)c6ccc3[nH]6)C=C5)C=C4)cc2)s1
REMARK SMILES IDX 31 1 30 2 29 3 28 4 27 5 25 6 26 7 14 8 13 9 11 10 12 11
REMARK SMILES IDX 10 13 7 14 8 15 102 16 9 17 6 18 5 19 2 20 1 21 3 22 4 23
REMARK SMILES IDX 15 25 16 26 17 27 24 28 18 29 22 30 23 31 19 32 21 33 20 34
REMARK SMILES IDX 32 35 33 36 34 37 35 38 36 39 37 40 38 41 39 42 40 43 101 44
REMARK SMILES IDX 41 45 100 46 42 47 43 48 44 49 94 50 45 51 99 52 93 53 95 54
REMARK SMILES IDX 46 55 98 56 92 57 91 58 47 60 79 61 59 62 78 63 60 64 63 65
REMARK SMILES IDX 77 66 96 67 61 68 62 69 76 71 97 72 64 73 48 74 49 75 57 76
REMARK SMILES IDX 50 77 52 78 58 79 51 80 53 81 54 82 55 83 56 84 80 85 81 86
REMARK SMILES IDX 89 87 82 88 84 89 90 90 83 91 85 92 86 93 87 94 88 95 65 96
REMARK SMILES IDX 66 97 74 98 67 99 69 100 75 101 68 102 70 103 71 104 72 105
REMARK SMILES IDX 73 106
REMARK H PARENT 13 12 4 24 95 59 63 70
REMARK Flexibility Score: inf
ROOT
ATOM      1  C   UNL A   1      36.309  22.980  25.708  1.00  0.00     0.188 C 
ENDROOT
BRANCH   1   2
ATOM      2  O   UNL A   1      35.185  22.248  26.127  1.00  0.00    -0.376 OA
BRANCH   2   3
ATOM      3  C   UNL A   1      34.777  22.417  27.459  1.00  0.00     0.202 C 
BRANCH   3   4
ATOM      4  C   UNL A   1      33.294  22.440  27.877  1.00  0.00     0.261 C 
BRANCH   4   5
ATOM      5  O   UNL A   1      32.498  23.649  27.672  1.00  0.00    -0.462 OA
BRANCH   5   6
ATOM      6  C   UNL A   1      31.579  23.534  26.680  1.00  0.00     0.329 C 
ATOM      7  O   UNL A   1      30.401  23.761  26.970  1.00  0.00    -0.250 OA
BRANCH   6   8
ATOM      8  C   UNL A   1      31.968  23.002  25.189  1.00  0.00     0.196 C 
BRANCH   8   9
ATOM      9  N   UNL A   1      33.141  23.263  24.296  1.00  0.00    -0.338 N 
ATOM     10  C   UNL A   1      33.572  24.321  23.437  1.00  0.00     0.262 C 
ATOM     11  O   UNL A   1      34.546  23.957  22.755  1.00  0.00    -0.268 OA
ATOM     12  H   UNL A   1      33.780  22.515  24.304  1.00  0.00     0.164 HD
BRANCH  10  13
ATOM     13  C   UNL A   1      33.232  25.791  23.471  1.00  0.00     0.093 A 
ATOM     14  C   UNL A   1      31.787  27.851  23.189  1.00  0.00     0.078 A 
ATOM     15  C   UNL A   1      32.525  27.911  24.367  1.00  0.00     0.030 A 
ATOM     16  S   UNL A   1      32.920  26.893  22.209  1.00  0.00    -0.121 S 
ATOM     17  C   UNL A   1      33.320  26.681  24.558  1.00  0.00     0.027 A 
BRANCH  14  18
ATOM     18  C   UNL A   1      30.486  28.563  22.727  1.00  0.00    -0.053 C 
ATOM     19  C   UNL A   1      29.643  29.545  22.566  1.00  0.00    -0.063 C 
BRANCH  19  20
ATOM     20  C   UNL A   1      28.660  30.690  22.378  1.00  0.00     0.120 C 
ATOM     21  C   UNL A   1      27.664  31.648  23.143  1.00  0.00     0.056 C 
ATOM     22  C   UNL A   1      27.893  31.080  20.982  1.00  0.00     0.056 C 
BRANCH  20  23
ATOM     23  O   UNL A   1      29.745  31.647  22.110  1.00  0.00    -0.378 OA
ATOM     24  H   UNL A   1      30.492  31.182  21.703  1.00  0.00     0.212 HD
ENDBRANCH  20  23
ENDBRANCH  19  20
ENDBRANCH  14  18
ENDBRANCH  10  13
ENDBRANCH   8   9
BRANCH   8  25
ATOM     25  C   UNL A   1      31.682  21.469  25.342  1.00  0.00     0.070 C 
BRANCH  25  26
ATOM     26  C   UNL A   1      32.101  20.681  24.139  1.00  0.00    -0.037 C 
ATOM     27  C   UNL A   1      32.631  19.472  24.204  1.00  0.00     0.001 A 
ATOM     28  C   UNL A   1      31.828  21.066  22.710  1.00  0.00     0.174 C 
ATOM     29  C   UNL A   1      33.069  18.648  25.276  1.00  0.00     0.010 A 
ATOM     30  C   UNL A   1      32.528  19.003  22.821  1.00  0.00     0.065 A 
ATOM     31  N   UNL A   1      32.120  19.839  21.915  1.00  0.00    -0.280 NA
ATOM     32  C   UNL A   1      33.337  17.363  25.013  1.00  0.00     0.001 A 
ATOM     33  C   UNL A   1      32.841  17.576  22.610  1.00  0.00     0.028 A 
ATOM     34  C   UNL A   1      33.198  16.827  23.669  1.00  0.00     0.002 A 
ENDBRANCH  25  26
ENDBRANCH   8  25
ENDBRANCH   6   8
ENDBRANCH   5   6
ENDBRANCH   4   5
ENDBRANCH   3   4
ENDBRANCH   2   3
ENDBRANCH   1   2
BRANCH   1  35
ATOM     35  C   UNL A   1      37.393  22.115  25.034  1.00  0.00     0.188 C 
BRANCH  35  36
ATOM     36  O   UNL A   1      38.260  21.366  25.864  1.00  0.00    -0.376 OA
BRANCH  36  37
ATOM     37  C   UNL A   1      39.562  21.925  26.014  1.00  0.00     0.202 C 
BRANCH  37  38
ATOM     38  C   UNL A   1      39.773  23.010  27.097  1.00  0.00     0.261 C 
BRANCH  38  39
ATOM     39  O   UNL A   1      40.319  24.245  26.589  1.00  0.00    -0.460 OA
BRANCH  39  40
ATOM     40  C   UNL A   1      41.678  24.407  26.691  1.00  0.00     0.338 C 
ATOM     41  O   UNL A   1      42.535  23.724  26.181  1.00  0.00    -0.246 OA
BRANCH  40  42
ATOM     42  C   UNL A   1      41.861  25.805  27.170  1.00  0.00     0.060 A 
ATOM     43  C   UNL A   1      42.674  26.102  28.270  1.00  0.00     0.016 A 
ATOM     44  C   UNL A   1      40.834  26.671  26.812  1.00  0.00     0.016 A 
ATOM     45  C   UNL A   1      42.326  27.158  29.132  1.00  0.00     0.010 A 
ATOM     46  C   UNL A   1      40.466  27.658  27.723  1.00  0.00     0.010 A 
ATOM     47  C   UNL A   1      41.155  27.913  28.919  1.00  0.00    -0.014 A 
BRANCH  47  48
ATOM     48  C   UNL A   1      41.079  29.345  29.342  1.00  0.00     0.031 A 
ATOM     49  C   UNL A   1      42.352  29.817  28.621  1.00  0.00     0.074 A 
ATOM     50  C   UNL A   1      40.086  30.013  30.085  1.00  0.00     0.049 A 
ATOM     51  N   UNL A   1      43.460  29.933  29.290  1.00  0.00    -0.248 NA
ATOM     52  C   UNL A   1      42.652  29.827  27.157  1.00  0.00     0.031 C 
ATOM     53  C   UNL A   1      39.380  29.473  31.241  1.00  0.00     0.029 A 
ATOM     54  N   UNL A   1      39.444  31.290  30.118  1.00  0.00    -0.354 N 
ATOM     55  C   UNL A   1      44.236  30.694  28.457  1.00  0.00     0.074 A 
ATOM     56  C   UNL A   1      43.876  30.363  27.116  1.00  0.00     0.031 C 
ATOM     57  C   UNL A   1      38.347  30.287  31.634  1.00  0.00     0.029 A 
ATOM     58  C   UNL A   1      38.138  31.386  30.708  1.00  0.00     0.049 A 
ATOM     59  H   UNL A   1      39.888  32.087  29.745  1.00  0.00     0.167 HD
ATOM     60  C   UNL A   1      44.677  31.866  28.954  1.00  0.00     0.034 A 
ATOM     61  C   UNL A   1      37.255  32.448  30.951  1.00  0.00     0.034 A 
ATOM     62  C   UNL A   1      44.286  31.906  30.542  1.00  0.00     0.049 A 
ATOM     63  C   UNL A   1      38.147  33.407  31.722  1.00  0.00     0.074 A 
ATOM     64  C   UNL A   1      44.922  31.980  31.780  1.00  0.00     0.029 A 
ATOM     65  N   UNL A   1      42.922  31.737  31.007  1.00  0.00    -0.354 N 
ATOM     66  N   UNL A   1      38.884  33.062  32.742  1.00  0.00    -0.248 NA
ATOM     67  C   UNL A   1      38.690  34.462  30.887  1.00  0.00     0.031 C 
ATOM     68  C   UNL A   1      43.917  32.245  32.812  1.00  0.00     0.029 A 
ATOM     69  C   UNL A   1      42.645  32.308  32.244  1.00  0.00     0.049 A 
ATOM     70  H   UNL A   1      42.242  31.254  30.484  1.00  0.00     0.167 HD
ATOM     71  C   UNL A   1      40.188  33.226  32.247  1.00  0.00     0.074 A 
ATOM     72  C   UNL A   1      39.926  34.011  31.058  1.00  0.00     0.031 C 
ATOM     73  C   UNL A   1      41.270  32.547  32.772  1.00  0.00     0.034 A 
BRANCH  60  74
ATOM     74  C   UNL A   1      44.926  33.130  27.823  1.00  0.00     0.023 A 
ATOM     75  C   UNL A   1      44.116  33.224  26.660  1.00  0.00     0.012 A 
ATOM     76  C   UNL A   1      46.105  33.986  27.751  1.00  0.00     0.148 A 
ATOM     77  C   UNL A   1      44.574  33.827  25.447  1.00  0.00     0.002 A 
ATOM     78  C   UNL A   1      46.561  34.581  26.535  1.00  0.00     0.091 A 
ATOM     79  F   UNL A   1      46.852  34.173  28.843  1.00  0.00    -0.205 F 
ATOM     80  C   UNL A   1      45.815  34.450  25.367  1.00  0.00     0.022 A 
BRANCH  78  81
ATOM     81  S   UNL A   1      48.244  35.273  26.294  1.00  0.00     0.127 S 
ATOM     82  O   UNL A   1      48.200  36.541  27.028  1.00  0.00    -0.237 OA
ATOM     83  O   UNL A   1      49.076  34.255  26.941  1.00  0.00    -0.237 OA
ATOM     84  O   UNL A   1      48.425  35.373  24.853  1.00  0.00    -0.744 OA
ENDBRANCH  78  81
ENDBRANCH  60  74
BRANCH  61  85
ATOM     85  C   UNL A   1      36.165  33.195  30.046  1.00  0.00     0.023 A 
ATOM     86  C   UNL A   1      36.176  33.001  28.626  1.00  0.00     0.012 A 
ATOM     87  C   UNL A   1      35.181  34.121  30.477  1.00  0.00     0.148 A 
ATOM     88  C   UNL A   1      35.242  33.585  27.736  1.00  0.00     0.002 A 
ATOM     89  C   UNL A   1      34.244  34.713  29.589  1.00  0.00     0.091 A 
ATOM     90  F   UNL A   1      35.163  34.465  31.762  1.00  0.00    -0.205 F 
ATOM     91  C   UNL A   1      34.266  34.436  28.221  1.00  0.00     0.022 A 
BRANCH  89  92
ATOM     92  S   UNL A   1      32.980  35.906  30.110  1.00  0.00     0.127 S 
ATOM     93  O   UNL A   1      32.219  35.137  31.097  1.00  0.00    -0.237 OA
ATOM     94  O   UNL A   1      33.784  36.986  30.680  1.00  0.00    -0.237 OA
ATOM     95  O   UNL A   1      32.238  36.239  28.901  1.00  0.00    -0.744 OA
ENDBRANCH  89  92
ENDBRANCH  61  85
BRANCH  73  96
ATOM     96  C   UNL A   1      40.945  32.093  34.160  1.00  0.00     0.023 A 
ATOM     97  C   UNL A   1      40.607  30.752  34.387  1.00  0.00     0.012 A 
ATOM     98  C   UNL A   1      40.873  33.005  35.221  1.00  0.00     0.148 A 
ATOM     99  C   UNL A   1      40.184  30.305  35.629  1.00  0.00     0.002 A 
ATOM    100  C   UNL A   1      40.540  32.540  36.487  1.00  0.00     0.091 A 
ATOM    101  F   UNL A   1      41.138  34.297  34.977  1.00  0.00    -0.205 F 
ATOM    102  C   UNL A   1      40.175  31.196  36.690  1.00  0.00     0.022 A 
BRANCH 100 103
ATOM    103  S   UNL A   1      40.656  33.567  37.947  1.00  0.00     0.127 S 
ATOM    104  O   UNL A   1      41.977  34.178  37.802  1.00  0.00    -0.237 OA
ATOM    105  O   UNL A   1      39.534  34.484  37.743  1.00  0.00    -0.237 OA
ATOM    106  O   UNL A   1      40.519  32.672  39.089  1.00  0.00    -0.744 OA
ENDBRANCH 100 103
ENDBRANCH  73  96
ENDBRANCH  47  48
ENDBRANCH  40  42
ENDBRANCH  39  40
ENDBRANCH  38  39
ENDBRANCH  37  38
ENDBRANCH  36  37
ENDBRANCH  35  36
ENDBRANCH   1  35
TORSDOF 27
ENDMDL
MODEL 2
REMARK VINA RESULT:     -11.1      2.116      2.431
REMARK SMILES CC(C)(O)C#Cc1ccc(C(=O)N[C@@H](CC2=c3ccccc3=NC2)C(=O)OCCOCCOCCOC(=O)c2ccc(-c3c4nc(c(-c5cccc(S(=O)(=O)[O-])c5F)c5ccc([nH]5)c(-c5cccc(S(=O)(=O)[O-])c5F)c5nc(c(-c6cccc(S(=O)(=O)[O-])c6F)c6ccc3[nH]6)C=C5)C=C4)cc2)s1
REMARK SMILES IDX 31 1 30 2 29 3 28 4 27 5 25 6 26 7 14 8 13 9 11 10 12 11
REMARK SMILES IDX 10 13 7 14 8 15 102 16 9 17 6 18 5 19 2 20 1 21 3 22 4 23
REMARK SMILES IDX 15 25 16 26 17 27 24 28 18 29 22 30 23 31 19 32 21 33 20 34
REMARK SMILES IDX 32 35 33 36 34 37 35 38 36 39 37 40 38 41 39 42 40 43 101 44
REMARK SMILES IDX 41 45 100 46 42 47 43 48 44 49 94 50 45 51 99 52 93 53 95 54
REMARK SMILES IDX 46 55 98 56 92 57 91 58 47 60 79 61 59 62 78 63 60 64 63 65
REMARK SMILES IDX 77 66 96 67 61 68 62 69 76 71 97 72 64 73 48 74 49 75 57 76
REMARK SMILES IDX 50 77 52 78 58 79 51 80 53 81 54 82 55 83 56 84 80 85 81 86
REMARK SMILES IDX 89 87 82 88 84 89 90 90 83 91 85 92 86 93 87 94 88 95 65 96
REMARK SMILES IDX 66 97 74 98 67 99 69 100 75 101 68 102 70 103 71 104 72 105
REMARK SMILES IDX 73 106
REMARK H PARENT 13 12 4 24 95 59 63 70
REMARK Flexibility Score: inf
ROOT
ATOM      1  C   UNL A   1      36.271  22.324  25.934  1.00  0.00     0.188 C 
ENDROOT
BRANCH   1   2
ATOM      2  O   UNL A   1      35.045  21.856  26.435  1.00  0.00    -0.376 OA
BRANCH   2   3
ATOM      3  C   UNL A   1      34.489  22.559  27.513  1.00  0.00     0.202 C 
BRANCH   3   4
ATOM      4  C   UNL A   1      32.997  22.465  27.887  1.00  0.00     0.261 C 
BRANCH   4   5
ATOM      5  O   UNL A   1      32.168  23.669  27.887  1.00  0.00    -0.462 OA
BRANCH   5   6
ATOM      6  C   UNL A   1      31.434  23.825  26.756  1.00  0.00     0.329 C 
ATOM      7  O   UNL A   1      30.307  24.314  26.875  1.00  0.00    -0.250 OA
BRANCH   6   8
ATOM      8  C   UNL A   1      31.945  23.288  25.304  1.00  0.00     0.196 C 
BRANCH   8   9
ATOM      9  N   UNL A   1      33.228  23.471  24.553  1.00  0.00    -0.338 N 
ATOM     10  C   UNL A   1      33.784  24.458  23.680  1.00  0.00     0.262 C 
ATOM     11  O   UNL A   1      34.830  24.035  23.158  1.00  0.00    -0.268 OA
ATOM     12  H   UNL A   1      33.846  22.720  24.697  1.00  0.00     0.164 HD
BRANCH  10  13
ATOM     13  C   UNL A   1      33.470  25.930  23.563  1.00  0.00     0.093 A 
ATOM     14  C   UNL A   1      32.085  27.974  23.005  1.00  0.00     0.078 A 
ATOM     15  C   UNL A   1      32.745  28.129  24.221  1.00  0.00     0.030 A 
ATOM     16  S   UNL A   1      33.262  26.919  22.191  1.00  0.00    -0.121 S 
ATOM     17  C   UNL A   1      33.502  26.911  24.571  1.00  0.00     0.027 A 
BRANCH  14  18
ATOM     18  C   UNL A   1      30.830  28.659  22.395  1.00  0.00    -0.053 C 
ATOM     19  C   UNL A   1      29.875  29.540  22.282  1.00  0.00    -0.063 C 
BRANCH  19  20
ATOM     20  C   UNL A   1      28.762  30.567  22.149  1.00  0.00     0.120 C 
ATOM     21  C   UNL A   1      28.257  31.789  21.283  1.00  0.00     0.056 C 
ATOM     22  C   UNL A   1      27.758  31.058  23.348  1.00  0.00     0.056 C 
BRANCH  20  23
ATOM     23  O   UNL A   1      27.804  29.547  21.694  1.00  0.00    -0.378 OA
ATOM     24  H   UNL A   1      26.951  29.688  22.133  1.00  0.00     0.212 HD
ENDBRANCH  20  23
ENDBRANCH  19  20
ENDBRANCH  14  18
ENDBRANCH  10  13
ENDBRANCH   8   9
BRANCH   8  25
ATOM     25  C   UNL A   1      31.529  21.781  25.387  1.00  0.00     0.070 C 
BRANCH  25  26
ATOM     26  C   UNL A   1      32.012  20.983  24.215  1.00  0.00    -0.037 C 
ATOM     27  C   UNL A   1      32.494  19.756  24.312  1.00  0.00     0.001 A 
ATOM     28  C   UNL A   1      31.863  21.383  22.771  1.00  0.00     0.174 C 
ATOM     29  C   UNL A   1      32.819  18.913  25.409  1.00  0.00     0.010 A 
ATOM     30  C   UNL A   1      32.481  19.296  22.922  1.00  0.00     0.065 A 
ATOM     31  N   UNL A   1      32.172  20.150  21.993  1.00  0.00    -0.280 NA
ATOM     32  C   UNL A   1      33.062  17.621  25.160  1.00  0.00     0.001 A 
ATOM     33  C   UNL A   1      32.760  17.860  22.727  1.00  0.00     0.028 A 
ATOM     34  C   UNL A   1      33.008  17.095  23.805  1.00  0.00     0.002 A 
ENDBRANCH  25  26
ENDBRANCH   8  25
ENDBRANCH   6   8
ENDBRANCH   5   6
ENDBRANCH   4   5
ENDBRANCH   3   4
ENDBRANCH   2   3
ENDBRANCH   1   2
BRANCH   1  35
ATOM     35  C   UNL A   1      37.030  21.283  25.086  1.00  0.00     0.188 C 
BRANCH  35  36
ATOM     36  O   UNL A   1      38.188  20.689  25.641  1.00  0.00    -0.376 OA
BRANCH  36  37
ATOM     37  C   UNL A   1      39.385  21.438  25.451  1.00  0.00     0.202 C 
BRANCH  37  38
ATOM     38  C   UNL A   1      40.110  21.991  26.702  1.00  0.00     0.261 C 
BRANCH  38  39
ATOM     39  O   UNL A   1      40.467  23.385  26.603  1.00  0.00    -0.460 OA
BRANCH  39  40
ATOM     40  C   UNL A   1      41.731  23.668  26.149  1.00  0.00     0.338 C 
ATOM     41  O   UNL A   1      42.298  23.162  25.210  1.00  0.00    -0.246 OA
BRANCH  40  42
ATOM     42  C   UNL A   1      42.066  24.989  26.750  1.00  0.00     0.060 A 
ATOM     43  C   UNL A   1      42.929  25.095  27.847  1.00  0.00     0.016 A 
ATOM     44  C   UNL A   1      41.125  25.983  26.507  1.00  0.00     0.016 A 
ATOM     45  C   UNL A   1      42.710  26.093  28.815  1.00  0.00     0.010 A 
ATOM     46  C   UNL A   1      40.880  26.909  27.518  1.00  0.00     0.010 A 
ATOM     47  C   UNL A   1      41.618  26.978  28.709  1.00  0.00    -0.014 A 
BRANCH  47  48
ATOM     48  C   UNL A   1      41.698  28.363  29.267  1.00  0.00     0.031 A 
ATOM     49  C   UNL A   1      42.851  28.852  28.375  1.00  0.00     0.074 A 
ATOM     50  C   UNL A   1      40.888  28.993  30.232  1.00  0.00     0.049 A 
ATOM     51  N   UNL A   1      44.063  28.858  28.845  1.00  0.00    -0.248 NA
ATOM     52  C   UNL A   1      42.892  28.995  26.889  1.00  0.00     0.031 C 
ATOM     53  C   UNL A   1      40.365  28.371  31.443  1.00  0.00     0.029 A 
ATOM     54  N   UNL A   1      40.336  30.286  30.495  1.00  0.00    -0.354 N 
ATOM     55  C   UNL A   1      44.724  29.665  27.958  1.00  0.00     0.074 A 
ATOM     56  C   UNL A   1      44.119  29.484  26.678  1.00  0.00     0.031 C 
ATOM     57  C   UNL A   1      39.465  29.182  32.086  1.00  0.00     0.029 A 
ATOM     58  C   UNL A   1      39.160  30.375  31.314  1.00  0.00     0.049 A 
ATOM     59  H   UNL A   1      40.752  31.097  30.122  1.00  0.00     0.167 HD
ATOM     60  C   UNL A   1      45.311  30.764  28.472  1.00  0.00     0.034 A 
ATOM     61  C   UNL A   1      38.395  31.442  31.806  1.00  0.00     0.034 A 
ATOM     62  C   UNL A   1      45.205  30.663  30.101  1.00  0.00     0.049 A 
ATOM     63  C   UNL A   1      39.460  32.284  32.489  1.00  0.00     0.074 A 
ATOM     64  C   UNL A   1      46.050  30.588  31.208  1.00  0.00     0.029 A 
ATOM     65  N   UNL A   1      43.936  30.503  30.786  1.00  0.00    -0.354 N 
ATOM     66  N   UNL A   1      40.343  31.811  33.325  1.00  0.00    -0.248 NA
ATOM     67  C   UNL A   1      39.909  33.394  31.669  1.00  0.00     0.031 C 
ATOM     68  C   UNL A   1      45.257  30.790  32.422  1.00  0.00     0.029 A 
ATOM     69  C   UNL A   1      43.910  30.960  32.098  1.00  0.00     0.049 A 
ATOM     70  H   UNL A   1      43.148  30.102  30.351  1.00  0.00     0.167 HD
ATOM     71  C   UNL A   1      41.547  31.971  32.623  1.00  0.00     0.074 A 
ATOM     72  C   UNL A   1      41.128  32.879  31.575  1.00  0.00     0.031 C 
ATOM     73  C   UNL A   1      42.664  31.200  32.882  1.00  0.00     0.034 A 
BRANCH  60  74
ATOM     74  C   UNL A   1      45.430  32.123  27.434  1.00  0.00     0.023 A 
ATOM     75  C   UNL A   1      46.568  32.293  26.599  1.00  0.00     0.012 A 
ATOM     76  C   UNL A   1      44.617  33.332  27.518  1.00  0.00     0.148 A 
ATOM     77  C   UNL A   1      47.025  33.578  26.169  1.00  0.00     0.002 A 
ATOM     78  C   UNL A   1      45.081  34.613  27.090  1.00  0.00     0.091 A 
ATOM     79  F   UNL A   1      43.409  33.275  28.087  1.00  0.00    -0.205 F 
ATOM     80  C   UNL A   1      46.317  34.738  26.463  1.00  0.00     0.022 A 
BRANCH  78  81
ATOM     81  S   UNL A   1      44.304  36.204  27.574  1.00  0.00     0.127 S 
ATOM     82  O   UNL A   1      44.303  36.152  29.038  1.00  0.00    -0.237 OA
ATOM     83  O   UNL A   1      45.257  37.174  27.027  1.00  0.00    -0.237 OA
ATOM     84  O   UNL A   1      42.997  36.214  26.932  1.00  0.00    -0.744 OA
ENDBRANCH  78  81
ENDBRANCH  60  74
BRANCH  61  85
ATOM     85  C   UNL A   1      37.208  32.318  31.181  1.00  0.00     0.023 A 
ATOM     86  C   UNL A   1      37.010  32.326  29.762  1.00  0.00     0.012 A 
ATOM     87  C   UNL A   1      36.322  33.181  31.875  1.00  0.00     0.148 A 
ATOM     88  C   UNL A   1      35.976  33.037  29.107  1.00  0.00     0.002 A 
ATOM     89  C   UNL A   1      35.285  33.900  31.224  1.00  0.00     0.091 A 
ATOM     90  F   UNL A   1      36.498  33.341  33.184  1.00  0.00    -0.205 F 
ATOM     91  C   UNL A   1      35.104  33.819  29.841  1.00  0.00     0.022 A 
BRANCH  89  92
ATOM     92  S   UNL A   1      34.142  35.018  32.082  1.00  0.00     0.127 S 
ATOM     93  O   UNL A   1      33.335  34.085  32.872  1.00  0.00    -0.237 OA
ATOM     94  O   UNL A   1      35.050  35.846  32.874  1.00  0.00    -0.237 OA
ATOM     95  O   UNL A   1      33.410  35.709  31.030  1.00  0.00    -0.744 OA
ENDBRANCH  89  92
ENDBRANCH  61  85
BRANCH  73  96
ATOM     96  C   UNL A   1      42.560  30.625  34.259  1.00  0.00     0.023 A 
ATOM     97  C   UNL A   1      42.625  31.477  35.371  1.00  0.00     0.012 A 
ATOM     98  C   UNL A   1      42.501  29.240  34.463  1.00  0.00     0.148 A 
ATOM     99  C   UNL A   1      42.653  30.987  36.667  1.00  0.00     0.002 A 
ATOM    100  C   UNL A   1      42.435  28.752  35.762  1.00  0.00     0.091 A 
ATOM    101  F   UNL A   1      42.503  28.433  33.392  1.00  0.00    -0.205 F 
ATOM    102  C   UNL A   1      42.532  29.621  36.865  1.00  0.00     0.022 A 
BRANCH 100 103
ATOM    103  S   UNL A   1      42.115  27.030  36.125  1.00  0.00     0.127 S 
ATOM    104  O   UNL A   1      43.372  26.386  35.747  1.00  0.00    -0.237 OA
ATOM    105  O   UNL A   1      41.865  27.082  37.566  1.00  0.00    -0.237 OA
ATOM    106  O   UNL A   1      40.966  26.649  35.314  1.00  0.00    -0.744 OA
ENDBRANCH 100 103
ENDBRANCH  73  96
ENDBRANCH  47  48
ENDBRANCH  40  42
ENDBRANCH  39  40
ENDBRANCH  38  39
ENDBRANCH  37  38
ENDBRANCH  36  37
ENDBRANCH  35  36
ENDBRANCH   1  35
TORSDOF 27
ENDMDL
MODEL 3
REMARK VINA RESULT:     -10.5     10.926     16.249
REMARK SMILES CC(C)(O)C#Cc1ccc(C(=O)N[C@@H](CC2=c3ccccc3=NC2)C(=O)OCCOCCOCCOC(=O)c2ccc(-c3c4nc(c(-c5cccc(S(=O)(=O)[O-])c5F)c5ccc([nH]5)c(-c5cccc(S(=O)(=O)[O-])c5F)c5nc(c(-c6cccc(S(=O)(=O)[O-])c6F)c6ccc3[nH]6)C=C5)C=C4)cc2)s1
REMARK SMILES IDX 31 1 30 2 29 3 28 4 27 5 25 6 26 7 14 8 13 9 11 10 12 11
REMARK SMILES IDX 10 13 7 14 8 15 102 16 9 17 6 18 5 19 2 20 1 21 3 22 4 23
REMARK SMILES IDX 15 25 16 26 17 27 24 28 18 29 22 30 23 31 19 32 21 33 20 34
REMARK SMILES IDX 32 35 33 36 34 37 35 38 36 39 37 40 38 41 39 42 40 43 101 44
REMARK SMILES IDX 41 45 100 46 42 47 43 48 44 49 94 50 45 51 99 52 93 53 95 54
REMARK SMILES IDX 46 55 98 56 92 57 91 58 47 60 79 61 59 62 78 63 60 64 63 65
REMARK SMILES IDX 77 66 96 67 61 68 62 69 76 71 97 72 64 73 48 74 49 75 57 76
REMARK SMILES IDX 50 77 52 78 58 79 51 80 53 81 54 82 55 83 56 84 80 85 81 86
REMARK SMILES IDX 89 87 82 88 84 89 90 90 83 91 85 92 86 93 87 94 88 95 65 96
REMARK SMILES IDX 66 97 74 98 67 99 69 100 75 101 68 102 70 103 71 104 72 105
REMARK SMILES IDX 73 106
REMARK H PARENT 13 12 4 24 95 59 63 70
REMARK Flexibility Score: inf
ROOT
ATOM      1  C   UNL A   1      49.669  20.003  38.647  1.00  0.00     0.188 C 
ENDROOT
BRANCH   1   2
ATOM      2  O   UNL A   1      49.312  18.844  39.356  1.00  0.00    -0.376 OA
BRANCH   2   3
ATOM      3  C   UNL A   1      48.082  18.865  40.030  1.00  0.00     0.202 C 
BRANCH   3   4
ATOM      4  C   UNL A   1      47.109  17.670  40.023  1.00  0.00     0.261 C 
BRANCH   4   5
ATOM      5  O   UNL A   1      45.808  17.792  39.368  1.00  0.00    -0.462 OA
BRANCH   5   6
ATOM      6  C   UNL A   1      44.943  16.795  39.685  1.00  0.00     0.329 C 
ATOM      7  O   UNL A   1      44.876  15.835  38.912  1.00  0.00    -0.250 OA
BRANCH   6   8
ATOM      8  C   UNL A   1      43.934  16.889  40.963  1.00  0.00     0.196 C 
BRANCH   8   9
ATOM      9  N   UNL A   1      43.704  17.952  41.993  1.00  0.00    -0.338 N 
ATOM     10  C   UNL A   1      43.988  18.122  43.384  1.00  0.00     0.262 C 
ATOM     11  O   UNL A   1      43.403  19.127  43.825  1.00  0.00    -0.268 OA
ATOM     12  H   UNL A   1      43.239  18.732  41.616  1.00  0.00     0.164 HD
BRANCH  10  13
ATOM     13  C   UNL A   1      45.059  17.486  44.236  1.00  0.00     0.093 A 
ATOM     14  C   UNL A   1      46.142  15.683  45.645  1.00  0.00     0.078 A 
ATOM     15  C   UNL A   1      47.064  16.272  44.784  1.00  0.00     0.030 A 
ATOM     16  S   UNL A   1      45.071  17.080  45.892  1.00  0.00    -0.121 S 
ATOM     17  C   UNL A   1      46.415  17.280  43.922  1.00  0.00     0.027 A 
BRANCH  14  18
ATOM     18  C   UNL A   1      46.118  14.315  46.382  1.00  0.00    -0.053 C 
ATOM     19  C   UNL A   1      46.508  13.387  47.212  1.00  0.00    -0.063 C 
BRANCH  19  20
ATOM     20  C   UNL A   1      46.962  12.306  48.179  1.00  0.00     0.120 C 
ATOM     21  C   UNL A   1      46.452  11.120  49.091  1.00  0.00     0.056 C 
ATOM     22  C   UNL A   1      48.356  12.312  49.042  1.00  0.00     0.056 C 
BRANCH  20  23
ATOM     23  O   UNL A   1      47.574  11.520  47.097  1.00  0.00    -0.378 OA
ATOM     24  H   UNL A   1      47.973  12.121  46.448  1.00  0.00     0.212 HD
ENDBRANCH  20  23
ENDBRANCH  19  20
ENDBRANCH  14  18
ENDBRANCH  10  13
ENDBRANCH   8   9
BRANCH   8  25
ATOM     25  C   UNL A   1      42.593  16.408  40.312  1.00  0.00     0.070 C 
BRANCH  25  26
ATOM     26  C   UNL A   1      42.345  14.946  40.517  1.00  0.00    -0.037 C 
ATOM     27  C   UNL A   1      42.200  14.386  41.707  1.00  0.00     0.001 A 
ATOM     28  C   UNL A   1      42.057  13.952  39.424  1.00  0.00     0.174 C 
ATOM     29  C   UNL A   1      42.346  14.861  43.038  1.00  0.00     0.010 A 
ATOM     30  C   UNL A   1      41.637  13.076  41.378  1.00  0.00     0.065 A 
ATOM     31  N   UNL A   1      41.551  12.738  40.127  1.00  0.00    -0.280 NA
ATOM     32  C   UNL A   1      41.885  14.093  44.034  1.00  0.00     0.001 A 
ATOM     33  C   UNL A   1      41.152  12.288  42.527  1.00  0.00     0.028 A 
ATOM     34  C   UNL A   1      41.264  12.806  43.763  1.00  0.00     0.002 A 
ENDBRANCH  25  26
ENDBRANCH   8  25
ENDBRANCH   6   8
ENDBRANCH   5   6
ENDBRANCH   4   5
ENDBRANCH   3   4
ENDBRANCH   2   3
ENDBRANCH   1   2
BRANCH   1  35
ATOM     35  C   UNL A   1      49.035  20.090  37.245  1.00  0.00     0.188 C 
BRANCH  35  36
ATOM     36  O   UNL A   1      47.635  20.274  37.158  1.00  0.00    -0.376 OA
BRANCH  36  37
ATOM     37  C   UNL A   1      47.203  21.618  37.350  1.00  0.00     0.202 C 
BRANCH  37  38
ATOM     38  C   UNL A   1      48.058  22.757  36.744  1.00  0.00     0.261 C 
BRANCH  38  39
ATOM     39  O   UNL A   1      47.321  23.645  35.879  1.00  0.00    -0.460 OA
BRANCH  39  40
ATOM     40  C   UNL A   1      47.953  24.804  35.503  1.00  0.00     0.338 C 
ATOM     41  O   UNL A   1      49.136  25.042  35.560  1.00  0.00    -0.246 OA
BRANCH  40  42
ATOM     42  C   UNL A   1      46.974  25.505  34.625  1.00  0.00     0.060 A 
ATOM     43  C   UNL A   1      45.593  25.368  34.815  1.00  0.00     0.016 A 
ATOM     44  C   UNL A   1      47.472  25.852  33.375  1.00  0.00     0.016 A 
ATOM     45  C   UNL A   1      44.730  25.377  33.704  1.00  0.00     0.010 A 
ATOM     46  C   UNL A   1      46.608  25.776  32.285  1.00  0.00     0.010 A 
ATOM     47  C   UNL A   1      45.236  25.500  32.394  1.00  0.00    -0.014 A 
BRANCH  47  48
ATOM     48  C   UNL A   1      44.424  26.145  31.316  1.00  0.00     0.031 A 
ATOM     49  C   UNL A   1      44.364  24.927  30.380  1.00  0.00     0.074 A 
ATOM     50  C   UNL A   1      43.847  27.429  31.270  1.00  0.00     0.049 A 
ATOM     51  N   UNL A   1      45.186  24.851  29.376  1.00  0.00    -0.248 NA
ATOM     52  C   UNL A   1      43.750  23.586  30.623  1.00  0.00     0.031 C 
ATOM     53  C   UNL A   1      44.465  28.659  31.753  1.00  0.00     0.029 A 
ATOM     54  N   UNL A   1      42.657  28.056  30.785  1.00  0.00    -0.354 N 
ATOM     55  C   UNL A   1      44.618  23.881  28.595  1.00  0.00     0.074 A 
ATOM     56  C   UNL A   1      43.972  22.952  29.466  1.00  0.00     0.031 C 
ATOM     57  C   UNL A   1      43.586  29.712  31.737  1.00  0.00     0.029 A 
ATOM     58  C   UNL A   1      42.240  29.291  31.388  1.00  0.00     0.049 A 
ATOM     59  H   UNL A   1      42.135  27.651  30.055  1.00  0.00     0.167 HD
ATOM     60  C   UNL A   1      44.284  24.242  27.340  1.00  0.00     0.034 A 
ATOM     61  C   UNL A   1      41.187  30.185  31.147  1.00  0.00     0.034 A 
ATOM     62  C   UNL A   1      44.881  25.742  27.084  1.00  0.00     0.049 A 
ATOM     63  C   UNL A   1      41.369  30.468  29.664  1.00  0.00     0.074 A 
ATOM     64  C   UNL A   1      45.790  26.383  26.243  1.00  0.00     0.029 A 
ATOM     65  N   UNL A   1      44.554  26.863  27.945  1.00  0.00    -0.354 N 
ATOM     66  N   UNL A   1      42.505  30.800  29.116  1.00  0.00    -0.248 NA
ATOM     67  C   UNL A   1      40.478  29.683  28.830  1.00  0.00     0.031 C 
ATOM     68  C   UNL A   1      45.635  27.831  26.397  1.00  0.00     0.029 A 
ATOM     69  C   UNL A   1      44.659  28.116  27.352  1.00  0.00     0.049 A 
ATOM     70  H   UNL A   1      44.277  26.744  28.883  1.00  0.00     0.167 HD
ATOM     71  C   UNL A   1      42.790  29.690  28.306  1.00  0.00     0.074 A 
ATOM     72  C   UNL A   1      41.500  29.032  28.290  1.00  0.00     0.031 C 
ATOM     73  C   UNL A   1      44.076  29.367  27.918  1.00  0.00     0.034 A 
BRANCH  60  74
ATOM     74  C   UNL A   1      42.948  23.426  26.641  1.00  0.00     0.023 A 
ATOM     75  C   UNL A   1      41.640  23.972  26.741  1.00  0.00     0.012 A 
ATOM     76  C   UNL A   1      42.939  22.038  26.193  1.00  0.00     0.148 A 
ATOM     77  C   UNL A   1      40.462  23.161  26.722  1.00  0.00     0.002 A 
ATOM     78  C   UNL A   1      41.760  21.232  26.181  1.00  0.00     0.091 A 
ATOM     79  F   UNL A   1      44.087  21.450  25.846  1.00  0.00    -0.205 F 
ATOM     80  C   UNL A   1      40.526  21.789  26.502  1.00  0.00     0.022 A 
BRANCH  78  81
ATOM     81  S   UNL A   1      41.765  19.400  26.066  1.00  0.00     0.127 S 
ATOM     82  O   UNL A   1      42.761  19.125  25.027  1.00  0.00    -0.237 OA
ATOM     83  O   UNL A   1      42.208  19.023  27.411  1.00  0.00    -0.237 OA
ATOM     84  O   UNL A   1      40.393  19.022  25.756  1.00  0.00    -0.744 OA
ENDBRANCH  78  81
ENDBRANCH  60  74
BRANCH  61  85
ATOM     85  C   UNL A   1      39.653  30.221  31.607  1.00  0.00     0.023 A 
ATOM     86  C   UNL A   1      39.029  29.017  32.074  1.00  0.00     0.012 A 
ATOM     87  C   UNL A   1      38.766  31.326  31.554  1.00  0.00     0.148 A 
ATOM     88  C   UNL A   1      37.693  28.941  32.534  1.00  0.00     0.002 A 
ATOM     89  C   UNL A   1      37.424  31.255  32.012  1.00  0.00     0.091 A 
ATOM     90  F   UNL A   1      39.211  32.462  31.024  1.00  0.00    -0.205 F 
ATOM     91  C   UNL A   1      36.890  30.066  32.513  1.00  0.00     0.022 A 
BRANCH  89  92
ATOM     92  S   UNL A   1      36.264  32.649  31.947  1.00  0.00     0.127 S 
ATOM     93  O   UNL A   1      34.973  31.985  32.141  1.00  0.00    -0.237 OA
ATOM     94  O   UNL A   1      36.694  33.467  33.079  1.00  0.00    -0.237 OA
ATOM     95  O   UNL A   1      36.444  33.245  30.630  1.00  0.00    -0.744 OA
ENDBRANCH  89  92
ENDBRANCH  61  85
BRANCH  73  96
ATOM     96  C   UNL A   1      44.945  30.580  28.023  1.00  0.00     0.023 A 
ATOM     97  C   UNL A   1      45.904  30.656  29.043  1.00  0.00     0.012 A 
ATOM     98  C   UNL A   1      44.751  31.685  27.184  1.00  0.00     0.148 A 
ATOM     99  C   UNL A   1      46.652  31.803  29.259  1.00  0.00     0.002 A 
ATOM    100  C   UNL A   1      45.565  32.800  27.339  1.00  0.00     0.091 A 
ATOM    101  F   UNL A   1      43.789  31.622  26.252  1.00  0.00    -0.205 F 
ATOM    102  C   UNL A   1      46.502  32.870  28.387  1.00  0.00     0.022 A 
BRANCH 100 103
ATOM    103  S   UNL A   1      45.565  34.157  26.174  1.00  0.00     0.127 S 
ATOM    104  O   UNL A   1      45.149  33.509  24.931  1.00  0.00    -0.237 OA
ATOM    105  O   UNL A   1      44.562  35.043  26.765  1.00  0.00    -0.237 OA
ATOM    106  O   UNL A   1      46.922  34.686  26.162  1.00  0.00    -0.744 OA
ENDBRANCH 100 103
ENDBRANCH  73  96
ENDBRANCH  47  48
ENDBRANCH  40  42
ENDBRANCH  39  40
ENDBRANCH  38  39
ENDBRANCH  37  38
ENDBRANCH  36  37
ENDBRANCH  35  36
ENDBRANCH   1  35
TORSDOF 27
ENDMDL
