MODEL 1
REMARK VINA RESULT:     -10.4      0.000      0.000
REMARK SMILES O=C(OCCOCCOCCOC(=O)[C@H](Sc1nnc(-c2ccncc2)n1-c1ccccc1)c1ccccc1)c1ccc(-c2c3nc(c(-c4cccc(S(=O)(=O)[O-])c4F)c4ccc([nH]4)c(-c4cccc(S(=O)(=O)[O-])c4F)c4nc(c(-c5cccc(S(=O)(=O)[O-])c5F)c5ccc2[nH]5)C=C4)C=C3)cc1
REMARK SMILES IDX 7 1 6 2 5 3 4 4 3 5 2 6 1 7 40 8 41 9 102 10 42 11 101 12
REMARK SMILES IDX 43 13 44 14 45 15 95 16 46 17 100 18 94 19 96 20 47 21 99 22
REMARK SMILES IDX 93 23 92 24 48 26 80 27 60 28 79 29 61 30 64 31 78 32 97 33
REMARK SMILES IDX 62 34 63 35 77 37 98 38 65 39 49 40 50 41 58 42 51 43 53 44
REMARK SMILES IDX 59 45 52 46 54 47 55 48 56 49 57 50 81 51 82 52 90 53 83 54
REMARK SMILES IDX 85 55 91 56 84 57 86 58 87 59 88 60 89 61 66 62 67 63 75 64
REMARK SMILES IDX 68 65 70 66 76 67 69 68 71 69 72 70 73 71 74 72 8 73 9 74
REMARK SMILES IDX 10 75 11 76 12 77 13 78 14 79 15 80 34 81 35 82 39 83 36 84
REMARK SMILES IDX 38 85 37 86 16 87 17 88 18 89 27 90 19 91 20 92 28 93 29 94
REMARK SMILES IDX 33 95 30 96 32 97 31 98 21 99 22 100 26 101 23 102 25 103
REMARK SMILES IDX 24 104
REMARK H PARENT 96 25 64 36
REMARK Flexibility Score: inf
ROOT
ATOM      1  C   UNL A   1      44.370  41.071  27.135  1.00  0.00     0.188 C 
ENDROOT
BRANCH   1   2
ATOM      2  O   UNL A   1      44.953  39.991  27.856  1.00  0.00    -0.376 OA
BRANCH   2   3
ATOM      3  C   UNL A   1      45.411  38.867  27.130  1.00  0.00     0.202 C 
BRANCH   3   4
ATOM      4  C   UNL A   1      46.787  38.307  27.488  1.00  0.00     0.261 C 
BRANCH   4   5
ATOM      5  O   UNL A   1      46.825  37.014  28.085  1.00  0.00    -0.460 OA
BRANCH   5   6
ATOM      6  C   UNL A   1      46.565  36.628  29.341  1.00  0.00     0.338 C 
ATOM      7  O   UNL A   1      47.469  36.698  30.173  1.00  0.00    -0.246 OA
BRANCH   6   8
ATOM      8  C   UNL A   1      45.310  35.960  29.754  1.00  0.00     0.060 A 
ATOM      9  C   UNL A   1      44.834  35.731  31.053  1.00  0.00     0.016 A 
ATOM     10  C   UNL A   1      44.656  35.368  28.680  1.00  0.00     0.016 A 
ATOM     11  C   UNL A   1      43.803  34.792  31.273  1.00  0.00     0.010 A 
ATOM     12  C   UNL A   1      43.693  34.425  28.923  1.00  0.00     0.010 A 
ATOM     13  C   UNL A   1      43.305  34.065  30.198  1.00  0.00    -0.014 A 
BRANCH  13  14
ATOM     14  C   UNL A   1      42.294  32.998  30.229  1.00  0.00     0.031 A 
ATOM     15  C   UNL A   1      40.896  33.487  30.372  1.00  0.00     0.074 A 
ATOM     16  C   UNL A   1      42.553  31.741  29.762  1.00  0.00     0.049 A 
ATOM     17  N   UNL A   1      40.090  33.256  31.349  1.00  0.00    -0.248 NA
ATOM     18  C   UNL A   1      40.332  34.416  29.385  1.00  0.00     0.031 C 
ATOM     19  C   UNL A   1      43.840  31.243  29.232  1.00  0.00     0.029 A 
ATOM     20  N   UNL A   1      41.718  30.678  29.511  1.00  0.00    -0.354 N 
ATOM     21  C   UNL A   1      38.839  33.713  30.932  1.00  0.00     0.074 A 
ATOM     22  C   UNL A   1      39.075  34.568  29.806  1.00  0.00     0.031 C 
ATOM     23  C   UNL A   1      43.652  30.089  28.547  1.00  0.00     0.029 A 
ATOM     24  C   UNL A   1      42.276  29.661  28.709  1.00  0.00     0.049 A 
ATOM     25  H   UNL A   1      40.801  30.631  29.864  1.00  0.00     0.167 HD
ATOM     26  C   UNL A   1      37.715  33.098  31.388  1.00  0.00     0.034 A 
ATOM     27  C   UNL A   1      41.665  28.535  28.242  1.00  0.00     0.034 A 
ATOM     28  C   UNL A   1      38.063  32.183  32.450  1.00  0.00     0.049 A 
ATOM     29  C   UNL A   1      40.585  28.260  29.216  1.00  0.00     0.074 A 
ATOM     30  C   UNL A   1      38.582  32.294  33.720  1.00  0.00     0.029 A 
ATOM     31  N   UNL A   1      38.298  30.905  32.011  1.00  0.00    -0.354 N 
ATOM     32  N   UNL A   1      40.816  27.933  30.456  1.00  0.00    -0.248 NA
ATOM     33  C   UNL A   1      39.202  28.597  28.904  1.00  0.00     0.031 C 
ATOM     34  C   UNL A   1      39.357  31.115  33.919  1.00  0.00     0.029 A 
ATOM     35  C   UNL A   1      39.222  30.284  32.806  1.00  0.00     0.049 A 
ATOM     36  H   UNL A   1      37.863  30.492  31.230  1.00  0.00     0.167 HD
ATOM     37  C   UNL A   1      39.775  28.527  31.139  1.00  0.00     0.074 A 
ATOM     38  C   UNL A   1      38.719  28.690  30.147  1.00  0.00     0.031 C 
ATOM     39  C   UNL A   1      39.996  29.153  32.331  1.00  0.00     0.034 A 
BRANCH  26  40
ATOM     40  C   UNL A   1      36.406  32.899  30.649  1.00  0.00     0.023 A 
ATOM     41  C   UNL A   1      36.349  31.767  29.798  1.00  0.00     0.012 A 
ATOM     42  C   UNL A   1      35.409  33.882  30.472  1.00  0.00     0.148 A 
ATOM     43  C   UNL A   1      35.418  31.662  28.762  1.00  0.00     0.002 A 
ATOM     44  C   UNL A   1      34.444  33.745  29.474  1.00  0.00     0.091 A 
ATOM     45  F   UNL A   1      35.452  35.015  31.180  1.00  0.00    -0.205 F 
ATOM     46  C   UNL A   1      34.466  32.655  28.596  1.00  0.00     0.022 A 
BRANCH  44  47
ATOM     47  S   UNL A   1      33.161  34.975  29.200  1.00  0.00     0.127 S 
ATOM     48  O   UNL A   1      33.948  36.122  28.765  1.00  0.00    -0.237 OA
ATOM     49  O   UNL A   1      32.355  34.340  28.160  1.00  0.00    -0.237 OA
ATOM     50  O   UNL A   1      32.480  35.122  30.486  1.00  0.00    -0.744 OA
ENDBRANCH  44  47
ENDBRANCH  26  40
BRANCH  27  51
ATOM     51  C   UNL A   1      41.863  27.579  27.107  1.00  0.00     0.023 A 
ATOM     52  C   UNL A   1      42.290  28.078  25.853  1.00  0.00     0.012 A 
ATOM     53  C   UNL A   1      41.983  26.187  27.317  1.00  0.00     0.148 A 
ATOM     54  C   UNL A   1      42.900  27.251  24.899  1.00  0.00     0.002 A 
ATOM     55  C   UNL A   1      42.642  25.374  26.389  1.00  0.00     0.091 A 
ATOM     56  F   UNL A   1      41.466  25.661  28.426  1.00  0.00    -0.205 F 
ATOM     57  C   UNL A   1      43.111  25.908  25.183  1.00  0.00     0.022 A 
BRANCH  55  58
ATOM     58  S   UNL A   1      43.039  23.642  26.704  1.00  0.00     0.127 S 
ATOM     59  O   UNL A   1      44.469  23.598  26.393  1.00  0.00    -0.237 OA
ATOM     60  O   UNL A   1      42.726  23.512  28.126  1.00  0.00    -0.237 OA
ATOM     61  O   UNL A   1      42.203  22.853  25.809  1.00  0.00    -0.744 OA
ENDBRANCH  55  58
ENDBRANCH  27  51
BRANCH  39  62
ATOM     62  C   UNL A   1      41.251  28.809  33.097  1.00  0.00     0.023 A 
ATOM     63  C   UNL A   1      42.407  29.617  33.091  1.00  0.00     0.012 A 
ATOM     64  C   UNL A   1      41.209  27.710  33.968  1.00  0.00     0.148 A 
ATOM     65  C   UNL A   1      43.492  29.336  33.925  1.00  0.00     0.002 A 
ATOM     66  C   UNL A   1      42.263  27.467  34.840  1.00  0.00     0.091 A 
ATOM     67  F   UNL A   1      40.118  26.930  33.954  1.00  0.00    -0.205 F 
ATOM     68  C   UNL A   1      43.411  28.272  34.816  1.00  0.00     0.022 A 
BRANCH  66  69
ATOM     69  S   UNL A   1      42.146  26.199  36.102  1.00  0.00     0.127 S 
ATOM     70  O   UNL A   1      42.030  24.981  35.303  1.00  0.00    -0.237 OA
ATOM     71  O   UNL A   1      43.416  26.346  36.816  1.00  0.00    -0.237 OA
ATOM     72  O   UNL A   1      40.977  26.543  36.903  1.00  0.00    -0.744 OA
ENDBRANCH  66  69
ENDBRANCH  39  62
ENDBRANCH  13  14
ENDBRANCH   6   8
ENDBRANCH   5   6
ENDBRANCH   4   5
ENDBRANCH   3   4
ENDBRANCH   2   3
ENDBRANCH   1   2
BRANCH   1  73
ATOM     73  C   UNL A   1      43.276  40.600  26.150  1.00  0.00     0.188 C 
BRANCH  73  74
ATOM     74  O   UNL A   1      43.119  41.237  24.878  1.00  0.00    -0.376 OA
BRANCH  74  75
ATOM     75  C   UNL A   1      41.857  41.782  24.543  1.00  0.00     0.202 C 
BRANCH  75  76
ATOM     76  C   UNL A   1      41.621  41.887  23.023  1.00  0.00     0.261 C 
BRANCH  76  77
ATOM     77  O   UNL A   1      42.799  41.814  22.193  1.00  0.00    -0.462 OA
BRANCH  77  78
ATOM     78  C   UNL A   1      43.210  43.003  21.652  1.00  0.00     0.324 C 
ATOM     79  O   UNL A   1      43.093  44.085  22.223  1.00  0.00    -0.251 OA
BRANCH  78  80
ATOM     80  C   UNL A   1      43.675  42.839  20.178  1.00  0.00     0.194 C 
BRANCH  80  81
ATOM     81  C   UNL A   1      42.856  43.825  19.318  1.00  0.00    -0.023 A 
ATOM     82  C   UNL A   1      43.511  44.779  18.511  1.00  0.00     0.005 A 
ATOM     83  C   UNL A   1      41.459  43.744  19.221  1.00  0.00     0.005 A 
ATOM     84  C   UNL A   1      42.831  45.460  17.504  1.00  0.00     0.000 A 
ATOM     85  C   UNL A   1      40.777  44.428  18.214  1.00  0.00     0.000 A 
ATOM     86  C   UNL A   1      41.468  45.254  17.331  1.00  0.00     0.000 A 
ENDBRANCH  80  81
BRANCH  80  87
ATOM     87  S   UNL A   1      45.489  43.301  20.173  1.00  0.00    -0.066 SA
BRANCH  87  88
ATOM     88  C   UNL A   1      46.040  43.127  21.806  1.00  0.00     0.197 A 
ATOM     89  N   UNL A   1      46.005  42.027  22.524  1.00  0.00    -0.122 NA
ATOM     90  N   UNL A   1      46.547  44.169  22.567  1.00  0.00    -0.270 N 
ATOM     91  N   UNL A   1      46.369  42.355  23.817  1.00  0.00    -0.129 NA
ATOM     92  C   UNL A   1      46.608  43.655  23.867  1.00  0.00     0.169 A 
BRANCH  90  93
ATOM     93  C   UNL A   1      46.686  45.565  22.312  1.00  0.00     0.050 A 
ATOM     94  C   UNL A   1      45.526  46.254  21.901  1.00  0.00     0.027 A 
ATOM     95  C   UNL A   1      47.954  46.037  21.949  1.00  0.00     0.027 A 
ATOM     96  C   UNL A   1      45.631  47.298  20.983  1.00  0.00     0.002 A 
ATOM     97  C   UNL A   1      48.043  47.099  21.043  1.00  0.00     0.002 A 
ATOM     98  C   UNL A   1      46.886  47.697  20.532  1.00  0.00     0.000 A 
ENDBRANCH  90  93
BRANCH  92  99
ATOM     99  C   UNL A   1      46.665  44.514  25.067  1.00  0.00     0.023 A 
ATOM    100  C   UNL A   1      47.920  44.989  25.504  1.00  0.00     0.032 A 
ATOM    101  C   UNL A   1      45.536  44.842  25.813  1.00  0.00     0.032 A 
ATOM    102  C   UNL A   1      47.993  45.778  26.628  1.00  0.00     0.111 A 
ATOM    103  C   UNL A   1      45.707  45.654  26.919  1.00  0.00     0.111 A 
ATOM    104  N   UNL A   1      46.902  46.128  27.313  1.00  0.00    -0.265 NA
ENDBRANCH  92  99
ENDBRANCH  87  88
ENDBRANCH  80  87
ENDBRANCH  78  80
ENDBRANCH  77  78
ENDBRANCH  76  77
ENDBRANCH  75  76
ENDBRANCH  74  75
ENDBRANCH  73  74
ENDBRANCH   1  73
TORSDOF 25
ENDMDL
MODEL 2
REMARK VINA RESULT:     -10.0      2.196      3.603
REMARK SMILES O=C(OCCOCCOCCOC(=O)[C@H](Sc1nnc(-c2ccncc2)n1-c1ccccc1)c1ccccc1)c1ccc(-c2c3nc(c(-c4cccc(S(=O)(=O)[O-])c4F)c4ccc([nH]4)c(-c4cccc(S(=O)(=O)[O-])c4F)c4nc(c(-c5cccc(S(=O)(=O)[O-])c5F)c5ccc2[nH]5)C=C4)C=C3)cc1
REMARK SMILES IDX 7 1 6 2 5 3 4 4 3 5 2 6 1 7 40 8 41 9 102 10 42 11 101 12
REMARK SMILES IDX 43 13 44 14 45 15 95 16 46 17 100 18 94 19 96 20 47 21 99 22
REMARK SMILES IDX 93 23 92 24 48 26 80 27 60 28 79 29 61 30 64 31 78 32 97 33
REMARK SMILES IDX 62 34 63 35 77 37 98 38 65 39 49 40 50 41 58 42 51 43 53 44
REMARK SMILES IDX 59 45 52 46 54 47 55 48 56 49 57 50 81 51 82 52 90 53 83 54
REMARK SMILES IDX 85 55 91 56 84 57 86 58 87 59 88 60 89 61 66 62 67 63 75 64
REMARK SMILES IDX 68 65 70 66 76 67 69 68 71 69 72 70 73 71 74 72 8 73 9 74
REMARK SMILES IDX 10 75 11 76 12 77 13 78 14 79 15 80 34 81 35 82 39 83 36 84
REMARK SMILES IDX 38 85 37 86 16 87 17 88 18 89 27 90 19 91 20 92 28 93 29 94
REMARK SMILES IDX 33 95 30 96 32 97 31 98 21 99 22 100 26 101 23 102 25 103
REMARK SMILES IDX 24 104
REMARK H PARENT 96 25 64 36
REMARK Flexibility Score: inf
ROOT
ATOM      1  C   UNL A   1      43.740  41.404  26.932  1.00  0.00     0.188 C 
ENDROOT
BRANCH   1   2
ATOM      2  O   UNL A   1      43.715  40.088  27.475  1.00  0.00    -0.376 OA
BRANCH   2   3
ATOM      3  C   UNL A   1      44.396  39.061  26.782  1.00  0.00     0.202 C 
BRANCH   3   4
ATOM      4  C   UNL A   1      45.864  38.825  27.132  1.00  0.00     0.261 C 
BRANCH   4   5
ATOM      5  O   UNL A   1      46.240  37.497  27.490  1.00  0.00    -0.460 OA
BRANCH   5   6
ATOM      6  C   UNL A   1      46.384  36.928  28.693  1.00  0.00     0.338 C 
ATOM      7  O   UNL A   1      47.510  36.880  29.186  1.00  0.00    -0.246 OA
BRANCH   6   8
ATOM      8  C   UNL A   1      45.302  36.200  29.394  1.00  0.00     0.060 A 
ATOM      9  C   UNL A   1      45.277  35.746  30.721  1.00  0.00     0.016 A 
ATOM     10  C   UNL A   1      44.290  35.807  28.526  1.00  0.00     0.016 A 
ATOM     11  C   UNL A   1      44.326  34.784  31.121  1.00  0.00     0.010 A 
ATOM     12  C   UNL A   1      43.409  34.836  28.924  1.00  0.00     0.010 A 
ATOM     13  C   UNL A   1      43.451  34.258  30.177  1.00  0.00    -0.014 A 
BRANCH  13  14
ATOM     14  C   UNL A   1      42.447  33.203  30.375  1.00  0.00     0.031 A 
ATOM     15  C   UNL A   1      41.093  33.710  30.726  1.00  0.00     0.074 A 
ATOM     16  C   UNL A   1      42.618  31.939  29.888  1.00  0.00     0.049 A 
ATOM     17  N   UNL A   1      40.445  33.497  31.818  1.00  0.00    -0.248 NA
ATOM     18  C   UNL A   1      40.393  34.636  29.828  1.00  0.00     0.031 C 
ATOM     19  C   UNL A   1      43.803  31.420  29.171  1.00  0.00     0.029 A 
ATOM     20  N   UNL A   1      41.744  30.883  29.780  1.00  0.00    -0.354 N 
ATOM     21  C   UNL A   1      39.148  33.965  31.594  1.00  0.00     0.074 A 
ATOM     22  C   UNL A   1      39.217  34.806  30.436  1.00  0.00     0.031 C 
ATOM     23  C   UNL A   1      43.500  30.262  28.536  1.00  0.00     0.029 A 
ATOM     24  C   UNL A   1      42.161  29.852  28.912  1.00  0.00     0.049 A 
ATOM     25  H   UNL A   1      40.891  30.850  30.271  1.00  0.00     0.167 HD
ATOM     26  C   UNL A   1      38.102  33.367  32.224  1.00  0.00     0.034 A 
ATOM     27  C   UNL A   1      41.474  28.729  28.558  1.00  0.00     0.034 A 
ATOM     28  C   UNL A   1      38.600  32.458  33.230  1.00  0.00     0.049 A 
ATOM     29  C   UNL A   1      40.554  28.476  29.689  1.00  0.00     0.074 A 
ATOM     30  C   UNL A   1      39.309  32.574  34.403  1.00  0.00     0.029 A 
ATOM     31  N   UNL A   1      38.751  31.173  32.774  1.00  0.00    -0.354 N 
ATOM     32  N   UNL A   1      40.970  28.157  30.883  1.00  0.00    -0.248 NA
ATOM     33  C   UNL A   1      39.143  28.826  29.590  1.00  0.00     0.031 C 
ATOM     34  C   UNL A   1      40.094  31.389  34.494  1.00  0.00     0.029 A 
ATOM     35  C   UNL A   1      39.781  30.549  33.423  1.00  0.00     0.049 A 
ATOM     36  H   UNL A   1      38.197  30.758  32.074  1.00  0.00     0.167 HD
ATOM     37  C   UNL A   1      40.053  28.770  31.711  1.00  0.00     0.074 A 
ATOM     38  C   UNL A   1      38.858  28.937  30.892  1.00  0.00     0.031 C 
ATOM     39  C   UNL A   1      40.461  29.404  32.848  1.00  0.00     0.034 A 
BRANCH  26  40
ATOM     40  C   UNL A   1      36.693  33.176  31.698  1.00  0.00     0.023 A 
ATOM     41  C   UNL A   1      36.518  32.101  30.791  1.00  0.00     0.012 A 
ATOM     42  C   UNL A   1      35.661  34.138  31.755  1.00  0.00     0.148 A 
ATOM     43  C   UNL A   1      35.430  32.035  29.917  1.00  0.00     0.002 A 
ATOM     44  C   UNL A   1      34.547  34.036  30.922  1.00  0.00     0.091 A 
ATOM     45  F   UNL A   1      35.799  35.223  32.523  1.00  0.00    -0.205 F 
ATOM     46  C   UNL A   1      34.445  33.007  29.979  1.00  0.00     0.022 A 
BRANCH  44  47
ATOM     47  S   UNL A   1      33.213  35.242  30.947  1.00  0.00     0.127 S 
ATOM     48  O   UNL A   1      32.538  34.903  32.193  1.00  0.00    -0.237 OA
ATOM     49  O   UNL A   1      33.950  36.503  30.958  1.00  0.00    -0.237 OA
ATOM     50  O   UNL A   1      32.447  35.002  29.723  1.00  0.00    -0.744 OA
ENDBRANCH  44  47
ENDBRANCH  26  40
BRANCH  27  51
ATOM     51  C   UNL A   1      41.484  27.760  27.416  1.00  0.00     0.023 A 
ATOM     52  C   UNL A   1      41.658  28.250  26.099  1.00  0.00     0.012 A 
ATOM     53  C   UNL A   1      41.681  26.376  27.615  1.00  0.00     0.148 A 
ATOM     54  C   UNL A   1      42.103  27.424  25.057  1.00  0.00     0.002 A 
ATOM     55  C   UNL A   1      42.179  25.566  26.591  1.00  0.00     0.091 A 
ATOM     56  F   UNL A   1      41.394  25.855  28.807  1.00  0.00    -0.205 F 
ATOM     57  C   UNL A   1      42.402  26.091  25.312  1.00  0.00     0.022 A 
BRANCH  55  58
ATOM     58  S   UNL A   1      42.677  23.849  26.845  1.00  0.00     0.127 S 
ATOM     59  O   UNL A   1      43.012  23.426  25.485  1.00  0.00    -0.237 OA
ATOM     60  O   UNL A   1      43.829  23.996  27.733  1.00  0.00    -0.237 OA
ATOM     61  O   UNL A   1      41.530  23.164  27.424  1.00  0.00    -0.744 OA
ENDBRANCH  55  58
ENDBRANCH  27  51
BRANCH  39  62
ATOM     62  C   UNL A   1      41.815  29.053  33.415  1.00  0.00     0.023 A 
ATOM     63  C   UNL A   1      42.970  29.834  33.202  1.00  0.00     0.012 A 
ATOM     64  C   UNL A   1      41.894  27.978  34.314  1.00  0.00     0.148 A 
ATOM     65  C   UNL A   1      44.169  29.552  33.862  1.00  0.00     0.002 A 
ATOM     66  C   UNL A   1      43.068  27.735  35.014  1.00  0.00     0.091 A 
ATOM     67  F   UNL A   1      40.800  27.222  34.495  1.00  0.00    -0.205 F 
ATOM     68  C   UNL A   1      44.212  28.513  34.785  1.00  0.00     0.022 A 
BRANCH  66  69
ATOM     69  S   UNL A   1      43.130  26.504  36.315  1.00  0.00     0.127 S 
ATOM     70  O   UNL A   1      42.048  26.933  37.197  1.00  0.00    -0.237 OA
ATOM     71  O   UNL A   1      42.871  25.260  35.586  1.00  0.00    -0.237 OA
ATOM     72  O   UNL A   1      44.474  26.587  36.877  1.00  0.00    -0.744 OA
ENDBRANCH  66  69
ENDBRANCH  39  62
ENDBRANCH  13  14
ENDBRANCH   6   8
ENDBRANCH   5   6
ENDBRANCH   4   5
ENDBRANCH   3   4
ENDBRANCH   2   3
ENDBRANCH   1   2
BRANCH   1  73
ATOM     73  C   UNL A   1      43.424  41.423  25.420  1.00  0.00     0.188 C 
BRANCH  73  74
ATOM     74  O   UNL A   1      44.468  41.614  24.461  1.00  0.00    -0.376 OA
BRANCH  74  75
ATOM     75  C   UNL A   1      44.706  42.919  23.966  1.00  0.00     0.202 C 
BRANCH  75  76
ATOM     76  C   UNL A   1      45.433  42.935  22.608  1.00  0.00     0.261 C 
BRANCH  76  77
ATOM     77  O   UNL A   1      45.105  44.029  21.726  1.00  0.00    -0.462 OA
BRANCH  77  78
ATOM     78  C   UNL A   1      44.429  43.683  20.587  1.00  0.00     0.324 C 
ATOM     79  O   UNL A   1      43.654  42.731  20.521  1.00  0.00    -0.251 OA
BRANCH  78  80
ATOM     80  C   UNL A   1      44.888  44.522  19.362  1.00  0.00     0.194 C 
BRANCH  80  81
ATOM     81  C   UNL A   1      43.686  44.638  18.400  1.00  0.00    -0.023 A 
ATOM     82  C   UNL A   1      42.514  45.312  18.804  1.00  0.00     0.005 A 
ATOM     83  C   UNL A   1      43.748  44.183  17.075  1.00  0.00     0.005 A 
ATOM     84  C   UNL A   1      41.552  45.703  17.876  1.00  0.00     0.000 A 
ATOM     85  C   UNL A   1      42.782  44.572  16.146  1.00  0.00     0.000 A 
ATOM     86  C   UNL A   1      41.706  45.365  16.538  1.00  0.00     0.000 A 
ENDBRANCH  80  81
BRANCH  80  87
ATOM     87  S   UNL A   1      45.353  46.198  20.051  1.00  0.00    -0.066 SA
BRANCH  87  88
ATOM     88  C   UNL A   1      46.707  46.749  19.120  1.00  0.00     0.197 A 
ATOM     89  N   UNL A   1      47.948  46.332  19.234  1.00  0.00    -0.122 NA
ATOM     90  N   UNL A   1      46.633  47.749  18.162  1.00  0.00    -0.270 N 
ATOM     91  N   UNL A   1      48.740  47.143  18.443  1.00  0.00    -0.129 NA
ATOM     92  C   UNL A   1      47.967  48.050  17.868  1.00  0.00     0.169 A 
BRANCH  90  93
ATOM     93  C   UNL A   1      45.568  48.599  17.742  1.00  0.00     0.050 A 
ATOM     94  C   UNL A   1      45.010  49.449  18.720  1.00  0.00     0.027 A 
ATOM     95  C   UNL A   1      44.802  48.188  16.644  1.00  0.00     0.027 A 
ATOM     96  C   UNL A   1      43.646  49.733  18.693  1.00  0.00     0.002 A 
ATOM     97  C   UNL A   1      43.438  48.499  16.621  1.00  0.00     0.002 A 
ATOM     98  C   UNL A   1      42.857  49.231  17.661  1.00  0.00     0.000 A 
ENDBRANCH  90  93
BRANCH  92  99
ATOM     99  C   UNL A   1      48.383  49.324  17.247  1.00  0.00     0.023 A 
ATOM    100  C   UNL A   1      48.956  49.297  15.958  1.00  0.00     0.032 A 
ATOM    101  C   UNL A   1      48.272  50.551  17.897  1.00  0.00     0.032 A 
ATOM    102  C   UNL A   1      49.362  50.472  15.371  1.00  0.00     0.111 A 
ATOM    103  C   UNL A   1      48.693  51.680  17.220  1.00  0.00     0.111 A 
ATOM    104  N   UNL A   1      49.211  51.650  15.979  1.00  0.00    -0.265 NA
ENDBRANCH  92  99
ENDBRANCH  87  88
ENDBRANCH  80  87
ENDBRANCH  78  80
ENDBRANCH  77  78
ENDBRANCH  76  77
ENDBRANCH  75  76
ENDBRANCH  74  75
ENDBRANCH  73  74
ENDBRANCH   1  73
TORSDOF 25
ENDMDL
MODEL 3
REMARK VINA RESULT:      -9.4      1.854      2.844
REMARK SMILES O=C(OCCOCCOCCOC(=O)[C@H](Sc1nnc(-c2ccncc2)n1-c1ccccc1)c1ccccc1)c1ccc(-c2c3nc(c(-c4cccc(S(=O)(=O)[O-])c4F)c4ccc([nH]4)c(-c4cccc(S(=O)(=O)[O-])c4F)c4nc(c(-c5cccc(S(=O)(=O)[O-])c5F)c5ccc2[nH]5)C=C4)C=C3)cc1
REMARK SMILES IDX 7 1 6 2 5 3 4 4 3 5 2 6 1 7 40 8 41 9 102 10 42 11 101 12
REMARK SMILES IDX 43 13 44 14 45 15 95 16 46 17 100 18 94 19 96 20 47 21 99 22
REMARK SMILES IDX 93 23 92 24 48 26 80 27 60 28 79 29 61 30 64 31 78 32 97 33
REMARK SMILES IDX 62 34 63 35 77 37 98 38 65 39 49 40 50 41 58 42 51 43 53 44
REMARK SMILES IDX 59 45 52 46 54 47 55 48 56 49 57 50 81 51 82 52 90 53 83 54
REMARK SMILES IDX 85 55 91 56 84 57 86 58 87 59 88 60 89 61 66 62 67 63 75 64
REMARK SMILES IDX 68 65 70 66 76 67 69 68 71 69 72 70 73 71 74 72 8 73 9 74
REMARK SMILES IDX 10 75 11 76 12 77 13 78 14 79 15 80 34 81 35 82 39 83 36 84
REMARK SMILES IDX 38 85 37 86 16 87 17 88 18 89 27 90 19 91 20 92 28 93 29 94
REMARK SMILES IDX 33 95 30 96 32 97 31 98 21 99 22 100 26 101 23 102 25 103
REMARK SMILES IDX 24 104
REMARK H PARENT 96 25 64 36
REMARK Flexibility Score: inf
ROOT
ATOM      1  C   UNL A   1      43.636  41.428  26.944  1.00  0.00     0.188 C 
ENDROOT
BRANCH   1   2
ATOM      2  O   UNL A   1      43.659  40.165  27.600  1.00  0.00    -0.376 OA
BRANCH   2   3
ATOM      3  C   UNL A   1      44.408  39.117  27.017  1.00  0.00     0.202 C 
BRANCH   3   4
ATOM      4  C   UNL A   1      45.859  38.952  27.466  1.00  0.00     0.261 C 
BRANCH   4   5
ATOM      5  O   UNL A   1      46.251  37.664  27.932  1.00  0.00    -0.460 OA
BRANCH   5   6
ATOM      6  C   UNL A   1      46.216  37.137  29.163  1.00  0.00     0.338 C 
ATOM      7  O   UNL A   1      47.243  37.166  29.841  1.00  0.00    -0.246 OA
BRANCH   6   8
ATOM      8  C   UNL A   1      45.069  36.367  29.696  1.00  0.00     0.060 A 
ATOM      9  C   UNL A   1      44.857  35.921  31.009  1.00  0.00     0.016 A 
ATOM     10  C   UNL A   1      44.223  35.924  28.687  1.00  0.00     0.016 A 
ATOM     11  C   UNL A   1      43.895  34.922  31.269  1.00  0.00     0.010 A 
ATOM     12  C   UNL A   1      43.332  34.920  28.955  1.00  0.00     0.010 A 
ATOM     13  C   UNL A   1      43.202  34.352  30.207  1.00  0.00    -0.014 A 
BRANCH  13  14
ATOM     14  C   UNL A   1      42.224  33.256  30.260  1.00  0.00     0.031 A 
ATOM     15  C   UNL A   1      40.813  33.705  30.410  1.00  0.00     0.074 A 
ATOM     16  C   UNL A   1      42.516  32.001  29.806  1.00  0.00     0.049 A 
ATOM     17  N   UNL A   1      40.023  33.462  31.398  1.00  0.00    -0.248 NA
ATOM     18  C   UNL A   1      40.213  34.605  29.418  1.00  0.00     0.031 C 
ATOM     19  C   UNL A   1      43.812  31.535  29.270  1.00  0.00     0.029 A 
ATOM     20  N   UNL A   1      41.710  30.911  29.576  1.00  0.00    -0.354 N 
ATOM     21  C   UNL A   1      38.755  33.877  30.987  1.00  0.00     0.074 A 
ATOM     22  C   UNL A   1      38.956  34.724  29.849  1.00  0.00     0.031 C 
ATOM     23  C   UNL A   1      43.652  30.367  28.601  1.00  0.00     0.029 A 
ATOM     24  C   UNL A   1      42.291  29.901  28.781  1.00  0.00     0.049 A 
ATOM     25  H   UNL A   1      40.798  30.842  29.938  1.00  0.00     0.167 HD
ATOM     26  C   UNL A   1      37.654  33.234  31.461  1.00  0.00     0.034 A 
ATOM     27  C   UNL A   1      41.710  28.752  28.333  1.00  0.00     0.034 A 
ATOM     28  C   UNL A   1      38.038  32.343  32.530  1.00  0.00     0.049 A 
ATOM     29  C   UNL A   1      40.647  28.457  29.320  1.00  0.00     0.074 A 
ATOM     30  C   UNL A   1      38.565  32.485  33.793  1.00  0.00     0.029 A 
ATOM     31  N   UNL A   1      38.307  31.067  32.104  1.00  0.00    -0.354 N 
ATOM     32  N   UNL A   1      40.898  28.152  30.562  1.00  0.00    -0.248 NA
ATOM     33  C   UNL A   1      39.252  28.749  29.016  1.00  0.00     0.031 C 
ATOM     34  C   UNL A   1      39.377  31.333  34.000  1.00  0.00     0.029 A 
ATOM     35  C   UNL A   1      39.256  30.484  32.898  1.00  0.00     0.049 A 
ATOM     36  H   UNL A   1      37.877  30.632  31.332  1.00  0.00     0.167 HD
ATOM     37  C   UNL A   1      39.846  28.723  31.247  1.00  0.00     0.074 A 
ATOM     38  C   UNL A   1      38.777  28.844  30.264  1.00  0.00     0.031 C 
ATOM     39  C   UNL A   1      40.059  29.370  32.429  1.00  0.00     0.034 A 
BRANCH  26  40
ATOM     40  C   UNL A   1      36.345  32.988  30.736  1.00  0.00     0.023 A 
ATOM     41  C   UNL A   1      36.304  31.827  29.924  1.00  0.00     0.012 A 
ATOM     42  C   UNL A   1      35.330  33.947  30.531  1.00  0.00     0.148 A 
ATOM     43  C   UNL A   1      35.369  31.671  28.897  1.00  0.00     0.002 A 
ATOM     44  C   UNL A   1      34.363  33.759  29.544  1.00  0.00     0.091 A 
ATOM     45  F   UNL A   1      35.357  35.104  31.200  1.00  0.00    -0.205 F 
ATOM     46  C   UNL A   1      34.399  32.641  28.704  1.00  0.00     0.022 A 
BRANCH  44  47
ATOM     47  S   UNL A   1      33.057  34.957  29.235  1.00  0.00     0.127 S 
ATOM     48  O   UNL A   1      32.320  34.312  28.156  1.00  0.00    -0.237 OA
ATOM     49  O   UNL A   1      32.373  34.994  30.526  1.00  0.00    -0.237 OA
ATOM     50  O   UNL A   1      33.745  36.200  28.882  1.00  0.00    -0.744 OA
ENDBRANCH  44  47
ENDBRANCH  26  40
BRANCH  27  51
ATOM     51  C   UNL A   1      41.925  27.788  27.207  1.00  0.00     0.023 A 
ATOM     52  C   UNL A   1      42.238  28.290  25.922  1.00  0.00     0.012 A 
ATOM     53  C   UNL A   1      42.177  26.418  27.438  1.00  0.00     0.148 A 
ATOM     54  C   UNL A   1      42.862  27.496  24.950  1.00  0.00     0.002 A 
ATOM     55  C   UNL A   1      42.851  25.641  26.490  1.00  0.00     0.091 A 
ATOM     56  F   UNL A   1      41.771  25.877  28.585  1.00  0.00    -0.205 F 
ATOM     57  C   UNL A   1      43.205  26.182  25.248  1.00  0.00     0.022 A 
BRANCH  55  58
ATOM     58  S   UNL A   1      43.414  23.957  26.816  1.00  0.00     0.127 S 
ATOM     59  O   UNL A   1      42.551  23.559  27.928  1.00  0.00    -0.237 OA
ATOM     60  O   UNL A   1      43.118  23.288  25.550  1.00  0.00    -0.237 OA
ATOM     61  O   UNL A   1      44.829  24.049  27.153  1.00  0.00    -0.744 OA
ENDBRANCH  55  58
ENDBRANCH  27  51
BRANCH  39  62
ATOM     62  C   UNL A   1      41.331  29.073  33.188  1.00  0.00     0.023 A 
ATOM     63  C   UNL A   1      42.485  29.879  33.110  1.00  0.00     0.012 A 
ATOM     64  C   UNL A   1      41.309  28.028  34.124  1.00  0.00     0.148 A 
ATOM     65  C   UNL A   1      43.588  29.650  33.936  1.00  0.00     0.002 A 
ATOM     66  C   UNL A   1      42.381  27.838  34.986  1.00  0.00     0.091 A 
ATOM     67  F   UNL A   1      40.219  27.248  34.179  1.00  0.00    -0.205 F 
ATOM     68  C   UNL A   1      43.528  28.640  34.890  1.00  0.00     0.022 A 
BRANCH  66  69
ATOM     69  S   UNL A   1      42.293  26.647  36.323  1.00  0.00     0.127 S 
ATOM     70  O   UNL A   1      40.906  26.781  36.762  1.00  0.00    -0.237 OA
ATOM     71  O   UNL A   1      42.603  25.387  35.644  1.00  0.00    -0.237 OA
ATOM     72  O   UNL A   1      43.305  27.059  37.289  1.00  0.00    -0.744 OA
ENDBRANCH  66  69
ENDBRANCH  39  62
ENDBRANCH  13  14
ENDBRANCH   6   8
ENDBRANCH   5   6
ENDBRANCH   4   5
ENDBRANCH   3   4
ENDBRANCH   2   3
ENDBRANCH   1   2
BRANCH   1  73
ATOM     73  C   UNL A   1      43.235  41.312  25.456  1.00  0.00     0.188 C 
BRANCH  73  74
ATOM     74  O   UNL A   1      44.175  41.625  24.423  1.00  0.00    -0.376 OA
BRANCH  74  75
ATOM     75  C   UNL A   1      44.239  42.954  23.942  1.00  0.00     0.202 C 
BRANCH  75  76
ATOM     76  C   UNL A   1      44.745  43.055  22.490  1.00  0.00     0.261 C 
BRANCH  76  77
ATOM     77  O   UNL A   1      44.284  44.197  21.737  1.00  0.00    -0.462 OA
BRANCH  77  78
ATOM     78  C   UNL A   1      43.553  43.905  20.616  1.00  0.00     0.324 C 
ATOM     79  O   UNL A   1      42.467  43.330  20.645  1.00  0.00    -0.251 OA
BRANCH  78  80
ATOM     80  C   UNL A   1      44.336  44.227  19.313  1.00  0.00     0.194 C 
BRANCH  80  81
ATOM     81  C   UNL A   1      43.342  44.865  18.319  1.00  0.00    -0.023 A 
ATOM     82  C   UNL A   1      42.914  46.198  18.497  1.00  0.00     0.005 A 
ATOM     83  C   UNL A   1      42.916  44.198  17.161  1.00  0.00     0.005 A 
ATOM     84  C   UNL A   1      42.281  46.896  17.471  1.00  0.00     0.000 A 
ATOM     85  C   UNL A   1      42.277  44.895  16.134  1.00  0.00     0.000 A 
ATOM     86  C   UNL A   1      41.997  46.252  16.273  1.00  0.00     0.000 A 
ENDBRANCH  80  81
BRANCH  80  87
ATOM     87  S   UNL A   1      45.656  45.455  19.813  1.00  0.00    -0.066 SA
BRANCH  87  88
ATOM     88  C   UNL A   1      47.175  44.642  19.620  1.00  0.00     0.197 A 
ATOM     89  N   UNL A   1      47.488  43.459  20.100  1.00  0.00    -0.122 NA
ATOM     90  N   UNL A   1      48.266  45.188  18.964  1.00  0.00    -0.270 N 
ATOM     91  N   UNL A   1      48.838  43.259  19.878  1.00  0.00    -0.129 NA
ATOM     92  C   UNL A   1      49.327  44.330  19.277  1.00  0.00     0.169 A 
BRANCH  90  93
ATOM     93  C   UNL A   1      48.493  46.467  18.377  1.00  0.00     0.050 A 
ATOM     94  C   UNL A   1      48.435  47.582  19.239  1.00  0.00     0.027 A 
ATOM     95  C   UNL A   1      48.214  46.616  17.012  1.00  0.00     0.027 A 
ATOM     96  C   UNL A   1      47.923  48.791  18.774  1.00  0.00     0.002 A 
ATOM     97  C   UNL A   1      47.721  47.843  16.556  1.00  0.00     0.002 A 
ATOM     98  C   UNL A   1      47.538  48.910  17.441  1.00  0.00     0.000 A 
ENDBRANCH  90  93
BRANCH  92  99
ATOM     99  C   UNL A   1      50.743  44.735  19.170  1.00  0.00     0.023 A 
ATOM    100  C   UNL A   1      51.483  44.332  18.039  1.00  0.00     0.032 A 
ATOM    101  C   UNL A   1      51.395  45.464  20.162  1.00  0.00     0.032 A 
ATOM    102  C   UNL A   1      52.806  44.687  17.930  1.00  0.00     0.111 A 
ATOM    103  C   UNL A   1      52.724  45.788  19.957  1.00  0.00     0.111 A 
ATOM    104  N   UNL A   1      53.414  45.426  18.861  1.00  0.00    -0.265 NA
ENDBRANCH  92  99
ENDBRANCH  87  88
ENDBRANCH  80  87
ENDBRANCH  78  80
ENDBRANCH  77  78
ENDBRANCH  76  77
ENDBRANCH  75  76
ENDBRANCH  74  75
ENDBRANCH  73  74
ENDBRANCH   1  73
TORSDOF 25
ENDMDL
