MODEL 1
REMARK VINA RESULT:      -7.3      0.000      0.000
REMARK SMILES CC(C)(C)c1cc(Nc2ccccc2C(=O)OCCOCCOCCOC(=O)c2ccc(-c3c4nc(c(-c5cccc(S(=O)(=O)[O-])c5F)c5ccc([nH]5)c(-c5cccc(S(=O)(=O)[O-])c5F)c5nc(c(-c6cccc(S(=O)(=O)[O-])c6F)c6ccc3[nH]6)C=C5)C=C4)cc2)cc2c1OCC2(C)C
REMARK SMILES IDX 21 1 20 2 19 3 18 4 17 5 15 6 16 7 14 8 9 9 10 10 11 11
REMARK SMILES IDX 13 12 12 13 8 14 7 16 5 17 6 18 94 19 93 20 95 21 92 22
REMARK SMILES IDX 97 23 96 24 98 25 99 26 2 27 1 28 3 29 4 30 22 31 23 32
REMARK SMILES IDX 24 33 25 34 26 35 27 36 28 37 29 38 30 39 91 40 31 41 90 42
REMARK SMILES IDX 32 43 33 44 34 45 84 46 35 47 89 48 83 49 85 50 36 51 88 52
REMARK SMILES IDX 82 53 81 54 37 56 69 57 49 58 68 59 50 60 53 61 67 62 86 63
REMARK SMILES IDX 51 64 52 65 66 67 87 68 54 69 38 70 39 71 47 72 40 73 42 74
REMARK SMILES IDX 48 75 41 76 43 77 44 78 45 79 46 80 70 81 71 82 79 83 72 84
REMARK SMILES IDX 74 85 80 86 73 87 75 88 76 89 77 90 78 91 55 92 56 93 64 94
REMARK SMILES IDX 57 95 59 96 65 97 58 98 60 99 61 100 62 101 63 102
REMARK H PARENT 8 15 85 55 53 66
REMARK Flexibility Score: inf
ROOT
ATOM      1  C   UNL A   1      45.839  22.236  25.522  1.00  0.00     0.188 C 
ENDROOT
BRANCH   1   2
ATOM      2  O   UNL A   1      46.735  23.288  25.212  1.00  0.00    -0.376 OA
BRANCH   2   3
ATOM      3  C   UNL A   1      46.245  24.598  24.967  1.00  0.00     0.202 C 
BRANCH   3   4
ATOM      4  C   UNL A   1      47.104  25.856  25.171  1.00  0.00     0.261 C 
BRANCH   4   5
ATOM      5  O   UNL A   1      46.496  26.903  25.939  1.00  0.00    -0.460 OA
BRANCH   5   6
ATOM      6  C   UNL A   1      46.010  27.945  25.219  1.00  0.00     0.340 C 
ATOM      7  O   UNL A   1      46.572  28.498  24.287  1.00  0.00    -0.246 OA
BRANCH   6   8
ATOM      8  C   UNL A   1      44.606  28.245  25.591  1.00  0.00     0.083 A 
ATOM      9  C   UNL A   1      44.216  29.298  26.439  1.00  0.00     0.053 A 
ATOM     10  C   UNL A   1      42.833  29.512  26.602  1.00  0.00     0.027 A 
ATOM     11  C   UNL A   1      41.882  28.623  26.096  1.00  0.00     0.002 A 
ATOM     12  C   UNL A   1      43.643  27.356  25.072  1.00  0.00     0.018 A 
ATOM     13  C   UNL A   1      42.291  27.521  25.360  1.00  0.00     0.001 A 
BRANCH   9  14
ATOM     14  N   UNL A   1      45.144  30.029  27.220  1.00  0.00    -0.355 N 
ATOM     15  H   UNL A   1      45.607  29.515  27.920  1.00  0.00     0.167 HD
BRANCH  14  16
ATOM     16  C   UNL A   1      45.497  31.398  27.136  1.00  0.00     0.039 A 
ATOM     17  C   UNL A   1      47.282  33.117  26.847  1.00  0.00     0.002 A 
ATOM     18  C   UNL A   1      46.854  31.770  27.017  1.00  0.00     0.034 A 
ATOM     19  C   UNL A   1      46.262  34.067  26.773  1.00  0.00     0.127 A 
ATOM     20  C   UNL A   1      44.928  33.723  26.902  1.00  0.00     0.006 A 
ATOM     21  O   UNL A   1      46.433  35.411  26.572  1.00  0.00    -0.492 OA
ATOM     22  C   UNL A   1      44.541  32.412  27.111  1.00  0.00     0.034 A 
ATOM     23  C   UNL A   1      44.041  34.912  26.757  1.00  0.00     0.028 C 
ATOM     24  C   UNL A   1      45.113  36.002  26.591  1.00  0.00     0.240 C 
ATOM     25  C   UNL A   1      43.157  34.788  25.509  1.00  0.00     0.020 C 
ATOM     26  C   UNL A   1      43.174  35.150  27.997  1.00  0.00     0.020 C 
BRANCH  17  27
ATOM     27  C   UNL A   1      48.784  33.448  26.819  1.00  0.00    -0.009 C 
ATOM     28  C   UNL A   1      49.338  34.102  28.107  1.00  0.00     0.016 C 
ATOM     29  C   UNL A   1      49.124  34.423  25.666  1.00  0.00     0.016 C 
ATOM     30  C   UNL A   1      49.559  32.130  26.603  1.00  0.00     0.016 C 
ENDBRANCH  17  27
ENDBRANCH  14  16
ENDBRANCH   9  14
ENDBRANCH   6   8
ENDBRANCH   5   6
ENDBRANCH   4   5
ENDBRANCH   3   4
ENDBRANCH   2   3
ENDBRANCH   1   2
BRANCH   1  31
ATOM     31  C   UNL A   1      46.029  20.843  24.889  1.00  0.00     0.188 C 
BRANCH  31  32
ATOM     32  O   UNL A   1      45.210  19.806  25.369  1.00  0.00    -0.376 OA
BRANCH  32  33
ATOM     33  C   UNL A   1      43.839  19.738  25.019  1.00  0.00     0.202 C 
BRANCH  33  34
ATOM     34  C   UNL A   1      42.709  19.097  25.847  1.00  0.00     0.261 C 
BRANCH  34  35
ATOM     35  O   UNL A   1      42.205  19.803  26.979  1.00  0.00    -0.460 OA
BRANCH  35  36
ATOM     36  C   UNL A   1      41.452  20.898  26.701  1.00  0.00     0.338 C 
ATOM     37  O   UNL A   1      40.319  20.915  26.248  1.00  0.00    -0.246 OA
BRANCH  36  38
ATOM     38  C   UNL A   1      42.160  22.084  27.218  1.00  0.00     0.060 A 
ATOM     39  C   UNL A   1      42.448  23.152  26.368  1.00  0.00     0.016 A 
ATOM     40  C   UNL A   1      42.546  22.115  28.565  1.00  0.00     0.016 A 
ATOM     41  C   UNL A   1      43.103  24.273  26.881  1.00  0.00     0.010 A 
ATOM     42  C   UNL A   1      43.208  23.237  29.073  1.00  0.00     0.010 A 
ATOM     43  C   UNL A   1      43.469  24.333  28.239  1.00  0.00    -0.014 A 
BRANCH  43  44
ATOM     44  C   UNL A   1      43.946  25.619  28.804  1.00  0.00     0.031 A 
ATOM     45  C   UNL A   1      45.397  25.920  29.012  1.00  0.00     0.074 A 
ATOM     46  C   UNL A   1      43.017  26.539  29.128  1.00  0.00     0.049 A 
ATOM     47  N   UNL A   1      45.949  27.053  29.366  1.00  0.00    -0.248 NA
ATOM     48  C   UNL A   1      46.351  24.821  28.809  1.00  0.00     0.031 C 
ATOM     49  C   UNL A   1      41.570  26.330  29.040  1.00  0.00     0.029 A 
ATOM     50  N   UNL A   1      43.145  27.825  29.583  1.00  0.00    -0.354 N 
ATOM     51  C   UNL A   1      47.315  26.815  29.415  1.00  0.00     0.074 A 
ATOM     52  C   UNL A   1      47.507  25.414  29.092  1.00  0.00     0.031 C 
ATOM     53  C   UNL A   1      40.944  27.458  29.400  1.00  0.00     0.029 A 
ATOM     54  C   UNL A   1      41.941  28.464  29.755  1.00  0.00     0.049 A 
ATOM     55  H   UNL A   1      44.013  28.249  29.769  1.00  0.00     0.167 HD
ATOM     56  C   UNL A   1      48.316  27.691  29.673  1.00  0.00     0.034 A 
ATOM     57  C   UNL A   1      41.661  29.725  30.137  1.00  0.00     0.034 A 
ATOM     58  C   UNL A   1      48.120  29.081  29.995  1.00  0.00     0.049 A 
ATOM     59  C   UNL A   1      42.783  30.682  30.407  1.00  0.00     0.074 A 
ATOM     60  C   UNL A   1      49.080  30.052  30.226  1.00  0.00     0.029 A 
ATOM     61  N   UNL A   1      46.887  29.699  30.142  1.00  0.00    -0.354 N 
ATOM     62  N   UNL A   1      44.074  30.474  30.319  1.00  0.00    -0.248 NA
ATOM     63  C   UNL A   1      42.417  32.051  30.794  1.00  0.00     0.031 C 
ATOM     64  C   UNL A   1      48.429  31.252  30.527  1.00  0.00     0.029 A 
ATOM     65  C   UNL A   1      47.061  31.035  30.465  1.00  0.00     0.049 A 
ATOM     66  H   UNL A   1      46.016  29.254  30.033  1.00  0.00     0.167 HD
ATOM     67  C   UNL A   1      44.676  31.686  30.628  1.00  0.00     0.074 A 
ATOM     68  C   UNL A   1      43.608  32.631  30.890  1.00  0.00     0.031 C 
ATOM     69  C   UNL A   1      45.997  31.980  30.697  1.00  0.00     0.034 A 
BRANCH  56  70
ATOM     70  C   UNL A   1      49.731  27.197  29.542  1.00  0.00     0.023 A 
ATOM     71  C   UNL A   1      50.318  27.155  28.260  1.00  0.00     0.012 A 
ATOM     72  C   UNL A   1      50.509  26.874  30.671  1.00  0.00     0.148 A 
ATOM     73  C   UNL A   1      51.651  26.781  28.100  1.00  0.00     0.002 A 
ATOM     74  C   UNL A   1      51.847  26.528  30.506  1.00  0.00     0.091 A 
ATOM     75  F   UNL A   1      49.929  26.916  31.878  1.00  0.00    -0.205 F 
ATOM     76  C   UNL A   1      52.416  26.477  29.223  1.00  0.00     0.022 A 
BRANCH  74  77
ATOM     77  S   UNL A   1      52.936  26.162  31.887  1.00  0.00     0.127 S 
ATOM     78  O   UNL A   1      52.476  27.125  32.887  1.00  0.00    -0.237 OA
ATOM     79  O   UNL A   1      52.602  24.769  32.182  1.00  0.00    -0.237 OA
ATOM     80  O   UNL A   1      54.291  26.376  31.399  1.00  0.00    -0.744 OA
ENDBRANCH  74  77
ENDBRANCH  56  70
BRANCH  57  81
ATOM     81  C   UNL A   1      40.238  30.144  30.196  1.00  0.00     0.023 A 
ATOM     82  C   UNL A   1      39.562  30.464  29.004  1.00  0.00     0.012 A 
ATOM     83  C   UNL A   1      39.522  30.089  31.408  1.00  0.00     0.148 A 
ATOM     84  C   UNL A   1      38.191  30.717  29.016  1.00  0.00     0.002 A 
ATOM     85  C   UNL A   1      38.151  30.304  31.407  1.00  0.00     0.091 A 
ATOM     86  F   UNL A   1      40.193  29.768  32.523  1.00  0.00    -0.205 F 
ATOM     87  C   UNL A   1      37.483  30.624  30.213  1.00  0.00     0.022 A 
BRANCH  85  88
ATOM     88  S   UNL A   1      37.137  30.101  32.875  1.00  0.00     0.127 S 
ATOM     89  O   UNL A   1      37.750  31.056  33.795  1.00  0.00    -0.237 OA
ATOM     90  O   UNL A   1      35.816  30.485  32.377  1.00  0.00    -0.237 OA
ATOM     91  O   UNL A   1      37.263  28.702  33.258  1.00  0.00    -0.744 OA
ENDBRANCH  85  88
ENDBRANCH  57  81
BRANCH  69  92
ATOM     92  C   UNL A   1      46.394  33.380  31.076  1.00  0.00     0.023 A 
ATOM     93  C   UNL A   1      46.362  34.395  30.101  1.00  0.00     0.012 A 
ATOM     94  C   UNL A   1      46.669  33.713  32.418  1.00  0.00     0.148 A 
ATOM     95  C   UNL A   1      46.603  35.723  30.454  1.00  0.00     0.002 A 
ATOM     96  C   UNL A   1      46.875  35.042  32.768  1.00  0.00     0.091 A 
ATOM     97  F   UNL A   1      46.698  32.727  33.326  1.00  0.00    -0.205 F 
ATOM     98  C   UNL A   1      46.845  36.047  31.788  1.00  0.00     0.022 A 
BRANCH  96  99
ATOM     99  S   UNL A   1      47.131  35.573  34.466  1.00  0.00     0.127 S 
ATOM    100  O   UNL A   1      48.591  35.579  34.559  1.00  0.00    -0.237 OA
ATOM    101  O   UNL A   1      46.514  36.899  34.470  1.00  0.00    -0.237 OA
ATOM    102  O   UNL A   1      46.464  34.585  35.304  1.00  0.00    -0.744 OA
ENDBRANCH  96  99
ENDBRANCH  69  92
ENDBRANCH  43  44
ENDBRANCH  36  38
ENDBRANCH  35  36
ENDBRANCH  34  35
ENDBRANCH  33  34
ENDBRANCH  32  33
ENDBRANCH  31  32
ENDBRANCH   1  31
TORSDOF 23
ENDMDL
MODEL 2
REMARK VINA RESULT:      -7.1      6.205     12.043
REMARK SMILES CC(C)(C)c1cc(Nc2ccccc2C(=O)OCCOCCOCCOC(=O)c2ccc(-c3c4nc(c(-c5cccc(S(=O)(=O)[O-])c5F)c5ccc([nH]5)c(-c5cccc(S(=O)(=O)[O-])c5F)c5nc(c(-c6cccc(S(=O)(=O)[O-])c6F)c6ccc3[nH]6)C=C5)C=C4)cc2)cc2c1OCC2(C)C
REMARK SMILES IDX 21 1 20 2 19 3 18 4 17 5 15 6 16 7 14 8 9 9 10 10 11 11
REMARK SMILES IDX 13 12 12 13 8 14 7 16 5 17 6 18 94 19 93 20 95 21 92 22
REMARK SMILES IDX 97 23 96 24 98 25 99 26 2 27 1 28 3 29 4 30 22 31 23 32
REMARK SMILES IDX 24 33 25 34 26 35 27 36 28 37 29 38 30 39 91 40 31 41 90 42
REMARK SMILES IDX 32 43 33 44 34 45 84 46 35 47 89 48 83 49 85 50 36 51 88 52
REMARK SMILES IDX 82 53 81 54 37 56 69 57 49 58 68 59 50 60 53 61 67 62 86 63
REMARK SMILES IDX 51 64 52 65 66 67 87 68 54 69 38 70 39 71 47 72 40 73 42 74
REMARK SMILES IDX 48 75 41 76 43 77 44 78 45 79 46 80 70 81 71 82 79 83 72 84
REMARK SMILES IDX 74 85 80 86 73 87 75 88 76 89 77 90 78 91 55 92 56 93 64 94
REMARK SMILES IDX 57 95 59 96 65 97 58 98 60 99 61 100 62 101 63 102
REMARK H PARENT 8 15 85 55 53 66
REMARK Flexibility Score: inf
ROOT
ATOM      1  C   UNL A   1      32.397  28.445  25.155  1.00  0.00     0.188 C 
ENDROOT
BRANCH   1   2
ATOM      2  O   UNL A   1      32.466  29.235  23.982  1.00  0.00    -0.376 OA
BRANCH   2   3
ATOM      3  C   UNL A   1      32.117  28.680  22.723  1.00  0.00     0.202 C 
BRANCH   3   4
ATOM      4  C   UNL A   1      32.478  27.239  22.324  1.00  0.00     0.261 C 
BRANCH   4   5
ATOM      5  O   UNL A   1      31.403  26.292  22.384  1.00  0.00    -0.460 OA
BRANCH   5   6
ATOM      6  C   UNL A   1      31.741  25.058  22.835  1.00  0.00     0.340 C 
ATOM      7  O   UNL A   1      32.577  24.317  22.343  1.00  0.00    -0.246 OA
BRANCH   6   8
ATOM      8  C   UNL A   1      31.082  24.762  24.131  1.00  0.00     0.083 A 
ATOM      9  C   UNL A   1      31.115  23.510  24.772  1.00  0.00     0.053 A 
ATOM     10  C   UNL A   1      30.530  23.429  26.052  1.00  0.00     0.027 A 
ATOM     11  C   UNL A   1      29.793  24.482  26.597  1.00  0.00     0.002 A 
ATOM     12  C   UNL A   1      30.348  25.828  24.689  1.00  0.00     0.018 A 
ATOM     13  C   UNL A   1      29.671  25.673  25.897  1.00  0.00     0.001 A 
BRANCH   9  14
ATOM     14  N   UNL A   1      31.574  22.336  24.125  1.00  0.00    -0.355 N 
ATOM     15  H   UNL A   1      30.994  21.993  23.408  1.00  0.00     0.167 HD
BRANCH  14  16
ATOM     16  C   UNL A   1      32.751  21.587  24.369  1.00  0.00     0.039 A 
ATOM     17  C   UNL A   1      33.856  19.355  24.505  1.00  0.00     0.002 A 
ATOM     18  C   UNL A   1      32.704  20.176  24.350  1.00  0.00     0.034 A 
ATOM     19  C   UNL A   1      35.066  20.036  24.650  1.00  0.00     0.127 A 
ATOM     20  C   UNL A   1      35.130  21.419  24.685  1.00  0.00     0.006 A 
ATOM     21  O   UNL A   1      36.302  19.459  24.773  1.00  0.00    -0.492 OA
ATOM     22  C   UNL A   1      33.989  22.193  24.576  1.00  0.00     0.034 A 
ATOM     23  C   UNL A   1      36.534  21.898  24.818  1.00  0.00     0.028 C 
ATOM     24  C   UNL A   1      37.250  20.541  24.922  1.00  0.00     0.240 C 
ATOM     25  C   UNL A   1      36.968  22.677  23.569  1.00  0.00     0.020 C 
ATOM     26  C   UNL A   1      36.745  22.750  26.074  1.00  0.00     0.020 C 
BRANCH  17  27
ATOM     27  C   UNL A   1      33.707  17.824  24.567  1.00  0.00    -0.009 C 
ATOM     28  C   UNL A   1      35.024  17.043  24.787  1.00  0.00     0.016 C 
ATOM     29  C   UNL A   1      33.093  17.266  23.261  1.00  0.00     0.016 C 
ATOM     30  C   UNL A   1      32.768  17.485  25.745  1.00  0.00     0.016 C 
ENDBRANCH  17  27
ENDBRANCH  14  16
ENDBRANCH   9  14
ENDBRANCH   6   8
ENDBRANCH   5   6
ENDBRANCH   4   5
ENDBRANCH   3   4
ENDBRANCH   2   3
ENDBRANCH   1   2
BRANCH   1  31
ATOM     31  C   UNL A   1      31.777  29.022  26.444  1.00  0.00     0.188 C 
BRANCH  31  32
ATOM     32  O   UNL A   1      31.771  30.422  26.579  1.00  0.00    -0.376 OA
BRANCH  32  33
ATOM     33  C   UNL A   1      32.861  31.101  27.177  1.00  0.00     0.202 C 
BRANCH  33  34
ATOM     34  C   UNL A   1      32.942  32.605  27.500  1.00  0.00     0.261 C 
BRANCH  34  35
ATOM     35  O   UNL A   1      34.127  33.317  27.150  1.00  0.00    -0.460 OA
BRANCH  35  36
ATOM     36  C   UNL A   1      34.755  33.949  28.175  1.00  0.00     0.338 C 
ATOM     37  O   UNL A   1      34.386  34.958  28.754  1.00  0.00    -0.246 OA
BRANCH  36  38
ATOM     38  C   UNL A   1      35.882  33.104  28.612  1.00  0.00     0.060 A 
ATOM     39  C   UNL A   1      37.151  33.660  28.777  1.00  0.00     0.016 A 
ATOM     40  C   UNL A   1      35.661  31.741  28.848  1.00  0.00     0.016 A 
ATOM     41  C   UNL A   1      38.200  32.846  29.209  1.00  0.00     0.010 A 
ATOM     42  C   UNL A   1      36.715  30.928  29.273  1.00  0.00     0.010 A 
ATOM     43  C   UNL A   1      37.987  31.481  29.480  1.00  0.00    -0.014 A 
BRANCH  43  44
ATOM     44  C   UNL A   1      39.052  30.704  30.157  1.00  0.00     0.031 A 
ATOM     45  C   UNL A   1      39.763  29.564  29.497  1.00  0.00     0.074 A 
ATOM     46  C   UNL A   1      39.380  31.060  31.414  1.00  0.00     0.049 A 
ATOM     47  N   UNL A   1      40.803  28.896  29.928  1.00  0.00    -0.248 NA
ATOM     48  C   UNL A   1      39.247  29.106  28.199  1.00  0.00     0.031 C 
ATOM     49  C   UNL A   1      38.705  32.104  32.187  1.00  0.00     0.029 A 
ATOM     50  N   UNL A   1      40.358  30.597  32.254  1.00  0.00    -0.354 N 
ATOM     51  C   UNL A   1      41.080  27.948  28.952  1.00  0.00     0.074 A 
ATOM     52  C   UNL A   1      40.072  28.101  27.922  1.00  0.00     0.031 C 
ATOM     53  C   UNL A   1      39.308  32.224  33.378  1.00  0.00     0.029 A 
ATOM     54  C   UNL A   1      40.402  31.260  33.457  1.00  0.00     0.049 A 
ATOM     55  H   UNL A   1      40.970  29.863  32.020  1.00  0.00     0.167 HD
ATOM     56  C   UNL A   1      42.100  27.057  28.908  1.00  0.00     0.034 A 
ATOM     57  C   UNL A   1      41.237  31.127  34.505  1.00  0.00     0.034 A 
ATOM     58  C   UNL A   1      43.099  26.907  29.935  1.00  0.00     0.049 A 
ATOM     59  C   UNL A   1      42.365  30.143  34.431  1.00  0.00     0.074 A 
ATOM     60  C   UNL A   1      44.194  26.061  29.950  1.00  0.00     0.029 A 
ATOM     61  N   UNL A   1      43.122  27.608  31.131  1.00  0.00    -0.354 N 
ATOM     62  N   UNL A   1      42.692  29.346  33.443  1.00  0.00    -0.248 NA
ATOM     63  C   UNL A   1      43.259  30.059  35.594  1.00  0.00     0.031 C 
ATOM     64  C   UNL A   1      44.871  26.239  31.160  1.00  0.00     0.029 A 
ATOM     65  C   UNL A   1      44.209  27.211  31.893  1.00  0.00     0.049 A 
ATOM     66  H   UNL A   1      42.463  28.289  31.400  1.00  0.00     0.167 HD
ATOM     67  C   UNL A   1      43.834  28.674  33.857  1.00  0.00     0.074 A 
ATOM     68  C   UNL A   1      44.155  29.170  35.181  1.00  0.00     0.031 C 
ATOM     69  C   UNL A   1      44.542  27.726  33.198  1.00  0.00     0.034 A 
BRANCH  56  70
ATOM     70  C   UNL A   1      42.243  26.217  27.667  1.00  0.00     0.023 A 
ATOM     71  C   UNL A   1      42.853  26.787  26.530  1.00  0.00     0.012 A 
ATOM     72  C   UNL A   1      41.877  24.857  27.648  1.00  0.00     0.148 A 
ATOM     73  C   UNL A   1      43.079  26.023  25.387  1.00  0.00     0.002 A 
ATOM     74  C   UNL A   1      42.130  24.094  26.513  1.00  0.00     0.091 A 
ATOM     75  F   UNL A   1      41.294  24.339  28.739  1.00  0.00    -0.205 F 
ATOM     76  C   UNL A   1      42.726  24.676  25.382  1.00  0.00     0.022 A 
BRANCH  74  77
ATOM     77  S   UNL A   1      41.759  22.339  26.416  1.00  0.00     0.127 S 
ATOM     78  O   UNL A   1      42.543  21.937  25.249  1.00  0.00    -0.237 OA
ATOM     79  O   UNL A   1      42.269  21.845  27.694  1.00  0.00    -0.237 OA
ATOM     80  O   UNL A   1      40.315  22.240  26.256  1.00  0.00    -0.744 OA
ENDBRANCH  74  77
ENDBRANCH  56  70
BRANCH  57  81
ATOM     81  C   UNL A   1      41.053  32.027  35.671  1.00  0.00     0.023 A 
ATOM     82  C   UNL A   1      41.936  33.108  35.855  1.00  0.00     0.012 A 
ATOM     83  C   UNL A   1      39.930  31.896  36.511  1.00  0.00     0.148 A 
ATOM     84  C   UNL A   1      41.699  34.051  36.855  1.00  0.00     0.002 A 
ATOM     85  C   UNL A   1      39.679  32.859  37.478  1.00  0.00     0.091 A 
ATOM     86  F   UNL A   1      39.102  30.863  36.301  1.00  0.00    -0.205 F 
ATOM     87  C   UNL A   1      40.565  33.934  37.657  1.00  0.00     0.022 A 
BRANCH  85  88
ATOM     88  S   UNL A   1      38.193  32.856  38.486  1.00  0.00     0.127 S 
ATOM     89  O   UNL A   1      38.552  31.916  39.545  1.00  0.00    -0.237 OA
ATOM     90  O   UNL A   1      38.116  34.256  38.904  1.00  0.00    -0.237 OA
ATOM     91  O   UNL A   1      37.115  32.420  37.608  1.00  0.00    -0.744 OA
ENDBRANCH  85  88
ENDBRANCH  57  81
BRANCH  69  92
ATOM     92  C   UNL A   1      45.745  27.135  33.882  1.00  0.00     0.023 A 
ATOM     93  C   UNL A   1      46.967  27.833  33.855  1.00  0.00     0.012 A 
ATOM     94  C   UNL A   1      45.630  25.962  34.656  1.00  0.00     0.148 A 
ATOM     95  C   UNL A   1      48.062  27.371  34.585  1.00  0.00     0.002 A 
ATOM     96  C   UNL A   1      46.715  25.526  35.407  1.00  0.00     0.091 A 
ATOM     97  F   UNL A   1      44.457  25.313  34.659  1.00  0.00    -0.205 F 
ATOM     98  C   UNL A   1      47.932  26.227  35.370  1.00  0.00     0.022 A 
BRANCH  96  99
ATOM     99  S   UNL A   1      46.631  24.102  36.500  1.00  0.00     0.127 S 
ATOM    100  O   UNL A   1      47.650  23.225  35.923  1.00  0.00    -0.237 OA
ATOM    101  O   UNL A   1      46.991  24.685  37.792  1.00  0.00    -0.237 OA
ATOM    102  O   UNL A   1      45.266  23.603  36.412  1.00  0.00    -0.744 OA
ENDBRANCH  96  99
ENDBRANCH  69  92
ENDBRANCH  43  44
ENDBRANCH  36  38
ENDBRANCH  35  36
ENDBRANCH  34  35
ENDBRANCH  33  34
ENDBRANCH  32  33
ENDBRANCH  31  32
ENDBRANCH   1  31
TORSDOF 23
ENDMDL
MODEL 3
REMARK VINA RESULT:      -7.0      2.054      2.442
REMARK SMILES CC(C)(C)c1cc(Nc2ccccc2C(=O)OCCOCCOCCOC(=O)c2ccc(-c3c4nc(c(-c5cccc(S(=O)(=O)[O-])c5F)c5ccc([nH]5)c(-c5cccc(S(=O)(=O)[O-])c5F)c5nc(c(-c6cccc(S(=O)(=O)[O-])c6F)c6ccc3[nH]6)C=C5)C=C4)cc2)cc2c1OCC2(C)C
REMARK SMILES IDX 21 1 20 2 19 3 18 4 17 5 15 6 16 7 14 8 9 9 10 10 11 11
REMARK SMILES IDX 13 12 12 13 8 14 7 16 5 17 6 18 94 19 93 20 95 21 92 22
REMARK SMILES IDX 97 23 96 24 98 25 99 26 2 27 1 28 3 29 4 30 22 31 23 32
REMARK SMILES IDX 24 33 25 34 26 35 27 36 28 37 29 38 30 39 91 40 31 41 90 42
REMARK SMILES IDX 32 43 33 44 34 45 84 46 35 47 89 48 83 49 85 50 36 51 88 52
REMARK SMILES IDX 82 53 81 54 37 56 69 57 49 58 68 59 50 60 53 61 67 62 86 63
REMARK SMILES IDX 51 64 52 65 66 67 87 68 54 69 38 70 39 71 47 72 40 73 42 74
REMARK SMILES IDX 48 75 41 76 43 77 44 78 45 79 46 80 70 81 71 82 79 83 72 84
REMARK SMILES IDX 74 85 80 86 73 87 75 88 76 89 77 90 78 91 55 92 56 93 64 94
REMARK SMILES IDX 57 95 59 96 65 97 58 98 60 99 61 100 62 101 63 102
REMARK H PARENT 8 15 85 55 53 66
REMARK Flexibility Score: inf
ROOT
ATOM      1  C   UNL A   1      45.674  22.327  25.529  1.00  0.00     0.188 C 
ENDROOT
BRANCH   1   2
ATOM      2  O   UNL A   1      46.580  23.393  25.304  1.00  0.00    -0.376 OA
BRANCH   2   3
ATOM      3  C   UNL A   1      46.097  24.714  25.111  1.00  0.00     0.202 C 
BRANCH   3   4
ATOM      4  C   UNL A   1      46.959  25.958  25.379  1.00  0.00     0.261 C 
BRANCH   4   5
ATOM      5  O   UNL A   1      46.368  26.949  26.229  1.00  0.00    -0.460 OA
BRANCH   5   6
ATOM      6  C   UNL A   1      45.850  28.029  25.590  1.00  0.00     0.340 C 
ATOM      7  O   UNL A   1      46.407  28.689  24.728  1.00  0.00    -0.246 OA
BRANCH   6   8
ATOM      8  C   UNL A   1      44.424  28.230  25.946  1.00  0.00     0.083 A 
ATOM      9  C   UNL A   1      43.953  29.248  26.796  1.00  0.00     0.053 A 
ATOM     10  C   UNL A   1      42.556  29.365  26.943  1.00  0.00     0.027 A 
ATOM     11  C   UNL A   1      41.675  28.417  26.420  1.00  0.00     0.002 A 
ATOM     12  C   UNL A   1      43.531  27.280  25.410  1.00  0.00     0.018 A 
ATOM     13  C   UNL A   1      42.167  27.350  25.682  1.00  0.00     0.001 A 
BRANCH   9  14
ATOM     14  N   UNL A   1      44.819  30.035  27.593  1.00  0.00    -0.355 N 
ATOM     15  H   UNL A   1      45.207  29.579  28.374  1.00  0.00     0.167 HD
BRANCH  14  16
ATOM     16  C   UNL A   1      45.203  31.387  27.424  1.00  0.00     0.039 A 
ATOM     17  C   UNL A   1      47.037  33.073  27.291  1.00  0.00     0.002 A 
ATOM     18  C   UNL A   1      46.563  31.752  27.527  1.00  0.00     0.034 A 
ATOM     19  C   UNL A   1      46.066  34.003  26.914  1.00  0.00     0.127 A 
ATOM     20  C   UNL A   1      44.726  33.667  26.821  1.00  0.00     0.006 A 
ATOM     21  O   UNL A   1      46.293  35.316  26.598  1.00  0.00    -0.492 OA
ATOM     22  C   UNL A   1      44.286  32.386  27.100  1.00  0.00     0.034 A 
ATOM     23  C   UNL A   1      43.902  34.825  26.374  1.00  0.00     0.028 C 
ATOM     24  C   UNL A   1      45.003  35.896  26.295  1.00  0.00     0.240 C 
ATOM     25  C   UNL A   1      43.273  34.553  25.001  1.00  0.00     0.020 C 
ATOM     26  C   UNL A   1      42.817  35.198  27.389  1.00  0.00     0.020 C 
BRANCH  17  27
ATOM     27  C   UNL A   1      48.522  33.409  27.516  1.00  0.00    -0.009 C 
ATOM     28  C   UNL A   1      48.807  34.860  27.971  1.00  0.00     0.016 C 
ATOM     29  C   UNL A   1      49.348  33.197  26.225  1.00  0.00     0.016 C 
ATOM     30  C   UNL A   1      49.062  32.468  28.614  1.00  0.00     0.016 C 
ENDBRANCH  17  27
ENDBRANCH  14  16
ENDBRANCH   9  14
ENDBRANCH   6   8
ENDBRANCH   5   6
ENDBRANCH   4   5
ENDBRANCH   3   4
ENDBRANCH   2   3
ENDBRANCH   1   2
BRANCH   1  31
ATOM     31  C   UNL A   1      45.973  20.923  24.965  1.00  0.00     0.188 C 
BRANCH  31  32
ATOM     32  O   UNL A   1      45.146  19.871  25.397  1.00  0.00    -0.376 OA
BRANCH  32  33
ATOM     33  C   UNL A   1      43.822  19.738  24.911  1.00  0.00     0.202 C 
BRANCH  33  34
ATOM     34  C   UNL A   1      42.636  19.079  25.641  1.00  0.00     0.261 C 
BRANCH  34  35
ATOM     35  O   UNL A   1      42.013  19.785  26.713  1.00  0.00    -0.460 OA
BRANCH  35  36
ATOM     36  C   UNL A   1      41.257  20.853  26.350  1.00  0.00     0.338 C 
ATOM     37  O   UNL A   1      40.204  20.832  25.733  1.00  0.00    -0.246 OA
BRANCH  36  38
ATOM     38  C   UNL A   1      41.821  22.054  26.994  1.00  0.00     0.060 A 
ATOM     39  C   UNL A   1      41.981  23.230  26.261  1.00  0.00     0.016 A 
ATOM     40  C   UNL A   1      42.200  21.991  28.341  1.00  0.00     0.016 A 
ATOM     41  C   UNL A   1      42.500  24.361  26.894  1.00  0.00     0.010 A 
ATOM     42  C   UNL A   1      42.727  23.124  28.969  1.00  0.00     0.010 A 
ATOM     43  C   UNL A   1      42.857  24.323  28.255  1.00  0.00    -0.014 A 
BRANCH  43  44
ATOM     44  C   UNL A   1      43.180  25.591  28.954  1.00  0.00     0.031 A 
ATOM     45  C   UNL A   1      44.586  26.024  29.232  1.00  0.00     0.074 A 
ATOM     46  C   UNL A   1      42.150  26.370  29.338  1.00  0.00     0.049 A 
ATOM     47  N   UNL A   1      45.004  27.169  29.709  1.00  0.00    -0.248 NA
ATOM     48  C   UNL A   1      45.658  25.059  28.952  1.00  0.00     0.031 C 
ATOM     49  C   UNL A   1      40.737  26.017  29.188  1.00  0.00     0.029 A 
ATOM     50  N   UNL A   1      42.128  27.611  29.917  1.00  0.00    -0.354 N 
ATOM     51  C   UNL A   1      46.387  27.075  29.774  1.00  0.00     0.074 A 
ATOM     52  C   UNL A   1      46.736  25.741  29.324  1.00  0.00     0.031 C 
ATOM     53  C   UNL A   1      39.984  27.031  29.637  1.00  0.00     0.029 A 
ATOM     54  C   UNL A   1      40.859  28.098  30.115  1.00  0.00     0.049 A 
ATOM     55  H   UNL A   1      42.941  28.106  30.168  1.00  0.00     0.167 HD
ATOM     56  C   UNL A   1      47.280  28.023  30.143  1.00  0.00     0.034 A 
ATOM     57  C   UNL A   1      40.436  29.278  30.607  1.00  0.00     0.034 A 
ATOM     58  C   UNL A   1      46.928  29.346  30.591  1.00  0.00     0.049 A 
ATOM     59  C   UNL A   1      41.441  30.318  31.000  1.00  0.00     0.074 A 
ATOM     60  C   UNL A   1      47.771  30.387  30.941  1.00  0.00     0.029 A 
ATOM     61  N   UNL A   1      45.633  29.811  30.761  1.00  0.00    -0.354 N 
ATOM     62  N   UNL A   1      42.748  30.260  30.930  1.00  0.00    -0.248 NA
ATOM     63  C   UNL A   1      40.921  31.595  31.506  1.00  0.00     0.031 C 
ATOM     64  C   UNL A   1      46.988  31.475  31.337  1.00  0.00     0.029 A 
ATOM     65  C   UNL A   1      45.654  31.120  31.216  1.00  0.00     0.049 A 
ATOM     66  H   UNL A   1      44.818  29.288  30.585  1.00  0.00     0.167 HD
ATOM     67  C   UNL A   1      43.209  31.493  31.371  1.00  0.00     0.074 A 
ATOM     68  C   UNL A   1      42.039  32.287  31.691  1.00  0.00     0.031 C 
ATOM     69  C   UNL A   1      44.488  31.918  31.505  1.00  0.00     0.034 A 
BRANCH  56  70
ATOM     70  C   UNL A   1      48.744  27.700  30.006  1.00  0.00     0.023 A 
ATOM     71  C   UNL A   1      49.425  27.161  31.117  1.00  0.00     0.012 A 
ATOM     72  C   UNL A   1      49.417  27.828  28.776  1.00  0.00     0.148 A 
ATOM     73  C   UNL A   1      50.759  26.772  31.013  1.00  0.00     0.002 A 
ATOM     74  C   UNL A   1      50.741  27.413  28.672  1.00  0.00     0.091 A 
ATOM     75  F   UNL A   1      48.751  28.348  27.736  1.00  0.00    -0.205 F 
ATOM     76  C   UNL A   1      51.413  26.890  29.789  1.00  0.00     0.022 A 
BRANCH  74  77
ATOM     77  S   UNL A   1      51.665  27.476  27.132  1.00  0.00     0.127 S 
ATOM     78  O   UNL A   1      51.835  28.917  26.951  1.00  0.00    -0.237 OA
ATOM     79  O   UNL A   1      52.889  26.755  27.478  1.00  0.00    -0.237 OA
ATOM     80  O   UNL A   1      50.831  26.821  26.135  1.00  0.00    -0.744 OA
ENDBRANCH  74  77
ENDBRANCH  56  70
BRANCH  57  81
ATOM     81  C   UNL A   1      38.975  29.534  30.665  1.00  0.00     0.023 A 
ATOM     82  C   UNL A   1      38.291  29.359  31.883  1.00  0.00     0.012 A 
ATOM     83  C   UNL A   1      38.297  30.083  29.559  1.00  0.00     0.148 A 
ATOM     84  C   UNL A   1      36.952  29.732  32.001  1.00  0.00     0.002 A 
ATOM     85  C   UNL A   1      36.976  30.488  29.695  1.00  0.00     0.091 A 
ATOM     86  F   UNL A   1      38.981  30.249  28.419  1.00  0.00    -0.205 F 
ATOM     87  C   UNL A   1      36.299  30.309  30.913  1.00  0.00     0.022 A 
BRANCH  85  88
ATOM     88  S   UNL A   1      36.084  31.336  28.388  1.00  0.00     0.127 S 
ATOM     89  O   UNL A   1      36.805  32.604  28.309  1.00  0.00    -0.237 OA
ATOM     90  O   UNL A   1      36.292  30.436  27.255  1.00  0.00    -0.237 OA
ATOM     91  O   UNL A   1      34.704  31.435  28.844  1.00  0.00    -0.744 OA
ENDBRANCH  85  88
ENDBRANCH  57  81
BRANCH  69  92
ATOM     92  C   UNL A   1      44.722  33.309  32.029  1.00  0.00     0.023 A 
ATOM     93  C   UNL A   1      45.083  33.488  33.377  1.00  0.00     0.012 A 
ATOM     94  C   UNL A   1      44.712  34.418  31.158  1.00  0.00     0.148 A 
ATOM     95  C   UNL A   1      45.428  34.752  33.856  1.00  0.00     0.002 A 
ATOM     96  C   UNL A   1      45.088  35.668  31.633  1.00  0.00     0.091 A 
ATOM     97  F   UNL A   1      44.358  34.221  29.879  1.00  0.00    -0.205 F 
ATOM     98  C   UNL A   1      45.443  35.838  32.982  1.00  0.00     0.022 A 
BRANCH  96  99
ATOM     99  S   UNL A   1      45.203  37.117  30.576  1.00  0.00     0.127 S 
ATOM    100  O   UNL A   1      43.799  37.349  30.237  1.00  0.00    -0.237 OA
ATOM    101  O   UNL A   1      45.783  38.110  31.479  1.00  0.00    -0.237 OA
ATOM    102  O   UNL A   1      46.053  36.735  29.457  1.00  0.00    -0.744 OA
ENDBRANCH  96  99
ENDBRANCH  69  92
ENDBRANCH  43  44
ENDBRANCH  36  38
ENDBRANCH  35  36
ENDBRANCH  34  35
ENDBRANCH  33  34
ENDBRANCH  32  33
ENDBRANCH  31  32
ENDBRANCH   1  31
TORSDOF 23
ENDMDL
