MODEL 1
REMARK VINA RESULT:      -9.9      0.000      0.000
REMARK SMILES O=C(OCCOCCOCCOC(=O)[C@@H]1CC=CC[C@@H]1C(=O)N1CCN(C(=O)c2sc3cc([N+](=O)[O-])ccc3c2Cl)CC1)c1ccc(-c2c3nc(c(-c4cccc(S(=O)(=O)[O-])c4F)c4ccc([nH]4)c(-c4cccc(S(=O)(=O)[O-])c4F)c4nc(c(-c5cccc(S(=O)(=O)[O-])c5F)c5ccc2[nH]5)C=C4)C=C3)cc1
REMARK SMILES IDX 7 1 6 2 5 3 4 4 3 5 2 6 1 7 44 8 45 9 106 10 46 11 105 12
REMARK SMILES IDX 47 13 48 14 49 15 99 16 50 17 104 18 98 19 100 20 51 21
REMARK SMILES IDX 103 22 97 23 96 24 52 26 84 27 64 28 83 29 65 30 68 31 82 32
REMARK SMILES IDX 101 33 66 34 67 35 81 37 102 38 69 39 53 40 54 41 62 42
REMARK SMILES IDX 55 43 57 44 63 45 56 46 58 47 59 48 60 49 61 50 85 51 86 52
REMARK SMILES IDX 94 53 87 54 89 55 95 56 88 57 90 58 91 59 92 60 93 61 70 62
REMARK SMILES IDX 71 63 79 64 72 65 74 66 80 67 73 68 75 69 76 70 77 71 78 72
REMARK SMILES IDX 8 73 9 74 10 75 11 76 12 77 13 78 14 79 15 80 16 81 20 82
REMARK SMILES IDX 17 83 19 84 18 85 21 86 22 87 23 88 24 89 43 90 25 91 42 92
REMARK SMILES IDX 26 93 27 94 28 95 29 96 30 97 40 98 31 99 39 100 41 101
REMARK SMILES IDX 32 102 38 103 33 104 37 105 34 106 35 107 36 108
REMARK H PARENT 100 25 68 36
REMARK Flexibility Score: inf
ROOT
ATOM      1  C   UNL A   1      37.590  30.844  28.226  1.00  0.00     0.188 C 
ENDROOT
BRANCH   1   2
ATOM      2  O   UNL A   1      36.353  31.370  28.712  1.00  0.00    -0.376 OA
BRANCH   2   3
ATOM      3  C   UNL A   1      35.534  31.947  27.692  1.00  0.00     0.202 C 
BRANCH   3   4
ATOM      4  C   UNL A   1      34.391  32.816  28.239  1.00  0.00     0.261 C 
BRANCH   4   5
ATOM      5  O   UNL A   1      34.045  32.540  29.609  1.00  0.00    -0.460 OA
BRANCH   5   6
ATOM      6  C   UNL A   1      34.222  33.565  30.477  1.00  0.00     0.338 C 
ATOM      7  O   UNL A   1      33.555  34.587  30.498  1.00  0.00    -0.246 OA
BRANCH   6   8
ATOM      8  C   UNL A   1      35.426  33.292  31.305  1.00  0.00     0.060 A 
ATOM      9  C   UNL A   1      36.571  34.036  31.081  1.00  0.00     0.016 A 
ATOM     10  C   UNL A   1      35.472  32.227  32.216  1.00  0.00     0.016 A 
ATOM     11  C   UNL A   1      37.771  33.599  31.639  1.00  0.00     0.010 A 
ATOM     12  C   UNL A   1      36.694  31.787  32.735  1.00  0.00     0.010 A 
ATOM     13  C   UNL A   1      37.904  32.362  32.310  1.00  0.00    -0.014 A 
BRANCH  13  14
ATOM     14  C   UNL A   1      39.445  31.825  32.847  1.00  0.00     0.031 A 
ATOM     15  C   UNL A   1      39.267  33.135  34.091  1.00  0.00     0.074 A 
ATOM     16  C   UNL A   1      40.716  30.630  32.476  1.00  0.00     0.049 A 
ATOM     17  N   UNL A   1      39.982  34.229  34.239  1.00  0.00    -0.248 NA
ATOM     18  C   UNL A   1      38.150  33.112  35.079  1.00  0.00     0.031 C 
ATOM     19  C   UNL A   1      41.102  29.415  31.465  1.00  0.00     0.029 A 
ATOM     20  N   UNL A   1      41.958  30.148  33.244  1.00  0.00    -0.354 N 
ATOM     21  C   UNL A   1      39.838  34.529  35.585  1.00  0.00     0.074 A 
ATOM     22  C   UNL A   1      38.499  34.098  35.911  1.00  0.00     0.031 C 
ATOM     23  C   UNL A   1      41.746  28.370  32.059  1.00  0.00     0.029 A 
ATOM     24  C   UNL A   1      42.237  28.793  33.321  1.00  0.00     0.049 A 
ATOM     25  H   UNL A   1      42.553  30.800  33.679  1.00  0.00     0.167 HD
ATOM     26  C   UNL A   1      40.885  34.674  36.462  1.00  0.00     0.034 A 
ATOM     27  C   UNL A   1      42.865  28.200  34.365  1.00  0.00     0.034 A 
ATOM     28  C   UNL A   1      42.242  34.710  35.950  1.00  0.00     0.049 A 
ATOM     29  C   UNL A   1      43.633  29.270  35.100  1.00  0.00     0.074 A 
ATOM     30  C   UNL A   1      43.032  35.623  35.288  1.00  0.00     0.029 A 
ATOM     31  N   UNL A   1      43.006  33.553  36.059  1.00  0.00    -0.354 N 
ATOM     32  N   UNL A   1      44.548  30.022  34.538  1.00  0.00    -0.248 NA
ATOM     33  C   UNL A   1      43.308  29.654  36.474  1.00  0.00     0.031 C 
ATOM     34  C   UNL A   1      44.227  34.950  34.885  1.00  0.00     0.029 A 
ATOM     35  C   UNL A   1      44.150  33.613  35.265  1.00  0.00     0.049 A 
ATOM     36  H   UNL A   1      42.769  32.786  36.628  1.00  0.00     0.167 HD
ATOM     37  C   UNL A   1      44.599  31.175  35.307  1.00  0.00     0.074 A 
ATOM     38  C   UNL A   1      43.967  30.814  36.565  1.00  0.00     0.031 C 
ATOM     39  C   UNL A   1      44.848  32.408  34.765  1.00  0.00     0.034 A 
BRANCH  26  40
ATOM     40  C   UNL A   1      40.675  34.528  37.942  1.00  0.00     0.023 A 
ATOM     41  C   UNL A   1      40.795  33.255  38.524  1.00  0.00     0.012 A 
ATOM     42  C   UNL A   1      40.269  35.598  38.762  1.00  0.00     0.148 A 
ATOM     43  C   UNL A   1      40.587  33.070  39.895  1.00  0.00     0.002 A 
ATOM     44  C   UNL A   1      40.158  35.430  40.135  1.00  0.00     0.091 A 
ATOM     45  F   UNL A   1      39.941  36.769  38.196  1.00  0.00    -0.205 F 
ATOM     46  C   UNL A   1      40.303  34.165  40.708  1.00  0.00     0.022 A 
BRANCH  44  47
ATOM     47  S   UNL A   1      39.964  36.866  41.191  1.00  0.00     0.127 S 
ATOM     48  O   UNL A   1      40.010  36.270  42.522  1.00  0.00    -0.237 OA
ATOM     49  O   UNL A   1      41.125  37.684  40.838  1.00  0.00    -0.237 OA
ATOM     50  O   UNL A   1      38.690  37.434  40.762  1.00  0.00    -0.744 OA
ENDBRANCH  44  47
ENDBRANCH  26  40
BRANCH  27  51
ATOM     51  C   UNL A   1      42.811  26.802  34.882  1.00  0.00     0.023 A 
ATOM     52  C   UNL A   1      41.613  26.331  35.460  1.00  0.00     0.012 A 
ATOM     53  C   UNL A   1      43.813  25.846  34.603  1.00  0.00     0.148 A 
ATOM     54  C   UNL A   1      41.396  24.965  35.691  1.00  0.00     0.002 A 
ATOM     55  C   UNL A   1      43.589  24.481  34.822  1.00  0.00     0.091 A 
ATOM     56  F   UNL A   1      44.988  26.257  34.114  1.00  0.00    -0.205 F 
ATOM     57  C   UNL A   1      42.373  24.037  35.351  1.00  0.00     0.022 A 
BRANCH  55  58
ATOM     58  S   UNL A   1      44.847  23.266  34.383  1.00  0.00     0.127 S 
ATOM     59  O   UNL A   1      44.201  21.997  34.715  1.00  0.00    -0.237 OA
ATOM     60  O   UNL A   1      45.042  23.479  32.948  1.00  0.00    -0.237 OA
ATOM     61  O   UNL A   1      45.993  23.634  35.200  1.00  0.00    -0.744 OA
ENDBRANCH  55  58
ENDBRANCH  27  51
BRANCH  39  62
ATOM     62  C   UNL A   1      45.585  32.479  33.411  1.00  0.00     0.023 A 
ATOM     63  C   UNL A   1      46.992  32.419  33.315  1.00  0.00     0.012 A 
ATOM     64  C   UNL A   1      44.888  32.525  32.189  1.00  0.00     0.148 A 
ATOM     65  C   UNL A   1      47.685  32.325  32.108  1.00  0.00     0.002 A 
ATOM     66  C   UNL A   1      45.577  32.443  30.968  1.00  0.00     0.091 A 
ATOM     67  F   UNL A   1      43.552  32.648  32.224  1.00  0.00    -0.205 F 
ATOM     68  C   UNL A   1      46.974  32.323  30.928  1.00  0.00     0.022 A 
BRANCH  66  69
ATOM     69  S   UNL A   1      44.762  32.486  29.370  1.00  0.00     0.127 S 
ATOM     70  O   UNL A   1      45.892  32.377  28.444  1.00  0.00    -0.237 OA
ATOM     71  O   UNL A   1      43.905  31.302  29.420  1.00  0.00    -0.237 OA
ATOM     72  O   UNL A   1      44.055  33.758  29.311  1.00  0.00    -0.744 OA
ENDBRANCH  66  69
ENDBRANCH  39  62
ENDBRANCH  13  14
ENDBRANCH   6   8
ENDBRANCH   5   6
ENDBRANCH   4   5
ENDBRANCH   3   4
ENDBRANCH   2   3
ENDBRANCH   1   2
BRANCH   1  73
ATOM     73  C   UNL A   1      38.238  29.910  29.257  1.00  0.00     0.188 C 
BRANCH  73  74
ATOM     74  O   UNL A   1      37.967  28.520  29.045  1.00  0.00    -0.376 OA
BRANCH  74  75
ATOM     75  C   UNL A   1      38.665  27.612  29.894  1.00  0.00     0.202 C 
BRANCH  75  76
ATOM     76  C   UNL A   1      39.588  26.611  29.186  1.00  0.00     0.261 C 
BRANCH  76  77
ATOM     77  O   UNL A   1      40.097  27.051  27.908  1.00  0.00    -0.463 OA
BRANCH  77  78
ATOM     78  C   UNL A   1      41.219  26.384  27.463  1.00  0.00     0.310 C 
ATOM     79  O   UNL A   1      41.778  26.635  26.406  1.00  0.00    -0.252 OA
BRANCH  78  80
ATOM     80  C   UNL A   1      41.655  25.304  28.446  1.00  0.00     0.115 C 
ATOM     81  C   UNL A   1      43.057  25.660  28.953  1.00  0.00     0.043 C 
ATOM     82  C   UNL A   1      41.468  23.825  28.011  1.00  0.00     0.097 C 
ATOM     83  C   UNL A   1      43.703  24.595  29.779  1.00  0.00    -0.030 C 
ATOM     84  C   UNL A   1      42.321  22.776  28.765  1.00  0.00     0.041 C 
ATOM     85  C   UNL A   1      43.364  23.305  29.694  1.00  0.00    -0.030 C 
BRANCH  82  86
ATOM     86  C   UNL A   1      41.225  23.320  26.570  1.00  0.00     0.227 C 
ATOM     87  O   UNL A   1      42.135  23.180  25.767  1.00  0.00    -0.275 OA
ATOM     88  N   UNL A   1      39.924  22.856  26.342  1.00  0.00    -0.339 N 
ATOM     89  C   UNL A   1      39.578  21.144  25.592  1.00  0.00     0.141 C 
ATOM     90  C   UNL A   1      38.576  24.059  26.737  1.00  0.00     0.141 C 
ATOM     91  C   UNL A   1      37.621  20.573  25.407  1.00  0.00     0.141 C 
ATOM     92  C   UNL A   1      36.684  23.585  26.463  1.00  0.00     0.141 C 
ATOM     93  N   UNL A   1      36.272  21.915  25.733  1.00  0.00    -0.334 N 
ATOM     94  C   UNL A   1      35.041  21.719  25.065  1.00  0.00     0.265 C 
ATOM     95  O   UNL A   1      34.827  20.551  24.727  1.00  0.00    -0.268 OA
BRANCH  94  96
ATOM     96  C   UNL A   1      34.034  22.801  24.804  1.00  0.00     0.112 A 
ATOM     97  S   UNL A   1      34.492  23.854  23.482  1.00  0.00    -0.128 S 
ATOM     98  C   UNL A   1      32.852  23.326  25.348  1.00  0.00     0.072 A 
ATOM     99  C   UNL A   1      33.413  25.110  23.931  1.00  0.00     0.043 A 
ATOM    100  C   UNL A   1      32.548  24.678  24.922  1.00  0.00     0.012 A 
ATOM    101  Cl  UNL A   1      31.708  22.796  26.525  1.00  0.00    -0.082 Cl
ATOM    102  C   UNL A   1      33.326  26.418  23.408  1.00  0.00     0.105 A 
ATOM    103  C   UNL A   1      31.548  25.583  25.394  1.00  0.00     0.018 A 
ATOM    104  C   UNL A   1      32.340  27.284  23.917  1.00  0.00     0.270 A 
ATOM    105  C   UNL A   1      31.449  26.874  24.901  1.00  0.00     0.086 A 
BRANCH 104 106
ATOM    106  N   UNL A   1      32.203  28.641  23.380  1.00  0.00     0.062 N 
ATOM    107  O   UNL A   1      33.068  29.053  22.595  1.00  0.00    -0.258 OA
ATOM    108  O   UNL A   1      31.183  29.284  23.688  1.00  0.00    -0.258 OA
ENDBRANCH 104 106
ENDBRANCH  94  96
ENDBRANCH  82  86
ENDBRANCH  78  80
ENDBRANCH  77  78
ENDBRANCH  76  77
ENDBRANCH  75  76
ENDBRANCH  74  75
ENDBRANCH  73  74
ENDBRANCH   1  73
TORSDOF 23
ENDMDL
MODEL 2
REMARK VINA RESULT:      -9.8      2.253      7.036
REMARK SMILES O=C(OCCOCCOCCOC(=O)[C@@H]1CC=CC[C@@H]1C(=O)N1CCN(C(=O)c2sc3cc([N+](=O)[O-])ccc3c2Cl)CC1)c1ccc(-c2c3nc(c(-c4cccc(S(=O)(=O)[O-])c4F)c4ccc([nH]4)c(-c4cccc(S(=O)(=O)[O-])c4F)c4nc(c(-c5cccc(S(=O)(=O)[O-])c5F)c5ccc2[nH]5)C=C4)C=C3)cc1
REMARK SMILES IDX 7 1 6 2 5 3 4 4 3 5 2 6 1 7 44 8 45 9 106 10 46 11 105 12
REMARK SMILES IDX 47 13 48 14 49 15 99 16 50 17 104 18 98 19 100 20 51 21
REMARK SMILES IDX 103 22 97 23 96 24 52 26 84 27 64 28 83 29 65 30 68 31 82 32
REMARK SMILES IDX 101 33 66 34 67 35 81 37 102 38 69 39 53 40 54 41 62 42
REMARK SMILES IDX 55 43 57 44 63 45 56 46 58 47 59 48 60 49 61 50 85 51 86 52
REMARK SMILES IDX 94 53 87 54 89 55 95 56 88 57 90 58 91 59 92 60 93 61 70 62
REMARK SMILES IDX 71 63 79 64 72 65 74 66 80 67 73 68 75 69 76 70 77 71 78 72
REMARK SMILES IDX 8 73 9 74 10 75 11 76 12 77 13 78 14 79 15 80 16 81 20 82
REMARK SMILES IDX 17 83 19 84 18 85 21 86 22 87 23 88 24 89 43 90 25 91 42 92
REMARK SMILES IDX 26 93 27 94 28 95 29 96 30 97 40 98 31 99 39 100 41 101
REMARK SMILES IDX 32 102 38 103 33 104 37 105 34 106 35 107 36 108
REMARK H PARENT 100 25 68 36
REMARK Flexibility Score: inf
ROOT
ATOM      1  C   UNL A   1      37.197  30.387  29.577  1.00  0.00     0.188 C 
ENDROOT
BRANCH   1   2
ATOM      2  O   UNL A   1      35.857  30.849  29.390  1.00  0.00    -0.376 OA
BRANCH   2   3
ATOM      3  C   UNL A   1      35.769  32.076  28.662  1.00  0.00     0.202 C 
BRANCH   3   4
ATOM      4  C   UNL A   1      34.789  33.087  29.277  1.00  0.00     0.261 C 
BRANCH   4   5
ATOM      5  O   UNL A   1      34.286  32.708  30.572  1.00  0.00    -0.460 OA
BRANCH   5   6
ATOM      6  C   UNL A   1      34.435  33.631  31.553  1.00  0.00     0.338 C 
ATOM      7  O   UNL A   1      33.773  34.649  31.662  1.00  0.00    -0.246 OA
BRANCH   6   8
ATOM      8  C   UNL A   1      35.608  33.259  32.388  1.00  0.00     0.060 A 
ATOM      9  C   UNL A   1      36.547  34.231  32.687  1.00  0.00     0.016 A 
ATOM     10  C   UNL A   1      35.850  31.934  32.777  1.00  0.00     0.016 A 
ATOM     11  C   UNL A   1      37.775  33.833  33.213  1.00  0.00     0.010 A 
ATOM     12  C   UNL A   1      37.103  31.555  33.269  1.00  0.00     0.010 A 
ATOM     13  C   UNL A   1      38.161  32.478  33.330  1.00  0.00    -0.014 A 
BRANCH  13  14
ATOM     14  C   UNL A   1      39.744  32.068  33.855  1.00  0.00     0.031 A 
ATOM     15  C   UNL A   1      40.002  31.597  32.121  1.00  0.00     0.074 A 
ATOM     16  C   UNL A   1      40.767  32.034  35.315  1.00  0.00     0.049 A 
ATOM     17  N   UNL A   1      40.234  30.402  31.621  1.00  0.00    -0.248 NA
ATOM     18  C   UNL A   1      39.882  32.601  31.025  1.00  0.00     0.031 C 
ATOM     19  C   UNL A   1      40.773  32.376  36.906  1.00  0.00     0.029 A 
ATOM     20  N   UNL A   1      42.277  31.838  35.534  1.00  0.00    -0.354 N 
ATOM     21  C   UNL A   1      40.910  30.672  30.441  1.00  0.00     0.074 A 
ATOM     22  C   UNL A   1      40.341  31.915  29.973  1.00  0.00     0.031 C 
ATOM     23  C   UNL A   1      41.942  32.908  37.365  1.00  0.00     0.029 A 
ATOM     24  C   UNL A   1      42.960  32.669  36.407  1.00  0.00     0.049 A 
ATOM     25  H   UNL A   1      42.756  31.123  35.055  1.00  0.00     0.167 HD
ATOM     26  C   UNL A   1      42.151  30.176  30.129  1.00  0.00     0.034 A 
ATOM     27  C   UNL A   1      44.263  33.017  36.269  1.00  0.00     0.034 A 
ATOM     28  C   UNL A   1      42.741  29.154  30.974  1.00  0.00     0.049 A 
ATOM     29  C   UNL A   1      44.920  31.981  35.391  1.00  0.00     0.074 A 
ATOM     30  C   UNL A   1      42.558  27.805  31.179  1.00  0.00     0.029 A 
ATOM     31  N   UNL A   1      43.715  29.549  31.885  1.00  0.00    -0.354 N 
ATOM     32  N   UNL A   1      44.939  30.700  35.672  1.00  0.00    -0.248 NA
ATOM     33  C   UNL A   1      45.461  32.311  34.074  1.00  0.00     0.031 C 
ATOM     34  C   UNL A   1      43.338  27.430  32.317  1.00  0.00     0.029 A 
ATOM     35  C   UNL A   1      43.967  28.559  32.834  1.00  0.00     0.049 A 
ATOM     36  H   UNL A   1      44.170  30.421  31.863  1.00  0.00     0.167 HD
ATOM     37  C   UNL A   1      45.097  30.060  34.451  1.00  0.00     0.074 A 
ATOM     38  C   UNL A   1      45.596  31.087  33.552  1.00  0.00     0.031 C 
ATOM     39  C   UNL A   1      44.515  28.851  34.176  1.00  0.00     0.034 A 
BRANCH  26  40
ATOM     40  C   UNL A   1      43.014  30.850  29.101  1.00  0.00     0.023 A 
ATOM     41  C   UNL A   1      43.267  30.191  27.886  1.00  0.00     0.012 A 
ATOM     42  C   UNL A   1      43.661  32.078  29.338  1.00  0.00     0.148 A 
ATOM     43  C   UNL A   1      44.082  30.773  26.910  1.00  0.00     0.002 A 
ATOM     44  C   UNL A   1      44.390  32.695  28.332  1.00  0.00     0.091 A 
ATOM     45  F   UNL A   1      43.609  32.619  30.564  1.00  0.00    -0.205 F 
ATOM     46  C   UNL A   1      44.616  32.043  27.118  1.00  0.00     0.022 A 
BRANCH  44  47
ATOM     47  S   UNL A   1      44.927  34.393  28.540  1.00  0.00     0.127 S 
ATOM     48  O   UNL A   1      43.676  35.067  28.869  1.00  0.00    -0.237 OA
ATOM     49  O   UNL A   1      45.885  34.295  29.642  1.00  0.00    -0.237 OA
ATOM     50  O   UNL A   1      45.537  34.718  27.255  1.00  0.00    -0.744 OA
ENDBRANCH  44  47
ENDBRANCH  26  40
BRANCH  27  51
ATOM     51  C   UNL A   1      45.016  34.217  36.735  1.00  0.00     0.023 A 
ATOM     52  C   UNL A   1      46.266  34.039  37.366  1.00  0.00     0.012 A 
ATOM     53  C   UNL A   1      44.662  35.533  36.361  1.00  0.00     0.148 A 
ATOM     54  C   UNL A   1      47.150  35.109  37.559  1.00  0.00     0.002 A 
ATOM     55  C   UNL A   1      45.553  36.598  36.543  1.00  0.00     0.091 A 
ATOM     56  F   UNL A   1      43.461  35.755  35.819  1.00  0.00    -0.205 F 
ATOM     57  C   UNL A   1      46.806  36.384  37.126  1.00  0.00     0.022 A 
BRANCH  55  58
ATOM     58  S   UNL A   1      45.120  38.257  35.984  1.00  0.00     0.127 S 
ATOM     59  O   UNL A   1      44.052  38.640  36.906  1.00  0.00    -0.237 OA
ATOM     60  O   UNL A   1      46.362  39.012  36.161  1.00  0.00    -0.237 OA
ATOM     61  O   UNL A   1      44.732  38.071  34.595  1.00  0.00    -0.744 OA
ENDBRANCH  55  58
ENDBRANCH  27  51
BRANCH  39  62
ATOM     62  C   UNL A   1      44.121  27.940  35.358  1.00  0.00     0.023 A 
ATOM     63  C   UNL A   1      42.803  27.885  35.858  1.00  0.00     0.012 A 
ATOM     64  C   UNL A   1      45.040  27.051  35.948  1.00  0.00     0.148 A 
ATOM     65  C   UNL A   1      42.374  26.967  36.818  1.00  0.00     0.002 A 
ATOM     66  C   UNL A   1      44.620  26.132  36.923  1.00  0.00     0.091 A 
ATOM     67  F   UNL A   1      46.321  27.109  35.554  1.00  0.00    -0.205 F 
ATOM     68  C   UNL A   1      43.284  26.076  37.344  1.00  0.00     0.022 A 
BRANCH  66  69
ATOM     69  S   UNL A   1      45.726  24.963  37.717  1.00  0.00     0.127 S 
ATOM     70  O   UNL A   1      46.240  24.201  36.577  1.00  0.00    -0.237 OA
ATOM     71  O   UNL A   1      46.711  25.839  38.351  1.00  0.00    -0.237 OA
ATOM     72  O   UNL A   1      44.904  24.190  38.638  1.00  0.00    -0.744 OA
ENDBRANCH  66  69
ENDBRANCH  39  62
ENDBRANCH  13  14
ENDBRANCH   6   8
ENDBRANCH   5   6
ENDBRANCH   4   5
ENDBRANCH   3   4
ENDBRANCH   2   3
ENDBRANCH   1   2
BRANCH   1  73
ATOM     73  C   UNL A   1      37.575  29.344  28.518  1.00  0.00     0.188 C 
BRANCH  73  74
ATOM     74  O   UNL A   1      38.511  29.810  27.539  1.00  0.00    -0.376 OA
BRANCH  74  75
ATOM     75  C   UNL A   1      39.683  29.017  27.369  1.00  0.00     0.202 C 
BRANCH  75  76
ATOM     76  C   UNL A   1      39.826  27.823  28.321  1.00  0.00     0.261 C 
BRANCH  76  77
ATOM     77  O   UNL A   1      39.628  26.530  27.709  1.00  0.00    -0.463 OA
BRANCH  77  78
ATOM     78  C   UNL A   1      40.777  25.915  27.254  1.00  0.00     0.310 C 
ATOM     79  O   UNL A   1      41.321  26.201  26.198  1.00  0.00    -0.252 OA
BRANCH  78  80
ATOM     80  C   UNL A   1      41.262  24.845  28.224  1.00  0.00     0.115 C 
ATOM     81  C   UNL A   1      42.663  25.238  28.705  1.00  0.00     0.043 C 
ATOM     82  C   UNL A   1      41.106  23.363  27.788  1.00  0.00     0.097 C 
ATOM     83  C   UNL A   1      43.354  24.189  29.514  1.00  0.00    -0.030 C 
ATOM     84  C   UNL A   1      42.003  22.336  28.521  1.00  0.00     0.041 C 
ATOM     85  C   UNL A   1      43.049  22.890  29.431  1.00  0.00    -0.030 C 
BRANCH  82  86
ATOM     86  C   UNL A   1      40.849  22.856  26.350  1.00  0.00     0.227 C 
ATOM     87  O   UNL A   1      41.756  22.668  25.553  1.00  0.00    -0.275 OA
ATOM     88  N   UNL A   1      39.530  22.448  26.118  1.00  0.00    -0.339 N 
ATOM     89  C   UNL A   1      39.112  20.747  25.382  1.00  0.00     0.141 C 
ATOM     90  C   UNL A   1      38.235  23.714  26.495  1.00  0.00     0.141 C 
ATOM     91  C   UNL A   1      37.132  20.262  25.190  1.00  0.00     0.141 C 
ATOM     92  C   UNL A   1      36.325  23.323  26.214  1.00  0.00     0.141 C 
ATOM     93  N   UNL A   1      35.843  21.666  25.497  1.00  0.00    -0.334 N 
ATOM     94  C   UNL A   1      34.608  21.520  24.824  1.00  0.00     0.265 C 
ATOM     95  O   UNL A   1      34.343  20.359  24.495  1.00  0.00    -0.268 OA
BRANCH  94  96
ATOM     96  C   UNL A   1      33.652  22.642  24.547  1.00  0.00     0.112 A 
ATOM     97  S   UNL A   1      34.302  23.834  23.441  1.00  0.00    -0.128 S 
ATOM     98  C   UNL A   1      32.403  23.122  24.970  1.00  0.00     0.072 A 
ATOM     99  C   UNL A   1      33.169  25.049  23.871  1.00  0.00     0.043 A 
ATOM    100  C   UNL A   1      32.167  24.520  24.666  1.00  0.00     0.012 A 
ATOM    101  Cl  UNL A   1      31.096  22.480  25.895  1.00  0.00    -0.082 Cl
ATOM    102  C   UNL A   1      33.161  26.411  23.498  1.00  0.00     0.105 A 
ATOM    103  C   UNL A   1      31.109  25.383  25.089  1.00  0.00     0.018 A 
ATOM    104  C   UNL A   1      32.113  27.229  23.956  1.00  0.00     0.270 A 
ATOM    105  C   UNL A   1      31.085  26.724  24.743  1.00  0.00     0.086 A 
BRANCH 104 106
ATOM    106  N   UNL A   1      32.058  28.642  23.569  1.00  0.00     0.062 N 
ATOM    107  O   UNL A   1      32.788  29.027  22.645  1.00  0.00    -0.258 OA
ATOM    108  O   UNL A   1      31.225  29.366  24.143  1.00  0.00    -0.258 OA
ENDBRANCH 104 106
ENDBRANCH  94  96
ENDBRANCH  82  86
ENDBRANCH  78  80
ENDBRANCH  77  78
ENDBRANCH  76  77
ENDBRANCH  75  76
ENDBRANCH  74  75
ENDBRANCH  73  74
ENDBRANCH   1  73
TORSDOF 23
ENDMDL
MODEL 3
REMARK VINA RESULT:      -9.5      7.893     13.665
REMARK SMILES O=C(OCCOCCOCCOC(=O)[C@@H]1CC=CC[C@@H]1C(=O)N1CCN(C(=O)c2sc3cc([N+](=O)[O-])ccc3c2Cl)CC1)c1ccc(-c2c3nc(c(-c4cccc(S(=O)(=O)[O-])c4F)c4ccc([nH]4)c(-c4cccc(S(=O)(=O)[O-])c4F)c4nc(c(-c5cccc(S(=O)(=O)[O-])c5F)c5ccc2[nH]5)C=C4)C=C3)cc1
REMARK SMILES IDX 7 1 6 2 5 3 4 4 3 5 2 6 1 7 44 8 45 9 106 10 46 11 105 12
REMARK SMILES IDX 47 13 48 14 49 15 99 16 50 17 104 18 98 19 100 20 51 21
REMARK SMILES IDX 103 22 97 23 96 24 52 26 84 27 64 28 83 29 65 30 68 31 82 32
REMARK SMILES IDX 101 33 66 34 67 35 81 37 102 38 69 39 53 40 54 41 62 42
REMARK SMILES IDX 55 43 57 44 63 45 56 46 58 47 59 48 60 49 61 50 85 51 86 52
REMARK SMILES IDX 94 53 87 54 89 55 95 56 88 57 90 58 91 59 92 60 93 61 70 62
REMARK SMILES IDX 71 63 79 64 72 65 74 66 80 67 73 68 75 69 76 70 77 71 78 72
REMARK SMILES IDX 8 73 9 74 10 75 11 76 12 77 13 78 14 79 15 80 16 81 20 82
REMARK SMILES IDX 17 83 19 84 18 85 21 86 22 87 23 88 24 89 43 90 25 91 42 92
REMARK SMILES IDX 26 93 27 94 28 95 29 96 30 97 40 98 31 99 39 100 41 101
REMARK SMILES IDX 32 102 38 103 33 104 37 105 34 106 35 107 36 108
REMARK H PARENT 100 25 68 36
REMARK Flexibility Score: inf
ROOT
ATOM      1  C   UNL A   1      44.068  42.395  34.235  1.00  0.00     0.188 C 
ENDROOT
BRANCH   1   2
ATOM      2  O   UNL A   1      44.853  41.209  34.083  1.00  0.00    -0.376 OA
BRANCH   2   3
ATOM      3  C   UNL A   1      46.208  41.359  34.515  1.00  0.00     0.202 C 
BRANCH   3   4
ATOM      4  C   UNL A   1      47.193  40.439  33.777  1.00  0.00     0.261 C 
BRANCH   4   5
ATOM      5  O   UNL A   1      46.579  39.582  32.797  1.00  0.00    -0.460 OA
BRANCH   5   6
ATOM      6  C   UNL A   1      46.934  38.276  32.855  1.00  0.00     0.338 C 
ATOM      7  O   UNL A   1      48.064  37.867  33.063  1.00  0.00    -0.246 OA
BRANCH   6   8
ATOM      8  C   UNL A   1      45.755  37.441  32.503  1.00  0.00     0.060 A 
ATOM      9  C   UNL A   1      44.493  37.891  32.852  1.00  0.00     0.016 A 
ATOM     10  C   UNL A   1      45.892  36.164  31.942  1.00  0.00     0.016 A 
ATOM     11  C   UNL A   1      43.425  36.998  32.790  1.00  0.00     0.010 A 
ATOM     12  C   UNL A   1      44.812  35.275  31.924  1.00  0.00     0.010 A 
ATOM     13  C   UNL A   1      43.587  35.620  32.519  1.00  0.00    -0.014 A 
BRANCH  13  14
ATOM     14  C   UNL A   1      42.242  34.555  32.599  1.00  0.00     0.031 A 
ATOM     15  C   UNL A   1      42.898  34.139  34.240  1.00  0.00     0.074 A 
ATOM     16  C   UNL A   1      40.841  33.999  31.645  1.00  0.00     0.049 A 
ATOM     17  N   UNL A   1      43.388  32.994  34.661  1.00  0.00    -0.248 NA
ATOM     18  C   UNL A   1      43.016  35.175  35.306  1.00  0.00     0.031 C 
ATOM     19  C   UNL A   1      40.076  34.197  30.223  1.00  0.00     0.029 A 
ATOM     20  N   UNL A   1      39.589  33.180  32.001  1.00  0.00    -0.354 N 
ATOM     21  C   UNL A   1      43.180  33.039  36.032  1.00  0.00     0.074 A 
ATOM     22  C   UNL A   1      43.326  34.435  36.375  1.00  0.00     0.031 C 
ATOM     23  C   UNL A   1      38.715  34.164  30.304  1.00  0.00     0.029 A 
ATOM     24  C   UNL A   1      38.346  33.590  31.548  1.00  0.00     0.049 A 
ATOM     25  H   UNL A   1      39.671  32.365  32.548  1.00  0.00     0.167 HD
ATOM     26  C   UNL A   1      42.479  32.095  36.740  1.00  0.00     0.034 A 
ATOM     27  C   UNL A   1      37.182  33.374  32.208  1.00  0.00     0.034 A 
ATOM     28  C   UNL A   1      42.079  30.865  36.082  1.00  0.00     0.049 A 
ATOM     29  C   UNL A   1      37.404  32.222  33.156  1.00  0.00     0.074 A 
ATOM     30  C   UNL A   1      42.699  29.703  35.681  1.00  0.00     0.029 A 
ATOM     31  N   UNL A   1      40.758  30.757  35.659  1.00  0.00    -0.354 N 
ATOM     32  N   UNL A   1      37.801  31.033  32.771  1.00  0.00    -0.248 NA
ATOM     33  C   UNL A   1      37.337  32.387  34.608  1.00  0.00     0.031 C 
ATOM     34  C   UNL A   1      41.764  28.961  34.895  1.00  0.00     0.029 A 
ATOM     35  C   UNL A   1      40.583  29.689  34.780  1.00  0.00     0.049 A 
ATOM     36  H   UNL A   1      40.035  31.361  35.945  1.00  0.00     0.167 HD
ATOM     37  C   UNL A   1      38.407  30.471  33.884  1.00  0.00     0.074 A 
ATOM     38  C   UNL A   1      37.928  31.257  35.009  1.00  0.00     0.031 C 
ATOM     39  C   UNL A   1      39.487  29.634  33.788  1.00  0.00     0.034 A 
BRANCH  26  40
ATOM     40  C   UNL A   1      41.893  32.419  38.084  1.00  0.00     0.023 A 
ATOM     41  C   UNL A   1      42.593  32.038  39.242  1.00  0.00     0.012 A 
ATOM     42  C   UNL A   1      40.623  33.006  38.239  1.00  0.00     0.148 A 
ATOM     43  C   UNL A   1      42.074  32.302  40.513  1.00  0.00     0.002 A 
ATOM     44  C   UNL A   1      40.156  33.351  39.499  1.00  0.00     0.091 A 
ATOM     45  F   UNL A   1      39.847  33.181  37.159  1.00  0.00    -0.205 F 
ATOM     46  C   UNL A   1      40.870  32.991  40.643  1.00  0.00     0.022 A 
BRANCH  44  47
ATOM     47  S   UNL A   1      38.698  34.385  39.651  1.00  0.00     0.127 S 
ATOM     48  O   UNL A   1      38.677  34.667  41.082  1.00  0.00    -0.237 OA
ATOM     49  O   UNL A   1      39.026  35.530  38.800  1.00  0.00    -0.237 OA
ATOM     50  O   UNL A   1      37.628  33.545  39.124  1.00  0.00    -0.744 OA
ENDBRANCH  44  47
ENDBRANCH  26  40
BRANCH  27  51
ATOM     51  C   UNL A   1      35.890  34.118  32.194  1.00  0.00     0.023 A 
ATOM     52  C   UNL A   1      35.525  34.880  33.326  1.00  0.00     0.012 A 
ATOM     53  C   UNL A   1      35.127  34.301  31.019  1.00  0.00     0.148 A 
ATOM     54  C   UNL A   1      34.491  35.825  33.273  1.00  0.00     0.002 A 
ATOM     55  C   UNL A   1      34.103  35.256  30.965  1.00  0.00     0.091 A 
ATOM     56  F   UNL A   1      35.398  33.554  29.944  1.00  0.00    -0.205 F 
ATOM     57  C   UNL A   1      33.796  36.031  32.087  1.00  0.00     0.022 A 
BRANCH  55  58
ATOM     58  S   UNL A   1      33.195  35.535  29.433  1.00  0.00     0.127 S 
ATOM     59  O   UNL A   1      34.222  36.069  28.540  1.00  0.00    -0.237 OA
ATOM     60  O   UNL A   1      32.721  34.199  29.068  1.00  0.00    -0.237 OA
ATOM     61  O   UNL A   1      32.135  36.457  29.815  1.00  0.00    -0.744 OA
ENDBRANCH  55  58
ENDBRANCH  27  51
BRANCH  39  62
ATOM     62  C   UNL A   1      39.722  28.890  32.457  1.00  0.00     0.023 A 
ATOM     63  C   UNL A   1      38.887  27.839  32.023  1.00  0.00     0.012 A 
ATOM     64  C   UNL A   1      40.737  29.278  31.560  1.00  0.00     0.148 A 
ATOM     65  C   UNL A   1      38.973  27.247  30.762  1.00  0.00     0.002 A 
ATOM     66  C   UNL A   1      40.838  28.681  30.293  1.00  0.00     0.091 A 
ATOM     67  F   UNL A   1      41.599  30.230  31.950  1.00  0.00    -0.205 F 
ATOM     68  C   UNL A   1      39.944  27.679  29.886  1.00  0.00     0.022 A 
BRANCH  66  69
ATOM     69  S   UNL A   1      42.096  29.123  29.091  1.00  0.00     0.127 S 
ATOM     70  O   UNL A   1      43.333  28.829  29.817  1.00  0.00    -0.237 OA
ATOM     71  O   UNL A   1      41.812  28.209  27.985  1.00  0.00    -0.237 OA
ATOM     72  O   UNL A   1      41.892  30.535  28.793  1.00  0.00    -0.744 OA
ENDBRANCH  66  69
ENDBRANCH  39  62
ENDBRANCH  13  14
ENDBRANCH   6   8
ENDBRANCH   5   6
ENDBRANCH   4   5
ENDBRANCH   3   4
ENDBRANCH   2   3
ENDBRANCH   1   2
BRANCH   1  73
ATOM     73  C   UNL A   1      42.579  42.106  34.003  1.00  0.00     0.188 C 
BRANCH  73  74
ATOM     74  O   UNL A   1      42.290  41.478  32.749  1.00  0.00    -0.376 OA
BRANCH  74  75
ATOM     75  C   UNL A   1      42.227  42.343  31.618  1.00  0.00     0.202 C 
BRANCH  75  76
ATOM     76  C   UNL A   1      42.520  41.690  30.261  1.00  0.00     0.261 C 
BRANCH  76  77
ATOM     77  O   UNL A   1      43.873  41.212  30.096  1.00  0.00    -0.463 OA
BRANCH  77  78
ATOM     78  C   UNL A   1      43.991  39.857  29.865  1.00  0.00     0.310 C 
ATOM     79  O   UNL A   1      43.046  39.083  29.896  1.00  0.00    -0.252 OA
BRANCH  78  80
ATOM     80  C   UNL A   1      45.434  39.460  29.580  1.00  0.00     0.115 C 
ATOM     81  C   UNL A   1      46.268  40.743  29.482  1.00  0.00     0.043 C 
ATOM     82  C   UNL A   1      45.681  38.425  28.449  1.00  0.00     0.097 C 
ATOM     83  C   UNL A   1      47.672  40.530  29.014  1.00  0.00    -0.030 C 
ATOM     84  C   UNL A   1      47.109  38.390  27.854  1.00  0.00     0.041 C 
ATOM     85  C   UNL A   1      48.043  39.470  28.290  1.00  0.00    -0.030 C 
BRANCH  82  86
ATOM     86  C   UNL A   1      44.676  38.020  27.347  1.00  0.00     0.227 C 
ATOM     87  O   UNL A   1      44.278  36.871  27.219  1.00  0.00    -0.275 OA
ATOM     88  N   UNL A   1      44.121  39.104  26.656  1.00  0.00    -0.339 N 
ATOM     89  C   UNL A   1      42.244  39.317  26.449  1.00  0.00     0.141 C 
ATOM     90  C   UNL A   1      45.344  40.258  25.886  1.00  0.00     0.141 C 
ATOM     91  C   UNL A   1      41.586  41.004  25.493  1.00  0.00     0.141 C 
ATOM     92  C   UNL A   1      44.746  41.830  24.862  1.00  0.00     0.141 C 
ATOM     93  N   UNL A   1      42.912  42.103  24.623  1.00  0.00    -0.334 N 
ATOM     94  C   UNL A   1      42.449  42.871  23.529  1.00  0.00     0.265 C 
ATOM     95  O   UNL A   1      41.232  43.082  23.537  1.00  0.00    -0.268 OA
BRANCH  94  96
ATOM     96  C   UNL A   1      43.328  43.434  22.452  1.00  0.00     0.112 A 
ATOM     97  S   UNL A   1      44.613  44.445  23.080  1.00  0.00    -0.128 S 
ATOM     98  C   UNL A   1      43.408  43.502  21.053  1.00  0.00     0.072 A 
ATOM     99  C   UNL A   1      44.929  45.210  21.577  1.00  0.00     0.043 A 
ATOM    100  C   UNL A   1      44.247  44.573  20.554  1.00  0.00     0.012 A 
ATOM    101  Cl  UNL A   1      42.637  42.684  19.744  1.00  0.00    -0.082 Cl
ATOM    102  C   UNL A   1      45.765  46.318  21.317  1.00  0.00     0.105 A 
ATOM    103  C   UNL A   1      44.423  45.053  19.219  1.00  0.00     0.018 A 
ATOM    104  C   UNL A   1      45.891  46.770  19.990  1.00  0.00     0.270 A 
ATOM    105  C   UNL A   1      45.232  46.143  18.941  1.00  0.00     0.086 A 
BRANCH 104 106
ATOM    106  N   UNL A   1      46.770  47.901  19.679  1.00  0.00     0.062 N 
ATOM    107  O   UNL A   1      47.873  47.666  19.167  1.00  0.00    -0.258 OA
ATOM    108  O   UNL A   1      46.330  49.047  19.880  1.00  0.00    -0.258 OA
ENDBRANCH 104 106
ENDBRANCH  94  96
ENDBRANCH  82  86
ENDBRANCH  78  80
ENDBRANCH  77  78
ENDBRANCH  76  77
ENDBRANCH  75  76
ENDBRANCH  74  75
ENDBRANCH  73  74
ENDBRANCH   1  73
TORSDOF 23
ENDMDL
