MODEL 1
REMARK VINA RESULT:     -11.0      0.000      0.000
REMARK SMILES C[N@@H+]1CCN(C(=O)c2ccc3[nH]c4c(c3c2)CSCC4)C[C@H]1C(=O)OCCOCCOCCOC(=O)c1ccc(-c2c3nc(c(-c4cccc(S(=O)(=O)[O-])c4F)c4ccc([nH]4)c(-c4cccc(S(=O)(=O)[O-])c4F)c4nc(c(-c5cccc(S(=O)(=O)[O-])c5F)c5ccc2[nH]5)C=C4)C=C3)cc1
REMARK SMILES IDX 30 1 29 2 28 3 27 4 26 5 25 6 23 7 24 8 22 9 1 10 2 11 3 12
REMARK SMILES IDX 4 14 21 15 5 16 6 17 7 18 8 19 9 20 16 21 10 22 15 23 11 24
REMARK SMILES IDX 14 25 12 26 13 27 17 28 20 30 18 31 19 32 31 33 32 34 33 35
REMARK SMILES IDX 34 36 35 37 36 38 37 39 38 40 99 41 39 42 98 43 40 44 41 45
REMARK SMILES IDX 42 46 92 47 43 48 97 49 91 50 93 51 44 52 96 53 90 54 89 55
REMARK SMILES IDX 45 57 77 58 57 59 76 60 58 61 61 62 75 63 94 64 59 65 60 66
REMARK SMILES IDX 74 68 95 69 62 70 46 71 47 72 55 73 48 74 50 75 56 76 49 77
REMARK SMILES IDX 51 78 52 79 53 80 54 81 78 82 79 83 87 84 80 85 82 86 88 87
REMARK SMILES IDX 81 88 83 89 84 90 85 91 86 92 63 93 64 94 72 95 65 96 67 97
REMARK SMILES IDX 73 98 66 99 68 100 69 101 70 102 71 103
REMARK H PARENT 2 13 12 29 93 56 61 67
REMARK Flexibility Score: inf
ROOT
ATOM      1  C   UNL A   1      50.118  20.942  39.245  1.00  0.00     0.188 C 
ENDROOT
BRANCH   1   2
ATOM      2  C   UNL A   1      50.081  20.435  40.684  1.00  0.00     0.188 C 
BRANCH   2   3
ATOM      3  O   UNL A   1      48.846  20.232  41.334  1.00  0.00    -0.376 OA
BRANCH   3   4
ATOM      4  C   UNL A   1      48.417  18.901  41.620  1.00  0.00     0.202 C 
BRANCH   4   5
ATOM      5  C   UNL A   1      46.895  18.622  41.763  1.00  0.00     0.261 C 
BRANCH   5   6
ATOM      6  O   UNL A   1      46.362  17.866  42.938  1.00  0.00    -0.459 OA
BRANCH   6   7
ATOM      7  C   UNL A   1      46.252  18.639  44.045  1.00  0.00     0.366 C 
ATOM      8  O   UNL A   1      45.842  19.784  43.829  1.00  0.00    -0.245 OA
BRANCH   7   9
ATOM      9  C   UNL A   1      46.636  18.221  45.544  1.00  0.00     0.314 C 
ATOM     10  C   UNL A   1      49.051  17.942  45.134  1.00  0.00     0.333 C 
ATOM     11  N   UNL A   1      48.001  18.199  46.112  1.00  0.00    -0.323 N 
ATOM     12  C   UNL A   1      47.996  17.183  47.311  1.00  0.00     0.284 C 
ATOM     13  H   UNL A   1      48.237  19.132  46.449  1.00  0.00     0.348 HD
ATOM     14  C   UNL A   1      46.566  16.648  48.166  1.00  0.00     0.181 C 
ATOM     15  C   UNL A   1      45.681  18.292  46.769  1.00  0.00     0.197 C 
ATOM     16  N   UNL A   1      45.288  16.878  47.415  1.00  0.00    -0.326 N 
BRANCH  16  17
ATOM     17  C   UNL A   1      43.864  15.910  47.626  1.00  0.00     0.254 C 
ATOM     18  O   UNL A   1      43.033  16.473  48.368  1.00  0.00    -0.269 OA
BRANCH  17  19
ATOM     19  C   UNL A   1      43.277  14.159  47.029  1.00  0.00     0.040 A 
ATOM     20  C   UNL A   1      43.827  12.823  46.851  1.00  0.00     0.016 A 
ATOM     21  C   UNL A   1      42.581  14.293  45.856  1.00  0.00     0.024 A 
ATOM     22  C   UNL A   1      43.818  11.969  45.611  1.00  0.00     0.027 A 
ATOM     23  C   UNL A   1      42.634  13.679  44.456  1.00  0.00     0.004 A 
ATOM     24  C   UNL A   1      43.175  12.412  44.432  1.00  0.00     0.046 A 
ATOM     25  C   UNL A   1      42.538  14.059  43.001  1.00  0.00    -0.009 A 
ATOM     26  N   UNL A   1      42.797  11.870  43.209  1.00  0.00    -0.358 N 
ATOM     27  C   UNL A   1      42.328  12.857  42.360  1.00  0.00     0.021 A 
ATOM     28  C   UNL A   1      42.534  15.367  42.213  1.00  0.00     0.107 C 
ATOM     29  H   UNL A   1      42.856  10.915  42.979  1.00  0.00     0.166 HD
ATOM     30  C   UNL A   1      41.749  12.652  40.977  1.00  0.00     0.065 C 
ATOM     31  S   UNL A   1      42.599  15.202  40.390  1.00  0.00    -0.157 SA
ATOM     32  C   UNL A   1      41.299  13.956  40.284  1.00  0.00     0.076 C 
ENDBRANCH  17  19
ENDBRANCH  16  17
ENDBRANCH   7   9
ENDBRANCH   6   7
ENDBRANCH   5   6
ENDBRANCH   4   5
ENDBRANCH   3   4
ENDBRANCH   2   3
ENDBRANCH   1   2
BRANCH   1  33
ATOM     33  O   UNL A   1      49.818  20.108  38.143  1.00  0.00    -0.376 OA
BRANCH  33  34
ATOM     34  C   UNL A   1      48.445  20.058  37.785  1.00  0.00     0.202 C 
BRANCH  34  35
ATOM     35  C   UNL A   1      47.753  21.415  37.485  1.00  0.00     0.261 C 
BRANCH  35  36
ATOM     36  O   UNL A   1      48.535  22.266  36.615  1.00  0.00    -0.460 OA
BRANCH  36  37
ATOM     37  C   UNL A   1      48.271  22.118  35.271  1.00  0.00     0.338 C 
ATOM     38  O   UNL A   1      48.490  21.149  34.623  1.00  0.00    -0.246 OA
BRANCH  37  39
ATOM     39  C   UNL A   1      47.282  23.194  34.896  1.00  0.00     0.060 A 
ATOM     40  C   UNL A   1      45.878  23.101  34.925  1.00  0.00     0.016 A 
ATOM     41  C   UNL A   1      47.849  24.222  34.182  1.00  0.00     0.016 A 
ATOM     42  C   UNL A   1      45.063  23.889  34.048  1.00  0.00     0.010 A 
ATOM     43  C   UNL A   1      47.028  24.965  33.340  1.00  0.00     0.010 A 
ATOM     44  C   UNL A   1      45.639  24.763  33.115  1.00  0.00    -0.014 A 
BRANCH  44  45
ATOM     45  C   UNL A   1      44.835  25.872  32.326  1.00  0.00     0.031 A 
ATOM     46  C   UNL A   1      44.734  24.745  30.872  1.00  0.00     0.074 A 
ATOM     47  C   UNL A   1      44.185  27.297  32.602  1.00  0.00     0.049 A 
ATOM     48  N   UNL A   1      45.311  24.797  29.679  1.00  0.00    -0.248 NA
ATOM     49  C   UNL A   1      43.930  23.481  30.947  1.00  0.00     0.031 C 
ATOM     50  C   UNL A   1      43.843  28.515  33.562  1.00  0.00     0.029 A 
ATOM     51  N   UNL A   1      43.390  28.055  31.685  1.00  0.00    -0.354 N 
ATOM     52  C   UNL A   1      44.774  23.766  28.869  1.00  0.00     0.074 A 
ATOM     53  C   UNL A   1      44.075  22.892  29.758  1.00  0.00     0.031 C 
ATOM     54  C   UNL A   1      42.682  29.259  33.120  1.00  0.00     0.029 A 
ATOM     55  C   UNL A   1      42.221  28.806  31.748  1.00  0.00     0.049 A 
ATOM     56  H   UNL A   1      43.768  28.043  30.776  1.00  0.00     0.167 HD
ATOM     57  C   UNL A   1      44.720  23.712  27.499  1.00  0.00     0.034 A 
ATOM     58  C   UNL A   1      41.209  28.988  30.678  1.00  0.00     0.034 A 
ATOM     59  C   UNL A   1      45.052  24.925  26.804  1.00  0.00     0.049 A 
ATOM     60  C   UNL A   1      41.341  28.921  28.811  1.00  0.00     0.074 A 
ATOM     61  C   UNL A   1      46.047  25.335  25.949  1.00  0.00     0.029 A 
ATOM     62  N   UNL A   1      44.072  25.897  26.814  1.00  0.00    -0.354 N 
ATOM     63  N   UNL A   1      42.201  29.576  27.977  1.00  0.00    -0.248 NA
ATOM     64  C   UNL A   1      40.813  27.753  28.047  1.00  0.00     0.031 C 
ATOM     65  C   UNL A   1      45.629  26.589  25.408  1.00  0.00     0.029 A 
ATOM     66  C   UNL A   1      44.484  27.011  26.113  1.00  0.00     0.049 A 
ATOM     67  H   UNL A   1      43.199  25.808  27.261  1.00  0.00     0.167 HD
ATOM     68  C   UNL A   1      42.748  28.634  27.008  1.00  0.00     0.074 A 
ATOM     69  C   UNL A   1      41.639  27.656  26.973  1.00  0.00     0.031 C 
ATOM     70  C   UNL A   1      44.115  28.373  26.613  1.00  0.00     0.034 A 
BRANCH  57  71
ATOM     71  C   UNL A   1      44.081  22.672  26.570  1.00  0.00     0.023 A 
ATOM     72  C   UNL A   1      42.692  22.420  26.765  1.00  0.00     0.012 A 
ATOM     73  C   UNL A   1      44.792  21.729  25.805  1.00  0.00     0.148 A 
ATOM     74  C   UNL A   1      42.064  21.253  26.319  1.00  0.00     0.002 A 
ATOM     75  C   UNL A   1      44.141  20.593  25.299  1.00  0.00     0.091 A 
ATOM     76  F   UNL A   1      46.114  21.874  25.654  1.00  0.00    -0.205 F 
ATOM     77  C   UNL A   1      42.792  20.335  25.585  1.00  0.00     0.022 A 
BRANCH  75  78
ATOM     78  S   UNL A   1      44.979  19.385  24.264  1.00  0.00     0.127 S 
ATOM     79  O   UNL A   1      46.383  19.643  24.568  1.00  0.00    -0.237 OA
ATOM     80  O   UNL A   1      44.466  18.117  24.790  1.00  0.00    -0.237 OA
ATOM     81  O   UNL A   1      44.537  19.683  22.909  1.00  0.00    -0.744 OA
ENDBRANCH  75  78
ENDBRANCH  57  71
BRANCH  58  82
ATOM     82  C   UNL A   1      39.717  29.102  30.982  1.00  0.00     0.023 A 
ATOM     83  C   UNL A   1      39.069  28.069  31.700  1.00  0.00     0.012 A 
ATOM     84  C   UNL A   1      39.041  30.331  30.888  1.00  0.00     0.148 A 
ATOM     85  C   UNL A   1      37.863  28.286  32.380  1.00  0.00     0.002 A 
ATOM     86  C   UNL A   1      37.850  30.555  31.578  1.00  0.00     0.091 A 
ATOM     87  F   UNL A   1      39.578  31.297  30.150  1.00  0.00    -0.205 F 
ATOM     88  C   UNL A   1      37.268  29.539  32.343  1.00  0.00     0.022 A 
BRANCH  86  89
ATOM     89  S   UNL A   1      37.037  32.160  31.592  1.00  0.00     0.127 S 
ATOM     90  O   UNL A   1      36.690  32.332  30.182  1.00  0.00    -0.237 OA
ATOM     91  O   UNL A   1      35.901  31.921  32.479  1.00  0.00    -0.237 OA
ATOM     92  O   UNL A   1      38.025  33.106  32.094  1.00  0.00    -0.744 OA
ENDBRANCH  86  89
ENDBRANCH  58  82
BRANCH  70  93
ATOM     93  C   UNL A   1      45.575  29.066  26.986  1.00  0.00     0.023 A 
ATOM     94  C   UNL A   1      45.777  30.407  26.464  1.00  0.00     0.012 A 
ATOM     95  C   UNL A   1      46.593  28.696  27.881  1.00  0.00     0.148 A 
ATOM     96  C   UNL A   1      46.890  31.245  26.659  1.00  0.00     0.002 A 
ATOM     97  C   UNL A   1      47.742  29.544  28.079  1.00  0.00     0.091 A 
ATOM     98  F   UNL A   1      46.467  27.563  28.584  1.00  0.00    -0.205 F 
ATOM     99  C   UNL A   1      47.916  30.778  27.427  1.00  0.00     0.022 A 
BRANCH  97 100
ATOM    100  S   UNL A   1      49.068  29.106  29.223  1.00  0.00     0.127 S 
ATOM    101  O   UNL A   1      49.595  27.879  28.634  1.00  0.00    -0.237 OA
ATOM    102  O   UNL A   1      49.998  30.238  29.141  1.00  0.00    -0.237 OA
ATOM    103  O   UNL A   1      48.385  28.998  30.506  1.00  0.00    -0.744 OA
ENDBRANCH  97 100
ENDBRANCH  70  93
ENDBRANCH  44  45
ENDBRANCH  37  39
ENDBRANCH  36  37
ENDBRANCH  35  36
ENDBRANCH  34  35
ENDBRANCH  33  34
ENDBRANCH   1  33
TORSDOF 22
ENDMDL
MODEL 2
REMARK VINA RESULT:     -10.6      7.819     16.047
REMARK SMILES C[N@@H+]1CCN(C(=O)c2ccc3[nH]c4c(c3c2)CSCC4)C[C@H]1C(=O)OCCOCCOCCOC(=O)c1ccc(-c2c3nc(c(-c4cccc(S(=O)(=O)[O-])c4F)c4ccc([nH]4)c(-c4cccc(S(=O)(=O)[O-])c4F)c4nc(c(-c5cccc(S(=O)(=O)[O-])c5F)c5ccc2[nH]5)C=C4)C=C3)cc1
REMARK SMILES IDX 30 1 29 2 28 3 27 4 26 5 25 6 23 7 24 8 22 9 1 10 2 11 3 12
REMARK SMILES IDX 4 14 21 15 5 16 6 17 7 18 8 19 9 20 16 21 10 22 15 23 11 24
REMARK SMILES IDX 14 25 12 26 13 27 17 28 20 30 18 31 19 32 31 33 32 34 33 35
REMARK SMILES IDX 34 36 35 37 36 38 37 39 38 40 99 41 39 42 98 43 40 44 41 45
REMARK SMILES IDX 42 46 92 47 43 48 97 49 91 50 93 51 44 52 96 53 90 54 89 55
REMARK SMILES IDX 45 57 77 58 57 59 76 60 58 61 61 62 75 63 94 64 59 65 60 66
REMARK SMILES IDX 74 68 95 69 62 70 46 71 47 72 55 73 48 74 50 75 56 76 49 77
REMARK SMILES IDX 51 78 52 79 53 80 54 81 78 82 79 83 87 84 80 85 82 86 88 87
REMARK SMILES IDX 81 88 83 89 84 90 85 91 86 92 63 93 64 94 72 95 65 96 67 97
REMARK SMILES IDX 73 98 66 99 68 100 69 101 70 102 71 103
REMARK H PARENT 2 13 12 29 93 56 61 67
REMARK Flexibility Score: inf
ROOT
ATOM      1  C   UNL A   1      35.103  33.469  30.173  1.00  0.00     0.188 C 
ENDROOT
BRANCH   1   2
ATOM      2  C   UNL A   1      34.942  33.256  28.670  1.00  0.00     0.188 C 
BRANCH   2   3
ATOM      3  O   UNL A   1      35.270  32.014  28.089  1.00  0.00    -0.376 OA
BRANCH   3   4
ATOM      4  C   UNL A   1      34.224  31.160  27.627  1.00  0.00     0.202 C 
BRANCH   4   5
ATOM      5  C   UNL A   1      34.472  29.626  27.594  1.00  0.00     0.261 C 
BRANCH   5   6
ATOM      6  O   UNL A   1      34.390  28.864  26.309  1.00  0.00    -0.459 OA
BRANCH   6   7
ATOM      7  C   UNL A   1      33.186  28.266  26.137  1.00  0.00     0.366 C 
ATOM      8  O   UNL A   1      32.605  27.978  27.188  1.00  0.00    -0.245 OA
BRANCH   7   9
ATOM      9  C   UNL A   1      32.504  27.880  24.739  1.00  0.00     0.314 C 
ATOM     10  C   UNL A   1      31.070  29.880  24.580  1.00  0.00     0.333 C 
ATOM     11  N   UNL A   1      31.741  28.799  23.867  1.00  0.00    -0.323 N 
ATOM     12  C   UNL A   1      30.770  27.923  22.995  1.00  0.00     0.284 C 
ATOM     13  H   UNL A   1      32.391  29.302  23.264  1.00  0.00     0.348 HD
ATOM     14  C   UNL A   1      30.967  26.212  22.688  1.00  0.00     0.181 C 
ATOM     15  C   UNL A   1      32.946  26.708  23.818  1.00  0.00     0.197 C 
ATOM     16  N   UNL A   1      31.879  25.522  23.659  1.00  0.00    -0.326 N 
BRANCH  16  17
ATOM     17  C   UNL A   1      31.757  23.838  24.059  1.00  0.00     0.254 C 
ATOM     18  O   UNL A   1      30.741  23.602  24.742  1.00  0.00    -0.269 OA
BRANCH  17  19
ATOM     19  C   UNL A   1      32.834  22.255  23.741  1.00  0.00     0.040 A 
ATOM     20  C   UNL A   1      32.884  20.863  24.164  1.00  0.00     0.016 A 
ATOM     21  C   UNL A   1      34.161  22.586  23.838  1.00  0.00     0.024 A 
ATOM     22  C   UNL A   1      34.042  20.114  24.769  1.00  0.00     0.027 A 
ATOM     23  C   UNL A   1      35.381  22.073  24.606  1.00  0.00     0.004 A 
ATOM     24  C   UNL A   1      35.297  20.740  24.942  1.00  0.00     0.046 A 
ATOM     25  C   UNL A   1      36.576  22.569  25.379  1.00  0.00    -0.009 A 
ATOM     26  N   UNL A   1      36.595  20.357  25.264  1.00  0.00    -0.358 N 
ATOM     27  C   UNL A   1      37.402  21.466  25.448  1.00  0.00     0.021 A 
ATOM     28  C   UNL A   1      37.030  23.912  25.943  1.00  0.00     0.107 C 
ATOM     29  H   UNL A   1      36.898  19.424  25.348  1.00  0.00     0.166 HD
ATOM     30  C   UNL A   1      38.889  21.460  25.727  1.00  0.00     0.065 C 
ATOM     31  S   UNL A   1      38.525  23.871  27.002  1.00  0.00    -0.157 SA
ATOM     32  C   UNL A   1      39.508  22.867  25.870  1.00  0.00     0.076 C 
ENDBRANCH  17  19
ENDBRANCH  16  17
ENDBRANCH   7   9
ENDBRANCH   6   7
ENDBRANCH   5   6
ENDBRANCH   4   5
ENDBRANCH   3   4
ENDBRANCH   2   3
ENDBRANCH   1   2
BRANCH   1  33
ATOM     33  O   UNL A   1      34.031  33.293  31.079  1.00  0.00    -0.376 OA
BRANCH  33  34
ATOM     34  C   UNL A   1      34.405  33.234  32.447  1.00  0.00     0.202 C 
BRANCH  34  35
ATOM     35  C   UNL A   1      35.589  32.296  32.806  1.00  0.00     0.261 C 
BRANCH  35  36
ATOM     36  O   UNL A   1      36.575  32.931  33.651  1.00  0.00    -0.460 OA
BRANCH  36  37
ATOM     37  C   UNL A   1      37.414  32.064  34.315  1.00  0.00     0.338 C 
ATOM     38  O   UNL A   1      37.356  31.786  35.467  1.00  0.00    -0.246 OA
BRANCH  37  39
ATOM     39  C   UNL A   1      38.098  31.223  33.265  1.00  0.00     0.060 A 
ATOM     40  C   UNL A   1      37.956  29.837  33.065  1.00  0.00     0.016 A 
ATOM     41  C   UNL A   1      39.169  31.855  32.682  1.00  0.00     0.016 A 
ATOM     42  C   UNL A   1      39.011  29.058  32.487  1.00  0.00     0.010 A 
ATOM     43  C   UNL A   1      40.176  31.067  32.132  1.00  0.00     0.010 A 
ATOM     44  C   UNL A   1      40.230  29.647  32.124  1.00  0.00    -0.014 A 
BRANCH  44  45
ATOM     45  C   UNL A   1      41.322  28.942  31.224  1.00  0.00     0.031 A 
ATOM     46  C   UNL A   1      42.419  28.793  32.696  1.00  0.00     0.074 A 
ATOM     47  C   UNL A   1      41.467  28.388  29.740  1.00  0.00     0.049 A 
ATOM     48  N   UNL A   1      43.558  29.399  33.007  1.00  0.00    -0.248 NA
ATOM     49  C   UNL A   1      42.039  27.900  33.839  1.00  0.00     0.031 C 
ATOM     50  C   UNL A   1      40.886  28.112  28.288  1.00  0.00     0.029 A 
ATOM     51  N   UNL A   1      42.587  27.669  29.212  1.00  0.00    -0.354 N 
ATOM     52  C   UNL A   1      44.081  28.809  34.184  1.00  0.00     0.074 A 
ATOM     53  C   UNL A   1      43.017  28.030  34.737  1.00  0.00     0.031 C 
ATOM     54  C   UNL A   1      41.560  27.016  27.621  1.00  0.00     0.029 A 
ATOM     55  C   UNL A   1      42.777  26.555  28.401  1.00  0.00     0.049 A 
ATOM     56  H   UNL A   1      43.442  28.065  29.495  1.00  0.00     0.167 HD
ATOM     57  C   UNL A   1      45.386  28.781  34.605  1.00  0.00     0.034 A 
ATOM     58  C   UNL A   1      43.896  25.583  28.455  1.00  0.00     0.034 A 
ATOM     59  C   UNL A   1      46.369  29.213  33.650  1.00  0.00     0.049 A 
ATOM     60  C   UNL A   1      45.669  25.752  29.036  1.00  0.00     0.074 A 
ATOM     61  C   UNL A   1      47.261  30.253  33.551  1.00  0.00     0.029 A 
ATOM     62  N   UNL A   1      46.662  28.305  32.653  1.00  0.00    -0.354 N 
ATOM     63  N   UNL A   1      46.613  26.674  28.688  1.00  0.00    -0.248 NA
ATOM     64  C   UNL A   1      46.109  25.159  30.333  1.00  0.00     0.031 C 
ATOM     65  C   UNL A   1      48.138  29.938  32.469  1.00  0.00     0.029 A 
ATOM     66  C   UNL A   1      47.620  28.810  31.801  1.00  0.00     0.049 A 
ATOM     67  H   UNL A   1      46.243  27.418  32.563  1.00  0.00     0.167 HD
ATOM     68  C   UNL A   1      47.268  27.174  29.891  1.00  0.00     0.074 A 
ATOM     69  C   UNL A   1      47.082  25.999  30.770  1.00  0.00     0.031 C 
ATOM     70  C   UNL A   1      47.522  28.528  30.333  1.00  0.00     0.034 A 
BRANCH  57  71
ATOM     71  C   UNL A   1      46.024  28.091  35.817  1.00  0.00     0.023 A 
ATOM     72  C   UNL A   1      47.021  27.112  35.534  1.00  0.00     0.012 A 
ATOM     73  C   UNL A   1      45.488  28.087  37.118  1.00  0.00     0.148 A 
ATOM     74  C   UNL A   1      47.392  26.122  36.449  1.00  0.00     0.002 A 
ATOM     75  C   UNL A   1      45.915  27.134  38.056  1.00  0.00     0.091 A 
ATOM     76  F   UNL A   1      44.495  28.933  37.417  1.00  0.00    -0.205 F 
ATOM     77  C   UNL A   1      46.835  26.132  37.714  1.00  0.00     0.022 A 
BRANCH  75  78
ATOM     78  S   UNL A   1      45.315  27.116  39.751  1.00  0.00     0.127 S 
ATOM     79  O   UNL A   1      43.983  26.538  39.597  1.00  0.00    -0.237 OA
ATOM     80  O   UNL A   1      46.286  26.242  40.415  1.00  0.00    -0.237 OA
ATOM     81  O   UNL A   1      45.378  28.505  40.185  1.00  0.00    -0.744 OA
ENDBRANCH  75  78
ENDBRANCH  57  71
BRANCH  58  82
ATOM     82  C   UNL A   1      43.695  24.096  28.170  1.00  0.00     0.023 A 
ATOM     83  C   UNL A   1      42.629  23.403  28.791  1.00  0.00     0.012 A 
ATOM     84  C   UNL A   1      44.299  23.473  27.064  1.00  0.00     0.148 A 
ATOM     85  C   UNL A   1      42.122  22.206  28.268  1.00  0.00     0.002 A 
ATOM     86  C   UNL A   1      43.785  22.291  26.532  1.00  0.00     0.091 A 
ATOM     87  F   UNL A   1      45.358  24.053  26.508  1.00  0.00    -0.205 F 
ATOM     88  C   UNL A   1      42.682  21.664  27.120  1.00  0.00     0.022 A 
BRANCH  86  89
ATOM     89  S   UNL A   1      44.447  21.547  25.033  1.00  0.00     0.127 S 
ATOM     90  O   UNL A   1      43.676  20.306  24.949  1.00  0.00    -0.237 OA
ATOM     91  O   UNL A   1      44.114  22.546  24.021  1.00  0.00    -0.237 OA
ATOM     92  O   UNL A   1      45.872  21.360  25.273  1.00  0.00    -0.744 OA
ENDBRANCH  86  89
ENDBRANCH  58  82
BRANCH  70  93
ATOM     93  C   UNL A   1      47.291  30.025  29.657  1.00  0.00     0.023 A 
ATOM     94  C   UNL A   1      48.422  30.549  28.909  1.00  0.00     0.012 A 
ATOM     95  C   UNL A   1      46.143  30.816  29.490  1.00  0.00     0.148 A 
ATOM     96  C   UNL A   1      48.493  31.761  28.199  1.00  0.00     0.002 A 
ATOM     97  C   UNL A   1      46.209  32.065  28.772  1.00  0.00     0.091 A 
ATOM     98  F   UNL A   1      44.970  30.380  29.968  1.00  0.00    -0.205 F 
ATOM     99  C   UNL A   1      47.387  32.560  28.186  1.00  0.00     0.022 A 
BRANCH  97 100
ATOM    100  S   UNL A   1      44.755  33.108  28.532  1.00  0.00     0.127 S 
ATOM    101  O   UNL A   1      43.923  32.286  27.658  1.00  0.00    -0.237 OA
ATOM    102  O   UNL A   1      44.204  33.268  29.882  1.00  0.00    -0.237 OA
ATOM    103  O   UNL A   1      45.309  34.335  27.974  1.00  0.00    -0.744 OA
ENDBRANCH  97 100
ENDBRANCH  70  93
ENDBRANCH  44  45
ENDBRANCH  37  39
ENDBRANCH  36  37
ENDBRANCH  35  36
ENDBRANCH  34  35
ENDBRANCH  33  34
ENDBRANCH   1  33
TORSDOF 22
ENDMDL
MODEL 3
REMARK VINA RESULT:     -10.5      8.916     15.728
REMARK SMILES C[N@@H+]1CCN(C(=O)c2ccc3[nH]c4c(c3c2)CSCC4)C[C@H]1C(=O)OCCOCCOCCOC(=O)c1ccc(-c2c3nc(c(-c4cccc(S(=O)(=O)[O-])c4F)c4ccc([nH]4)c(-c4cccc(S(=O)(=O)[O-])c4F)c4nc(c(-c5cccc(S(=O)(=O)[O-])c5F)c5ccc2[nH]5)C=C4)C=C3)cc1
REMARK SMILES IDX 30 1 29 2 28 3 27 4 26 5 25 6 23 7 24 8 22 9 1 10 2 11 3 12
REMARK SMILES IDX 4 14 21 15 5 16 6 17 7 18 8 19 9 20 16 21 10 22 15 23 11 24
REMARK SMILES IDX 14 25 12 26 13 27 17 28 20 30 18 31 19 32 31 33 32 34 33 35
REMARK SMILES IDX 34 36 35 37 36 38 37 39 38 40 99 41 39 42 98 43 40 44 41 45
REMARK SMILES IDX 42 46 92 47 43 48 97 49 91 50 93 51 44 52 96 53 90 54 89 55
REMARK SMILES IDX 45 57 77 58 57 59 76 60 58 61 61 62 75 63 94 64 59 65 60 66
REMARK SMILES IDX 74 68 95 69 62 70 46 71 47 72 55 73 48 74 50 75 56 76 49 77
REMARK SMILES IDX 51 78 52 79 53 80 54 81 78 82 79 83 87 84 80 85 82 86 88 87
REMARK SMILES IDX 81 88 83 89 84 90 85 91 86 92 63 93 64 94 72 95 65 96 67 97
REMARK SMILES IDX 73 98 66 99 68 100 69 101 70 102 71 103
REMARK H PARENT 2 13 12 29 93 56 61 67
REMARK Flexibility Score: inf
ROOT
ATOM      1  C   UNL A   1      35.430  33.012  30.119  1.00  0.00     0.188 C 
ENDROOT
BRANCH   1   2
ATOM      2  C   UNL A   1      34.960  32.904  28.671  1.00  0.00     0.188 C 
BRANCH   2   3
ATOM      3  O   UNL A   1      35.275  31.763  27.905  1.00  0.00    -0.376 OA
BRANCH   3   4
ATOM      4  C   UNL A   1      34.222  30.910  27.457  1.00  0.00     0.202 C 
BRANCH   4   5
ATOM      5  C   UNL A   1      34.383  29.373  27.627  1.00  0.00     0.261 C 
BRANCH   5   6
ATOM      6  O   UNL A   1      34.505  28.480  26.433  1.00  0.00    -0.459 OA
BRANCH   6   7
ATOM      7  C   UNL A   1      33.316  27.947  26.061  1.00  0.00     0.366 C 
ATOM      8  O   UNL A   1      32.659  27.466  26.990  1.00  0.00    -0.245 OA
BRANCH   7   9
ATOM      9  C   UNL A   1      32.737  27.855  24.570  1.00  0.00     0.314 C 
ATOM     10  C   UNL A   1      31.622  30.054  24.579  1.00  0.00     0.333 C 
ATOM     11  N   UNL A   1      32.206  28.985  23.777  1.00  0.00    -0.323 N 
ATOM     12  C   UNL A   1      31.219  28.390  22.709  1.00  0.00     0.284 C 
ATOM     13  H   UNL A   1      32.980  29.457  23.310  1.00  0.00     0.348 HD
ATOM     14  C   UNL A   1      31.205  26.723  22.176  1.00  0.00     0.181 C 
ATOM     15  C   UNL A   1      33.104  26.759  23.529  1.00  0.00     0.197 C 
ATOM     16  N   UNL A   1      31.905  25.781  23.112  1.00  0.00    -0.326 N 
BRANCH  16  17
ATOM     17  C   UNL A   1      31.507  24.098  23.253  1.00  0.00     0.254 C 
ATOM     18  O   UNL A   1      30.294  23.933  23.493  1.00  0.00    -0.269 OA
BRANCH  17  19
ATOM     19  C   UNL A   1      32.493  22.428  23.174  1.00  0.00     0.040 A 
ATOM     20  C   UNL A   1      32.408  21.081  23.720  1.00  0.00     0.016 A 
ATOM     21  C   UNL A   1      33.827  22.683  23.364  1.00  0.00     0.024 A 
ATOM     22  C   UNL A   1      33.454  20.320  24.491  1.00  0.00     0.027 A 
ATOM     23  C   UNL A   1      34.936  22.169  24.283  1.00  0.00     0.004 A 
ATOM     24  C   UNL A   1      34.731  20.880  24.724  1.00  0.00     0.046 A 
ATOM     25  C   UNL A   1      36.093  22.658  25.116  1.00  0.00    -0.009 A 
ATOM     26  N   UNL A   1      35.965  20.449  25.196  1.00  0.00    -0.358 N 
ATOM     27  C   UNL A   1      36.830  21.517  25.357  1.00  0.00     0.021 A 
ATOM     28  C   UNL A   1      36.591  24.017  25.600  1.00  0.00     0.107 C 
ATOM     29  H   UNL A   1      36.193  19.510  25.389  1.00  0.00     0.166 HD
ATOM     30  C   UNL A   1      38.283  21.444  25.770  1.00  0.00     0.065 C 
ATOM     31  S   UNL A   1      37.983  23.981  26.792  1.00  0.00    -0.157 SA
ATOM     32  C   UNL A   1      38.985  22.816  25.847  1.00  0.00     0.076 C 
ENDBRANCH  17  19
ENDBRANCH  16  17
ENDBRANCH   7   9
ENDBRANCH   6   7
ENDBRANCH   5   6
ENDBRANCH   4   5
ENDBRANCH   3   4
ENDBRANCH   2   3
ENDBRANCH   1   2
BRANCH   1  33
ATOM     33  O   UNL A   1      34.595  32.674  31.210  1.00  0.00    -0.376 OA
BRANCH  33  34
ATOM     34  C   UNL A   1      35.270  32.137  32.338  1.00  0.00     0.202 C 
BRANCH  34  35
ATOM     35  C   UNL A   1      36.402  31.114  32.051  1.00  0.00     0.261 C 
BRANCH  35  36
ATOM     36  O   UNL A   1      37.649  31.457  32.698  1.00  0.00    -0.460 OA
BRANCH  36  37
ATOM     37  C   UNL A   1      38.434  30.381  33.049  1.00  0.00     0.338 C 
ATOM     38  O   UNL A   1      38.341  29.751  34.049  1.00  0.00    -0.246 OA
BRANCH  37  39
ATOM     39  C   UNL A   1      39.099  29.891  31.786  1.00  0.00     0.060 A 
ATOM     40  C   UNL A   1      38.963  28.620  31.197  1.00  0.00     0.016 A 
ATOM     41  C   UNL A   1      40.150  30.680  31.389  1.00  0.00     0.016 A 
ATOM     42  C   UNL A   1      40.010  28.057  30.395  1.00  0.00     0.010 A 
ATOM     43  C   UNL A   1      41.150  30.100  30.614  1.00  0.00     0.010 A 
ATOM     44  C   UNL A   1      41.215  28.744  30.193  1.00  0.00    -0.014 A 
BRANCH  44  45
ATOM     45  C   UNL A   1      42.291  28.346  29.105  1.00  0.00     0.031 A 
ATOM     46  C   UNL A   1      43.522  28.063  30.444  1.00  0.00     0.074 A 
ATOM     47  C   UNL A   1      42.362  28.091  27.536  1.00  0.00     0.049 A 
ATOM     48  N   UNL A   1      44.616  28.732  30.788  1.00  0.00    -0.248 NA
ATOM     49  C   UNL A   1      43.337  26.939  31.421  1.00  0.00     0.031 C 
ATOM     50  C   UNL A   1      41.687  28.017  26.100  1.00  0.00     0.029 A 
ATOM     51  N   UNL A   1      43.498  27.615  26.807  1.00  0.00    -0.354 N 
ATOM     52  C   UNL A   1      45.297  28.003  31.794  1.00  0.00     0.074 A 
ATOM     53  C   UNL A   1      44.372  27.018  32.259  1.00  0.00     0.031 C 
ATOM     54  C   UNL A   1      42.408  27.146  25.194  1.00  0.00     0.029 A 
ATOM     55  C   UNL A   1      43.729  26.697  25.789  1.00  0.00     0.049 A 
ATOM     56  H   UNL A   1      44.330  28.051  27.103  1.00  0.00     0.167 HD
ATOM     57  C   UNL A   1      46.630  28.053  32.113  1.00  0.00     0.034 A 
ATOM     58  C   UNL A   1      44.943  25.868  25.583  1.00  0.00     0.034 A 
ATOM     59  C   UNL A   1      47.476  28.763  31.195  1.00  0.00     0.049 A 
ATOM     60  C   UNL A   1      46.733  26.135  26.065  1.00  0.00     0.074 A 
ATOM     61  C   UNL A   1      48.245  29.901  31.235  1.00  0.00     0.029 A 
ATOM     62  N   UNL A   1      47.772  28.090  30.026  1.00  0.00    -0.354 N 
ATOM     63  N   UNL A   1      47.544  27.209  25.836  1.00  0.00    -0.248 NA
ATOM     64  C   UNL A   1      47.343  25.374  27.194  1.00  0.00     0.031 C 
ATOM     65  C   UNL A   1      49.052  29.891  30.056  1.00  0.00     0.029 A 
ATOM     66  C   UNL A   1      48.595  28.850  29.222  1.00  0.00     0.049 A 
ATOM     67  H   UNL A   1      47.441  27.191  29.798  1.00  0.00     0.167 HD
ATOM     68  C   UNL A   1      48.247  27.557  27.065  1.00  0.00     0.074 A 
ATOM     69  C   UNL A   1      48.260  26.229  27.716  1.00  0.00     0.031 C 
ATOM     70  C   UNL A   1      48.398  28.828  27.738  1.00  0.00     0.034 A 
BRANCH  57  71
ATOM     71  C   UNL A   1      47.440  27.234  33.127  1.00  0.00     0.023 A 
ATOM     72  C   UNL A   1      47.715  27.867  34.374  1.00  0.00     0.012 A 
ATOM     73  C   UNL A   1      48.203  26.093  32.817  1.00  0.00     0.148 A 
ATOM     74  C   UNL A   1      48.753  27.459  35.217  1.00  0.00     0.002 A 
ATOM     75  C   UNL A   1      49.197  25.645  33.700  1.00  0.00     0.091 A 
ATOM     76  F   UNL A   1      48.041  25.504  31.626  1.00  0.00    -0.205 F 
ATOM     77  C   UNL A   1      49.498  26.345  34.878  1.00  0.00     0.022 A 
BRANCH  75  78
ATOM     78  S   UNL A   1      50.162  24.160  33.390  1.00  0.00     0.127 S 
ATOM     79  O   UNL A   1      50.304  24.185  31.937  1.00  0.00    -0.237 OA
ATOM     80  O   UNL A   1      51.398  24.433  34.127  1.00  0.00    -0.237 OA
ATOM     81  O   UNL A   1      49.368  23.074  33.950  1.00  0.00    -0.744 OA
ENDBRANCH  75  78
ENDBRANCH  57  71
BRANCH  58  82
ATOM     82  C   UNL A   1      44.871  24.445  25.036  1.00  0.00     0.023 A 
ATOM     83  C   UNL A   1      45.974  23.911  24.328  1.00  0.00     0.012 A 
ATOM     84  C   UNL A   1      43.911  23.528  25.500  1.00  0.00     0.148 A 
ATOM     85  C   UNL A   1      46.164  22.530  24.187  1.00  0.00     0.002 A 
ATOM     86  C   UNL A   1      44.106  22.153  25.376  1.00  0.00     0.091 A 
ATOM     87  F   UNL A   1      42.819  23.998  26.094  1.00  0.00    -0.205 F 
ATOM     88  C   UNL A   1      45.243  21.649  24.737  1.00  0.00     0.022 A 
BRANCH  86  89
ATOM     89  S   UNL A   1      42.966  20.955  26.085  1.00  0.00     0.127 S 
ATOM     90  O   UNL A   1      43.673  19.695  25.853  1.00  0.00    -0.237 OA
ATOM     91  O   UNL A   1      42.907  21.377  27.482  1.00  0.00    -0.237 OA
ATOM     92  O   UNL A   1      41.721  21.097  25.342  1.00  0.00    -0.744 OA
ENDBRANCH  86  89
ENDBRANCH  58  82
BRANCH  70  93
ATOM     93  C   UNL A   1      47.957  30.386  27.374  1.00  0.00     0.023 A 
ATOM     94  C   UNL A   1      49.058  31.296  27.106  1.00  0.00     0.012 A 
ATOM     95  C   UNL A   1      46.714  30.966  27.076  1.00  0.00     0.148 A 
ATOM     96  C   UNL A   1      48.979  32.649  26.732  1.00  0.00     0.002 A 
ATOM     97  C   UNL A   1      46.624  32.356  26.700  1.00  0.00     0.091 A 
ATOM     98  F   UNL A   1      45.612  30.207  27.100  1.00  0.00    -0.205 F 
ATOM     99  C   UNL A   1      47.741  33.203  26.590  1.00  0.00     0.022 A 
BRANCH  97 100
ATOM    100  S   UNL A   1      45.046  33.139  26.304  1.00  0.00     0.127 S 
ATOM    101  O   UNL A   1      45.370  34.559  26.398  1.00  0.00    -0.237 OA
ATOM    102  O   UNL A   1      44.762  32.695  24.935  1.00  0.00    -0.237 OA
ATOM    103  O   UNL A   1      44.137  32.589  27.301  1.00  0.00    -0.744 OA
ENDBRANCH  97 100
ENDBRANCH  70  93
ENDBRANCH  44  45
ENDBRANCH  37  39
ENDBRANCH  36  37
ENDBRANCH  35  36
ENDBRANCH  34  35
ENDBRANCH  33  34
ENDBRANCH   1  33
TORSDOF 22
ENDMDL
