MODEL 1
REMARK VINA RESULT:     -10.2      0.000      0.000
REMARK SMILES CC1(C(=O)N[C@H](C(=O)OCCOCCOCCOC(=O)c2ccc(-c3c4nc(c(-c5cccc(S(=O)(=O)[O-])c5F)c5ccc([nH]5)c(-c5cccc(S(=O)(=O)[O-])c5F)c5nc(c(-c6cccc(S(=O)(=O)[O-])c6F)c6ccc3[nH]6)C=C5)C=C4)cc2)C2CC2)CCCC1
REMARK SMILES IDX 14 1 13 2 12 3 11 4 10 5 9 6 7 7 8 8 6 9 5 10 3 11 4 12 2 14
REMARK SMILES IDX 1 15 87 16 90 17 88 18 89 19 84 20 85 21 86 22 15 23 16 24
REMARK SMILES IDX 17 25 18 26 19 27 20 28 21 29 22 30 83 31 23 32 82 33 24 34
REMARK SMILES IDX 25 35 26 36 76 37 27 38 81 39 75 40 77 41 28 42 80 43 74 44
REMARK SMILES IDX 73 45 29 47 61 48 41 49 60 50 42 51 45 52 59 53 78 54 43 55
REMARK SMILES IDX 44 56 58 58 79 59 46 60 30 61 31 62 39 63 32 64 34 65 40 66
REMARK SMILES IDX 33 67 35 68 36 69 37 70 38 71 62 72 63 73 71 74 64 75 66 76
REMARK SMILES IDX 72 77 65 78 67 79 68 80 69 81 70 82 47 83 48 84 56 85 49 86
REMARK SMILES IDX 51 87 57 88 50 89 52 90 53 91 54 92 55 93
REMARK H PARENT 5 13 77 46 45 57
REMARK Flexibility Score: inf
ROOT
ATOM      1  C   UNL A   1      33.751  21.853  25.549  1.00  0.00     0.188 C 
ENDROOT
BRANCH   1   2
ATOM      2  C   UNL A   1      33.712  22.388  24.118  1.00  0.00     0.188 C 
BRANCH   2   3
ATOM      3  O   UNL A   1      33.694  23.797  23.922  1.00  0.00    -0.376 OA
BRANCH   3   4
ATOM      4  C   UNL A   1      34.673  24.578  24.585  1.00  0.00     0.202 C 
BRANCH   4   5
ATOM      5  C   UNL A   1      34.151  25.494  25.697  1.00  0.00     0.261 C 
BRANCH   5   6
ATOM      6  O   UNL A   1      33.813  26.837  25.279  1.00  0.00    -0.462 OA
BRANCH   6   7
ATOM      7  C   UNL A   1      32.774  27.393  25.959  1.00  0.00     0.329 C 
ATOM      8  O   UNL A   1      32.754  27.534  27.180  1.00  0.00    -0.250 OA
BRANCH   7   9
ATOM      9  C   UNL A   1      31.539  27.751  25.085  1.00  0.00     0.195 C 
BRANCH   9  10
ATOM     10  N   UNL A   1      31.664  27.846  23.626  1.00  0.00    -0.342 N 
ATOM     11  C   UNL A   1      30.774  28.291  22.680  1.00  0.00     0.226 C 
ATOM     12  O   UNL A   1      30.868  27.780  21.559  1.00  0.00    -0.274 OA
ATOM     13  H   UNL A   1      32.528  27.541  23.266  1.00  0.00     0.164 HD
BRANCH  11  14
ATOM     14  C   UNL A   1      29.781  29.450  22.947  1.00  0.00     0.046 C 
ATOM     15  C   UNL A   1      30.149  30.359  24.129  1.00  0.00     0.022 C 
ATOM     16  C   UNL A   1      28.336  28.930  23.198  1.00  0.00     0.016 C 
ATOM     17  C   UNL A   1      29.618  30.234  21.633  1.00  0.00     0.016 C 
ATOM     18  C   UNL A   1      27.432  30.022  22.639  1.00  0.00     0.001 C 
ATOM     19  C   UNL A   1      28.122  30.365  21.341  1.00  0.00     0.001 C 
ENDBRANCH  11  14
ENDBRANCH   9  10
BRANCH   9  20
ATOM     20  C   UNL A   1      30.457  26.712  25.381  1.00  0.00     0.023 C 
ATOM     21  C   UNL A   1      30.389  25.430  24.588  1.00  0.00     0.007 C 
ATOM     22  C   UNL A   1      30.718  25.378  26.050  1.00  0.00     0.007 C 
ENDBRANCH   9  20
ENDBRANCH   7   9
ENDBRANCH   6   7
ENDBRANCH   5   6
ENDBRANCH   4   5
ENDBRANCH   3   4
ENDBRANCH   2   3
ENDBRANCH   1   2
BRANCH   1  23
ATOM     23  O   UNL A   1      35.005  21.259  25.880  1.00  0.00    -0.376 OA
BRANCH  23  24
ATOM     24  C   UNL A   1      35.306  20.159  25.016  1.00  0.00     0.202 C 
BRANCH  24  25
ATOM     25  C   UNL A   1      36.816  20.053  24.807  1.00  0.00     0.261 C 
BRANCH  25  26
ATOM     26  O   UNL A   1      37.467  21.285  25.181  1.00  0.00    -0.460 OA
BRANCH  26  27
ATOM     27  C   UNL A   1      38.708  21.134  25.691  1.00  0.00     0.338 C 
ATOM     28  O   UNL A   1      39.399  20.125  25.575  1.00  0.00    -0.246 OA
BRANCH  27  29
ATOM     29  C   UNL A   1      39.177  22.357  26.397  1.00  0.00     0.060 A 
ATOM     30  C   UNL A   1      38.698  23.639  26.108  1.00  0.00     0.016 A 
ATOM     31  C   UNL A   1      40.214  22.218  27.319  1.00  0.00     0.016 A 
ATOM     32  C   UNL A   1      39.369  24.772  26.590  1.00  0.00     0.010 A 
ATOM     33  C   UNL A   1      40.811  23.348  27.885  1.00  0.00     0.010 A 
ATOM     34  C   UNL A   1      40.453  24.642  27.470  1.00  0.00    -0.014 A 
BRANCH  34  35
ATOM     35  C   UNL A   1      41.293  25.804  27.897  1.00  0.00     0.031 A 
ATOM     36  C   UNL A   1      40.669  26.896  28.738  1.00  0.00     0.074 A 
ATOM     37  C   UNL A   1      42.582  25.934  27.528  1.00  0.00     0.049 A 
ATOM     38  N   UNL A   1      41.084  28.116  28.965  1.00  0.00    -0.248 NA
ATOM     39  C   UNL A   1      39.385  26.574  29.385  1.00  0.00     0.031 C 
ATOM     40  C   UNL A   1      43.351  24.954  26.763  1.00  0.00     0.029 A 
ATOM     41  N   UNL A   1      43.466  26.969  27.729  1.00  0.00    -0.354 N 
ATOM     42  C   UNL A   1      40.065  28.739  29.679  1.00  0.00     0.074 A 
ATOM     43  C   UNL A   1      39.025  27.751  29.875  1.00  0.00     0.031 C 
ATOM     44  C   UNL A   1      44.592  25.425  26.568  1.00  0.00     0.029 A 
ATOM     45  C   UNL A   1      44.679  26.781  27.105  1.00  0.00     0.049 A 
ATOM     46  H   UNL A   1      43.253  27.765  28.267  1.00  0.00     0.167 HD
ATOM     47  C   UNL A   1      39.995  30.017  30.127  1.00  0.00     0.034 A 
ATOM     48  C   UNL A   1      45.719  27.620  26.923  1.00  0.00     0.034 A 
ATOM     49  C   UNL A   1      41.065  30.972  30.012  1.00  0.00     0.049 A 
ATOM     50  C   UNL A   1      45.641  29.024  27.456  1.00  0.00     0.074 A 
ATOM     51  C   UNL A   1      41.102  32.286  30.448  1.00  0.00     0.029 A 
ATOM     52  N   UNL A   1      42.298  30.711  29.432  1.00  0.00    -0.354 N 
ATOM     53  N   UNL A   1      44.669  29.605  28.117  1.00  0.00    -0.248 NA
ATOM     54  C   UNL A   1      46.808  29.888  27.224  1.00  0.00     0.031 C 
ATOM     55  C   UNL A   1      42.355  32.821  30.124  1.00  0.00     0.029 A 
ATOM     56  C   UNL A   1      43.106  31.833  29.506  1.00  0.00     0.049 A 
ATOM     57  H   UNL A   1      42.560  29.853  29.027  1.00  0.00     0.167 HD
ATOM     58  C   UNL A   1      45.112  30.895  28.394  1.00  0.00     0.074 A 
ATOM     59  C   UNL A   1      46.453  30.998  27.857  1.00  0.00     0.031 C 
ATOM     60  C   UNL A   1      44.458  31.908  29.014  1.00  0.00     0.034 A 
BRANCH  47  61
ATOM     61  C   UNL A   1      38.706  30.456  30.775  1.00  0.00     0.023 A 
ATOM     62  C   UNL A   1      38.465  30.191  32.137  1.00  0.00     0.012 A 
ATOM     63  C   UNL A   1      37.728  31.144  30.025  1.00  0.00     0.148 A 
ATOM     64  C   UNL A   1      37.255  30.555  32.730  1.00  0.00     0.002 A 
ATOM     65  C   UNL A   1      36.544  31.545  30.634  1.00  0.00     0.091 A 
ATOM     66  F   UNL A   1      37.960  31.370  28.724  1.00  0.00    -0.205 F 
ATOM     67  C   UNL A   1      36.300  31.238  31.982  1.00  0.00     0.022 A 
BRANCH  65  68
ATOM     68  S   UNL A   1      35.291  32.495  29.765  1.00  0.00     0.127 S 
ATOM     69  O   UNL A   1      34.270  32.655  30.798  1.00  0.00    -0.237 OA
ATOM     70  O   UNL A   1      36.012  33.723  29.425  1.00  0.00    -0.237 OA
ATOM     71  O   UNL A   1      34.907  31.685  28.616  1.00  0.00    -0.744 OA
ENDBRANCH  65  68
ENDBRANCH  47  61
BRANCH  48  72
ATOM     72  C   UNL A   1      46.929  27.141  26.191  1.00  0.00     0.023 A 
ATOM     73  C   UNL A   1      47.074  27.436  24.822  1.00  0.00     0.012 A 
ATOM     74  C   UNL A   1      47.962  26.454  26.859  1.00  0.00     0.148 A 
ATOM     75  C   UNL A   1      48.221  27.048  24.129  1.00  0.00     0.002 A 
ATOM     76  C   UNL A   1      49.131  26.132  26.180  1.00  0.00     0.091 A 
ATOM     77  F   UNL A   1      47.793  26.158  28.155  1.00  0.00    -0.205 F 
ATOM     78  C   UNL A   1      49.256  26.414  24.812  1.00  0.00     0.022 A 
BRANCH  76  79
ATOM     79  S   UNL A   1      50.574  25.466  27.017  1.00  0.00     0.127 S 
ATOM     80  O   UNL A   1      51.489  25.242  25.901  1.00  0.00    -0.237 OA
ATOM     81  O   UNL A   1      50.941  26.570  27.906  1.00  0.00    -0.237 OA
ATOM     82  O   UNL A   1      50.111  24.269  27.707  1.00  0.00    -0.744 OA
ENDBRANCH  76  79
ENDBRANCH  48  72
BRANCH  60  83
ATOM     83  C   UNL A   1      45.197  33.210  29.183  1.00  0.00     0.023 A 
ATOM     84  C   UNL A   1      46.029  33.408  30.304  1.00  0.00     0.012 A 
ATOM     85  C   UNL A   1      45.105  34.221  28.206  1.00  0.00     0.148 A 
ATOM     86  C   UNL A   1      46.727  34.605  30.467  1.00  0.00     0.002 A 
ATOM     87  C   UNL A   1      45.840  35.392  28.352  1.00  0.00     0.091 A 
ATOM     88  F   UNL A   1      44.291  34.027  27.157  1.00  0.00    -0.205 F 
ATOM     89  C   UNL A   1      46.642  35.591  29.487  1.00  0.00     0.022 A 
BRANCH  87  90
ATOM     90  S   UNL A   1      45.854  36.670  27.089  1.00  0.00     0.127 S 
ATOM     91  O   UNL A   1      46.959  37.517  27.532  1.00  0.00    -0.237 OA
ATOM     92  O   UNL A   1      46.121  35.906  25.869  1.00  0.00    -0.237 OA
ATOM     93  O   UNL A   1      44.531  37.281  27.135  1.00  0.00    -0.744 OA
ENDBRANCH  87  90
ENDBRANCH  60  83
ENDBRANCH  34  35
ENDBRANCH  27  29
ENDBRANCH  26  27
ENDBRANCH  25  26
ENDBRANCH  24  25
ENDBRANCH  23  24
ENDBRANCH   1  23
TORSDOF 23
ENDMDL
MODEL 2
REMARK VINA RESULT:      -9.9      1.510      8.062
REMARK SMILES CC1(C(=O)N[C@H](C(=O)OCCOCCOCCOC(=O)c2ccc(-c3c4nc(c(-c5cccc(S(=O)(=O)[O-])c5F)c5ccc([nH]5)c(-c5cccc(S(=O)(=O)[O-])c5F)c5nc(c(-c6cccc(S(=O)(=O)[O-])c6F)c6ccc3[nH]6)C=C5)C=C4)cc2)C2CC2)CCCC1
REMARK SMILES IDX 14 1 13 2 12 3 11 4 10 5 9 6 7 7 8 8 6 9 5 10 3 11 4 12 2 14
REMARK SMILES IDX 1 15 87 16 90 17 88 18 89 19 84 20 85 21 86 22 15 23 16 24
REMARK SMILES IDX 17 25 18 26 19 27 20 28 21 29 22 30 83 31 23 32 82 33 24 34
REMARK SMILES IDX 25 35 26 36 76 37 27 38 81 39 75 40 77 41 28 42 80 43 74 44
REMARK SMILES IDX 73 45 29 47 61 48 41 49 60 50 42 51 45 52 59 53 78 54 43 55
REMARK SMILES IDX 44 56 58 58 79 59 46 60 30 61 31 62 39 63 32 64 34 65 40 66
REMARK SMILES IDX 33 67 35 68 36 69 37 70 38 71 62 72 63 73 71 74 64 75 66 76
REMARK SMILES IDX 72 77 65 78 67 79 68 80 69 81 70 82 47 83 48 84 56 85 49 86
REMARK SMILES IDX 51 87 57 88 50 89 52 90 53 91 54 92 55 93
REMARK H PARENT 5 13 77 46 45 57
REMARK Flexibility Score: inf
ROOT
ATOM      1  C   UNL A   1      36.142  22.100  25.021  1.00  0.00     0.188 C 
ENDROOT
BRANCH   1   2
ATOM      2  C   UNL A   1      36.695  22.477  23.647  1.00  0.00     0.188 C 
BRANCH   2   3
ATOM      3  O   UNL A   1      35.893  23.284  22.792  1.00  0.00    -0.376 OA
BRANCH   3   4
ATOM      4  C   UNL A   1      34.513  23.407  23.089  1.00  0.00     0.202 C 
BRANCH   4   5
ATOM      5  C   UNL A   1      33.562  23.302  21.891  1.00  0.00     0.261 C 
BRANCH   5   6
ATOM      6  O   UNL A   1      32.166  23.129  22.228  1.00  0.00    -0.462 OA
BRANCH   6   7
ATOM      7  C   UNL A   1      31.946  22.634  23.476  1.00  0.00     0.329 C 
ATOM      8  O   UNL A   1      31.962  21.436  23.749  1.00  0.00    -0.250 OA
BRANCH   7   9
ATOM      9  C   UNL A   1      31.560  23.699  24.541  1.00  0.00     0.195 C 
BRANCH   9  10
ATOM     10  N   UNL A   1      30.354  24.517  24.370  1.00  0.00    -0.342 N 
ATOM     11  C   UNL A   1      30.084  25.804  24.766  1.00  0.00     0.226 C 
ATOM     12  O   UNL A   1      28.900  26.064  25.007  1.00  0.00    -0.274 OA
ATOM     13  H   UNL A   1      29.617  24.071  23.894  1.00  0.00     0.164 HD
BRANCH  11  14
ATOM     14  C   UNL A   1      31.166  26.912  24.798  1.00  0.00     0.046 C 
ATOM     15  C   UNL A   1      30.859  28.144  23.934  1.00  0.00     0.022 C 
ATOM     16  C   UNL A   1      32.559  26.375  24.357  1.00  0.00     0.016 C 
ATOM     17  C   UNL A   1      31.415  27.277  26.272  1.00  0.00     0.016 C 
ATOM     18  C   UNL A   1      33.560  27.192  25.165  1.00  0.00     0.001 C 
ATOM     19  C   UNL A   1      32.920  27.205  26.533  1.00  0.00     0.001 C 
ENDBRANCH  11  14
ENDBRANCH   9  10
BRANCH   9  20
ATOM     20  C   UNL A   1      31.431  22.974  25.881  1.00  0.00     0.023 C 
ATOM     21  C   UNL A   1      32.662  22.569  26.655  1.00  0.00     0.007 C 
ATOM     22  C   UNL A   1      31.739  23.604  27.224  1.00  0.00     0.007 C 
ENDBRANCH   9  20
ENDBRANCH   7   9
ENDBRANCH   6   7
ENDBRANCH   5   6
ENDBRANCH   4   5
ENDBRANCH   3   4
ENDBRANCH   2   3
ENDBRANCH   1   2
BRANCH   1  23
ATOM     23  O   UNL A   1      37.000  21.210  25.733  1.00  0.00    -0.376 OA
BRANCH  23  24
ATOM     24  C   UNL A   1      37.460  20.147  24.895  1.00  0.00     0.202 C 
BRANCH  24  25
ATOM     25  C   UNL A   1      38.671  19.464  25.530  1.00  0.00     0.261 C 
BRANCH  25  26
ATOM     26  O   UNL A   1      39.798  20.363  25.570  1.00  0.00    -0.460 OA
BRANCH  26  27
ATOM     27  C   UNL A   1      40.349  20.522  26.792  1.00  0.00     0.338 C 
ATOM     28  O   UNL A   1      40.779  19.610  27.494  1.00  0.00    -0.246 OA
BRANCH  27  29
ATOM     29  C   UNL A   1      40.414  21.952  27.197  1.00  0.00     0.060 A 
ATOM     30  C   UNL A   1      39.607  22.945  26.633  1.00  0.00     0.016 A 
ATOM     31  C   UNL A   1      41.398  22.325  28.113  1.00  0.00     0.016 A 
ATOM     32  C   UNL A   1      39.902  24.300  26.838  1.00  0.00     0.010 A 
ATOM     33  C   UNL A   1      41.618  23.674  28.401  1.00  0.00     0.010 A 
ATOM     34  C   UNL A   1      40.930  24.686  27.709  1.00  0.00    -0.014 A 
BRANCH  34  35
ATOM     35  C   UNL A   1      41.382  26.105  27.852  1.00  0.00     0.031 A 
ATOM     36  C   UNL A   1      42.749  26.499  27.336  1.00  0.00     0.074 A 
ATOM     37  C   UNL A   1      40.630  27.041  28.461  1.00  0.00     0.049 A 
ATOM     38  N   UNL A   1      43.473  27.554  27.610  1.00  0.00    -0.248 NA
ATOM     39  C   UNL A   1      43.396  25.557  26.406  1.00  0.00     0.031 C 
ATOM     40  C   UNL A   1      39.274  26.845  28.971  1.00  0.00     0.029 A 
ATOM     41  N   UNL A   1      40.919  28.349  28.778  1.00  0.00    -0.354 N 
ATOM     42  C   UNL A   1      44.698  27.348  26.983  1.00  0.00     0.074 A 
ATOM     43  C   UNL A   1      44.607  26.081  26.288  1.00  0.00     0.031 C 
ATOM     44  C   UNL A   1      38.843  27.989  29.525  1.00  0.00     0.029 A 
ATOM     45  C   UNL A   1      39.926  28.968  29.502  1.00  0.00     0.049 A 
ATOM     46  H   UNL A   1      41.754  28.797  28.513  1.00  0.00     0.167 HD
ATOM     47  C   UNL A   1      45.802  28.136  26.989  1.00  0.00     0.034 A 
ATOM     48  C   UNL A   1      39.904  30.160  30.134  1.00  0.00     0.034 A 
ATOM     49  C   UNL A   1      45.864  29.435  27.604  1.00  0.00     0.049 A 
ATOM     50  C   UNL A   1      41.125  31.038  30.102  1.00  0.00     0.074 A 
ATOM     51  C   UNL A   1      46.927  30.320  27.650  1.00  0.00     0.029 A 
ATOM     52  N   UNL A   1      44.808  30.046  28.265  1.00  0.00    -0.354 N 
ATOM     53  N   UNL A   1      42.280  30.828  29.519  1.00  0.00    -0.248 NA
ATOM     54  C   UNL A   1      41.036  32.324  30.811  1.00  0.00     0.031 C 
ATOM     55  C   UNL A   1      46.516  31.463  28.348  1.00  0.00     0.029 A 
ATOM     56  C   UNL A   1      45.190  31.298  28.716  1.00  0.00     0.049 A 
ATOM     57  H   UNL A   1      43.918  29.647  28.395  1.00  0.00     0.167 HD
ATOM     58  C   UNL A   1      43.049  31.958  29.775  1.00  0.00     0.074 A 
ATOM     59  C   UNL A   1      42.217  32.864  30.539  1.00  0.00     0.031 C 
ATOM     60  C   UNL A   1      44.336  32.213  29.431  1.00  0.00     0.034 A 
BRANCH  47  61
ATOM     61  C   UNL A   1      47.041  27.600  26.315  1.00  0.00     0.023 A 
ATOM     62  C   UNL A   1      47.275  27.852  24.949  1.00  0.00     0.012 A 
ATOM     63  C   UNL A   1      47.982  26.845  27.046  1.00  0.00     0.148 A 
ATOM     64  C   UNL A   1      48.397  27.322  24.309  1.00  0.00     0.002 A 
ATOM     65  C   UNL A   1      49.121  26.358  26.414  1.00  0.00     0.091 A 
ATOM     66  F   UNL A   1      47.735  26.593  28.339  1.00  0.00    -0.205 F 
ATOM     67  C   UNL A   1      49.322  26.582  25.042  1.00  0.00     0.022 A 
BRANCH  65  68
ATOM     68  S   UNL A   1      50.401  25.461  27.299  1.00  0.00     0.127 S 
ATOM     69  O   UNL A   1      50.749  26.407  28.356  1.00  0.00    -0.237 OA
ATOM     70  O   UNL A   1      49.684  24.270  27.759  1.00  0.00    -0.237 OA
ATOM     71  O   UNL A   1      51.445  25.193  26.319  1.00  0.00    -0.744 OA
ENDBRANCH  65  68
ENDBRANCH  47  61
BRANCH  48  72
ATOM     72  C   UNL A   1      38.670  30.584  30.859  1.00  0.00     0.023 A 
ATOM     73  C   UNL A   1      38.587  30.404  32.253  1.00  0.00     0.012 A 
ATOM     74  C   UNL A   1      37.611  31.222  30.185  1.00  0.00     0.148 A 
ATOM     75  C   UNL A   1      37.468  30.843  32.961  1.00  0.00     0.002 A 
ATOM     76  C   UNL A   1      36.531  31.719  30.905  1.00  0.00     0.091 A 
ATOM     77  F   UNL A   1      37.696  31.359  28.854  1.00  0.00    -0.205 F 
ATOM     78  C   UNL A   1      36.450  31.516  32.290  1.00  0.00     0.022 A 
BRANCH  76  79
ATOM     79  S   UNL A   1      35.260  32.739  30.148  1.00  0.00     0.127 S 
ATOM     80  O   UNL A   1      34.350  32.962  31.268  1.00  0.00    -0.237 OA
ATOM     81  O   UNL A   1      36.028  33.914  29.732  1.00  0.00    -0.237 OA
ATOM     82  O   UNL A   1      34.727  31.950  29.046  1.00  0.00    -0.744 OA
ENDBRANCH  76  79
ENDBRANCH  48  72
BRANCH  60  83
ATOM     83  C   UNL A   1      44.916  33.541  29.843  1.00  0.00     0.023 A 
ATOM     84  C   UNL A   1      45.509  33.686  31.113  1.00  0.00     0.012 A 
ATOM     85  C   UNL A   1      44.916  34.633  28.953  1.00  0.00     0.148 A 
ATOM     86  C   UNL A   1      46.060  34.907  31.504  1.00  0.00     0.002 A 
ATOM     87  C   UNL A   1      45.508  35.833  29.331  1.00  0.00     0.091 A 
ATOM     88  F   UNL A   1      44.326  34.486  27.757  1.00  0.00    -0.205 F 
ATOM     89  C   UNL A   1      46.069  35.976  30.610  1.00  0.00     0.022 A 
BRANCH  87  90
ATOM     90  S   UNL A   1      45.640  37.225  28.204  1.00  0.00     0.127 S 
ATOM     91  O   UNL A   1      44.255  37.686  28.132  1.00  0.00    -0.237 OA
ATOM     92  O   UNL A   1      46.546  38.126  28.919  1.00  0.00    -0.237 OA
ATOM     93  O   UNL A   1      46.190  36.680  26.970  1.00  0.00    -0.744 OA
ENDBRANCH  87  90
ENDBRANCH  60  83
ENDBRANCH  34  35
ENDBRANCH  27  29
ENDBRANCH  26  27
ENDBRANCH  25  26
ENDBRANCH  24  25
ENDBRANCH  23  24
ENDBRANCH   1  23
TORSDOF 23
ENDMDL
MODEL 3
REMARK VINA RESULT:      -9.9      1.951      7.860
REMARK SMILES CC1(C(=O)N[C@H](C(=O)OCCOCCOCCOC(=O)c2ccc(-c3c4nc(c(-c5cccc(S(=O)(=O)[O-])c5F)c5ccc([nH]5)c(-c5cccc(S(=O)(=O)[O-])c5F)c5nc(c(-c6cccc(S(=O)(=O)[O-])c6F)c6ccc3[nH]6)C=C5)C=C4)cc2)C2CC2)CCCC1
REMARK SMILES IDX 14 1 13 2 12 3 11 4 10 5 9 6 7 7 8 8 6 9 5 10 3 11 4 12 2 14
REMARK SMILES IDX 1 15 87 16 90 17 88 18 89 19 84 20 85 21 86 22 15 23 16 24
REMARK SMILES IDX 17 25 18 26 19 27 20 28 21 29 22 30 83 31 23 32 82 33 24 34
REMARK SMILES IDX 25 35 26 36 76 37 27 38 81 39 75 40 77 41 28 42 80 43 74 44
REMARK SMILES IDX 73 45 29 47 61 48 41 49 60 50 42 51 45 52 59 53 78 54 43 55
REMARK SMILES IDX 44 56 58 58 79 59 46 60 30 61 31 62 39 63 32 64 34 65 40 66
REMARK SMILES IDX 33 67 35 68 36 69 37 70 38 71 62 72 63 73 71 74 64 75 66 76
REMARK SMILES IDX 72 77 65 78 67 79 68 80 69 81 70 82 47 83 48 84 56 85 49 86
REMARK SMILES IDX 51 87 57 88 50 89 52 90 53 91 54 92 55 93
REMARK H PARENT 5 13 77 46 45 57
REMARK Flexibility Score: inf
ROOT
ATOM      1  C   UNL A   1      36.203  22.077  25.077  1.00  0.00     0.188 C 
ENDROOT
BRANCH   1   2
ATOM      2  C   UNL A   1      36.719  22.579  23.729  1.00  0.00     0.188 C 
BRANCH   2   3
ATOM      3  O   UNL A   1      35.773  23.045  22.773  1.00  0.00    -0.376 OA
BRANCH   3   4
ATOM      4  C   UNL A   1      34.568  23.620  23.249  1.00  0.00     0.202 C 
BRANCH   4   5
ATOM      5  C   UNL A   1      33.289  23.173  22.533  1.00  0.00     0.261 C 
BRANCH   5   6
ATOM      6  O   UNL A   1      32.177  24.092  22.630  1.00  0.00    -0.462 OA
BRANCH   6   7
ATOM      7  C   UNL A   1      31.869  24.469  23.901  1.00  0.00     0.329 C 
ATOM      8  O   UNL A   1      31.706  23.679  24.827  1.00  0.00    -0.250 OA
BRANCH   7   9
ATOM      9  C   UNL A   1      31.626  25.994  24.087  1.00  0.00     0.195 C 
BRANCH   9  10
ATOM     10  N   UNL A   1      32.687  26.959  23.777  1.00  0.00    -0.342 N 
ATOM     11  C   UNL A   1      32.929  28.213  24.279  1.00  0.00     0.226 C 
ATOM     12  O   UNL A   1      33.491  29.007  23.517  1.00  0.00    -0.274 OA
ATOM     13  H   UNL A   1      33.332  26.657  23.097  1.00  0.00     0.164 HD
BRANCH  11  14
ATOM     14  C   UNL A   1      32.632  28.594  25.751  1.00  0.00     0.046 C 
ATOM     15  C   UNL A   1      31.540  27.756  26.431  1.00  0.00     0.022 C 
ATOM     16  C   UNL A   1      32.220  30.089  25.892  1.00  0.00     0.016 C 
ATOM     17  C   UNL A   1      33.965  28.555  26.519  1.00  0.00     0.016 C 
ATOM     18  C   UNL A   1      32.749  30.507  27.258  1.00  0.00     0.001 C 
ATOM     19  C   UNL A   1      34.123  29.880  27.267  1.00  0.00     0.001 C 
ENDBRANCH  11  14
ENDBRANCH   9  10
BRANCH   9  20
ATOM     20  C   UNL A   1      30.410  26.367  23.237  1.00  0.00     0.023 C 
ATOM     21  C   UNL A   1      29.120  26.795  23.892  1.00  0.00     0.007 C 
ATOM     22  C   UNL A   1      29.892  27.780  23.066  1.00  0.00     0.007 C 
ENDBRANCH   9  20
ENDBRANCH   7   9
ENDBRANCH   6   7
ENDBRANCH   5   6
ENDBRANCH   4   5
ENDBRANCH   3   4
ENDBRANCH   2   3
ENDBRANCH   1   2
BRANCH   1  23
ATOM     23  O   UNL A   1      37.152  21.256  25.757  1.00  0.00    -0.376 OA
BRANCH  23  24
ATOM     24  C   UNL A   1      37.580  20.165  24.937  1.00  0.00     0.202 C 
BRANCH  24  25
ATOM     25  C   UNL A   1      38.760  19.447  25.591  1.00  0.00     0.261 C 
BRANCH  25  26
ATOM     26  O   UNL A   1      39.915  20.311  25.641  1.00  0.00    -0.460 OA
BRANCH  26  27
ATOM     27  C   UNL A   1      40.411  20.517  26.879  1.00  0.00     0.338 C 
ATOM     28  O   UNL A   1      40.786  19.632  27.643  1.00  0.00    -0.246 OA
BRANCH  27  29
ATOM     29  C   UNL A   1      40.491  21.964  27.219  1.00  0.00     0.060 A 
ATOM     30  C   UNL A   1      39.710  22.941  26.594  1.00  0.00     0.016 A 
ATOM     31  C   UNL A   1      41.464  22.364  28.134  1.00  0.00     0.016 A 
ATOM     32  C   UNL A   1      40.022  24.300  26.741  1.00  0.00     0.010 A 
ATOM     33  C   UNL A   1      41.701  23.722  28.363  1.00  0.00     0.010 A 
ATOM     34  C   UNL A   1      41.041  24.710  27.612  1.00  0.00    -0.014 A 
BRANCH  34  35
ATOM     35  C   UNL A   1      41.513  26.128  27.698  1.00  0.00     0.031 A 
ATOM     36  C   UNL A   1      42.842  26.501  27.079  1.00  0.00     0.074 A 
ATOM     37  C   UNL A   1      40.812  27.081  28.341  1.00  0.00     0.049 A 
ATOM     38  N   UNL A   1      43.591  27.554  27.282  1.00  0.00    -0.248 NA
ATOM     39  C   UNL A   1      43.415  25.538  26.122  1.00  0.00     0.031 C 
ATOM     40  C   UNL A   1      39.494  26.906  28.949  1.00  0.00     0.029 A 
ATOM     41  N   UNL A   1      41.133  28.392  28.613  1.00  0.00    -0.354 N 
ATOM     42  C   UNL A   1      44.768  27.327  26.574  1.00  0.00     0.074 A 
ATOM     43  C   UNL A   1      44.618  26.049  25.910  1.00  0.00     0.031 C 
ATOM     44  C   UNL A   1      39.113  28.062  29.512  1.00  0.00     0.029 A 
ATOM     45  C   UNL A   1      40.198  29.032  29.395  1.00  0.00     0.049 A 
ATOM     46  H   UNL A   1      41.951  28.828  28.282  1.00  0.00     0.167 HD
ATOM     47  C   UNL A   1      45.875  28.104  26.488  1.00  0.00     0.034 A 
ATOM     48  C   UNL A   1      40.230  30.235  30.005  1.00  0.00     0.034 A 
ATOM     49  C   UNL A   1      45.990  29.414  27.074  1.00  0.00     0.049 A 
ATOM     50  C   UNL A   1      41.452  31.102  29.872  1.00  0.00     0.074 A 
ATOM     51  C   UNL A   1      47.061  30.290  27.029  1.00  0.00     0.029 A 
ATOM     52  N   UNL A   1      44.989  30.045  27.797  1.00  0.00    -0.354 N 
ATOM     53  N   UNL A   1      42.561  30.871  29.212  1.00  0.00    -0.248 NA
ATOM     54  C   UNL A   1      41.424  32.400  30.561  1.00  0.00     0.031 C 
ATOM     55  C   UNL A   1      46.709  31.449  27.734  1.00  0.00     0.029 A 
ATOM     56  C   UNL A   1      45.411  31.302  28.197  1.00  0.00     0.049 A 
ATOM     57  H   UNL A   1      44.106  29.657  27.997  1.00  0.00     0.167 HD
ATOM     58  C   UNL A   1      43.356  31.999  29.393  1.00  0.00     0.074 A 
ATOM     59  C   UNL A   1      42.586  32.925  30.198  1.00  0.00     0.031 C 
ATOM     60  C   UNL A   1      44.616  32.236  28.954  1.00  0.00     0.034 A 
BRANCH  47  61
ATOM     61  C   UNL A   1      47.059  27.546  25.738  1.00  0.00     0.023 A 
ATOM     62  C   UNL A   1      48.010  26.744  26.399  1.00  0.00     0.012 A 
ATOM     63  C   UNL A   1      47.225  27.816  24.363  1.00  0.00     0.148 A 
ATOM     64  C   UNL A   1      49.130  26.262  25.720  1.00  0.00     0.002 A 
ATOM     65  C   UNL A   1      48.319  27.294  23.682  1.00  0.00     0.091 A 
ATOM     66  F   UNL A   1      46.325  28.600  23.751  1.00  0.00    -0.205 F 
ATOM     67  C   UNL A   1      49.280  26.530  24.362  1.00  0.00     0.022 A 
BRANCH  65  68
ATOM     68  S   UNL A   1      48.551  27.529  21.916  1.00  0.00     0.127 S 
ATOM     69  O   UNL A   1      47.315  28.213  21.542  1.00  0.00    -0.237 OA
ATOM     70  O   UNL A   1      49.750  28.367  21.868  1.00  0.00    -0.237 OA
ATOM     71  O   UNL A   1      48.728  26.194  21.360  1.00  0.00    -0.744 OA
ENDBRANCH  65  68
ENDBRANCH  47  61
BRANCH  48  72
ATOM     72  C   UNL A   1      39.054  30.682  30.808  1.00  0.00     0.023 A 
ATOM     73  C   UNL A   1      39.043  30.471  32.200  1.00  0.00     0.012 A 
ATOM     74  C   UNL A   1      37.981  31.371  30.209  1.00  0.00     0.148 A 
ATOM     75  C   UNL A   1      37.980  30.930  32.979  1.00  0.00     0.002 A 
ATOM     76  C   UNL A   1      36.961  31.886  30.999  1.00  0.00     0.091 A 
ATOM     77  F   UNL A   1      37.997  31.537  28.879  1.00  0.00    -0.205 F 
ATOM     78  C   UNL A   1      36.950  31.652  32.382  1.00  0.00     0.022 A 
BRANCH  76  79
ATOM     79  S   UNL A   1      35.686  32.966  30.338  1.00  0.00     0.127 S 
ATOM     80  O   UNL A   1      35.973  34.222  31.026  1.00  0.00    -0.237 OA
ATOM     81  O   UNL A   1      35.999  32.958  28.908  1.00  0.00    -0.237 OA
ATOM     82  O   UNL A   1      34.419  32.332  30.679  1.00  0.00    -0.744 OA
ENDBRANCH  76  79
ENDBRANCH  48  72
BRANCH  60  83
ATOM     83  C   UNL A   1      45.234  33.566  29.300  1.00  0.00     0.023 A 
ATOM     84  C   UNL A   1      45.990  33.705  30.482  1.00  0.00     0.012 A 
ATOM     85  C   UNL A   1      45.106  34.666  28.430  1.00  0.00     0.148 A 
ATOM     86  C   UNL A   1      46.576  34.928  30.809  1.00  0.00     0.002 A 
ATOM     87  C   UNL A   1      45.732  35.869  28.740  1.00  0.00     0.091 A 
ATOM     88  F   UNL A   1      44.364  34.525  27.322  1.00  0.00    -0.205 F 
ATOM     89  C   UNL A   1      46.457  36.005  29.935  1.00  0.00     0.022 A 
BRANCH  87  90
ATOM     90  S   UNL A   1      45.700  37.274  27.621  1.00  0.00     0.127 S 
ATOM     91  O   UNL A   1      46.508  38.253  28.346  1.00  0.00    -0.237 OA
ATOM     92  O   UNL A   1      46.334  36.733  26.417  1.00  0.00    -0.237 OA
ATOM     93  O   UNL A   1      44.293  37.612  27.456  1.00  0.00    -0.744 OA
ENDBRANCH  87  90
ENDBRANCH  60  83
ENDBRANCH  34  35
ENDBRANCH  27  29
ENDBRANCH  26  27
ENDBRANCH  25  26
ENDBRANCH  24  25
ENDBRANCH  23  24
ENDBRANCH   1  23
TORSDOF 23
ENDMDL
