MODEL 1
REMARK VINA RESULT:     -10.9      0.000      0.000
REMARK SMILES CCc1c(Cl)ccc2c1C=C(C(=O)OCCOCCOCCOC(=O)c1ccc(-c3c4nc(c(-c5cccc(S(=O)(=O)[O-])c5F)c5ccc([nH]5)c(-c5cccc(S(=O)(=O)[O-])c5F)c5nc(c(-c6cccc(S(=O)(=O)[O-])c6F)c6ccc3[nH]6)C=C5)C=C4)cc1)[C@@H](C(F)(F)F)O2
REMARK SMILES IDX 19 1 18 2 17 3 16 4 15 5 14 6 12 7 13 8 11 9 3 10 4 11 9 12
REMARK SMILES IDX 5 13 6 14 8 15 10 16 7 17 94 18 89 19 2 20 1 21 90 22 91 23
REMARK SMILES IDX 92 24 93 25 20 26 21 27 22 28 23 29 24 30 25 31 26 32 27 33
REMARK SMILES IDX 88 34 28 35 87 36 29 37 30 38 31 39 81 40 32 41 86 42 80 43
REMARK SMILES IDX 82 44 33 45 85 46 79 47 78 48 34 50 66 51 46 52 65 53 47 54
REMARK SMILES IDX 50 55 64 56 83 57 48 58 49 59 63 61 84 62 51 63 35 64 36 65
REMARK SMILES IDX 44 66 37 67 39 68 45 69 38 70 40 71 41 72 42 73 43 74 67 75
REMARK SMILES IDX 68 76 76 77 69 78 71 79 77 80 70 81 72 82 73 83 74 84 75 85
REMARK SMILES IDX 52 86 53 87 61 88 54 89 56 90 62 91 55 92 57 93 58 94 59 95
REMARK SMILES IDX 60 96
REMARK H PARENT 82 49 50 60
REMARK Flexibility Score: inf
ROOT
ATOM      1  C   UNL A   1      30.501  29.845  24.393  1.00  0.00     0.188 C 
ENDROOT
BRANCH   1   2
ATOM      2  C   UNL A   1      30.425  29.292  22.953  1.00  0.00     0.188 C 
BRANCH   2   3
ATOM      3  O   UNL A   1      29.938  27.974  22.866  1.00  0.00    -0.376 OA
BRANCH   3   4
ATOM      4  C   UNL A   1      30.307  26.990  23.813  1.00  0.00     0.202 C 
BRANCH   4   5
ATOM      5  C   UNL A   1      31.651  26.241  23.836  1.00  0.00     0.261 C 
BRANCH   5   6
ATOM      6  O   UNL A   1      32.558  26.534  24.898  1.00  0.00    -0.460 OA
BRANCH   6   7
ATOM      7  C   UNL A   1      32.290  25.964  26.098  1.00  0.00     0.338 C 
ATOM      8  O   UNL A   1      31.683  26.470  27.025  1.00  0.00    -0.246 OA
BRANCH   7   9
ATOM      9  C   UNL A   1      32.765  24.565  26.067  1.00  0.00     0.087 C 
ATOM     10  C   UNL A   1      35.857  22.646  25.236  1.00  0.00    -0.019 A 
ATOM     11  C   UNL A   1      36.201  21.278  25.125  1.00  0.00     0.045 A 
ATOM     12  C   UNL A   1      34.524  22.974  25.607  1.00  0.00     0.022 A 
ATOM     13  Cl  UNL A   1      37.774  20.750  24.630  1.00  0.00    -0.084 Cl
ATOM     14  C   UNL A   1      35.279  20.273  25.420  1.00  0.00     0.024 A 
ATOM     15  C   UNL A   1      33.632  21.946  25.957  1.00  0.00     0.128 A 
ATOM     16  C   UNL A   1      34.006  24.343  25.610  1.00  0.00     0.027 C 
ATOM     17  C   UNL A   1      34.005  20.607  25.858  1.00  0.00     0.048 A 
ATOM     18  O   UNL A   1      32.357  22.138  26.404  1.00  0.00    -0.475 OA
ATOM     19  C   UNL A   1      31.859  23.485  26.589  1.00  0.00     0.316 C 
BRANCH  10  20
ATOM     20  C   UNL A   1      36.911  23.712  24.986  1.00  0.00     0.034 C 
ATOM     21  C   UNL A   1      37.769  24.016  26.205  1.00  0.00     0.009 C 
ENDBRANCH  10  20
BRANCH  19  22
ATOM     22  C   UNL A   1      30.448  23.535  25.980  1.00  0.00     0.430 C 
ATOM     23  F   UNL A   1      29.748  22.410  26.276  1.00  0.00    -0.167 F 
ATOM     24  F   UNL A   1      29.718  24.570  26.459  1.00  0.00    -0.167 F 
ATOM     25  F   UNL A   1      30.477  23.649  24.635  1.00  0.00    -0.167 F 
ENDBRANCH  19  22
ENDBRANCH   7   9
ENDBRANCH   6   7
ENDBRANCH   5   6
ENDBRANCH   4   5
ENDBRANCH   3   4
ENDBRANCH   2   3
ENDBRANCH   1   2
BRANCH   1  26
ATOM     26  O   UNL A   1      31.653  29.592  25.189  1.00  0.00    -0.376 OA
BRANCH  26  27
ATOM     27  C   UNL A   1      31.695  30.083  26.525  1.00  0.00     0.202 C 
BRANCH  27  28
ATOM     28  C   UNL A   1      31.713  31.597  26.775  1.00  0.00     0.261 C 
BRANCH  28  29
ATOM     29  O   UNL A   1      32.999  32.211  26.599  1.00  0.00    -0.460 OA
BRANCH  29  30
ATOM     30  C   UNL A   1      33.436  32.965  27.640  1.00  0.00     0.338 C 
ATOM     31  O   UNL A   1      32.834  33.864  28.202  1.00  0.00    -0.246 OA
BRANCH  30  32
ATOM     32  C   UNL A   1      34.700  32.391  28.146  1.00  0.00     0.060 A 
ATOM     33  C   UNL A   1      35.879  33.137  28.156  1.00  0.00     0.016 A 
ATOM     34  C   UNL A   1      34.690  31.069  28.616  1.00  0.00     0.016 A 
ATOM     35  C   UNL A   1      37.049  32.562  28.661  1.00  0.00     0.010 A 
ATOM     36  C   UNL A   1      35.865  30.491  29.101  1.00  0.00     0.010 A 
ATOM     37  C   UNL A   1      37.047  31.242  29.146  1.00  0.00    -0.014 A 
BRANCH  37  38
ATOM     38  C   UNL A   1      38.231  30.720  29.869  1.00  0.00     0.031 A 
ATOM     39  C   UNL A   1      38.553  31.124  31.275  1.00  0.00     0.074 A 
ATOM     40  C   UNL A   1      39.042  29.870  29.210  1.00  0.00     0.049 A 
ATOM     41  N   UNL A   1      39.492  30.662  32.058  1.00  0.00    -0.248 NA
ATOM     42  C   UNL A   1      37.729  32.181  31.879  1.00  0.00     0.031 C 
ATOM     43  C   UNL A   1      38.867  29.459  27.815  1.00  0.00     0.029 A 
ATOM     44  N   UNL A   1      40.169  29.205  29.617  1.00  0.00    -0.354 N 
ATOM     45  C   UNL A   1      39.375  31.361  33.251  1.00  0.00     0.074 A 
ATOM     46  C   UNL A   1      38.284  32.301  33.081  1.00  0.00     0.031 C 
ATOM     47  C   UNL A   1      39.846  28.605  27.485  1.00  0.00     0.029 A 
ATOM     48  C   UNL A   1      40.717  28.408  28.641  1.00  0.00     0.049 A 
ATOM     49  H   UNL A   1      40.550  29.290  30.520  1.00  0.00     0.167 HD
ATOM     50  C   UNL A   1      40.095  31.209  34.389  1.00  0.00     0.034 A 
ATOM     51  C   UNL A   1      41.791  27.595  28.671  1.00  0.00     0.034 A 
ATOM     52  C   UNL A   1      41.167  30.264  34.556  1.00  0.00     0.049 A 
ATOM     53  C   UNL A   1      42.557  27.434  29.950  1.00  0.00     0.074 A 
ATOM     54  C   UNL A   1      41.899  29.991  35.700  1.00  0.00     0.029 A 
ATOM     55  N   UNL A   1      41.676  29.449  33.557  1.00  0.00    -0.354 N 
ATOM     56  N   UNL A   1      42.328  27.983  31.118  1.00  0.00    -0.248 NA
ATOM     57  C   UNL A   1      43.707  26.518  29.929  1.00  0.00     0.031 C 
ATOM     58  C   UNL A   1      42.857  29.022  35.389  1.00  0.00     0.029 A 
ATOM     59  C   UNL A   1      42.716  28.683  34.054  1.00  0.00     0.049 A 
ATOM     60  H   UNL A   1      41.345  29.419  32.630  1.00  0.00     0.167 HD
ATOM     61  C   UNL A   1      43.291  27.466  31.975  1.00  0.00     0.074 A 
ATOM     62  C   UNL A   1      44.098  26.548  31.198  1.00  0.00     0.031 C 
ATOM     63  C   UNL A   1      43.491  27.742  33.286  1.00  0.00     0.034 A 
BRANCH  50  64
ATOM     64  C   UNL A   1      39.709  32.026  35.591  1.00  0.00     0.023 A 
ATOM     65  C   UNL A   1      40.133  33.369  35.662  1.00  0.00     0.012 A 
ATOM     66  C   UNL A   1      38.820  31.525  36.561  1.00  0.00     0.148 A 
ATOM     67  C   UNL A   1      39.681  34.201  36.685  1.00  0.00     0.002 A 
ATOM     68  C   UNL A   1      38.353  32.369  37.563  1.00  0.00     0.091 A 
ATOM     69  F   UNL A   1      38.438  30.244  36.475  1.00  0.00    -0.205 F 
ATOM     70  C   UNL A   1      38.784  33.706  37.627  1.00  0.00     0.022 A 
BRANCH  68  71
ATOM     71  S   UNL A   1      37.150  31.852  38.793  1.00  0.00     0.127 S 
ATOM     72  O   UNL A   1      36.868  30.482  38.368  1.00  0.00    -0.237 OA
ATOM     73  O   UNL A   1      37.915  31.960  40.036  1.00  0.00    -0.237 OA
ATOM     74  O   UNL A   1      36.033  32.778  38.680  1.00  0.00    -0.744 OA
ENDBRANCH  68  71
ENDBRANCH  50  64
BRANCH  51  75
ATOM     75  C   UNL A   1      42.128  26.805  27.459  1.00  0.00     0.023 A 
ATOM     76  C   UNL A   1      42.793  27.437  26.392  1.00  0.00     0.012 A 
ATOM     77  C   UNL A   1      41.879  25.421  27.401  1.00  0.00     0.148 A 
ATOM     78  C   UNL A   1      43.199  26.702  25.279  1.00  0.00     0.002 A 
ATOM     79  C   UNL A   1      42.321  24.689  26.307  1.00  0.00     0.091 A 
ATOM     80  F   UNL A   1      41.246  24.848  28.435  1.00  0.00    -0.205 F 
ATOM     81  C   UNL A   1      42.973  25.329  25.242  1.00  0.00     0.022 A 
BRANCH  79  82
ATOM     82  S   UNL A   1      42.172  22.902  26.212  1.00  0.00     0.127 S 
ATOM     83  O   UNL A   1      42.576  22.642  24.832  1.00  0.00    -0.237 OA
ATOM     84  O   UNL A   1      43.131  22.469  27.228  1.00  0.00    -0.237 OA
ATOM     85  O   UNL A   1      40.781  22.601  26.522  1.00  0.00    -0.744 OA
ENDBRANCH  79  82
ENDBRANCH  51  75
BRANCH  63  86
ATOM     86  C   UNL A   1      44.627  27.051  33.988  1.00  0.00     0.023 A 
ATOM     87  C   UNL A   1      45.847  27.734  34.160  1.00  0.00     0.012 A 
ATOM     88  C   UNL A   1      44.451  25.783  34.576  1.00  0.00     0.148 A 
ATOM     89  C   UNL A   1      46.879  27.163  34.902  1.00  0.00     0.002 A 
ATOM     90  C   UNL A   1      45.472  25.233  35.342  1.00  0.00     0.091 A 
ATOM     91  F   UNL A   1      43.284  25.151  34.389  1.00  0.00    -0.205 F 
ATOM     92  C   UNL A   1      46.688  25.920  35.503  1.00  0.00     0.022 A 
BRANCH  90  93
ATOM     93  S   UNL A   1      45.300  23.672  36.214  1.00  0.00     0.127 S 
ATOM     94  O   UNL A   1      44.190  23.049  35.493  1.00  0.00    -0.237 OA
ATOM     95  O   UNL A   1      46.602  23.046  35.987  1.00  0.00    -0.237 OA
ATOM     96  O   UNL A   1      45.021  24.012  37.603  1.00  0.00    -0.744 OA
ENDBRANCH  90  93
ENDBRANCH  63  86
ENDBRANCH  37  38
ENDBRANCH  30  32
ENDBRANCH  29  30
ENDBRANCH  28  29
ENDBRANCH  27  28
ENDBRANCH  26  27
ENDBRANCH   1  26
TORSDOF 22
ENDMDL
MODEL 2
REMARK VINA RESULT:     -10.4      2.881      7.831
REMARK SMILES CCc1c(Cl)ccc2c1C=C(C(=O)OCCOCCOCCOC(=O)c1ccc(-c3c4nc(c(-c5cccc(S(=O)(=O)[O-])c5F)c5ccc([nH]5)c(-c5cccc(S(=O)(=O)[O-])c5F)c5nc(c(-c6cccc(S(=O)(=O)[O-])c6F)c6ccc3[nH]6)C=C5)C=C4)cc1)[C@@H](C(F)(F)F)O2
REMARK SMILES IDX 19 1 18 2 17 3 16 4 15 5 14 6 12 7 13 8 11 9 3 10 4 11 9 12
REMARK SMILES IDX 5 13 6 14 8 15 10 16 7 17 94 18 89 19 2 20 1 21 90 22 91 23
REMARK SMILES IDX 92 24 93 25 20 26 21 27 22 28 23 29 24 30 25 31 26 32 27 33
REMARK SMILES IDX 88 34 28 35 87 36 29 37 30 38 31 39 81 40 32 41 86 42 80 43
REMARK SMILES IDX 82 44 33 45 85 46 79 47 78 48 34 50 66 51 46 52 65 53 47 54
REMARK SMILES IDX 50 55 64 56 83 57 48 58 49 59 63 61 84 62 51 63 35 64 36 65
REMARK SMILES IDX 44 66 37 67 39 68 45 69 38 70 40 71 41 72 42 73 43 74 67 75
REMARK SMILES IDX 68 76 76 77 69 78 71 79 77 80 70 81 72 82 73 83 74 84 75 85
REMARK SMILES IDX 52 86 53 87 61 88 54 89 56 90 62 91 55 92 57 93 58 94 59 95
REMARK SMILES IDX 60 96
REMARK H PARENT 82 49 50 60
REMARK Flexibility Score: inf
ROOT
ATOM      1  C   UNL A   1      31.642  28.640  24.668  1.00  0.00     0.188 C 
ENDROOT
BRANCH   1   2
ATOM      2  C   UNL A   1      31.405  27.357  23.841  1.00  0.00     0.188 C 
BRANCH   2   3
ATOM      3  O   UNL A   1      30.170  26.730  24.090  1.00  0.00    -0.376 OA
BRANCH   3   4
ATOM      4  C   UNL A   1      30.032  25.758  25.109  1.00  0.00     0.202 C 
BRANCH   4   5
ATOM      5  C   UNL A   1      31.151  24.821  25.598  1.00  0.00     0.261 C 
BRANCH   5   6
ATOM      6  O   UNL A   1      31.326  23.581  24.913  1.00  0.00    -0.460 OA
BRANCH   6   7
ATOM      7  C   UNL A   1      32.149  23.593  23.837  1.00  0.00     0.338 C 
ATOM      8  O   UNL A   1      32.064  24.322  22.865  1.00  0.00    -0.246 OA
BRANCH   7   9
ATOM      9  C   UNL A   1      33.251  22.640  24.080  1.00  0.00     0.087 C 
ATOM     10  C   UNL A   1      33.803  18.956  24.321  1.00  0.00    -0.019 A 
ATOM     11  C   UNL A   1      34.886  18.115  24.671  1.00  0.00     0.045 A 
ATOM     12  C   UNL A   1      34.014  20.362  24.339  1.00  0.00     0.022 A 
ATOM     13  Cl  UNL A   1      34.741  16.392  24.740  1.00  0.00    -0.084 Cl
ATOM     14  C   UNL A   1      36.142  18.640  24.976  1.00  0.00     0.024 A 
ATOM     15  C   UNL A   1      35.303  20.864  24.589  1.00  0.00     0.128 A 
ATOM     16  C   UNL A   1      32.941  21.338  24.143  1.00  0.00     0.027 C 
ATOM     17  C   UNL A   1      36.356  20.010  24.912  1.00  0.00     0.048 A 
ATOM     18  O   UNL A   1      35.647  22.185  24.555  1.00  0.00    -0.475 OA
ATOM     19  C   UNL A   1      34.652  23.173  24.194  1.00  0.00     0.316 C 
BRANCH  10  20
ATOM     20  C   UNL A   1      32.473  18.345  23.916  1.00  0.00     0.034 C 
ATOM     21  C   UNL A   1      32.290  18.230  22.410  1.00  0.00     0.009 C 
ENDBRANCH  10  20
BRANCH  19  22
ATOM     22  C   UNL A   1      34.777  24.331  25.198  1.00  0.00     0.430 C 
ATOM     23  F   UNL A   1      36.077  24.566  25.512  1.00  0.00    -0.167 F 
ATOM     24  F   UNL A   1      34.292  25.494  24.704  1.00  0.00    -0.167 F 
ATOM     25  F   UNL A   1      34.123  24.078  26.353  1.00  0.00    -0.167 F 
ENDBRANCH  19  22
ENDBRANCH   7   9
ENDBRANCH   6   7
ENDBRANCH   5   6
ENDBRANCH   4   5
ENDBRANCH   3   4
ENDBRANCH   2   3
ENDBRANCH   1   2
BRANCH   1  26
ATOM     26  O   UNL A   1      32.296  28.557  25.930  1.00  0.00    -0.376 OA
BRANCH  26  27
ATOM     27  C   UNL A   1      31.943  29.479  26.956  1.00  0.00     0.202 C 
BRANCH  27  28
ATOM     28  C   UNL A   1      32.769  30.760  27.140  1.00  0.00     0.261 C 
BRANCH  28  29
ATOM     29  O   UNL A   1      34.182  30.538  27.275  1.00  0.00    -0.460 OA
BRANCH  29  30
ATOM     30  C   UNL A   1      34.878  31.543  27.868  1.00  0.00     0.338 C 
ATOM     31  O   UNL A   1      34.527  32.702  28.002  1.00  0.00    -0.246 OA
BRANCH  30  32
ATOM     32  C   UNL A   1      36.069  30.971  28.529  1.00  0.00     0.060 A 
ATOM     33  C   UNL A   1      35.967  29.851  29.356  1.00  0.00     0.016 A 
ATOM     34  C   UNL A   1      37.312  31.584  28.311  1.00  0.00     0.016 A 
ATOM     35  C   UNL A   1      37.122  29.330  29.947  1.00  0.00     0.010 A 
ATOM     36  C   UNL A   1      38.459  31.073  28.919  1.00  0.00     0.010 A 
ATOM     37  C   UNL A   1      38.374  29.929  29.725  1.00  0.00    -0.014 A 
BRANCH  37  38
ATOM     38  C   UNL A   1      39.610  29.248  30.181  1.00  0.00     0.031 A 
ATOM     39  C   UNL A   1      40.196  28.081  29.449  1.00  0.00     0.074 A 
ATOM     40  C   UNL A   1      40.195  29.702  31.305  1.00  0.00     0.049 A 
ATOM     41  N   UNL A   1      41.326  27.464  29.677  1.00  0.00    -0.248 NA
ATOM     42  C   UNL A   1      39.422  27.527  28.329  1.00  0.00     0.031 C 
ATOM     43  C   UNL A   1      39.676  30.788  32.139  1.00  0.00     0.029 A 
ATOM     44  N   UNL A   1      41.343  29.309  31.943  1.00  0.00    -0.354 N 
ATOM     45  C   UNL A   1      41.409  26.452  28.730  1.00  0.00     0.074 A 
ATOM     46  C   UNL A   1      40.198  26.523  27.935  1.00  0.00     0.031 C 
ATOM     47  C   UNL A   1      40.508  30.981  33.173  1.00  0.00     0.029 A 
ATOM     48  C   UNL A   1      41.616  30.035  33.077  1.00  0.00     0.049 A 
ATOM     49  H   UNL A   1      41.917  28.577  31.620  1.00  0.00     0.167 HD
ATOM     50  C   UNL A   1      42.416  25.569  28.528  1.00  0.00     0.034 A 
ATOM     51  C   UNL A   1      42.650  29.964  33.938  1.00  0.00     0.034 A 
ATOM     52  C   UNL A   1      43.623  25.515  29.312  1.00  0.00     0.049 A 
ATOM     53  C   UNL A   1      43.759  28.988  33.679  1.00  0.00     0.074 A 
ATOM     54  C   UNL A   1      44.728  24.702  29.127  1.00  0.00     0.029 A 
ATOM     55  N   UNL A   1      43.881  26.287  30.433  1.00  0.00    -0.354 N 
ATOM     56  N   UNL A   1      43.897  28.151  32.680  1.00  0.00    -0.248 NA
ATOM     57  C   UNL A   1      44.870  28.969  34.641  1.00  0.00     0.031 C 
ATOM     58  C   UNL A   1      45.649  24.972  30.144  1.00  0.00     0.029 A 
ATOM     59  C   UNL A   1      45.121  25.962  30.957  1.00  0.00     0.049 A 
ATOM     60  H   UNL A   1      43.272  26.967  30.804  1.00  0.00     0.167 HD
ATOM     61  C   UNL A   1      45.118  27.518  32.882  1.00  0.00     0.074 A 
ATOM     62  C   UNL A   1      45.688  28.080  34.090  1.00  0.00     0.031 C 
ATOM     63  C   UNL A   1      45.701  26.551  32.136  1.00  0.00     0.034 A 
BRANCH  50  64
ATOM     64  C   UNL A   1      42.313  24.624  27.363  1.00  0.00     0.023 A 
ATOM     65  C   UNL A   1      43.055  24.902  26.197  1.00  0.00     0.012 A 
ATOM     66  C   UNL A   1      41.613  23.407  27.468  1.00  0.00     0.148 A 
ATOM     67  C   UNL A   1      43.100  23.983  25.150  1.00  0.00     0.002 A 
ATOM     68  C   UNL A   1      41.684  22.484  26.430  1.00  0.00     0.091 A 
ATOM     69  F   UNL A   1      40.909  23.170  28.584  1.00  0.00    -0.205 F 
ATOM     70  C   UNL A   1      42.425  22.771  25.271  1.00  0.00     0.022 A 
BRANCH  68  71
ATOM     71  S   UNL A   1      40.902  20.868  26.506  1.00  0.00     0.127 S 
ATOM     72  O   UNL A   1      40.850  20.635  27.948  1.00  0.00    -0.237 OA
ATOM     73  O   UNL A   1      39.603  21.126  25.882  1.00  0.00    -0.237 OA
ATOM     74  O   UNL A   1      41.769  19.965  25.763  1.00  0.00    -0.744 OA
ENDBRANCH  68  71
ENDBRANCH  50  64
BRANCH  51  75
ATOM     75  C   UNL A   1      42.709  30.923  35.071  1.00  0.00     0.023 A 
ATOM     76  C   UNL A   1      42.248  30.517  36.337  1.00  0.00     0.012 A 
ATOM     77  C   UNL A   1      43.301  32.191  34.919  1.00  0.00     0.148 A 
ATOM     78  C   UNL A   1      42.371  31.365  37.437  1.00  0.00     0.002 A 
ATOM     79  C   UNL A   1      43.454  33.014  36.027  1.00  0.00     0.091 A 
ATOM     80  F   UNL A   1      43.731  32.547  33.700  1.00  0.00    -0.205 F 
ATOM     81  C   UNL A   1      42.982  32.607  37.285  1.00  0.00     0.022 A 
BRANCH  79  82
ATOM     82  S   UNL A   1      44.321  34.585  35.955  1.00  0.00     0.127 S 
ATOM     83  O   UNL A   1      43.727  35.199  34.770  1.00  0.00    -0.237 OA
ATOM     84  O   UNL A   1      43.936  35.197  37.226  1.00  0.00    -0.237 OA
ATOM     85  O   UNL A   1      45.735  34.254  35.845  1.00  0.00    -0.744 OA
ENDBRANCH  79  82
ENDBRANCH  51  75
BRANCH  63  86
ATOM     86  C   UNL A   1      47.033  26.018  32.587  1.00  0.00     0.023 A 
ATOM     87  C   UNL A   1      48.212  26.652  32.149  1.00  0.00     0.012 A 
ATOM     88  C   UNL A   1      47.113  24.974  33.530  1.00  0.00     0.148 A 
ATOM     89  C   UNL A   1      49.454  26.250  32.638  1.00  0.00     0.002 A 
ATOM     90  C   UNL A   1      48.352  24.600  34.038  1.00  0.00     0.091 A 
ATOM     91  F   UNL A   1      45.977  24.381  33.922  1.00  0.00    -0.205 F 
ATOM     92  C   UNL A   1      49.523  25.235  33.590  1.00  0.00     0.022 A 
BRANCH  90  93
ATOM     93  S   UNL A   1      48.542  23.354  35.317  1.00  0.00     0.127 S 
ATOM     94  O   UNL A   1      47.862  22.205  34.717  1.00  0.00    -0.237 OA
ATOM     95  O   UNL A   1      49.996  23.222  35.407  1.00  0.00    -0.237 OA
ATOM     96  O   UNL A   1      47.904  23.895  36.509  1.00  0.00    -0.744 OA
ENDBRANCH  90  93
ENDBRANCH  63  86
ENDBRANCH  37  38
ENDBRANCH  30  32
ENDBRANCH  29  30
ENDBRANCH  28  29
ENDBRANCH  27  28
ENDBRANCH  26  27
ENDBRANCH   1  26
TORSDOF 22
ENDMDL
MODEL 3
REMARK VINA RESULT:      -9.6      3.247      9.340
REMARK SMILES CCc1c(Cl)ccc2c1C=C(C(=O)OCCOCCOCCOC(=O)c1ccc(-c3c4nc(c(-c5cccc(S(=O)(=O)[O-])c5F)c5ccc([nH]5)c(-c5cccc(S(=O)(=O)[O-])c5F)c5nc(c(-c6cccc(S(=O)(=O)[O-])c6F)c6ccc3[nH]6)C=C5)C=C4)cc1)[C@@H](C(F)(F)F)O2
REMARK SMILES IDX 19 1 18 2 17 3 16 4 15 5 14 6 12 7 13 8 11 9 3 10 4 11 9 12
REMARK SMILES IDX 5 13 6 14 8 15 10 16 7 17 94 18 89 19 2 20 1 21 90 22 91 23
REMARK SMILES IDX 92 24 93 25 20 26 21 27 22 28 23 29 24 30 25 31 26 32 27 33
REMARK SMILES IDX 88 34 28 35 87 36 29 37 30 38 31 39 81 40 32 41 86 42 80 43
REMARK SMILES IDX 82 44 33 45 85 46 79 47 78 48 34 50 66 51 46 52 65 53 47 54
REMARK SMILES IDX 50 55 64 56 83 57 48 58 49 59 63 61 84 62 51 63 35 64 36 65
REMARK SMILES IDX 44 66 37 67 39 68 45 69 38 70 40 71 41 72 42 73 43 74 67 75
REMARK SMILES IDX 68 76 76 77 69 78 71 79 77 80 70 81 72 82 73 83 74 84 75 85
REMARK SMILES IDX 52 86 53 87 61 88 54 89 56 90 62 91 55 92 57 93 58 94 59 95
REMARK SMILES IDX 60 96
REMARK H PARENT 82 49 50 60
REMARK Flexibility Score: inf
ROOT
ATOM      1  C   UNL A   1      41.615  21.984  26.952  1.00  0.00     0.188 C 
ENDROOT
BRANCH   1   2
ATOM      2  C   UNL A   1      40.076  21.850  26.955  1.00  0.00     0.188 C 
BRANCH   2   3
ATOM      3  O   UNL A   1      39.496  21.843  25.673  1.00  0.00    -0.376 OA
BRANCH   3   4
ATOM      4  C   UNL A   1      38.103  22.018  25.495  1.00  0.00     0.202 C 
BRANCH   4   5
ATOM      5  C   UNL A   1      37.270  23.163  26.097  1.00  0.00     0.261 C 
BRANCH   5   6
ATOM      6  O   UNL A   1      36.329  23.818  25.247  1.00  0.00    -0.460 OA
BRANCH   6   7
ATOM      7  C   UNL A   1      35.034  23.796  25.646  1.00  0.00     0.338 C 
ATOM      8  O   UNL A   1      34.539  23.049  26.471  1.00  0.00    -0.246 OA
BRANCH   7   9
ATOM      9  C   UNL A   1      34.325  24.916  24.992  1.00  0.00     0.087 C 
ATOM     10  C   UNL A   1      32.947  28.277  25.849  1.00  0.00    -0.019 A 
ATOM     11  C   UNL A   1      32.174  29.255  25.181  1.00  0.00     0.045 A 
ATOM     12  C   UNL A   1      33.290  27.094  25.140  1.00  0.00     0.022 A 
ATOM     13  Cl  UNL A   1      31.647  30.713  25.952  1.00  0.00    -0.084 Cl
ATOM     14  C   UNL A   1      31.797  29.094  23.847  1.00  0.00     0.024 A 
ATOM     15  C   UNL A   1      32.952  26.982  23.780  1.00  0.00     0.128 A 
ATOM     16  C   UNL A   1      33.956  25.948  25.763  1.00  0.00     0.027 C 
ATOM     17  C   UNL A   1      32.206  27.971  23.142  1.00  0.00     0.048 A 
ATOM     18  O   UNL A   1      33.294  25.934  22.974  1.00  0.00    -0.475 OA
ATOM     19  C   UNL A   1      34.103  24.858  23.507  1.00  0.00     0.316 C 
BRANCH  10  20
ATOM     20  C   UNL A   1      33.408  28.525  27.276  1.00  0.00     0.034 C 
ATOM     21  C   UNL A   1      34.364  29.700  27.411  1.00  0.00     0.009 C 
ENDBRANCH  10  20
BRANCH  19  22
ATOM     22  C   UNL A   1      33.464  23.538  23.043  1.00  0.00     0.430 C 
ATOM     23  F   UNL A   1      32.361  23.245  23.778  1.00  0.00    -0.167 F 
ATOM     24  F   UNL A   1      33.056  23.589  21.753  1.00  0.00    -0.167 F 
ATOM     25  F   UNL A   1      34.313  22.493  23.157  1.00  0.00    -0.167 F 
ENDBRANCH  19  22
ENDBRANCH   7   9
ENDBRANCH   6   7
ENDBRANCH   5   6
ENDBRANCH   4   5
ENDBRANCH   3   4
ENDBRANCH   2   3
ENDBRANCH   1   2
BRANCH   1  26
ATOM     26  O   UNL A   1      42.253  22.798  25.973  1.00  0.00    -0.376 OA
BRANCH  26  27
ATOM     27  C   UNL A   1      42.759  24.073  26.355  1.00  0.00     0.202 C 
BRANCH  27  28
ATOM     28  C   UNL A   1      42.879  25.185  25.304  1.00  0.00     0.261 C 
BRANCH  28  29
ATOM     29  O   UNL A   1      41.820  26.155  25.344  1.00  0.00    -0.460 OA
BRANCH  29  30
ATOM     30  C   UNL A   1      42.216  27.454  25.356  1.00  0.00     0.338 C 
ATOM     31  O   UNL A   1      42.751  28.069  24.450  1.00  0.00    -0.246 OA
BRANCH  30  32
ATOM     32  C   UNL A   1      41.709  28.095  26.587  1.00  0.00     0.060 A 
ATOM     33  C   UNL A   1      40.581  27.602  27.245  1.00  0.00     0.016 A 
ATOM     34  C   UNL A   1      42.387  29.219  27.082  1.00  0.00     0.016 A 
ATOM     35  C   UNL A   1      40.145  28.226  28.417  1.00  0.00     0.010 A 
ATOM     36  C   UNL A   1      41.937  29.852  28.242  1.00  0.00     0.010 A 
ATOM     37  C   UNL A   1      40.825  29.346  28.928  1.00  0.00    -0.014 A 
BRANCH  37  38
ATOM     38  C   UNL A   1      40.485  29.865  30.275  1.00  0.00     0.031 A 
ATOM     39  C   UNL A   1      41.301  29.540  31.487  1.00  0.00     0.074 A 
ATOM     40  C   UNL A   1      39.387  30.636  30.389  1.00  0.00     0.049 A 
ATOM     41  N   UNL A   1      41.178  30.013  32.700  1.00  0.00    -0.248 NA
ATOM     42  C   UNL A   1      42.385  28.560  31.329  1.00  0.00     0.031 C 
ATOM     43  C   UNL A   1      38.476  30.962  29.289  1.00  0.00     0.029 A 
ATOM     44  N   UNL A   1      38.848  31.279  31.473  1.00  0.00    -0.354 N 
ATOM     45  C   UNL A   1      42.168  29.398  33.454  1.00  0.00     0.074 A 
ATOM     46  C   UNL A   1      42.872  28.495  32.564  1.00  0.00     0.031 C 
ATOM     47  C   UNL A   1      37.496  31.752  29.753  1.00  0.00     0.029 A 
ATOM     48  C   UNL A   1      37.708  31.987  31.179  1.00  0.00     0.049 A 
ATOM     49  H   UNL A   1      39.239  31.237  32.375  1.00  0.00     0.167 HD
ATOM     50  C   UNL A   1      42.475  29.593  34.759  1.00  0.00     0.034 A 
ATOM     51  C   UNL A   1      36.925  32.755  31.961  1.00  0.00     0.034 A 
ATOM     52  C   UNL A   1      41.781  30.503  35.633  1.00  0.00     0.049 A 
ATOM     53  C   UNL A   1      37.300  32.967  33.397  1.00  0.00     0.074 A 
ATOM     54  C   UNL A   1      42.075  30.818  36.949  1.00  0.00     0.029 A 
ATOM     55  N   UNL A   1      40.650  31.229  35.294  1.00  0.00    -0.354 N 
ATOM     56  N   UNL A   1      38.338  32.505  34.051  1.00  0.00    -0.248 NA
ATOM     57  C   UNL A   1      36.420  33.832  34.197  1.00  0.00     0.031 C 
ATOM     58  C   UNL A   1      41.115  31.725  37.409  1.00  0.00     0.029 A 
ATOM     59  C   UNL A   1      40.229  31.982  36.377  1.00  0.00     0.049 A 
ATOM     60  H   UNL A   1      40.212  31.212  34.412  1.00  0.00     0.167 HD
ATOM     61  C   UNL A   1      38.248  33.037  35.331  1.00  0.00     0.074 A 
ATOM     62  C   UNL A   1      37.062  33.868  35.359  1.00  0.00     0.031 C 
ATOM     63  C   UNL A   1      39.071  32.838  36.388  1.00  0.00     0.034 A 
BRANCH  50  64
ATOM     64  C   UNL A   1      43.666  28.872  35.326  1.00  0.00     0.023 A 
ATOM     65  C   UNL A   1      44.949  29.425  35.131  1.00  0.00     0.012 A 
ATOM     66  C   UNL A   1      43.512  27.750  36.163  1.00  0.00     0.148 A 
ATOM     67  C   UNL A   1      46.062  28.869  35.758  1.00  0.00     0.002 A 
ATOM     68  C   UNL A   1      44.625  27.217  36.805  1.00  0.00     0.091 A 
ATOM     69  F   UNL A   1      42.284  27.240  36.326  1.00  0.00    -0.205 F 
ATOM     70  C   UNL A   1      45.899  27.774  36.603  1.00  0.00     0.022 A 
BRANCH  68  71
ATOM     71  S   UNL A   1      44.520  25.845  37.960  1.00  0.00     0.127 S 
ATOM     72  O   UNL A   1      43.908  26.487  39.122  1.00  0.00    -0.237 OA
ATOM     73  O   UNL A   1      43.647  24.910  37.249  1.00  0.00    -0.237 OA
ATOM     74  O   UNL A   1      45.886  25.379  38.157  1.00  0.00    -0.744 OA
ENDBRANCH  68  71
ENDBRANCH  50  64
BRANCH  51  75
ATOM     75  C   UNL A   1      35.762  33.450  31.352  1.00  0.00     0.023 A 
ATOM     76  C   UNL A   1      35.043  32.813  30.324  1.00  0.00     0.012 A 
ATOM     77  C   UNL A   1      35.314  34.689  31.848  1.00  0.00     0.148 A 
ATOM     78  C   UNL A   1      33.897  33.402  29.794  1.00  0.00     0.002 A 
ATOM     79  C   UNL A   1      34.150  35.252  31.341  1.00  0.00     0.091 A 
ATOM     80  F   UNL A   1      36.020  35.270  32.829  1.00  0.00    -0.205 F 
ATOM     81  C   UNL A   1      33.445  34.615  30.309  1.00  0.00     0.022 A 
BRANCH  79  82
ATOM     82  S   UNL A   1      33.429  36.755  32.010  1.00  0.00     0.127 S 
ATOM     83  O   UNL A   1      32.548  36.226  33.048  1.00  0.00    -0.237 OA
ATOM     84  O   UNL A   1      34.612  37.459  32.504  1.00  0.00    -0.237 OA
ATOM     85  O   UNL A   1      32.758  37.405  30.893  1.00  0.00    -0.744 OA
ENDBRANCH  79  82
ENDBRANCH  51  75
BRANCH  63  86
ATOM     86  C   UNL A   1      38.736  33.526  37.683  1.00  0.00     0.023 A 
ATOM     87  C   UNL A   1      37.928  32.861  38.626  1.00  0.00     0.012 A 
ATOM     88  C   UNL A   1      39.313  34.768  38.013  1.00  0.00     0.148 A 
ATOM     89  C   UNL A   1      37.692  33.426  39.877  1.00  0.00     0.002 A 
ATOM     90  C   UNL A   1      39.100  35.310  39.276  1.00  0.00     0.091 A 
ATOM     91  F   UNL A   1      40.069  35.383  37.094  1.00  0.00    -0.205 F 
ATOM     92  C   UNL A   1      38.287  34.642  40.207  1.00  0.00     0.022 A 
BRANCH  90  93
ATOM     93  S   UNL A   1      39.877  36.835  39.821  1.00  0.00     0.127 S 
ATOM     94  O   UNL A   1      39.649  37.713  38.673  1.00  0.00    -0.237 OA
ATOM     95  O   UNL A   1      39.095  37.171  41.011  1.00  0.00    -0.237 OA
ATOM     96  O   UNL A   1      41.272  36.508  40.082  1.00  0.00    -0.744 OA
ENDBRANCH  90  93
ENDBRANCH  63  86
ENDBRANCH  37  38
ENDBRANCH  30  32
ENDBRANCH  29  30
ENDBRANCH  28  29
ENDBRANCH  27  28
ENDBRANCH  26  27
ENDBRANCH   1  26
TORSDOF 22
ENDMDL
