MODEL 1
REMARK VINA RESULT:     -10.7      0.000      0.000
REMARK SMILES COc1ccc2[nH]c(/C(C#N)=C/c3ccc(-c4cc(C(=O)OCCOCCOCCOC(=O)c5ccc(-c6c7nc(c(-c8cccc(S(=O)(=O)[O-])c8F)c8ccc([nH]8)c(-c8cccc(S(=O)(=O)[O-])c8F)c8nc(c(-c9cccc(S(=O)(=O)[O-])c9F)c9ccc6[nH]9)C=C8)C=C7)cc5)ccc4Cl)o3)nc2c1
REMARK SMILES IDX 26 1 25 2 24 3 23 4 22 5 20 6 21 7 19 8 17 9 18 10 99 11
REMARK SMILES IDX 98 12 100 13 97 14 16 15 13 16 14 17 101 18 15 19 12 20 9 21
REMARK SMILES IDX 8 22 3 23 4 24 104 25 5 26 103 27 6 28 102 29 7 30 2 32 1 33
REMARK SMILES IDX 10 34 11 35 27 36 28 37 29 38 30 39 31 40 32 41 33 42 34 43
REMARK SMILES IDX 35 44 96 45 36 46 95 47 37 48 38 49 39 50 89 51 40 52 94 53
REMARK SMILES IDX 88 54 90 55 41 56 93 57 87 58 86 59 42 61 74 62 54 63 73 64
REMARK SMILES IDX 55 65 58 66 72 67 91 68 56 69 57 70 71 72 92 73 59 74 43 75
REMARK SMILES IDX 44 76 52 77 45 78 47 79 53 80 46 81 48 82 49 83 50 84 51 85
REMARK SMILES IDX 75 86 76 87 84 88 77 89 79 90 85 91 78 92 80 93 81 94 82 95
REMARK SMILES IDX 83 96 60 97 61 98 69 99 62 100 64 101 70 102 63 103 65 104
REMARK SMILES IDX 66 105 67 106 68 107
REMARK H PARENT 7 31 90 60 58 71
REMARK Flexibility Score: inf
ROOT
ATOM      1  C   UNL A   1      35.444  21.184  25.330  1.00  0.00     0.188 C 
ENDROOT
BRANCH   1   2
ATOM      2  O   UNL A   1      35.263  21.449  26.702  1.00  0.00    -0.376 OA
BRANCH   2   3
ATOM      3  C   UNL A   1      34.478  22.549  27.129  1.00  0.00     0.202 C 
BRANCH   3   4
ATOM      4  C   UNL A   1      33.047  22.475  27.702  1.00  0.00     0.261 C 
BRANCH   4   5
ATOM      5  O   UNL A   1      31.964  22.873  26.855  1.00  0.00    -0.460 OA
BRANCH   5   6
ATOM      6  C   UNL A   1      31.874  22.227  25.665  1.00  0.00     0.338 C 
ATOM      7  O   UNL A   1      31.515  21.079  25.480  1.00  0.00    -0.246 OA
BRANCH   6   8
ATOM      8  C   UNL A   1      32.113  23.190  24.563  1.00  0.00     0.060 A 
ATOM      9  C   UNL A   1      32.018  25.490  23.760  1.00  0.00     0.037 A 
ATOM     10  C   UNL A   1      31.819  24.547  24.781  1.00  0.00     0.029 A 
ATOM     11  C   UNL A   1      32.534  25.052  22.527  1.00  0.00     0.052 A 
ATOM     12  C   UNL A   1      32.854  23.704  22.324  1.00  0.00     0.022 A 
ATOM     13  Cl  UNL A   1      32.767  26.129  21.190  1.00  0.00    -0.084 Cl
ATOM     14  C   UNL A   1      32.641  22.770  23.339  1.00  0.00     0.017 A 
BRANCH   9  15
ATOM     15  C   UNL A   1      31.519  26.842  23.937  1.00  0.00     0.136 A 
ATOM     16  C   UNL A   1      31.532  28.906  24.758  1.00  0.00     0.129 A 
ATOM     17  C   UNL A   1      30.440  28.777  23.899  1.00  0.00     0.051 A 
ATOM     18  O   UNL A   1      32.220  27.703  24.732  1.00  0.00    -0.457 OA
ATOM     19  C   UNL A   1      30.407  27.459  23.421  1.00  0.00     0.051 A 
BRANCH  16  20
ATOM     20  C   UNL A   1      31.913  30.062  25.516  1.00  0.00     0.070 C 
ATOM     21  C   UNL A   1      33.014  30.050  26.301  1.00  0.00     0.098 C 
BRANCH  21  22
ATOM     22  C   UNL A   1      33.304  31.038  27.285  1.00  0.00     0.149 A 
ATOM     23  C   UNL A   1      34.113  34.712  29.746  1.00  0.00     0.121 A 
ATOM     24  C   UNL A   1      35.019  33.861  30.386  1.00  0.00     0.049 A 
ATOM     25  C   UNL A   1      33.341  34.258  28.683  1.00  0.00     0.077 A 
ATOM     26  C   UNL A   1      35.147  32.511  30.019  1.00  0.00     0.032 A 
ATOM     27  C   UNL A   1      33.486  32.932  28.284  1.00  0.00     0.093 A 
ATOM     28  C   UNL A   1      34.352  32.083  28.957  1.00  0.00     0.066 A 
ATOM     29  N   UNL A   1      32.861  32.282  27.266  1.00  0.00    -0.228 NA
ATOM     30  N   UNL A   1      34.162  30.861  28.352  1.00  0.00    -0.337 N 
ATOM     31  H   UNL A   1      34.567  30.009  28.632  1.00  0.00     0.168 HD
BRANCH  23  32
ATOM     32  O   UNL A   1      33.787  35.966  30.187  1.00  0.00    -0.497 OA
ATOM     33  C   UNL A   1      32.438  36.092  30.618  1.00  0.00     0.278 C 
ENDBRANCH  23  32
ENDBRANCH  21  22
BRANCH  21  34
ATOM     34  C   UNL A   1      33.940  28.946  26.271  1.00  0.00     0.103 C 
ATOM     35  N   UNL A   1      34.735  28.100  26.270  1.00  0.00    -0.192 NA
ENDBRANCH  21  34
ENDBRANCH  16  20
ENDBRANCH   9  15
ENDBRANCH   6   8
ENDBRANCH   5   6
ENDBRANCH   4   5
ENDBRANCH   3   4
ENDBRANCH   2   3
ENDBRANCH   1   2
BRANCH   1  36
ATOM     36  C   UNL A   1      36.894  20.990  24.846  1.00  0.00     0.188 C 
BRANCH  36  37
ATOM     37  O   UNL A   1      37.936  21.036  25.795  1.00  0.00    -0.376 OA
BRANCH  37  38
ATOM     38  C   UNL A   1      39.249  20.658  25.410  1.00  0.00     0.202 C 
BRANCH  38  39
ATOM     39  C   UNL A   1      40.213  19.765  26.226  1.00  0.00     0.261 C 
BRANCH  39  40
ATOM     40  O   UNL A   1      41.333  19.169  25.563  1.00  0.00    -0.460 OA
BRANCH  40  41
ATOM     41  C   UNL A   1      42.553  19.468  26.074  1.00  0.00     0.338 C 
ATOM     42  O   UNL A   1      43.510  18.720  26.177  1.00  0.00    -0.246 OA
BRANCH  41  43
ATOM     43  C   UNL A   1      42.634  20.926  26.313  1.00  0.00     0.060 A 
ATOM     44  C   UNL A   1      42.792  21.787  25.216  1.00  0.00     0.016 A 
ATOM     45  C   UNL A   1      42.594  21.436  27.608  1.00  0.00     0.016 A 
ATOM     46  C   UNL A   1      42.931  23.160  25.412  1.00  0.00     0.010 A 
ATOM     47  C   UNL A   1      42.763  22.811  27.805  1.00  0.00     0.010 A 
ATOM     48  C   UNL A   1      42.968  23.676  26.711  1.00  0.00    -0.014 A 
BRANCH  48  49
ATOM     49  C   UNL A   1      43.383  25.082  26.938  1.00  0.00     0.031 A 
ATOM     50  C   UNL A   1      44.815  25.469  26.708  1.00  0.00     0.074 A 
ATOM     51  C   UNL A   1      42.517  26.022  27.351  1.00  0.00     0.049 A 
ATOM     52  N   UNL A   1      45.392  26.630  26.876  1.00  0.00    -0.248 NA
ATOM     53  C   UNL A   1      45.708  24.413  26.210  1.00  0.00     0.031 C 
ATOM     54  C   UNL A   1      41.092  25.811  27.585  1.00  0.00     0.029 A 
ATOM     55  N   UNL A   1      42.733  27.337  27.689  1.00  0.00    -0.354 N 
ATOM     56  C   UNL A   1      46.730  26.432  26.566  1.00  0.00     0.074 A 
ATOM     57  C   UNL A   1      46.870  25.045  26.175  1.00  0.00     0.031 C 
ATOM     58  C   UNL A   1      40.568  26.944  28.081  1.00  0.00     0.029 A 
ATOM     59  C   UNL A   1      41.630  27.940  28.242  1.00  0.00     0.049 A 
ATOM     60  H   UNL A   1      43.592  27.799  27.549  1.00  0.00     0.167 HD
ATOM     61  C   UNL A   1      47.757  27.312  26.618  1.00  0.00     0.034 A 
ATOM     62  C   UNL A   1      41.497  29.133  28.857  1.00  0.00     0.034 A 
ATOM     63  C   UNL A   1      47.655  28.670  27.087  1.00  0.00     0.049 A 
ATOM     64  C   UNL A   1      42.676  30.073  28.985  1.00  0.00     0.074 A 
ATOM     65  C   UNL A   1      48.655  29.625  27.123  1.00  0.00     0.029 A 
ATOM     66  N   UNL A   1      46.541  29.244  27.683  1.00  0.00    -0.354 N 
ATOM     67  N   UNL A   1      43.937  29.892  28.663  1.00  0.00    -0.248 NA
ATOM     68  C   UNL A   1      42.390  31.403  29.537  1.00  0.00     0.031 C 
ATOM     69  C   UNL A   1      48.199  30.702  27.887  1.00  0.00     0.029 A 
ATOM     70  C   UNL A   1      46.852  30.519  28.145  1.00  0.00     0.049 A 
ATOM     71  H   UNL A   1      45.661  28.813  27.767  1.00  0.00     0.167 HD
ATOM     72  C   UNL A   1      44.591  31.103  28.937  1.00  0.00     0.074 A 
ATOM     73  C   UNL A   1      43.572  31.998  29.446  1.00  0.00     0.031 C 
ATOM     74  C   UNL A   1      45.902  31.439  28.738  1.00  0.00     0.034 A 
BRANCH  61  75
ATOM     75  C   UNL A   1      49.121  26.803  26.219  1.00  0.00     0.023 A 
ATOM     76  C   UNL A   1      49.832  25.920  27.058  1.00  0.00     0.012 A 
ATOM     77  C   UNL A   1      49.684  27.180  24.982  1.00  0.00     0.148 A 
ATOM     78  C   UNL A   1      51.099  25.463  26.697  1.00  0.00     0.002 A 
ATOM     79  C   UNL A   1      50.915  26.667  24.599  1.00  0.00     0.091 A 
ATOM     80  F   UNL A   1      49.010  28.043  24.209  1.00  0.00    -0.205 F 
ATOM     81  C   UNL A   1      51.633  25.825  25.463  1.00  0.00     0.022 A 
BRANCH  79  82
ATOM     82  S   UNL A   1      51.634  26.994  22.988  1.00  0.00     0.127 S 
ATOM     83  O   UNL A   1      52.774  26.078  22.984  1.00  0.00    -0.237 OA
ATOM     84  O   UNL A   1      50.545  26.616  22.087  1.00  0.00    -0.237 OA
ATOM     85  O   UNL A   1      51.967  28.411  22.976  1.00  0.00    -0.744 OA
ENDBRANCH  79  82
ENDBRANCH  61  75
BRANCH  62  86
ATOM     86  C   UNL A   1      40.156  29.492  29.405  1.00  0.00     0.023 A 
ATOM     87  C   UNL A   1      39.174  30.047  28.565  1.00  0.00     0.012 A 
ATOM     88  C   UNL A   1      39.825  29.188  30.742  1.00  0.00     0.148 A 
ATOM     89  C   UNL A   1      37.891  30.311  29.051  1.00  0.00     0.002 A 
ATOM     90  C   UNL A   1      38.533  29.406  31.206  1.00  0.00     0.091 A 
ATOM     91  F   UNL A   1      40.774  28.649  31.519  1.00  0.00    -0.205 F 
ATOM     92  C   UNL A   1      37.568  29.981  30.365  1.00  0.00     0.022 A 
BRANCH  90  93
ATOM     93  S   UNL A   1      37.994  28.889  32.840  1.00  0.00     0.127 S 
ATOM     94  O   UNL A   1      38.090  27.434  32.743  1.00  0.00    -0.237 OA
ATOM     95  O   UNL A   1      38.996  29.514  33.703  1.00  0.00    -0.237 OA
ATOM     96  O   UNL A   1      36.647  29.418  33.001  1.00  0.00    -0.744 OA
ENDBRANCH  90  93
ENDBRANCH  62  86
BRANCH  74  97
ATOM     97  C   UNL A   1      46.375  32.868  29.067  1.00  0.00     0.023 A 
ATOM     98  C   UNL A   1      46.892  33.184  30.339  1.00  0.00     0.012 A 
ATOM     99  C   UNL A   1      46.328  33.919  28.115  1.00  0.00     0.148 A 
ATOM    100  C   UNL A   1      47.215  34.502  30.690  1.00  0.00     0.002 A 
ATOM    101  C   UNL A   1      46.684  35.225  28.452  1.00  0.00     0.091 A 
ATOM    102  F   UNL A   1      45.939  33.648  26.864  1.00  0.00    -0.205 F 
ATOM    103  C   UNL A   1      47.098  35.525  29.753  1.00  0.00     0.022 A 
BRANCH 101 104
ATOM    104  S   UNL A   1      46.575  36.599  27.288  1.00  0.00     0.127 S 
ATOM    105  O   UNL A   1      47.255  37.671  28.018  1.00  0.00    -0.237 OA
ATOM    106  O   UNL A   1      47.309  36.088  26.134  1.00  0.00    -0.237 OA
ATOM    107  O   UNL A   1      45.155  36.841  27.067  1.00  0.00    -0.744 OA
ENDBRANCH 101 104
ENDBRANCH  74  97
ENDBRANCH  48  49
ENDBRANCH  41  43
ENDBRANCH  40  41
ENDBRANCH  39  40
ENDBRANCH  38  39
ENDBRANCH  37  38
ENDBRANCH  36  37
ENDBRANCH   1  36
TORSDOF 25
ENDMDL
MODEL 2
REMARK VINA RESULT:      -9.9      1.610      7.124
REMARK SMILES COc1ccc2[nH]c(/C(C#N)=C/c3ccc(-c4cc(C(=O)OCCOCCOCCOC(=O)c5ccc(-c6c7nc(c(-c8cccc(S(=O)(=O)[O-])c8F)c8ccc([nH]8)c(-c8cccc(S(=O)(=O)[O-])c8F)c8nc(c(-c9cccc(S(=O)(=O)[O-])c9F)c9ccc6[nH]9)C=C8)C=C7)cc5)ccc4Cl)o3)nc2c1
REMARK SMILES IDX 26 1 25 2 24 3 23 4 22 5 20 6 21 7 19 8 17 9 18 10 99 11
REMARK SMILES IDX 98 12 100 13 97 14 16 15 13 16 14 17 101 18 15 19 12 20 9 21
REMARK SMILES IDX 8 22 3 23 4 24 104 25 5 26 103 27 6 28 102 29 7 30 2 32 1 33
REMARK SMILES IDX 10 34 11 35 27 36 28 37 29 38 30 39 31 40 32 41 33 42 34 43
REMARK SMILES IDX 35 44 96 45 36 46 95 47 37 48 38 49 39 50 89 51 40 52 94 53
REMARK SMILES IDX 88 54 90 55 41 56 93 57 87 58 86 59 42 61 74 62 54 63 73 64
REMARK SMILES IDX 55 65 58 66 72 67 91 68 56 69 57 70 71 72 92 73 59 74 43 75
REMARK SMILES IDX 44 76 52 77 45 78 47 79 53 80 46 81 48 82 49 83 50 84 51 85
REMARK SMILES IDX 75 86 76 87 84 88 77 89 79 90 85 91 78 92 80 93 81 94 82 95
REMARK SMILES IDX 83 96 60 97 61 98 69 99 62 100 64 101 70 102 63 103 65 104
REMARK SMILES IDX 66 105 67 106 68 107
REMARK H PARENT 7 31 90 60 58 71
REMARK Flexibility Score: inf
ROOT
ATOM      1  C   UNL A   1      35.245  20.863  25.231  1.00  0.00     0.188 C 
ENDROOT
BRANCH   1   2
ATOM      2  O   UNL A   1      35.168  21.458  26.506  1.00  0.00    -0.376 OA
BRANCH   2   3
ATOM      3  C   UNL A   1      34.323  22.572  26.735  1.00  0.00     0.202 C 
BRANCH   3   4
ATOM      4  C   UNL A   1      32.954  22.542  27.446  1.00  0.00     0.261 C 
BRANCH   4   5
ATOM      5  O   UNL A   1      31.777  22.484  26.634  1.00  0.00    -0.460 OA
BRANCH   5   6
ATOM      6  C   UNL A   1      31.908  21.838  25.448  1.00  0.00     0.338 C 
ATOM      7  O   UNL A   1      31.741  20.650  25.238  1.00  0.00    -0.246 OA
BRANCH   6   8
ATOM      8  C   UNL A   1      32.118  22.831  24.367  1.00  0.00     0.060 A 
ATOM      9  C   UNL A   1      31.872  25.126  23.583  1.00  0.00     0.037 A 
ATOM     10  C   UNL A   1      31.704  24.157  24.584  1.00  0.00     0.029 A 
ATOM     11  C   UNL A   1      32.478  24.748  22.370  1.00  0.00     0.052 A 
ATOM     12  C   UNL A   1      32.916  23.433  22.170  1.00  0.00     0.022 A 
ATOM     13  Cl  UNL A   1      32.683  25.858  21.056  1.00  0.00    -0.084 Cl
ATOM     14  C   UNL A   1      32.733  22.472  23.165  1.00  0.00     0.017 A 
BRANCH   9  15
ATOM     15  C   UNL A   1      31.258  26.431  23.748  1.00  0.00     0.136 A 
ATOM     16  C   UNL A   1      31.171  28.551  24.406  1.00  0.00     0.129 A 
ATOM     17  C   UNL A   1      29.973  28.236  23.766  1.00  0.00     0.051 A 
ATOM     18  O   UNL A   1      31.979  27.427  24.345  1.00  0.00    -0.457 OA
ATOM     19  C   UNL A   1      30.011  26.883  23.396  1.00  0.00     0.051 A 
BRANCH  16  20
ATOM     20  C   UNL A   1      31.539  29.803  25.001  1.00  0.00     0.070 C 
ATOM     21  C   UNL A   1      32.492  29.868  25.957  1.00  0.00     0.098 C 
BRANCH  21  22
ATOM     22  C   UNL A   1      32.718  31.006  26.785  1.00  0.00     0.149 A 
ATOM     23  C   UNL A   1      33.059  35.030  28.759  1.00  0.00     0.121 A 
ATOM     24  C   UNL A   1      34.260  34.493  29.231  1.00  0.00     0.049 A 
ATOM     25  C   UNL A   1      32.227  34.288  27.928  1.00  0.00     0.077 A 
ATOM     26  C   UNL A   1      34.646  33.176  28.933  1.00  0.00     0.032 A 
ATOM     27  C   UNL A   1      32.617  32.994  27.593  1.00  0.00     0.093 A 
ATOM     28  C   UNL A   1      33.785  32.453  28.107  1.00  0.00     0.066 A 
ATOM     29  N   UNL A   1      31.982  32.102  26.786  1.00  0.00    -0.228 NA
ATOM     30  N   UNL A   1      33.790  31.158  27.640  1.00  0.00    -0.337 N 
ATOM     31  H   UNL A   1      34.445  30.462  27.876  1.00  0.00     0.168 HD
BRANCH  23  32
ATOM     32  O   UNL A   1      32.524  36.217  29.179  1.00  0.00    -0.497 OA
ATOM     33  C   UNL A   1      33.058  36.684  30.412  1.00  0.00     0.278 C 
ENDBRANCH  23  32
ENDBRANCH  21  22
BRANCH  21  34
ATOM     34  C   UNL A   1      33.298  28.719  26.288  1.00  0.00     0.103 C 
ATOM     35  N   UNL A   1      33.918  27.761  26.500  1.00  0.00    -0.192 NA
ENDBRANCH  21  34
ENDBRANCH  16  20
ENDBRANCH   9  15
ENDBRANCH   6   8
ENDBRANCH   5   6
ENDBRANCH   4   5
ENDBRANCH   3   4
ENDBRANCH   2   3
ENDBRANCH   1   2
BRANCH   1  36
ATOM     36  C   UNL A   1      36.572  20.169  24.867  1.00  0.00     0.188 C 
BRANCH  36  37
ATOM     37  O   UNL A   1      37.696  20.383  25.691  1.00  0.00    -0.376 OA
BRANCH  37  38
ATOM     38  C   UNL A   1      38.995  20.128  25.181  1.00  0.00     0.202 C 
BRANCH  38  39
ATOM     39  C   UNL A   1      40.161  19.469  25.954  1.00  0.00     0.261 C 
BRANCH  39  40
ATOM     40  O   UNL A   1      41.367  19.151  25.250  1.00  0.00    -0.460 OA
BRANCH  40  41
ATOM     41  C   UNL A   1      42.517  19.265  25.960  1.00  0.00     0.338 C 
ATOM     42  O   UNL A   1      43.360  18.403  26.137  1.00  0.00    -0.246 OA
BRANCH  41  43
ATOM     43  C   UNL A   1      42.714  20.682  26.337  1.00  0.00     0.060 A 
ATOM     44  C   UNL A   1      42.934  21.630  25.325  1.00  0.00     0.016 A 
ATOM     45  C   UNL A   1      42.724  21.066  27.676  1.00  0.00     0.016 A 
ATOM     46  C   UNL A   1      43.183  22.962  25.651  1.00  0.00     0.010 A 
ATOM     47  C   UNL A   1      43.003  22.398  28.001  1.00  0.00     0.010 A 
ATOM     48  C   UNL A   1      43.269  23.346  26.993  1.00  0.00    -0.014 A 
BRANCH  48  49
ATOM     49  C   UNL A   1      43.796  24.686  27.348  1.00  0.00     0.031 A 
ATOM     50  C   UNL A   1      42.923  25.636  28.115  1.00  0.00     0.074 A 
ATOM     51  C   UNL A   1      45.032  25.080  27.001  1.00  0.00     0.049 A 
ATOM     52  N   UNL A   1      43.175  26.861  28.498  1.00  0.00    -0.248 NA
ATOM     53  C   UNL A   1      41.599  25.136  28.512  1.00  0.00     0.031 C 
ATOM     54  C   UNL A   1      46.008  24.263  26.288  1.00  0.00     0.029 A 
ATOM     55  N   UNL A   1      45.653  26.295  27.168  1.00  0.00    -0.354 N 
ATOM     56  C   UNL A   1      42.019  27.302  29.127  1.00  0.00     0.074 A 
ATOM     57  C   UNL A   1      41.077  26.204  29.094  1.00  0.00     0.031 C 
ATOM     58  C   UNL A   1      47.090  25.016  26.030  1.00  0.00     0.029 A 
ATOM     59  C   UNL A   1      46.860  26.378  26.517  1.00  0.00     0.049 A 
ATOM     60  H   UNL A   1      45.272  27.031  27.700  1.00  0.00     0.167 HD
ATOM     61  C   UNL A   1      41.752  28.514  29.667  1.00  0.00     0.034 A 
ATOM     62  C   UNL A   1      47.665  27.436  26.290  1.00  0.00     0.034 A 
ATOM     63  C   UNL A   1      42.642  29.646  29.631  1.00  0.00     0.049 A 
ATOM     64  C   UNL A   1      47.310  28.806  26.826  1.00  0.00     0.074 A 
ATOM     65  C   UNL A   1      42.443  30.891  30.200  1.00  0.00     0.029 A 
ATOM     66  N   UNL A   1      43.837  29.721  28.930  1.00  0.00    -0.354 N 
ATOM     67  N   UNL A   1      46.226  29.214  27.448  1.00  0.00    -0.248 NA
ATOM     68  C   UNL A   1      48.323  29.855  26.652  1.00  0.00     0.031 C 
ATOM     69  C   UNL A   1      43.421  31.756  29.704  1.00  0.00     0.029 A 
ATOM     70  C   UNL A   1      44.352  31.011  29.002  1.00  0.00     0.049 A 
ATOM     71  H   UNL A   1      44.258  28.971  28.452  1.00  0.00     0.167 HD
ATOM     72  C   UNL A   1      46.443  30.561  27.776  1.00  0.00     0.074 A 
ATOM     73  C   UNL A   1      47.766  30.882  27.280  1.00  0.00     0.031 C 
ATOM     74  C   UNL A   1      45.632  31.423  28.460  1.00  0.00     0.034 A 
BRANCH  61  75
ATOM     75  C   UNL A   1      40.389  28.706  30.288  1.00  0.00     0.023 A 
ATOM     76  C   UNL A   1      40.119  28.231  31.588  1.00  0.00     0.012 A 
ATOM     77  C   UNL A   1      39.380  29.394  29.583  1.00  0.00     0.148 A 
ATOM     78  C   UNL A   1      38.856  28.395  32.155  1.00  0.00     0.002 A 
ATOM     79  C   UNL A   1      38.147  29.610  30.180  1.00  0.00     0.091 A 
ATOM     80  F   UNL A   1      39.641  29.811  28.336  1.00  0.00    -0.205 F 
ATOM     81  C   UNL A   1      37.875  29.094  31.457  1.00  0.00     0.022 A 
BRANCH  79  82
ATOM     82  S   UNL A   1      36.860  30.589  29.401  1.00  0.00     0.127 S 
ATOM     83  O   UNL A   1      35.718  30.320  30.274  1.00  0.00    -0.237 OA
ATOM     84  O   UNL A   1      37.402  31.944  29.508  1.00  0.00    -0.237 OA
ATOM     85  O   UNL A   1      36.742  30.088  28.039  1.00  0.00    -0.744 OA
ENDBRANCH  79  82
ENDBRANCH  61  75
BRANCH  62  86
ATOM     86  C   UNL A   1      48.908  27.213  25.496  1.00  0.00     0.023 A 
ATOM     87  C   UNL A   1      50.071  26.732  26.124  1.00  0.00     0.012 A 
ATOM     88  C   UNL A   1      48.903  27.384  24.096  1.00  0.00     0.148 A 
ATOM     89  C   UNL A   1      51.214  26.444  25.374  1.00  0.00     0.002 A 
ATOM     90  C   UNL A   1      50.026  27.047  23.350  1.00  0.00     0.091 A 
ATOM     91  F   UNL A   1      47.779  27.832  23.520  1.00  0.00    -0.205 F 
ATOM     92  C   UNL A   1      51.189  26.590  23.989  1.00  0.00     0.022 A 
BRANCH  90  93
ATOM     93  S   UNL A   1      50.036  27.079  21.554  1.00  0.00     0.127 S 
ATOM     94  O   UNL A   1      51.385  26.603  21.252  1.00  0.00    -0.237 OA
ATOM     95  O   UNL A   1      48.965  26.138  21.226  1.00  0.00    -0.237 OA
ATOM     96  O   UNL A   1      49.761  28.459  21.178  1.00  0.00    -0.744 OA
ENDBRANCH  90  93
ENDBRANCH  62  86
BRANCH  74  97
ATOM     97  C   UNL A   1      46.121  32.855  28.749  1.00  0.00     0.023 A 
ATOM     98  C   UNL A   1      45.785  33.922  27.892  1.00  0.00     0.012 A 
ATOM     99  C   UNL A   1      46.913  33.170  29.885  1.00  0.00     0.148 A 
ATOM    100  C   UNL A   1      46.320  35.205  28.077  1.00  0.00     0.002 A 
ATOM    101  C   UNL A   1      47.416  34.454  30.089  1.00  0.00     0.091 A 
ATOM    102  F   UNL A   1      47.176  32.212  30.781  1.00  0.00    -0.205 F 
ATOM    103  C   UNL A   1      47.146  35.468  29.166  1.00  0.00     0.022 A 
BRANCH 101 104
ATOM    104  S   UNL A   1      48.479  34.877  31.485  1.00  0.00     0.127 S 
ATOM    105  O   UNL A   1      47.577  34.689  32.622  1.00  0.00    -0.237 OA
ATOM    106  O   UNL A   1      49.541  33.879  31.379  1.00  0.00    -0.237 OA
ATOM    107  O   UNL A   1      48.898  36.257  31.281  1.00  0.00    -0.744 OA
ENDBRANCH 101 104
ENDBRANCH  74  97
ENDBRANCH  48  49
ENDBRANCH  41  43
ENDBRANCH  40  41
ENDBRANCH  39  40
ENDBRANCH  38  39
ENDBRANCH  37  38
ENDBRANCH  36  37
ENDBRANCH   1  36
TORSDOF 25
ENDMDL
MODEL 3
REMARK VINA RESULT:      -9.5      7.451      9.915
REMARK SMILES COc1ccc2[nH]c(/C(C#N)=C/c3ccc(-c4cc(C(=O)OCCOCCOCCOC(=O)c5ccc(-c6c7nc(c(-c8cccc(S(=O)(=O)[O-])c8F)c8ccc([nH]8)c(-c8cccc(S(=O)(=O)[O-])c8F)c8nc(c(-c9cccc(S(=O)(=O)[O-])c9F)c9ccc6[nH]9)C=C8)C=C7)cc5)ccc4Cl)o3)nc2c1
REMARK SMILES IDX 26 1 25 2 24 3 23 4 22 5 20 6 21 7 19 8 17 9 18 10 99 11
REMARK SMILES IDX 98 12 100 13 97 14 16 15 13 16 14 17 101 18 15 19 12 20 9 21
REMARK SMILES IDX 8 22 3 23 4 24 104 25 5 26 103 27 6 28 102 29 7 30 2 32 1 33
REMARK SMILES IDX 10 34 11 35 27 36 28 37 29 38 30 39 31 40 32 41 33 42 34 43
REMARK SMILES IDX 35 44 96 45 36 46 95 47 37 48 38 49 39 50 89 51 40 52 94 53
REMARK SMILES IDX 88 54 90 55 41 56 93 57 87 58 86 59 42 61 74 62 54 63 73 64
REMARK SMILES IDX 55 65 58 66 72 67 91 68 56 69 57 70 71 72 92 73 59 74 43 75
REMARK SMILES IDX 44 76 52 77 45 78 47 79 53 80 46 81 48 82 49 83 50 84 51 85
REMARK SMILES IDX 75 86 76 87 84 88 77 89 79 90 85 91 78 92 80 93 81 94 82 95
REMARK SMILES IDX 83 96 60 97 61 98 69 99 62 100 64 101 70 102 63 103 65 104
REMARK SMILES IDX 66 105 67 106 68 107
REMARK H PARENT 7 31 90 60 58 71
REMARK Flexibility Score: inf
ROOT
ATOM      1  C   UNL A   1      38.053  23.728  26.421  1.00  0.00     0.188 C 
ENDROOT
BRANCH   1   2
ATOM      2  O   UNL A   1      37.928  22.724  25.441  1.00  0.00    -0.376 OA
BRANCH   2   3
ATOM      3  C   UNL A   1      37.001  22.862  24.378  1.00  0.00     0.202 C 
BRANCH   3   4
ATOM      4  C   UNL A   1      35.463  22.838  24.507  1.00  0.00     0.261 C 
BRANCH   4   5
ATOM      5  O   UNL A   1      34.890  22.067  25.567  1.00  0.00    -0.460 OA
BRANCH   5   6
ATOM      6  C   UNL A   1      34.372  22.777  26.602  1.00  0.00     0.338 C 
ATOM      7  O   UNL A   1      34.771  22.792  27.752  1.00  0.00    -0.246 OA
BRANCH   6   8
ATOM      8  C   UNL A   1      33.326  23.696  26.093  1.00  0.00     0.060 A 
ATOM      9  C   UNL A   1      32.734  25.912  25.270  1.00  0.00     0.037 A 
ATOM     10  C   UNL A   1      33.695  25.006  25.743  1.00  0.00     0.029 A 
ATOM     11  C   UNL A   1      31.402  25.478  25.136  1.00  0.00     0.052 A 
ATOM     12  C   UNL A   1      31.045  24.163  25.458  1.00  0.00     0.022 A 
ATOM     13  Cl  UNL A   1      30.135  26.536  24.610  1.00  0.00    -0.084 Cl
ATOM     14  C   UNL A   1      32.003  23.271  25.941  1.00  0.00     0.017 A 
BRANCH   9  15
ATOM     15  C   UNL A   1      33.095  27.310  25.108  1.00  0.00     0.136 A 
ATOM     16  C   UNL A   1      33.276  29.432  25.737  1.00  0.00     0.129 A 
ATOM     17  C   UNL A   1      33.812  29.302  24.455  1.00  0.00     0.051 A 
ATOM     18  O   UNL A   1      32.876  28.170  26.146  1.00  0.00    -0.457 OA
ATOM     19  C   UNL A   1      33.651  27.971  24.042  1.00  0.00     0.051 A 
BRANCH  16  20
ATOM     20  C   UNL A   1      33.171  30.629  26.520  1.00  0.00     0.070 C 
ATOM     21  C   UNL A   1      34.149  30.986  27.383  1.00  0.00     0.098 C 
BRANCH  21  22
ATOM     22  C   UNL A   1      34.004  31.988  28.385  1.00  0.00     0.149 A 
ATOM     23  C   UNL A   1      33.489  35.688  30.886  1.00  0.00     0.121 A 
ATOM     24  C   UNL A   1      34.364  35.010  31.740  1.00  0.00     0.049 A 
ATOM     25  C   UNL A   1      33.093  35.120  29.680  1.00  0.00     0.077 A 
ATOM     26  C   UNL A   1      34.831  33.719  31.444  1.00  0.00     0.032 A 
ATOM     27  C   UNL A   1      33.579  33.856  29.357  1.00  0.00     0.093 A 
ATOM     28  C   UNL A   1      34.406  33.172  30.234  1.00  0.00     0.066 A 
ATOM     29  N   UNL A   1      33.349  33.123  28.234  1.00  0.00    -0.228 NA
ATOM     30  N   UNL A   1      34.602  31.952  29.628  1.00  0.00    -0.337 N 
ATOM     31  H   UNL A   1      35.086  31.186  30.015  1.00  0.00     0.168 HD
BRANCH  23  32
ATOM     32  O   UNL A   1      32.835  36.845  31.208  1.00  0.00    -0.497 OA
ATOM     33  C   UNL A   1      33.642  37.789  31.900  1.00  0.00     0.278 C 
ENDBRANCH  23  32
ENDBRANCH  21  22
BRANCH  21  34
ATOM     34  C   UNL A   1      35.407  30.281  27.419  1.00  0.00     0.103 C 
ATOM     35  N   UNL A   1      36.401  29.683  27.389  1.00  0.00    -0.192 NA
ENDBRANCH  21  34
ENDBRANCH  16  20
ENDBRANCH   9  15
ENDBRANCH   6   8
ENDBRANCH   5   6
ENDBRANCH   4   5
ENDBRANCH   3   4
ENDBRANCH   2   3
ENDBRANCH   1   2
BRANCH   1  36
ATOM     36  C   UNL A   1      39.486  24.150  26.805  1.00  0.00     0.188 C 
BRANCH  36  37
ATOM     37  O   UNL A   1      39.854  25.503  26.660  1.00  0.00    -0.376 OA
BRANCH  37  38
ATOM     38  C   UNL A   1      41.191  25.830  26.313  1.00  0.00     0.202 C 
BRANCH  38  39
ATOM     39  C   UNL A   1      42.276  24.832  25.843  1.00  0.00     0.261 C 
BRANCH  39  40
ATOM     40  O   UNL A   1      43.390  24.567  26.702  1.00  0.00    -0.460 OA
BRANCH  40  41
ATOM     41  C   UNL A   1      43.339  23.403  27.397  1.00  0.00     0.338 C 
ATOM     42  O   UNL A   1      43.139  22.288  26.948  1.00  0.00    -0.246 OA
BRANCH  41  43
ATOM     43  C   UNL A   1      43.771  23.652  28.790  1.00  0.00     0.060 A 
ATOM     44  C   UNL A   1      43.146  22.948  29.831  1.00  0.00     0.016 A 
ATOM     45  C   UNL A   1      44.755  24.597  29.069  1.00  0.00     0.016 A 
ATOM     46  C   UNL A   1      43.489  23.202  31.158  1.00  0.00     0.010 A 
ATOM     47  C   UNL A   1      45.076  24.872  30.403  1.00  0.00     0.010 A 
ATOM     48  C   UNL A   1      44.421  24.202  31.456  1.00  0.00    -0.014 A 
BRANCH  48  49
ATOM     49  C   UNL A   1      44.591  24.664  32.855  1.00  0.00     0.031 A 
ATOM     50  C   UNL A   1      44.180  26.061  33.220  1.00  0.00     0.074 A 
ATOM     51  C   UNL A   1      45.107  23.872  33.808  1.00  0.00     0.049 A 
ATOM     52  N   UNL A   1      44.271  26.673  34.372  1.00  0.00    -0.248 NA
ATOM     53  C   UNL A   1      43.575  26.867  32.150  1.00  0.00     0.031 C 
ATOM     54  C   UNL A   1      45.521  22.485  33.620  1.00  0.00     0.029 A 
ATOM     55  N   UNL A   1      45.412  24.149  35.120  1.00  0.00    -0.354 N 
ATOM     56  C   UNL A   1      43.794  27.958  34.153  1.00  0.00     0.074 A 
ATOM     57  C   UNL A   1      43.392  28.025  32.764  1.00  0.00     0.031 C 
ATOM     58  C   UNL A   1      46.076  22.045  34.761  1.00  0.00     0.029 A 
ATOM     59  C   UNL A   1      46.099  23.134  35.741  1.00  0.00     0.049 A 
ATOM     60  H   UNL A   1      45.163  24.990  35.569  1.00  0.00     0.167 HD
ATOM     61  C   UNL A   1      43.714  28.996  35.017  1.00  0.00     0.034 A 
ATOM     62  C   UNL A   1      46.724  23.098  36.935  1.00  0.00     0.034 A 
ATOM     63  C   UNL A   1      44.189  28.975  36.376  1.00  0.00     0.049 A 
ATOM     64  C   UNL A   1      46.699  24.298  37.857  1.00  0.00     0.074 A 
ATOM     65  C   UNL A   1      44.096  29.986  37.316  1.00  0.00     0.029 A 
ATOM     66  N   UNL A   1      44.920  27.955  36.968  1.00  0.00    -0.354 N 
ATOM     67  N   UNL A   1      46.220  25.505  37.657  1.00  0.00    -0.248 NA
ATOM     68  C   UNL A   1      47.279  24.105  39.192  1.00  0.00     0.031 C 
ATOM     69  C   UNL A   1      44.909  29.647  38.401  1.00  0.00     0.029 A 
ATOM     70  C   UNL A   1      45.336  28.340  38.238  1.00  0.00     0.049 A 
ATOM     71  H   UNL A   1      45.115  27.085  36.551  1.00  0.00     0.167 HD
ATOM     72  C   UNL A   1      46.406  26.208  38.857  1.00  0.00     0.074 A 
ATOM     73  C   UNL A   1      47.038  25.275  39.768  1.00  0.00     0.031 C 
ATOM     74  C   UNL A   1      46.042  27.487  39.173  1.00  0.00     0.034 A 
BRANCH  61  75
ATOM     75  C   UNL A   1      43.146  30.290  34.487  1.00  0.00     0.023 A 
ATOM     76  C   UNL A   1      43.993  31.270  33.927  1.00  0.00     0.012 A 
ATOM     77  C   UNL A   1      41.755  30.518  34.515  1.00  0.00     0.148 A 
ATOM     78  C   UNL A   1      43.470  32.472  33.452  1.00  0.00     0.002 A 
ATOM     79  C   UNL A   1      41.236  31.688  33.979  1.00  0.00     0.091 A 
ATOM     80  F   UNL A   1      40.966  29.592  35.078  1.00  0.00    -0.205 F 
ATOM     81  C   UNL A   1      42.093  32.675  33.466  1.00  0.00     0.022 A 
BRANCH  79  82
ATOM     82  S   UNL A   1      39.472  31.991  33.859  1.00  0.00     0.127 S 
ATOM     83  O   UNL A   1      39.093  32.079  35.269  1.00  0.00    -0.237 OA
ATOM     84  O   UNL A   1      39.429  33.262  33.135  1.00  0.00    -0.237 OA
ATOM     85  O   UNL A   1      38.918  30.859  33.130  1.00  0.00    -0.744 OA
ENDBRANCH  79  82
ENDBRANCH  61  75
BRANCH  62  86
ATOM     86  C   UNL A   1      47.436  21.844  37.316  1.00  0.00     0.023 A 
ATOM     87  C   UNL A   1      48.728  21.586  36.821  1.00  0.00     0.012 A 
ATOM     88  C   UNL A   1      46.867  20.954  38.250  1.00  0.00     0.148 A 
ATOM     89  C   UNL A   1      49.433  20.453  37.236  1.00  0.00     0.002 A 
ATOM     90  C   UNL A   1      47.593  19.856  38.698  1.00  0.00     0.091 A 
ATOM     91  F   UNL A   1      45.641  21.227  38.715  1.00  0.00    -0.205 F 
ATOM     92  C   UNL A   1      48.872  19.596  38.180  1.00  0.00     0.022 A 
BRANCH  90  93
ATOM     93  S   UNL A   1      47.003  18.777  40.007  1.00  0.00     0.127 S 
ATOM     94  O   UNL A   1      46.898  19.701  41.134  1.00  0.00    -0.237 OA
ATOM     95  O   UNL A   1      45.724  18.316  39.469  1.00  0.00    -0.237 OA
ATOM     96  O   UNL A   1      48.010  17.733  40.146  1.00  0.00    -0.744 OA
ENDBRANCH  90  93
ENDBRANCH  62  86
BRANCH  74  97
ATOM     97  C   UNL A   1      46.305  28.020  40.594  1.00  0.00     0.023 A 
ATOM     98  C   UNL A   1      45.359  27.838  41.623  1.00  0.00     0.012 A 
ATOM     99  C   UNL A   1      47.503  28.700  40.939  1.00  0.00     0.148 A 
ATOM    100  C   UNL A   1      45.531  28.419  42.887  1.00  0.00     0.002 A 
ATOM    101  C   UNL A   1      47.691  29.247  42.208  1.00  0.00     0.091 A 
ATOM    102  F   UNL A   1      48.474  28.812  40.026  1.00  0.00    -0.205 F 
ATOM    103  C   UNL A   1      46.690  29.135  43.176  1.00  0.00     0.022 A 
BRANCH 101 104
ATOM    104  S   UNL A   1      49.172  30.174  42.662  1.00  0.00     0.127 S 
ATOM    105  O   UNL A   1      48.801  30.716  43.971  1.00  0.00    -0.237 OA
ATOM    106  O   UNL A   1      50.192  29.130  42.702  1.00  0.00    -0.237 OA
ATOM    107  O   UNL A   1      49.356  31.187  41.631  1.00  0.00    -0.744 OA
ENDBRANCH 101 104
ENDBRANCH  74  97
ENDBRANCH  48  49
ENDBRANCH  41  43
ENDBRANCH  40  41
ENDBRANCH  39  40
ENDBRANCH  38  39
ENDBRANCH  37  38
ENDBRANCH  36  37
ENDBRANCH   1  36
TORSDOF 25
ENDMDL
