MODEL 1
REMARK VINA RESULT:     -10.2      0.000      0.000
REMARK SMILES Cc1ccc(C(=O)OCCOCCOCCOC(=O)c2ccc(-c3c4nc(c(-c5cccc(S(=O)(=O)[O-])c5F)c5ccc([nH]5)c(-c5cccc(S(=O)(=O)[O-])c5F)c5nc(c(-c6cccc(S(=O)(=O)[O-])c6F)c6ccc3[nH]6)C=C5)C=C4)cc2)c(Oc2cccc(F)c2C(N)=O)c1
REMARK SMILES IDX 12 1 11 2 10 3 9 4 8 5 6 6 7 7 5 8 1 9 2 10 3 11 95 12 4 13
REMARK SMILES IDX 83 14 84 15 85 16 86 17 91 18 87 19 89 20 88 21 90 22 92 23
REMARK SMILES IDX 93 24 94 25 13 28 14 29 15 30 16 31 17 32 18 33 19 34 20 35
REMARK SMILES IDX 21 36 82 37 22 38 81 39 23 40 24 41 25 42 75 43 26 44 80 45
REMARK SMILES IDX 74 46 76 47 27 48 79 49 73 50 72 51 28 53 60 54 40 55 59 56
REMARK SMILES IDX 41 57 44 58 58 59 77 60 42 61 43 62 57 64 78 65 45 66 29 67
REMARK SMILES IDX 30 68 38 69 31 70 33 71 39 72 32 73 34 74 35 75 36 76 37 77
REMARK SMILES IDX 61 78 62 79 70 80 63 81 65 82 71 83 64 84 66 85 67 86 68 87
REMARK SMILES IDX 69 88 46 89 47 90 55 91 48 92 50 93 56 94 49 95 51 96 52 97
REMARK SMILES IDX 53 98 54 99
REMARK H PARENT 93 26 93 27 76 52 44 63
REMARK Flexibility Score: inf
ROOT
ATOM      1  C   UNL A   1      40.271  21.951  26.791  1.00  0.00     0.188 C 
ENDROOT
BRANCH   1   2
ATOM      2  O   UNL A   1      39.052  22.098  26.065  1.00  0.00    -0.376 OA
BRANCH   2   3
ATOM      3  C   UNL A   1      38.357  23.339  26.429  1.00  0.00     0.202 C 
BRANCH   3   4
ATOM      4  C   UNL A   1      36.955  23.559  25.752  1.00  0.00     0.261 C 
BRANCH   4   5
ATOM      5  O   UNL A   1      35.552  23.479  26.333  1.00  0.00    -0.460 OA
BRANCH   5   6
ATOM      6  C   UNL A   1      34.222  23.384  26.115  1.00  0.00     0.342 C 
ATOM      7  O   UNL A   1      33.301  23.869  26.737  1.00  0.00    -0.246 OA
BRANCH   6   8
ATOM      8  C   UNL A   1      33.751  22.705  24.898  1.00  0.00     0.102 A 
ATOM      9  C   UNL A   1      31.641  20.845  21.650  1.00  0.00     0.044 C 
ATOM     10  C   UNL A   1      32.459  21.465  22.740  1.00  0.00    -0.047 A 
ATOM     11  C   UNL A   1      32.825  20.708  23.856  1.00  0.00     0.004 A 
ATOM     12  C   UNL A   1      32.736  22.840  22.720  1.00  0.00     0.051 A 
ATOM     13  C   UNL A   1      33.483  21.320  24.922  1.00  0.00     0.020 A 
ATOM     14  C   UNL A   1      33.358  23.450  23.809  1.00  0.00     0.142 A 
BRANCH  14  15
ATOM     15  O   UNL A   1      33.342  24.799  24.013  1.00  0.00    -0.455 OA
BRANCH  15  16
ATOM     16  C   UNL A   1      32.152  25.439  23.913  1.00  0.00     0.143 A 
ATOM     17  C   UNL A   1      31.053  24.983  24.645  1.00  0.00     0.048 A 
ATOM     18  C   UNL A   1      32.060  26.455  22.966  1.00  0.00     0.117 A 
ATOM     19  C   UNL A   1      29.835  25.623  24.486  1.00  0.00     0.007 A 
ATOM     20  C   UNL A   1      30.846  27.115  22.858  1.00  0.00     0.139 A 
ATOM     21  C   UNL A   1      29.739  26.706  23.612  1.00  0.00     0.040 A 
ATOM     22  F   UNL A   1      30.693  28.140  22.010  1.00  0.00    -0.206 F 
BRANCH  18  23
ATOM     23  C   UNL A   1      33.234  26.825  22.119  1.00  0.00     0.255 C 
ATOM     24  N   UNL A   1      34.016  27.880  22.533  1.00  0.00    -0.365 N 
ATOM     25  O   UNL A   1      33.497  26.245  21.073  1.00  0.00    -0.269 OA
ATOM     26  H   UNL A   1      33.806  28.347  23.374  1.00  0.00     0.159 HD
ATOM     27  H   UNL A   1      34.785  28.166  21.990  1.00  0.00     0.159 HD
ENDBRANCH  18  23
ENDBRANCH  15  16
ENDBRANCH  14  15
ENDBRANCH   6   8
ENDBRANCH   5   6
ENDBRANCH   4   5
ENDBRANCH   3   4
ENDBRANCH   2   3
ENDBRANCH   1   2
BRANCH   1  28
ATOM     28  C   UNL A   1      41.465  21.304  26.072  1.00  0.00     0.188 C 
BRANCH  28  29
ATOM     29  O   UNL A   1      42.372  22.134  25.334  1.00  0.00    -0.376 OA
BRANCH  29  30
ATOM     30  C   UNL A   1      43.001  23.233  25.993  1.00  0.00     0.202 C 
BRANCH  30  31
ATOM     31  C   UNL A   1      43.190  24.557  25.219  1.00  0.00     0.261 C 
BRANCH  31  32
ATOM     32  O   UNL A   1      42.937  25.702  26.040  1.00  0.00    -0.460 OA
BRANCH  32  33
ATOM     33  C   UNL A   1      42.105  26.643  25.478  1.00  0.00     0.338 C 
ATOM     34  O   UNL A   1      42.384  27.390  24.577  1.00  0.00    -0.246 OA
BRANCH  33  35
ATOM     35  C   UNL A   1      41.014  26.819  26.478  1.00  0.00     0.060 A 
ATOM     36  C   UNL A   1      40.327  28.015  26.485  1.00  0.00     0.016 A 
ATOM     37  C   UNL A   1      41.049  26.088  27.641  1.00  0.00     0.016 A 
ATOM     38  C   UNL A   1      39.997  28.605  27.718  1.00  0.00     0.010 A 
ATOM     39  C   UNL A   1      40.841  26.781  28.840  1.00  0.00     0.010 A 
ATOM     40  C   UNL A   1      40.435  28.112  28.945  1.00  0.00    -0.014 A 
BRANCH  40  41
ATOM     41  C   UNL A   1      40.593  28.992  30.212  1.00  0.00     0.031 A 
ATOM     42  C   UNL A   1      39.900  30.326  30.599  1.00  0.00     0.074 A 
ATOM     43  C   UNL A   1      41.478  28.562  31.136  1.00  0.00     0.049 A 
ATOM     44  N   UNL A   1      39.022  30.538  31.555  1.00  0.00    -0.248 NA
ATOM     45  C   UNL A   1      40.242  31.573  29.890  1.00  0.00     0.031 C 
ATOM     46  C   UNL A   1      41.793  29.175  32.417  1.00  0.00     0.029 A 
ATOM     47  N   UNL A   1      42.585  27.739  30.878  1.00  0.00    -0.354 N 
ATOM     48  C   UNL A   1      38.572  31.880  31.481  1.00  0.00     0.074 A 
ATOM     49  C   UNL A   1      39.276  32.399  30.302  1.00  0.00     0.031 C 
ATOM     50  C   UNL A   1      43.123  29.058  32.596  1.00  0.00     0.029 A 
ATOM     51  C   UNL A   1      43.673  28.477  31.371  1.00  0.00     0.049 A 
ATOM     52  H   UNL A   1      42.597  26.852  30.451  1.00  0.00     0.167 HD
ATOM     53  C   UNL A   1      38.606  32.717  32.568  1.00  0.00     0.034 A 
ATOM     54  C   UNL A   1      44.517  29.114  30.496  1.00  0.00     0.034 A 
ATOM     55  C   UNL A   1      39.945  32.900  33.090  1.00  0.00     0.049 A 
ATOM     56  C   UNL A   1      44.578  30.616  30.714  1.00  0.00     0.074 A 
ATOM     57  C   UNL A   1      40.659  32.311  34.111  1.00  0.00     0.029 A 
ATOM     58  N   UNL A   1      40.849  33.666  32.371  1.00  0.00    -0.354 N 
ATOM     59  N   UNL A   1      43.695  31.323  31.371  1.00  0.00    -0.248 NA
ATOM     60  C   UNL A   1      45.670  31.429  30.193  1.00  0.00     0.031 C 
ATOM     61  C   UNL A   1      42.038  32.496  33.805  1.00  0.00     0.029 A 
ATOM     62  C   UNL A   1      42.138  33.248  32.643  1.00  0.00     0.049 A 
ATOM     63  H   UNL A   1      40.608  34.399  31.758  1.00  0.00     0.167 HD
ATOM     64  C   UNL A   1      44.038  32.653  31.306  1.00  0.00     0.074 A 
ATOM     65  C   UNL A   1      45.310  32.654  30.603  1.00  0.00     0.031 C 
ATOM     66  C   UNL A   1      43.243  33.661  31.783  1.00  0.00     0.034 A 
BRANCH  53  67
ATOM     67  C   UNL A   1      37.353  33.374  33.124  1.00  0.00     0.023 A 
ATOM     68  C   UNL A   1      37.124  33.311  34.519  1.00  0.00     0.012 A 
ATOM     69  C   UNL A   1      36.372  34.056  32.354  1.00  0.00     0.148 A 
ATOM     70  C   UNL A   1      35.979  33.858  35.119  1.00  0.00     0.002 A 
ATOM     71  C   UNL A   1      35.223  34.596  32.957  1.00  0.00     0.091 A 
ATOM     72  F   UNL A   1      36.559  34.181  31.032  1.00  0.00    -0.205 F 
ATOM     73  C   UNL A   1      35.025  34.493  34.339  1.00  0.00     0.022 A 
BRANCH  71  74
ATOM     74  S   UNL A   1      33.926  35.450  32.036  1.00  0.00     0.127 S 
ATOM     75  O   UNL A   1      34.238  35.086  30.656  1.00  0.00    -0.237 OA
ATOM     76  O   UNL A   1      32.701  34.842  32.559  1.00  0.00    -0.237 OA
ATOM     77  O   UNL A   1      34.075  36.864  32.355  1.00  0.00    -0.744 OA
ENDBRANCH  71  74
ENDBRANCH  53  67
BRANCH  54  78
ATOM     78  C   UNL A   1      44.819  28.426  29.178  1.00  0.00     0.023 A 
ATOM     79  C   UNL A   1      44.297  29.013  27.994  1.00  0.00     0.012 A 
ATOM     80  C   UNL A   1      45.757  27.377  29.017  1.00  0.00     0.148 A 
ATOM     81  C   UNL A   1      44.746  28.650  26.719  1.00  0.00     0.002 A 
ATOM     82  C   UNL A   1      46.213  27.024  27.735  1.00  0.00     0.091 A 
ATOM     83  F   UNL A   1      46.257  26.779  30.106  1.00  0.00    -0.205 F 
ATOM     84  C   UNL A   1      45.715  27.664  26.590  1.00  0.00     0.022 A 
BRANCH  82  85
ATOM     85  S   UNL A   1      47.590  25.879  27.497  1.00  0.00     0.127 S 
ATOM     86  O   UNL A   1      48.714  26.590  28.112  1.00  0.00    -0.237 OA
ATOM     87  O   UNL A   1      47.196  24.663  28.196  1.00  0.00    -0.237 OA
ATOM     88  O   UNL A   1      47.651  25.793  26.041  1.00  0.00    -0.744 OA
ENDBRANCH  82  85
ENDBRANCH  54  78
BRANCH  66  89
ATOM     89  C   UNL A   1      43.449  35.128  31.435  1.00  0.00     0.023 A 
ATOM     90  C   UNL A   1      44.051  36.031  32.336  1.00  0.00     0.012 A 
ATOM     91  C   UNL A   1      43.187  35.621  30.135  1.00  0.00     0.148 A 
ATOM     92  C   UNL A   1      44.278  37.374  32.011  1.00  0.00     0.002 A 
ATOM     93  C   UNL A   1      43.531  36.926  29.777  1.00  0.00     0.091 A 
ATOM     94  F   UNL A   1      42.606  34.829  29.223  1.00  0.00    -0.205 F 
ATOM     95  C   UNL A   1      44.032  37.820  30.721  1.00  0.00     0.022 A 
BRANCH  93  96
ATOM     96  S   UNL A   1      43.510  37.407  28.044  1.00  0.00     0.127 S 
ATOM     97  O   UNL A   1      43.777  38.839  28.111  1.00  0.00    -0.237 OA
ATOM     98  O   UNL A   1      44.595  36.610  27.468  1.00  0.00    -0.237 OA
ATOM     99  O   UNL A   1      42.179  37.009  27.598  1.00  0.00    -0.744 OA
ENDBRANCH  93  96
ENDBRANCH  66  89
ENDBRANCH  40  41
ENDBRANCH  33  35
ENDBRANCH  32  33
ENDBRANCH  31  32
ENDBRANCH  30  31
ENDBRANCH  29  30
ENDBRANCH  28  29
ENDBRANCH   1  28
TORSDOF 23
ENDMDL
MODEL 2
REMARK VINA RESULT:     -10.1      2.034      2.976
REMARK SMILES Cc1ccc(C(=O)OCCOCCOCCOC(=O)c2ccc(-c3c4nc(c(-c5cccc(S(=O)(=O)[O-])c5F)c5ccc([nH]5)c(-c5cccc(S(=O)(=O)[O-])c5F)c5nc(c(-c6cccc(S(=O)(=O)[O-])c6F)c6ccc3[nH]6)C=C5)C=C4)cc2)c(Oc2cccc(F)c2C(N)=O)c1
REMARK SMILES IDX 12 1 11 2 10 3 9 4 8 5 6 6 7 7 5 8 1 9 2 10 3 11 95 12 4 13
REMARK SMILES IDX 83 14 84 15 85 16 86 17 91 18 87 19 89 20 88 21 90 22 92 23
REMARK SMILES IDX 93 24 94 25 13 28 14 29 15 30 16 31 17 32 18 33 19 34 20 35
REMARK SMILES IDX 21 36 82 37 22 38 81 39 23 40 24 41 25 42 75 43 26 44 80 45
REMARK SMILES IDX 74 46 76 47 27 48 79 49 73 50 72 51 28 53 60 54 40 55 59 56
REMARK SMILES IDX 41 57 44 58 58 59 77 60 42 61 43 62 57 64 78 65 45 66 29 67
REMARK SMILES IDX 30 68 38 69 31 70 33 71 39 72 32 73 34 74 35 75 36 76 37 77
REMARK SMILES IDX 61 78 62 79 70 80 63 81 65 82 71 83 64 84 66 85 67 86 68 87
REMARK SMILES IDX 69 88 46 89 47 90 55 91 48 92 50 93 56 94 49 95 51 96 52 97
REMARK SMILES IDX 53 98 54 99
REMARK H PARENT 93 26 93 27 76 52 44 63
REMARK Flexibility Score: inf
ROOT
ATOM      1  C   UNL A   1      40.450  21.664  26.903  1.00  0.00     0.188 C 
ENDROOT
BRANCH   1   2
ATOM      2  O   UNL A   1      39.180  21.842  26.279  1.00  0.00    -0.376 OA
BRANCH   2   3
ATOM      3  C   UNL A   1      38.689  23.216  26.444  1.00  0.00     0.202 C 
BRANCH   3   4
ATOM      4  C   UNL A   1      37.606  23.682  25.405  1.00  0.00     0.261 C 
BRANCH   4   5
ATOM      5  O   UNL A   1      36.107  23.886  25.561  1.00  0.00    -0.460 OA
BRANCH   5   6
ATOM      6  C   UNL A   1      34.921  24.179  24.984  1.00  0.00     0.342 C 
ATOM      7  O   UNL A   1      34.685  24.595  23.870  1.00  0.00    -0.246 OA
BRANCH   6   8
ATOM      8  C   UNL A   1      33.683  23.861  25.713  1.00  0.00     0.102 A 
ATOM      9  C   UNL A   1      29.710  23.038  27.128  1.00  0.00     0.044 C 
ATOM     10  C   UNL A   1      31.125  23.318  26.726  1.00  0.00    -0.047 A 
ATOM     11  C   UNL A   1      31.601  24.632  26.713  1.00  0.00     0.004 A 
ATOM     12  C   UNL A   1      31.933  22.288  26.223  1.00  0.00     0.051 A 
ATOM     13  C   UNL A   1      32.879  24.901  26.225  1.00  0.00     0.020 A 
ATOM     14  C   UNL A   1      33.195  22.573  25.700  1.00  0.00     0.142 A 
BRANCH  14  15
ATOM     15  O   UNL A   1      33.875  21.710  24.892  1.00  0.00    -0.455 OA
BRANCH  15  16
ATOM     16  C   UNL A   1      33.211  21.171  23.842  1.00  0.00     0.143 A 
ATOM     17  C   UNL A   1      32.599  22.005  22.904  1.00  0.00     0.048 A 
ATOM     18  C   UNL A   1      33.063  19.786  23.833  1.00  0.00     0.117 A 
ATOM     19  C   UNL A   1      31.882  21.428  21.867  1.00  0.00     0.007 A 
ATOM     20  C   UNL A   1      32.385  19.227  22.761  1.00  0.00     0.139 A 
ATOM     21  C   UNL A   1      31.798  20.039  21.783  1.00  0.00     0.040 A 
ATOM     22  F   UNL A   1      32.248  17.899  22.651  1.00  0.00    -0.206 F 
BRANCH  18  23
ATOM     23  C   UNL A   1      33.633  18.945  24.927  1.00  0.00     0.255 C 
ATOM     24  N   UNL A   1      32.945  18.889  26.118  1.00  0.00    -0.365 N 
ATOM     25  O   UNL A   1      34.691  18.339  24.805  1.00  0.00    -0.269 OA
ATOM     26  H   UNL A   1      32.095  19.376  26.218  1.00  0.00     0.159 HD
ATOM     27  H   UNL A   1      33.302  18.362  26.869  1.00  0.00     0.159 HD
ENDBRANCH  18  23
ENDBRANCH  15  16
ENDBRANCH  14  15
ENDBRANCH   6   8
ENDBRANCH   5   6
ENDBRANCH   4   5
ENDBRANCH   3   4
ENDBRANCH   2   3
ENDBRANCH   1   2
BRANCH   1  28
ATOM     28  C   UNL A   1      41.553  20.953  26.102  1.00  0.00     0.188 C 
BRANCH  28  29
ATOM     29  O   UNL A   1      42.393  21.722  25.231  1.00  0.00    -0.376 OA
BRANCH  29  30
ATOM     30  C   UNL A   1      43.175  22.784  25.777  1.00  0.00     0.202 C 
BRANCH  30  31
ATOM     31  C   UNL A   1      43.474  24.019  24.898  1.00  0.00     0.261 C 
BRANCH  31  32
ATOM     32  O   UNL A   1      43.530  25.226  25.665  1.00  0.00    -0.460 OA
BRANCH  32  33
ATOM     33  C   UNL A   1      42.456  26.068  25.495  1.00  0.00     0.338 C 
ATOM     34  O   UNL A   1      42.355  26.931  24.662  1.00  0.00    -0.246 OA
BRANCH  33  35
ATOM     35  C   UNL A   1      41.702  25.973  26.777  1.00  0.00     0.060 A 
ATOM     36  C   UNL A   1      40.642  26.835  26.972  1.00  0.00     0.016 A 
ATOM     37  C   UNL A   1      42.332  25.463  27.887  1.00  0.00     0.016 A 
ATOM     38  C   UNL A   1      40.467  27.424  28.237  1.00  0.00     0.010 A 
ATOM     39  C   UNL A   1      42.216  26.187  29.079  1.00  0.00     0.010 A 
ATOM     40  C   UNL A   1      41.380  27.288  29.279  1.00  0.00    -0.014 A 
BRANCH  40  41
ATOM     41  C   UNL A   1      41.534  28.324  30.422  1.00  0.00     0.031 A 
ATOM     42  C   UNL A   1      40.725  29.615  30.721  1.00  0.00     0.074 A 
ATOM     43  C   UNL A   1      42.534  28.104  31.303  1.00  0.00     0.049 A 
ATOM     44  N   UNL A   1      39.907  29.845  31.724  1.00  0.00    -0.248 NA
ATOM     45  C   UNL A   1      40.864  30.797  29.851  1.00  0.00     0.031 C 
ATOM     46  C   UNL A   1      42.876  28.896  32.474  1.00  0.00     0.029 A 
ATOM     47  N   UNL A   1      43.704  27.376  31.037  1.00  0.00    -0.354 N 
ATOM     48  C   UNL A   1      39.300  31.114  31.544  1.00  0.00     0.074 A 
ATOM     49  C   UNL A   1      39.845  31.559  30.256  1.00  0.00     0.031 C 
ATOM     50  C   UNL A   1      44.220  28.941  32.543  1.00  0.00     0.029 A 
ATOM     51  C   UNL A   1      44.735  28.279  31.344  1.00  0.00     0.049 A 
ATOM     52  H   UNL A   1      43.784  26.451  30.711  1.00  0.00     0.167 HD
ATOM     53  C   UNL A   1      39.323  32.074  32.524  1.00  0.00     0.034 A 
ATOM     54  C   UNL A   1      45.429  28.892  30.332  1.00  0.00     0.034 A 
ATOM     55  C   UNL A   1      40.669  32.459  32.898  1.00  0.00     0.049 A 
ATOM     56  C   UNL A   1      45.334  30.407  30.376  1.00  0.00     0.074 A 
ATOM     57  C   UNL A   1      41.524  32.075  33.908  1.00  0.00     0.029 A 
ATOM     58  N   UNL A   1      41.420  33.224  32.020  1.00  0.00    -0.354 N 
ATOM     59  N   UNL A   1      44.430  31.091  31.029  1.00  0.00    -0.248 NA
ATOM     60  C   UNL A   1      46.280  31.263  29.671  1.00  0.00     0.031 C 
ATOM     61  C   UNL A   1      42.845  32.366  33.459  1.00  0.00     0.029 A 
ATOM     62  C   UNL A   1      42.765  32.979  32.218  1.00  0.00     0.049 A 
ATOM     63  H   UNL A   1      41.049  33.848  31.354  1.00  0.00     0.167 HD
ATOM     64  C   UNL A   1      44.611  32.432  30.786  1.00  0.00     0.074 A 
ATOM     65  C   UNL A   1      45.815  32.483  29.974  1.00  0.00     0.031 C 
ATOM     66  C   UNL A   1      43.745  33.401  31.220  1.00  0.00     0.034 A 
BRANCH  53  67
ATOM     67  C   UNL A   1      38.050  32.658  33.117  1.00  0.00     0.023 A 
ATOM     68  C   UNL A   1      37.990  32.854  34.517  1.00  0.00     0.012 A 
ATOM     69  C   UNL A   1      36.895  33.027  32.377  1.00  0.00     0.148 A 
ATOM     70  C   UNL A   1      36.846  33.354  35.157  1.00  0.00     0.002 A 
ATOM     71  C   UNL A   1      35.748  33.521  33.023  1.00  0.00     0.091 A 
ATOM     72  F   UNL A   1      36.913  32.901  31.042  1.00  0.00    -0.205 F 
ATOM     73  C   UNL A   1      35.722  33.681  34.414  1.00  0.00     0.022 A 
BRANCH  71  74
ATOM     74  S   UNL A   1      34.238  33.985  32.148  1.00  0.00     0.127 S 
ATOM     75  O   UNL A   1      34.236  33.053  31.022  1.00  0.00    -0.237 OA
ATOM     76  O   UNL A   1      33.194  33.731  33.143  1.00  0.00    -0.237 OA
ATOM     77  O   UNL A   1      34.397  35.389  31.793  1.00  0.00    -0.744 OA
ENDBRANCH  71  74
ENDBRANCH  53  67
BRANCH  54  78
ATOM     78  C   UNL A   1      45.704  28.087  29.075  1.00  0.00     0.023 A 
ATOM     79  C   UNL A   1      45.029  28.472  27.885  1.00  0.00     0.012 A 
ATOM     80  C   UNL A   1      46.738  27.127  28.947  1.00  0.00     0.148 A 
ATOM     81  C   UNL A   1      45.417  28.008  26.622  1.00  0.00     0.002 A 
ATOM     82  C   UNL A   1      47.130  26.673  27.676  1.00  0.00     0.091 A 
ATOM     83  F   UNL A   1      47.384  26.717  30.046  1.00  0.00    -0.205 F 
ATOM     84  C   UNL A   1      46.478  27.118  26.516  1.00  0.00     0.022 A 
BRANCH  82  85
ATOM     85  S   UNL A   1      48.605  25.655  27.443  1.00  0.00     0.127 S 
ATOM     86  O   UNL A   1      48.045  24.322  27.206  1.00  0.00    -0.237 OA
ATOM     87  O   UNL A   1      49.284  26.233  26.292  1.00  0.00    -0.237 OA
ATOM     88  O   UNL A   1      49.274  25.810  28.732  1.00  0.00    -0.744 OA
ENDBRANCH  82  85
ENDBRANCH  54  78
BRANCH  66  89
ATOM     89  C   UNL A   1      43.752  34.828  30.695  1.00  0.00     0.023 A 
ATOM     90  C   UNL A   1      44.366  35.881  31.405  1.00  0.00     0.012 A 
ATOM     91  C   UNL A   1      43.279  35.141  29.398  1.00  0.00     0.148 A 
ATOM     92  C   UNL A   1      44.410  37.191  30.913  1.00  0.00     0.002 A 
ATOM     93  C   UNL A   1      43.439  36.419  28.861  1.00  0.00     0.091 A 
ATOM     94  F   UNL A   1      42.673  34.198  28.662  1.00  0.00    -0.205 F 
ATOM     95  C   UNL A   1      43.960  37.459  29.629  1.00  0.00     0.022 A 
BRANCH  93  96
ATOM     96  S   UNL A   1      43.149  36.689  27.107  1.00  0.00     0.127 S 
ATOM     97  O   UNL A   1      41.734  36.364  26.967  1.00  0.00    -0.237 OA
ATOM     98  O   UNL A   1      43.469  38.107  26.935  1.00  0.00    -0.237 OA
ATOM     99  O   UNL A   1      44.096  35.784  26.464  1.00  0.00    -0.744 OA
ENDBRANCH  93  96
ENDBRANCH  66  89
ENDBRANCH  40  41
ENDBRANCH  33  35
ENDBRANCH  32  33
ENDBRANCH  31  32
ENDBRANCH  30  31
ENDBRANCH  29  30
ENDBRANCH  28  29
ENDBRANCH   1  28
TORSDOF 23
ENDMDL
MODEL 3
REMARK VINA RESULT:      -9.8      3.480      5.658
REMARK SMILES Cc1ccc(C(=O)OCCOCCOCCOC(=O)c2ccc(-c3c4nc(c(-c5cccc(S(=O)(=O)[O-])c5F)c5ccc([nH]5)c(-c5cccc(S(=O)(=O)[O-])c5F)c5nc(c(-c6cccc(S(=O)(=O)[O-])c6F)c6ccc3[nH]6)C=C5)C=C4)cc2)c(Oc2cccc(F)c2C(N)=O)c1
REMARK SMILES IDX 12 1 11 2 10 3 9 4 8 5 6 6 7 7 5 8 1 9 2 10 3 11 95 12 4 13
REMARK SMILES IDX 83 14 84 15 85 16 86 17 91 18 87 19 89 20 88 21 90 22 92 23
REMARK SMILES IDX 93 24 94 25 13 28 14 29 15 30 16 31 17 32 18 33 19 34 20 35
REMARK SMILES IDX 21 36 82 37 22 38 81 39 23 40 24 41 25 42 75 43 26 44 80 45
REMARK SMILES IDX 74 46 76 47 27 48 79 49 73 50 72 51 28 53 60 54 40 55 59 56
REMARK SMILES IDX 41 57 44 58 58 59 77 60 42 61 43 62 57 64 78 65 45 66 29 67
REMARK SMILES IDX 30 68 38 69 31 70 33 71 39 72 32 73 34 74 35 75 36 76 37 77
REMARK SMILES IDX 61 78 62 79 70 80 63 81 65 82 71 83 64 84 66 85 67 86 68 87
REMARK SMILES IDX 69 88 46 89 47 90 55 91 48 92 50 93 56 94 49 95 51 96 52 97
REMARK SMILES IDX 53 98 54 99
REMARK H PARENT 93 26 93 27 76 52 44 63
REMARK Flexibility Score: inf
ROOT
ATOM      1  C   UNL A   1      33.987  22.039  23.925  1.00  0.00     0.188 C 
ENDROOT
BRANCH   1   2
ATOM      2  O   UNL A   1      32.842  22.678  23.364  1.00  0.00    -0.376 OA
BRANCH   2   3
ATOM      3  C   UNL A   1      33.096  24.100  23.101  1.00  0.00     0.202 C 
BRANCH   3   4
ATOM      4  C   UNL A   1      31.852  24.940  22.635  1.00  0.00     0.261 C 
BRANCH   4   5
ATOM      5  O   UNL A   1      30.535  25.233  23.338  1.00  0.00    -0.460 OA
BRANCH   5   6
ATOM      6  C   UNL A   1      29.813  26.055  24.130  1.00  0.00     0.342 C 
ATOM      7  O   UNL A   1      29.564  25.965  25.314  1.00  0.00    -0.246 OA
BRANCH   6   8
ATOM      8  C   UNL A   1      29.323  27.325  23.572  1.00  0.00     0.102 A 
ATOM      9  C   UNL A   1      27.806  31.252  22.711  1.00  0.00     0.044 C 
ATOM     10  C   UNL A   1      28.333  29.865  22.916  1.00  0.00    -0.047 A 
ATOM     11  C   UNL A   1      27.446  28.799  23.090  1.00  0.00     0.004 A 
ATOM     12  C   UNL A   1      29.709  29.650  23.081  1.00  0.00     0.051 A 
ATOM     13  C   UNL A   1      27.938  27.532  23.400  1.00  0.00     0.020 A 
ATOM     14  C   UNL A   1      30.188  28.387  23.430  1.00  0.00     0.142 A 
BRANCH  14  15
ATOM     15  O   UNL A   1      31.436  28.183  23.942  1.00  0.00    -0.455 OA
BRANCH  15  16
ATOM     16  C   UNL A   1      31.798  28.903  25.031  1.00  0.00     0.143 A 
ATOM     17  C   UNL A   1      31.262  30.177  25.233  1.00  0.00     0.048 A 
ATOM     18  C   UNL A   1      32.803  28.370  25.834  1.00  0.00     0.117 A 
ATOM     19  C   UNL A   1      31.687  30.913  26.327  1.00  0.00     0.007 A 
ATOM     20  C   UNL A   1      33.178  29.101  26.950  1.00  0.00     0.139 A 
ATOM     21  C   UNL A   1      32.626  30.363  27.199  1.00  0.00     0.040 A 
ATOM     22  F   UNL A   1      34.100  28.631  27.802  1.00  0.00    -0.206 F 
BRANCH  18  23
ATOM     23  C   UNL A   1      33.432  27.055  25.507  1.00  0.00     0.255 C 
ATOM     24  N   UNL A   1      34.201  26.978  24.368  1.00  0.00    -0.365 N 
ATOM     25  O   UNL A   1      33.261  26.058  26.196  1.00  0.00    -0.269 OA
ATOM     26  H   UNL A   1      34.339  27.779  23.812  1.00  0.00     0.159 HD
ATOM     27  H   UNL A   1      34.614  26.122  24.109  1.00  0.00     0.159 HD
ENDBRANCH  18  23
ENDBRANCH  15  16
ENDBRANCH  14  15
ENDBRANCH   6   8
ENDBRANCH   5   6
ENDBRANCH   4   5
ENDBRANCH   3   4
ENDBRANCH   2   3
ENDBRANCH   1   2
BRANCH   1  28
ATOM     28  C   UNL A   1      35.288  22.850  24.028  1.00  0.00     0.188 C 
BRANCH  28  29
ATOM     29  O   UNL A   1      36.517  22.263  23.581  1.00  0.00    -0.376 OA
BRANCH  29  30
ATOM     30  C   UNL A   1      37.362  21.611  24.530  1.00  0.00     0.202 C 
BRANCH  30  31
ATOM     31  C   UNL A   1      37.671  22.323  25.867  1.00  0.00     0.261 C 
BRANCH  31  32
ATOM     32  O   UNL A   1      38.553  23.436  25.693  1.00  0.00    -0.460 OA
BRANCH  32  33
ATOM     33  C   UNL A   1      39.503  23.578  26.677  1.00  0.00     0.338 C 
ATOM     34  O   UNL A   1      40.005  22.688  27.315  1.00  0.00    -0.246 OA
BRANCH  33  35
ATOM     35  C   UNL A   1      39.435  25.018  27.056  1.00  0.00     0.060 A 
ATOM     36  C   UNL A   1      40.332  25.887  26.470  1.00  0.00     0.016 A 
ATOM     37  C   UNL A   1      38.904  25.363  28.275  1.00  0.00     0.016 A 
ATOM     38  C   UNL A   1      40.928  26.886  27.260  1.00  0.00     0.010 A 
ATOM     39  C   UNL A   1      39.632  26.267  29.058  1.00  0.00     0.010 A 
ATOM     40  C   UNL A   1      40.760  26.974  28.640  1.00  0.00    -0.014 A 
BRANCH  40  41
ATOM     41  C   UNL A   1      41.792  27.643  29.585  1.00  0.00     0.031 A 
ATOM     42  C   UNL A   1      42.006  29.140  29.937  1.00  0.00     0.074 A 
ATOM     43  C   UNL A   1      42.665  26.819  30.202  1.00  0.00     0.049 A 
ATOM     44  N   UNL A   1      41.784  29.744  31.083  1.00  0.00    -0.248 NA
ATOM     45  C   UNL A   1      42.570  30.064  28.935  1.00  0.00     0.031 C 
ATOM     46  C   UNL A   1      43.704  27.178  31.154  1.00  0.00     0.029 A 
ATOM     47  N   UNL A   1      43.065  25.559  29.729  1.00  0.00    -0.354 N 
ATOM     48  C   UNL A   1      42.013  31.134  30.925  1.00  0.00     0.074 A 
ATOM     49  C   UNL A   1      42.343  31.253  29.499  1.00  0.00     0.031 C 
ATOM     50  C   UNL A   1      44.779  26.415  30.873  1.00  0.00     0.029 A 
ATOM     51  C   UNL A   1      44.464  25.656  29.663  1.00  0.00     0.049 A 
ATOM     52  H   UNL A   1      42.497  24.788  29.497  1.00  0.00     0.167 HD
ATOM     53  C   UNL A   1      42.855  31.830  31.755  1.00  0.00     0.034 A 
ATOM     54  C   UNL A   1      45.081  25.803  28.446  1.00  0.00     0.034 A 
ATOM     55  C   UNL A   1      44.211  31.319  31.731  1.00  0.00     0.049 A 
ATOM     56  C   UNL A   1      45.905  27.076  28.347  1.00  0.00     0.074 A 
ATOM     57  C   UNL A   1      44.913  30.440  32.527  1.00  0.00     0.029 A 
ATOM     58  N   UNL A   1      44.996  31.548  30.612  1.00  0.00    -0.354 N 
ATOM     59  N   UNL A   1      45.788  28.118  29.129  1.00  0.00    -0.248 NA
ATOM     60  C   UNL A   1      46.940  27.250  27.335  1.00  0.00     0.031 C 
ATOM     61  C   UNL A   1      45.973  29.923  31.728  1.00  0.00     0.029 A 
ATOM     62  C   UNL A   1      45.937  30.543  30.487  1.00  0.00     0.049 A 
ATOM     63  H   UNL A   1      44.898  32.312  29.998  1.00  0.00     0.167 HD
ATOM     64  C   UNL A   1      46.645  29.105  28.703  1.00  0.00     0.074 A 
ATOM     65  C   UNL A   1      47.378  28.487  27.611  1.00  0.00     0.031 C 
ATOM     66  C   UNL A   1      46.665  30.368  29.234  1.00  0.00     0.034 A 
BRANCH  53  67
ATOM     67  C   UNL A   1      42.381  33.013  32.584  1.00  0.00     0.023 A 
ATOM     68  C   UNL A   1      41.094  32.950  33.170  1.00  0.00     0.012 A 
ATOM     69  C   UNL A   1      43.127  34.198  32.825  1.00  0.00     0.148 A 
ATOM     70  C   UNL A   1      40.557  34.007  33.921  1.00  0.00     0.002 A 
ATOM     71  C   UNL A   1      42.583  35.257  33.573  1.00  0.00     0.091 A 
ATOM     72  F   UNL A   1      44.369  34.294  32.328  1.00  0.00    -0.205 F 
ATOM     73  C   UNL A   1      41.297  35.163  34.117  1.00  0.00     0.022 A 
BRANCH  71  74
ATOM     74  S   UNL A   1      43.464  36.800  33.895  1.00  0.00     0.127 S 
ATOM     75  O   UNL A   1      43.880  37.203  32.553  1.00  0.00    -0.237 OA
ATOM     76  O   UNL A   1      42.429  37.649  34.487  1.00  0.00    -0.237 OA
ATOM     77  O   UNL A   1      44.549  36.457  34.805  1.00  0.00    -0.744 OA
ENDBRANCH  71  74
ENDBRANCH  53  67
BRANCH  54  78
ATOM     78  C   UNL A   1      44.482  25.075  27.257  1.00  0.00     0.023 A 
ATOM     79  C   UNL A   1      43.885  25.861  26.235  1.00  0.00     0.012 A 
ATOM     80  C   UNL A   1      44.667  23.697  26.986  1.00  0.00     0.148 A 
ATOM     81  C   UNL A   1      43.574  25.337  24.975  1.00  0.00     0.002 A 
ATOM     82  C   UNL A   1      44.362  23.179  25.715  1.00  0.00     0.091 A 
ATOM     83  F   UNL A   1      45.203  22.914  27.930  1.00  0.00    -0.205 F 
ATOM     84  C   UNL A   1      43.826  23.997  24.710  1.00  0.00     0.022 A 
BRANCH  82  85
ATOM     85  S   UNL A   1      44.820  21.496  25.240  1.00  0.00     0.127 S 
ATOM     86  O   UNL A   1      44.672  21.519  23.782  1.00  0.00    -0.237 OA
ATOM     87  O   UNL A   1      46.192  21.334  25.700  1.00  0.00    -0.237 OA
ATOM     88  O   UNL A   1      43.808  20.709  25.939  1.00  0.00    -0.744 OA
ENDBRANCH  82  85
ENDBRANCH  54  78
BRANCH  66  89
ATOM     89  C   UNL A   1      47.363  31.545  28.571  1.00  0.00     0.023 A 
ATOM     90  C   UNL A   1      48.768  31.672  28.564  1.00  0.00     0.012 A 
ATOM     91  C   UNL A   1      46.646  32.488  27.796  1.00  0.00     0.148 A 
ATOM     92  C   UNL A   1      49.422  32.732  27.925  1.00  0.00     0.002 A 
ATOM     93  C   UNL A   1      47.311  33.469  27.058  1.00  0.00     0.091 A 
ATOM     94  F   UNL A   1      45.307  32.443  27.759  1.00  0.00    -0.205 F 
ATOM     95  C   UNL A   1      48.693  33.625  27.155  1.00  0.00     0.022 A 
BRANCH  93  96
ATOM     96  S   UNL A   1      46.409  34.417  25.825  1.00  0.00     0.127 S 
ATOM     97  O   UNL A   1      45.561  33.403  25.207  1.00  0.00    -0.237 OA
ATOM     98  O   UNL A   1      45.688  35.404  26.632  1.00  0.00    -0.237 OA
ATOM     99  O   UNL A   1      47.465  34.985  24.994  1.00  0.00    -0.744 OA
ENDBRANCH  93  96
ENDBRANCH  66  89
ENDBRANCH  40  41
ENDBRANCH  33  35
ENDBRANCH  32  33
ENDBRANCH  31  32
ENDBRANCH  30  31
ENDBRANCH  29  30
ENDBRANCH  28  29
ENDBRANCH   1  28
TORSDOF 23
ENDMDL
