MODEL 1
REMARK VINA RESULT:      -9.4      0.000      0.000
REMARK SMILES CC(C)[C@H](NC(N)=O)C(=O)N[C@H](C)C(=O)OCCOCCOCCOC(=O)c1ccc(-c2c3nc(c(-c4cccc(S(=O)(=O)[O-])c4F)c4ccc([nH]4)c(-c4cccc(S(=O)(=O)[O-])c4F)c4nc(c(-c5cccc(S(=O)(=O)[O-])c5F)c5ccc2[nH]5)C=C4)C=C3)cc1
REMARK SMILES IDX 20 1 19 2 18 3 17 4 16 5 14 6 15 7 12 8 13 9 11 10 9 11
REMARK SMILES IDX 10 12 4 14 2 15 1 16 3 17 5 18 6 19 7 21 8 22 21 25 22 26
REMARK SMILES IDX 23 27 24 28 25 29 26 30 27 31 28 32 29 33 90 34 30 35 89 36
REMARK SMILES IDX 31 37 32 38 33 39 83 40 34 41 88 42 82 43 84 44 35 45 87 46
REMARK SMILES IDX 81 47 80 48 36 50 68 51 48 52 67 53 49 54 52 55 66 56 85 57
REMARK SMILES IDX 50 58 51 59 65 61 86 62 53 63 37 64 38 65 46 66 39 67 41 68
REMARK SMILES IDX 47 69 40 70 42 71 43 72 44 73 45 74 69 75 70 76 78 77 71 78
REMARK SMILES IDX 73 79 79 80 72 81 74 82 75 83 76 84 77 85 54 86 55 87 63 88
REMARK SMILES IDX 56 89 58 90 64 91 57 92 59 93 60 94 61 95 62 96
REMARK H PARENT 11 13 5 20 7 23 7 24 84 49 52 60
REMARK Flexibility Score: inf
ROOT
ATOM      1  C   UNL A   1      34.397  32.584  28.615  1.00  0.00     0.188 C 
ENDROOT
BRANCH   1   2
ATOM      2  O   UNL A   1      35.272  32.069  27.629  1.00  0.00    -0.376 OA
BRANCH   2   3
ATOM      3  C   UNL A   1      35.504  30.674  27.621  1.00  0.00     0.202 C 
BRANCH   3   4
ATOM      4  C   UNL A   1      34.353  29.673  27.904  1.00  0.00     0.261 C 
BRANCH   4   5
ATOM      5  O   UNL A   1      33.195  29.618  27.052  1.00  0.00    -0.462 OA
BRANCH   5   6
ATOM      6  C   UNL A   1      32.582  28.416  27.060  1.00  0.00     0.328 C 
ATOM      7  O   UNL A   1      31.809  28.113  27.956  1.00  0.00    -0.250 OA
BRANCH   6   8
ATOM      8  C   UNL A   1      32.850  27.508  25.852  1.00  0.00     0.189 C 
ATOM      9  C   UNL A   1      34.065  26.581  25.948  1.00  0.00     0.043 C 
BRANCH   8  10
ATOM     10  N   UNL A   1      31.679  26.763  25.412  1.00  0.00    -0.341 N 
ATOM     11  C   UNL A   1      31.069  26.615  24.210  1.00  0.00     0.243 C 
ATOM     12  O   UNL A   1      30.299  25.644  24.147  1.00  0.00    -0.273 OA
ATOM     13  H   UNL A   1      31.240  26.262  26.137  1.00  0.00     0.164 HD
BRANCH  11  14
ATOM     14  C   UNL A   1      31.347  27.449  22.919  1.00  0.00     0.175 C 
BRANCH  14  15
ATOM     15  C   UNL A   1      30.511  28.766  22.843  1.00  0.00     0.015 C 
ATOM     16  C   UNL A   1      29.021  28.410  22.717  1.00  0.00     0.010 C 
ATOM     17  C   UNL A   1      30.637  29.763  24.009  1.00  0.00     0.010 C 
ENDBRANCH  14  15
BRANCH  14  18
ATOM     18  N   UNL A   1      31.371  26.725  21.663  1.00  0.00    -0.326 N 
ATOM     19  C   UNL A   1      32.506  26.181  21.134  1.00  0.00     0.312 C 
ATOM     20  H   UNL A   1      30.526  26.619  21.168  1.00  0.00     0.166 HD
ATOM     21  N   UNL A   1      32.260  25.547  19.958  1.00  0.00    -0.352 N 
ATOM     22  O   UNL A   1      33.611  26.175  21.654  1.00  0.00    -0.249 OA
ATOM     23  H   UNL A   1      31.357  25.569  19.566  1.00  0.00     0.161 HD
ATOM     24  H   UNL A   1      32.984  25.064  19.498  1.00  0.00     0.161 HD
ENDBRANCH  14  18
ENDBRANCH  11  14
ENDBRANCH   8  10
ENDBRANCH   6   8
ENDBRANCH   5   6
ENDBRANCH   4   5
ENDBRANCH   3   4
ENDBRANCH   2   3
ENDBRANCH   1   2
BRANCH   1  25
ATOM     25  C   UNL A   1      33.266  33.427  28.011  1.00  0.00     0.188 C 
BRANCH  25  26
ATOM     26  O   UNL A   1      32.605  34.406  28.796  1.00  0.00    -0.376 OA
BRANCH  26  27
ATOM     27  C   UNL A   1      33.115  35.732  28.788  1.00  0.00     0.202 C 
BRANCH  27  28
ATOM     28  C   UNL A   1      32.608  36.781  29.802  1.00  0.00     0.261 C 
BRANCH  28  29
ATOM     29  O   UNL A   1      33.213  36.788  31.106  1.00  0.00    -0.460 OA
BRANCH  29  30
ATOM     30  C   UNL A   1      32.830  35.798  31.951  1.00  0.00     0.338 C 
ATOM     31  O   UNL A   1      31.700  35.599  32.378  1.00  0.00    -0.246 OA
BRANCH  30  32
ATOM     32  C   UNL A   1      33.942  34.830  32.110  1.00  0.00     0.060 A 
ATOM     33  C   UNL A   1      33.740  33.687  32.905  1.00  0.00     0.016 A 
ATOM     34  C   UNL A   1      35.177  35.046  31.500  1.00  0.00     0.016 A 
ATOM     35  C   UNL A   1      34.762  32.758  33.089  1.00  0.00     0.010 A 
ATOM     36  C   UNL A   1      36.219  34.139  31.728  1.00  0.00     0.010 A 
ATOM     37  C   UNL A   1      36.023  33.007  32.542  1.00  0.00    -0.014 A 
BRANCH  37  38
ATOM     38  C   UNL A   1      37.192  32.211  32.990  1.00  0.00     0.031 A 
ATOM     39  C   UNL A   1      37.875  32.617  34.267  1.00  0.00     0.074 A 
ATOM     40  C   UNL A   1      37.656  31.170  32.276  1.00  0.00     0.049 A 
ATOM     41  N   UNL A   1      38.982  32.171  34.795  1.00  0.00    -0.248 NA
ATOM     42  C   UNL A   1      37.220  33.680  35.049  1.00  0.00     0.031 C 
ATOM     43  C   UNL A   1      37.061  30.655  31.045  1.00  0.00     0.029 A 
ATOM     44  N   UNL A   1      38.767  30.387  32.471  1.00  0.00    -0.354 N 
ATOM     45  C   UNL A   1      39.184  32.926  35.943  1.00  0.00     0.074 A 
ATOM     46  C   UNL A   1      38.082  33.858  36.039  1.00  0.00     0.031 C 
ATOM     47  C   UNL A   1      37.842  29.670  30.567  1.00  0.00     0.029 A 
ATOM     48  C   UNL A   1      39.009  29.515  31.435  1.00  0.00     0.049 A 
ATOM     49  H   UNL A   1      39.336  30.445  33.272  1.00  0.00     0.167 HD
ATOM     50  C   UNL A   1      40.194  32.850  36.841  1.00  0.00     0.034 A 
ATOM     51  C   UNL A   1      40.071  28.719  31.196  1.00  0.00     0.034 A 
ATOM     52  C   UNL A   1      41.283  31.916  36.749  1.00  0.00     0.049 A 
ATOM     53  C   UNL A   1      41.211  28.688  32.184  1.00  0.00     0.074 A 
ATOM     54  C   UNL A   1      42.332  31.732  37.631  1.00  0.00     0.029 A 
ATOM     55  N   UNL A   1      41.473  31.023  35.707  1.00  0.00    -0.354 N 
ATOM     56  N   UNL A   1      41.345  29.340  33.313  1.00  0.00    -0.248 NA
ATOM     57  C   UNL A   1      42.336  27.790  31.876  1.00  0.00     0.031 C 
ATOM     58  C   UNL A   1      43.182  30.758  37.100  1.00  0.00     0.029 A 
ATOM     59  C   UNL A   1      42.634  30.298  35.913  1.00  0.00     0.049 A 
ATOM     60  H   UNL A   1      40.872  30.920  34.935  1.00  0.00     0.167 HD
ATOM     61  C   UNL A   1      42.543  28.901  33.870  1.00  0.00     0.074 A 
ATOM     62  C   UNL A   1      43.090  27.916  32.959  1.00  0.00     0.031 C 
ATOM     63  C   UNL A   1      43.141  29.282  35.026  1.00  0.00     0.034 A 
BRANCH  50  64
ATOM     64  C   UNL A   1      40.172  33.810  38.001  1.00  0.00     0.023 A 
ATOM     65  C   UNL A   1      40.854  35.040  37.911  1.00  0.00     0.012 A 
ATOM     66  C   UNL A   1      39.433  33.512  39.162  1.00  0.00     0.148 A 
ATOM     67  C   UNL A   1      40.828  35.944  38.972  1.00  0.00     0.002 A 
ATOM     68  C   UNL A   1      39.370  34.439  40.194  1.00  0.00     0.091 A 
ATOM     69  F   UNL A   1      38.811  32.326  39.236  1.00  0.00    -0.205 F 
ATOM     70  C   UNL A   1      40.078  35.649  40.107  1.00  0.00     0.022 A 
BRANCH  68  71
ATOM     71  S   UNL A   1      38.367  34.187  41.662  1.00  0.00     0.127 S 
ATOM     72  O   UNL A   1      39.374  33.790  42.644  1.00  0.00    -0.237 OA
ATOM     73  O   UNL A   1      37.798  35.518  41.875  1.00  0.00    -0.237 OA
ATOM     74  O   UNL A   1      37.396  33.158  41.316  1.00  0.00    -0.744 OA
ENDBRANCH  68  71
ENDBRANCH  50  64
BRANCH  51  75
ATOM     75  C   UNL A   1      40.114  27.878  29.965  1.00  0.00     0.023 A 
ATOM     76  C   UNL A   1      39.327  26.714  29.887  1.00  0.00     0.012 A 
ATOM     77  C   UNL A   1      40.934  28.228  28.874  1.00  0.00     0.148 A 
ATOM     78  C   UNL A   1      39.380  25.893  28.759  1.00  0.00     0.002 A 
ATOM     79  C   UNL A   1      40.938  27.439  27.730  1.00  0.00     0.091 A 
ATOM     80  F   UNL A   1      41.687  29.331  28.974  1.00  0.00    -0.205 F 
ATOM     81  C   UNL A   1      40.177  26.261  27.678  1.00  0.00     0.022 A 
BRANCH  79  82
ATOM     82  S   UNL A   1      41.832  27.900  26.242  1.00  0.00     0.127 S 
ATOM     83  O   UNL A   1      41.538  26.777  25.356  1.00  0.00    -0.237 OA
ATOM     84  O   UNL A   1      41.181  29.160  25.883  1.00  0.00    -0.237 OA
ATOM     85  O   UNL A   1      43.225  28.037  26.646  1.00  0.00    -0.744 OA
ENDBRANCH  79  82
ENDBRANCH  51  75
BRANCH  63  86
ATOM     86  C   UNL A   1      44.426  28.598  35.420  1.00  0.00     0.023 A 
ATOM     87  C   UNL A   1      45.666  29.150  35.049  1.00  0.00     0.012 A 
ATOM     88  C   UNL A   1      44.397  27.452  36.242  1.00  0.00     0.148 A 
ATOM     89  C   UNL A   1      46.859  28.555  35.462  1.00  0.00     0.002 A 
ATOM     90  C   UNL A   1      45.588  26.896  36.694  1.00  0.00     0.091 A 
ATOM     91  F   UNL A   1      43.205  26.933  36.573  1.00  0.00    -0.205 F 
ATOM     92  C   UNL A   1      46.820  27.438  36.294  1.00  0.00     0.022 A 
BRANCH  90  93
ATOM     93  S   UNL A   1      45.634  25.521  37.848  1.00  0.00     0.127 S 
ATOM     94  O   UNL A   1      45.076  24.436  37.041  1.00  0.00    -0.237 OA
ATOM     95  O   UNL A   1      47.065  25.401  38.127  1.00  0.00    -0.237 OA
ATOM     96  O   UNL A   1      44.825  25.924  38.991  1.00  0.00    -0.744 OA
ENDBRANCH  90  93
ENDBRANCH  63  86
ENDBRANCH  37  38
ENDBRANCH  30  32
ENDBRANCH  29  30
ENDBRANCH  28  29
ENDBRANCH  27  28
ENDBRANCH  26  27
ENDBRANCH  25  26
ENDBRANCH   1  25
TORSDOF 24
ENDMDL
MODEL 2
REMARK VINA RESULT:      -9.3      2.378      3.945
REMARK SMILES CC(C)[C@H](NC(N)=O)C(=O)N[C@H](C)C(=O)OCCOCCOCCOC(=O)c1ccc(-c2c3nc(c(-c4cccc(S(=O)(=O)[O-])c4F)c4ccc([nH]4)c(-c4cccc(S(=O)(=O)[O-])c4F)c4nc(c(-c5cccc(S(=O)(=O)[O-])c5F)c5ccc2[nH]5)C=C4)C=C3)cc1
REMARK SMILES IDX 20 1 19 2 18 3 17 4 16 5 14 6 15 7 12 8 13 9 11 10 9 11
REMARK SMILES IDX 10 12 4 14 2 15 1 16 3 17 5 18 6 19 7 21 8 22 21 25 22 26
REMARK SMILES IDX 23 27 24 28 25 29 26 30 27 31 28 32 29 33 90 34 30 35 89 36
REMARK SMILES IDX 31 37 32 38 33 39 83 40 34 41 88 42 82 43 84 44 35 45 87 46
REMARK SMILES IDX 81 47 80 48 36 50 68 51 48 52 67 53 49 54 52 55 66 56 85 57
REMARK SMILES IDX 50 58 51 59 65 61 86 62 53 63 37 64 38 65 46 66 39 67 41 68
REMARK SMILES IDX 47 69 40 70 42 71 43 72 44 73 45 74 69 75 70 76 78 77 71 78
REMARK SMILES IDX 73 79 79 80 72 81 74 82 75 83 76 84 77 85 54 86 55 87 63 88
REMARK SMILES IDX 56 89 58 90 64 91 57 92 59 93 60 94 61 95 62 96
REMARK H PARENT 11 13 5 20 7 23 7 24 84 49 52 60
REMARK Flexibility Score: inf
ROOT
ATOM      1  C   UNL A   1      31.795  28.996  26.479  1.00  0.00     0.188 C 
ENDROOT
BRANCH   1   2
ATOM      2  O   UNL A   1      31.458  28.137  25.407  1.00  0.00    -0.376 OA
BRANCH   2   3
ATOM      3  C   UNL A   1      31.061  28.732  24.188  1.00  0.00     0.202 C 
BRANCH   3   4
ATOM      4  C   UNL A   1      30.083  28.005  23.227  1.00  0.00     0.261 C 
BRANCH   4   5
ATOM      5  O   UNL A   1      30.563  27.032  22.282  1.00  0.00    -0.462 OA
BRANCH   5   6
ATOM      6  C   UNL A   1      31.002  25.896  22.862  1.00  0.00     0.328 C 
ATOM      7  O   UNL A   1      30.218  25.112  23.376  1.00  0.00    -0.250 OA
BRANCH   6   8
ATOM      8  C   UNL A   1      32.508  25.618  22.761  1.00  0.00     0.189 C 
ATOM      9  C   UNL A   1      33.257  26.312  21.621  1.00  0.00     0.043 C 
BRANCH   8  10
ATOM     10  N   UNL A   1      33.220  25.801  24.019  1.00  0.00    -0.341 N 
ATOM     11  C   UNL A   1      33.576  24.954  25.016  1.00  0.00     0.243 C 
ATOM     12  O   UNL A   1      34.460  25.397  25.767  1.00  0.00    -0.273 OA
ATOM     13  H   UNL A   1      33.501  26.731  24.177  1.00  0.00     0.164 HD
BRANCH  11  14
ATOM     14  C   UNL A   1      33.085  23.483  25.206  1.00  0.00     0.175 C 
BRANCH  14  15
ATOM     15  C   UNL A   1      33.685  22.492  24.159  1.00  0.00     0.015 C 
ATOM     16  C   UNL A   1      35.054  22.003  24.657  1.00  0.00     0.010 C 
ATOM     17  C   UNL A   1      32.863  21.240  23.804  1.00  0.00     0.010 C 
ENDBRANCH  14  15
BRANCH  14  18
ATOM     18  N   UNL A   1      31.663  23.290  25.414  1.00  0.00    -0.326 N 
ATOM     19  C   UNL A   1      31.115  23.026  26.637  1.00  0.00     0.312 C 
ATOM     20  H   UNL A   1      31.064  23.352  24.636  1.00  0.00     0.166 HD
ATOM     21  N   UNL A   1      29.765  22.897  26.566  1.00  0.00    -0.352 N 
ATOM     22  O   UNL A   1      31.715  22.977  27.699  1.00  0.00    -0.249 OA
ATOM     23  H   UNL A   1      29.310  22.942  25.693  1.00  0.00     0.161 HD
ATOM     24  H   UNL A   1      29.239  22.759  27.387  1.00  0.00     0.161 HD
ENDBRANCH  14  18
ENDBRANCH  11  14
ENDBRANCH   8  10
ENDBRANCH   6   8
ENDBRANCH   5   6
ENDBRANCH   4   5
ENDBRANCH   3   4
ENDBRANCH   2   3
ENDBRANCH   1   2
BRANCH   1  25
ATOM     25  C   UNL A   1      32.057  30.436  26.015  1.00  0.00     0.188 C 
BRANCH  25  26
ATOM     26  O   UNL A   1      31.035  31.415  26.109  1.00  0.00    -0.376 OA
BRANCH  26  27
ATOM     27  C   UNL A   1      31.397  32.731  26.508  1.00  0.00     0.202 C 
BRANCH  27  28
ATOM     28  C   UNL A   1      32.678  32.983  27.333  1.00  0.00     0.261 C 
BRANCH  28  29
ATOM     29  O   UNL A   1      33.107  34.347  27.489  1.00  0.00    -0.460 OA
BRANCH  29  30
ATOM     30  C   UNL A   1      33.632  34.676  28.696  1.00  0.00     0.338 C 
ATOM     31  O   UNL A   1      33.180  35.489  29.492  1.00  0.00    -0.246 OA
BRANCH  30  32
ATOM     32  C   UNL A   1      34.726  33.732  29.031  1.00  0.00     0.060 A 
ATOM     33  C   UNL A   1      34.402  32.503  29.635  1.00  0.00     0.016 A 
ATOM     34  C   UNL A   1      36.057  34.052  28.770  1.00  0.00     0.016 A 
ATOM     35  C   UNL A   1      35.400  31.593  29.975  1.00  0.00     0.010 A 
ATOM     36  C   UNL A   1      37.063  33.159  29.160  1.00  0.00     0.010 A 
ATOM     37  C   UNL A   1      36.740  31.939  29.785  1.00  0.00    -0.014 A 
BRANCH  37  38
ATOM     38  C   UNL A   1      37.808  31.136  30.429  1.00  0.00     0.031 A 
ATOM     39  C   UNL A   1      38.129  31.416  31.871  1.00  0.00     0.074 A 
ATOM     40  C   UNL A   1      38.497  30.200  29.752  1.00  0.00     0.049 A 
ATOM     41  N   UNL A   1      39.098  30.949  32.612  1.00  0.00    -0.248 NA
ATOM     42  C   UNL A   1      37.239  32.360  32.568  1.00  0.00     0.031 C 
ATOM     43  C   UNL A   1      38.255  29.809  28.365  1.00  0.00     0.029 A 
ATOM     44  N   UNL A   1      39.571  29.437  30.139  1.00  0.00    -0.354 N 
ATOM     45  C   UNL A   1      38.963  31.575  33.846  1.00  0.00     0.074 A 
ATOM     46  C   UNL A   1      37.817  32.453  33.755  1.00  0.00     0.031 C 
ATOM     47  C   UNL A   1      39.188  28.912  28.000  1.00  0.00     0.029 A 
ATOM     48  C   UNL A   1      40.112  28.697  29.114  1.00  0.00     0.049 A 
ATOM     49  H   UNL A   1      39.919  29.422  31.059  1.00  0.00     0.167 HD
ATOM     50  C   UNL A   1      39.724  31.430  34.956  1.00  0.00     0.034 A 
ATOM     51  C   UNL A   1      41.247  27.969  29.070  1.00  0.00     0.034 A 
ATOM     52  C   UNL A   1      40.856  30.549  35.046  1.00  0.00     0.049 A 
ATOM     53  C   UNL A   1      42.108  27.864  30.304  1.00  0.00     0.074 A 
ATOM     54  C   UNL A   1      41.665  30.301  36.140  1.00  0.00     0.029 A 
ATOM     55  N   UNL A   1      41.351  29.788  34.000  1.00  0.00    -0.354 N 
ATOM     56  N   UNL A   1      41.920  28.387  31.491  1.00  0.00    -0.248 NA
ATOM     57  C   UNL A   1      43.326  27.044  30.199  1.00  0.00     0.031 C 
ATOM     58  C   UNL A   1      42.676  29.422  35.743  1.00  0.00     0.029 A 
ATOM     59  C   UNL A   1      42.467  29.083  34.416  1.00  0.00     0.049 A 
ATOM     60  H   UNL A   1      40.967  29.754  33.095  1.00  0.00     0.167 HD
ATOM     61  C   UNL A   1      42.968  27.926  32.284  1.00  0.00     0.074 A 
ATOM     62  C   UNL A   1      43.781  27.071  31.444  1.00  0.00     0.031 C 
ATOM     63  C   UNL A   1      43.237  28.192  33.586  1.00  0.00     0.034 A 
BRANCH  50  64
ATOM     64  C   UNL A   1      39.358  32.250  36.165  1.00  0.00     0.023 A 
ATOM     65  C   UNL A   1      39.890  33.545  36.326  1.00  0.00     0.012 A 
ATOM     66  C   UNL A   1      38.447  31.753  37.117  1.00  0.00     0.148 A 
ATOM     67  C   UNL A   1      39.547  34.320  37.432  1.00  0.00     0.002 A 
ATOM     68  C   UNL A   1      38.070  32.550  38.191  1.00  0.00     0.091 A 
ATOM     69  F   UNL A   1      37.971  30.510  36.957  1.00  0.00    -0.205 F 
ATOM     70  C   UNL A   1      38.630  33.828  38.357  1.00  0.00     0.022 A 
BRANCH  68  71
ATOM     71  S   UNL A   1      36.837  32.039  39.390  1.00  0.00     0.127 S 
ATOM     72  O   UNL A   1      37.093  30.603  39.484  1.00  0.00    -0.237 OA
ATOM     73  O   UNL A   1      37.224  32.807  40.574  1.00  0.00    -0.237 OA
ATOM     74  O   UNL A   1      35.546  32.404  38.823  1.00  0.00    -0.744 OA
ENDBRANCH  68  71
ENDBRANCH  50  64
BRANCH  51  75
ATOM     75  C   UNL A   1      41.644  27.277  27.810  1.00  0.00     0.023 A 
ATOM     76  C   UNL A   1      42.093  28.032  26.710  1.00  0.00     0.012 A 
ATOM     77  C   UNL A   1      41.576  25.874  27.699  1.00  0.00     0.148 A 
ATOM     78  C   UNL A   1      42.434  27.407  25.510  1.00  0.00     0.002 A 
ATOM     79  C   UNL A   1      41.975  25.253  26.521  1.00  0.00     0.091 A 
ATOM     80  F   UNL A   1      41.132  25.175  28.751  1.00  0.00    -0.205 F 
ATOM     81  C   UNL A   1      42.385  26.018  25.419  1.00  0.00     0.022 A 
BRANCH  79  82
ATOM     82  S   UNL A   1      42.066  23.467  26.355  1.00  0.00     0.127 S 
ATOM     83  O   UNL A   1      42.664  23.320  25.031  1.00  0.00    -0.237 OA
ATOM     84  O   UNL A   1      42.940  23.109  27.473  1.00  0.00    -0.237 OA
ATOM     85  O   UNL A   1      40.697  22.988  26.485  1.00  0.00    -0.744 OA
ENDBRANCH  79  82
ENDBRANCH  51  75
BRANCH  63  86
ATOM     86  C   UNL A   1      44.425  27.511  34.219  1.00  0.00     0.023 A 
ATOM     87  C   UNL A   1      45.637  28.206  34.385  1.00  0.00     0.012 A 
ATOM     88  C   UNL A   1      44.302  26.203  34.733  1.00  0.00     0.148 A 
ATOM     89  C   UNL A   1      46.720  27.601  35.023  1.00  0.00     0.002 A 
ATOM     90  C   UNL A   1      45.366  25.627  35.416  1.00  0.00     0.091 A 
ATOM     91  F   UNL A   1      43.143  25.552  34.553  1.00  0.00    -0.205 F 
ATOM     92  C   UNL A   1      46.581  26.319  35.550  1.00  0.00     0.022 A 
BRANCH  90  93
ATOM     93  S   UNL A   1      45.245  24.022  36.214  1.00  0.00     0.127 S 
ATOM     94  O   UNL A   1      45.405  24.379  37.624  1.00  0.00    -0.237 OA
ATOM     95  O   UNL A   1      43.896  23.595  35.843  1.00  0.00    -0.237 OA
ATOM     96  O   UNL A   1      46.315  23.208  35.654  1.00  0.00    -0.744 OA
ENDBRANCH  90  93
ENDBRANCH  63  86
ENDBRANCH  37  38
ENDBRANCH  30  32
ENDBRANCH  29  30
ENDBRANCH  28  29
ENDBRANCH  27  28
ENDBRANCH  26  27
ENDBRANCH  25  26
ENDBRANCH   1  25
TORSDOF 24
ENDMDL
MODEL 3
REMARK VINA RESULT:      -9.2      4.001      9.376
REMARK SMILES CC(C)[C@H](NC(N)=O)C(=O)N[C@H](C)C(=O)OCCOCCOCCOC(=O)c1ccc(-c2c3nc(c(-c4cccc(S(=O)(=O)[O-])c4F)c4ccc([nH]4)c(-c4cccc(S(=O)(=O)[O-])c4F)c4nc(c(-c5cccc(S(=O)(=O)[O-])c5F)c5ccc2[nH]5)C=C4)C=C3)cc1
REMARK SMILES IDX 20 1 19 2 18 3 17 4 16 5 14 6 15 7 12 8 13 9 11 10 9 11
REMARK SMILES IDX 10 12 4 14 2 15 1 16 3 17 5 18 6 19 7 21 8 22 21 25 22 26
REMARK SMILES IDX 23 27 24 28 25 29 26 30 27 31 28 32 29 33 90 34 30 35 89 36
REMARK SMILES IDX 31 37 32 38 33 39 83 40 34 41 88 42 82 43 84 44 35 45 87 46
REMARK SMILES IDX 81 47 80 48 36 50 68 51 48 52 67 53 49 54 52 55 66 56 85 57
REMARK SMILES IDX 50 58 51 59 65 61 86 62 53 63 37 64 38 65 46 66 39 67 41 68
REMARK SMILES IDX 47 69 40 70 42 71 43 72 44 73 45 74 69 75 70 76 78 77 71 78
REMARK SMILES IDX 73 79 79 80 72 81 74 82 75 83 76 84 77 85 54 86 55 87 63 88
REMARK SMILES IDX 56 89 58 90 64 91 57 92 59 93 60 94 61 95 62 96
REMARK H PARENT 11 13 5 20 7 23 7 24 84 49 52 60
REMARK Flexibility Score: inf
ROOT
ATOM      1  C   UNL A   1      33.448  26.981  22.121  1.00  0.00     0.188 C 
ENDROOT
BRANCH   1   2
ATOM      2  O   UNL A   1      32.969  25.953  22.966  1.00  0.00    -0.376 OA
BRANCH   2   3
ATOM      3  C   UNL A   1      31.617  25.564  22.827  1.00  0.00     0.202 C 
BRANCH   3   4
ATOM      4  C   UNL A   1      30.880  24.822  23.973  1.00  0.00     0.261 C 
BRANCH   4   5
ATOM      5  O   UNL A   1      30.691  23.396  23.929  1.00  0.00    -0.462 OA
BRANCH   5   6
ATOM      6  C   UNL A   1      31.746  22.703  24.405  1.00  0.00     0.328 C 
ATOM      7  O   UNL A   1      31.939  22.603  25.607  1.00  0.00    -0.250 OA
BRANCH   6   8
ATOM      8  C   UNL A   1      32.620  21.993  23.362  1.00  0.00     0.189 C 
ATOM      9  C   UNL A   1      31.899  21.429  22.135  1.00  0.00     0.043 C 
BRANCH   8  10
ATOM     10  N   UNL A   1      33.784  22.767  22.954  1.00  0.00    -0.341 N 
ATOM     11  C   UNL A   1      35.033  22.907  23.464  1.00  0.00     0.243 C 
ATOM     12  O   UNL A   1      35.856  23.385  22.668  1.00  0.00    -0.273 OA
ATOM     13  H   UNL A   1      33.634  23.298  22.139  1.00  0.00     0.164 HD
BRANCH  11  14
ATOM     14  C   UNL A   1      35.525  22.413  24.862  1.00  0.00     0.175 C 
BRANCH  14  15
ATOM     15  C   UNL A   1      35.744  23.574  25.884  1.00  0.00     0.015 C 
ATOM     16  C   UNL A   1      37.218  24.007  25.846  1.00  0.00     0.010 C 
ATOM     17  C   UNL A   1      34.897  24.848  25.714  1.00  0.00     0.010 C 
ENDBRANCH  14  15
BRANCH  14  18
ATOM     18  N   UNL A   1      36.603  21.444  24.872  1.00  0.00    -0.326 N 
ATOM     19  C   UNL A   1      36.397  20.096  24.918  1.00  0.00     0.312 C 
ATOM     20  H   UNL A   1      37.530  21.775  24.844  1.00  0.00     0.166 HD
ATOM     21  N   UNL A   1      37.567  19.406  24.907  1.00  0.00    -0.352 N 
ATOM     22  O   UNL A   1      35.314  19.533  24.897  1.00  0.00    -0.249 OA
ATOM     23  H   UNL A   1      38.425  19.890  24.924  1.00  0.00     0.161 HD
ATOM     24  H   UNL A   1      37.559  18.421  24.882  1.00  0.00     0.161 HD
ENDBRANCH  14  18
ENDBRANCH  11  14
ENDBRANCH   8  10
ENDBRANCH   6   8
ENDBRANCH   5   6
ENDBRANCH   4   5
ENDBRANCH   3   4
ENDBRANCH   2   3
ENDBRANCH   1   2
BRANCH   1  25
ATOM     25  C   UNL A   1      33.472  28.349  22.818  1.00  0.00     0.188 C 
BRANCH  25  26
ATOM     26  O   UNL A   1      32.283  28.894  23.365  1.00  0.00    -0.376 OA
BRANCH  26  27
ATOM     27  C   UNL A   1      32.296  29.309  24.724  1.00  0.00     0.202 C 
BRANCH  27  28
ATOM     28  C   UNL A   1      33.036  28.482  25.798  1.00  0.00     0.261 C 
BRANCH  28  29
ATOM     29  O   UNL A   1      34.341  28.934  26.200  1.00  0.00    -0.460 OA
BRANCH  29  30
ATOM     30  C   UNL A   1      34.376  29.864  27.186  1.00  0.00     0.338 C 
ATOM     31  O   UNL A   1      33.435  30.534  27.593  1.00  0.00    -0.246 OA
BRANCH  30  32
ATOM     32  C   UNL A   1      35.686  29.797  27.879  1.00  0.00     0.060 A 
ATOM     33  C   UNL A   1      36.853  30.114  27.159  1.00  0.00     0.016 A 
ATOM     34  C   UNL A   1      35.773  29.412  29.216  1.00  0.00     0.016 A 
ATOM     35  C   UNL A   1      38.104  30.053  27.770  1.00  0.00     0.010 A 
ATOM     36  C   UNL A   1      37.035  29.301  29.813  1.00  0.00     0.010 A 
ATOM     37  C   UNL A   1      38.205  29.597  29.086  1.00  0.00    -0.014 A 
BRANCH  37  38
ATOM     38  C   UNL A   1      39.529  29.220  29.638  1.00  0.00     0.031 A 
ATOM     39  C   UNL A   1      40.258  28.070  28.999  1.00  0.00     0.074 A 
ATOM     40  C   UNL A   1      40.066  29.860  30.692  1.00  0.00     0.049 A 
ATOM     41  N   UNL A   1      41.355  27.470  29.376  1.00  0.00    -0.248 NA
ATOM     42  C   UNL A   1      39.660  27.518  27.771  1.00  0.00     0.031 C 
ATOM     43  C   UNL A   1      39.478  31.011  31.373  1.00  0.00     0.029 A 
ATOM     44  N   UNL A   1      41.214  29.597  31.397  1.00  0.00    -0.354 N 
ATOM     45  C   UNL A   1      41.555  26.442  28.463  1.00  0.00     0.074 A 
ATOM     46  C   UNL A   1      40.468  26.501  27.511  1.00  0.00     0.031 C 
ATOM     47  C   UNL A   1      40.246  31.326  32.431  1.00  0.00     0.029 A 
ATOM     48  C   UNL A   1      41.355  30.376  32.522  1.00  0.00     0.049 A 
ATOM     49  H   UNL A   1      41.872  28.917  31.125  1.00  0.00     0.167 HD
ATOM     50  C   UNL A   1      42.555  25.532  28.418  1.00  0.00     0.034 A 
ATOM     51  C   UNL A   1      42.248  30.299  33.529  1.00  0.00     0.034 A 
ATOM     52  C   UNL A   1      43.639  25.481  29.360  1.00  0.00     0.049 A 
ATOM     53  C   UNL A   1      43.324  29.242  33.486  1.00  0.00     0.074 A 
ATOM     54  C   UNL A   1      44.724  24.623  29.375  1.00  0.00     0.029 A 
ATOM     55  N   UNL A   1      43.768  26.310  30.463  1.00  0.00    -0.354 N 
ATOM     56  N   UNL A   1      43.556  28.335  32.569  1.00  0.00    -0.248 NA
ATOM     57  C   UNL A   1      44.279  29.217  34.606  1.00  0.00     0.031 C 
ATOM     58  C   UNL A   1      45.486  24.904  30.512  1.00  0.00     0.029 A 
ATOM     59  C   UNL A   1      44.904  25.972  31.177  1.00  0.00     0.049 A 
ATOM     60  H   UNL A   1      43.145  27.032  30.703  1.00  0.00     0.167 HD
ATOM     61  C   UNL A   1      44.704  27.661  32.977  1.00  0.00     0.074 A 
ATOM     62  C   UNL A   1      45.128  28.274  34.219  1.00  0.00     0.031 C 
ATOM     63  C   UNL A   1      45.346  26.625  32.383  1.00  0.00     0.034 A 
BRANCH  50  64
ATOM     64  C   UNL A   1      42.519  24.508  27.315  1.00  0.00     0.023 A 
ATOM     65  C   UNL A   1      43.345  24.661  26.183  1.00  0.00     0.012 A 
ATOM     66  C   UNL A   1      41.701  23.367  27.425  1.00  0.00     0.148 A 
ATOM     67  C   UNL A   1      43.332  23.711  25.163  1.00  0.00     0.002 A 
ATOM     68  C   UNL A   1      41.731  22.399  26.428  1.00  0.00     0.091 A 
ATOM     69  F   UNL A   1      40.906  23.252  28.499  1.00  0.00    -0.205 F 
ATOM     70  C   UNL A   1      42.535  22.577  25.290  1.00  0.00     0.022 A 
BRANCH  68  71
ATOM     71  S   UNL A   1      40.803  20.867  26.538  1.00  0.00     0.127 S 
ATOM     72  O   UNL A   1      40.897  20.566  27.966  1.00  0.00    -0.237 OA
ATOM     73  O   UNL A   1      39.474  21.280  26.088  1.00  0.00    -0.237 OA
ATOM     74  O   UNL A   1      41.478  19.922  25.659  1.00  0.00    -0.744 OA
ENDBRANCH  68  71
ENDBRANCH  50  64
BRANCH  51  75
ATOM     75  C   UNL A   1      42.170  31.252  34.673  1.00  0.00     0.023 A 
ATOM     76  C   UNL A   1      41.319  30.971  35.759  1.00  0.00     0.012 A 
ATOM     77  C   UNL A   1      42.935  32.435  34.689  1.00  0.00     0.148 A 
ATOM     78  C   UNL A   1      41.204  31.866  36.823  1.00  0.00     0.002 A 
ATOM     79  C   UNL A   1      42.861  33.294  35.779  1.00  0.00     0.091 A 
ATOM     80  F   UNL A   1      43.727  32.692  33.640  1.00  0.00    -0.205 F 
ATOM     81  C   UNL A   1      41.981  33.022  36.838  1.00  0.00     0.022 A 
BRANCH  79  82
ATOM     82  S   UNL A   1      43.917  34.737  35.945  1.00  0.00     0.127 S 
ATOM     83  O   UNL A   1      45.248  34.151  35.812  1.00  0.00    -0.237 OA
ATOM     84  O   UNL A   1      43.483  35.554  34.812  1.00  0.00    -0.237 OA
ATOM     85  O   UNL A   1      43.606  35.305  37.250  1.00  0.00    -0.744 OA
ENDBRANCH  79  82
ENDBRANCH  51  75
BRANCH  63  86
ATOM     86  C   UNL A   1      46.613  26.113  33.022  1.00  0.00     0.023 A 
ATOM     87  C   UNL A   1      47.843  26.747  32.766  1.00  0.00     0.012 A 
ATOM     88  C   UNL A   1      46.560  25.054  33.953  1.00  0.00     0.148 A 
ATOM     89  C   UNL A   1      49.009  26.316  33.402  1.00  0.00     0.002 A 
ATOM     90  C   UNL A   1      47.715  24.666  34.622  1.00  0.00     0.091 A 
ATOM     91  F   UNL A   1      45.381  24.455  34.172  1.00  0.00    -0.205 F 
ATOM     92  C   UNL A   1      48.942  25.286  34.338  1.00  0.00     0.022 A 
BRANCH  90  93
ATOM     93  S   UNL A   1      47.707  23.420  35.915  1.00  0.00     0.127 S 
ATOM     94  O   UNL A   1      46.784  24.005  36.887  1.00  0.00    -0.237 OA
ATOM     95  O   UNL A   1      47.188  22.247  35.210  1.00  0.00    -0.237 OA
ATOM     96  O   UNL A   1      49.086  23.294  36.366  1.00  0.00    -0.744 OA
ENDBRANCH  90  93
ENDBRANCH  63  86
ENDBRANCH  37  38
ENDBRANCH  30  32
ENDBRANCH  29  30
ENDBRANCH  28  29
ENDBRANCH  27  28
ENDBRANCH  26  27
ENDBRANCH  25  26
ENDBRANCH   1  25
TORSDOF 24
ENDMDL
