MODEL 1
REMARK VINA RESULT:     -10.4      0.000      0.000
REMARK SMILES C[C@H]1CC[C@@H]([C@H](C(=O)OCCOCCOCCOC(=O)c2ccc(-c3c4nc(c(-c5cccc(S(=O)(=O)[O-])c5F)c5ccc([nH]5)c(-c5cccc(S(=O)(=O)[O-])c5F)c5nc(c(-c6cccc(S(=O)(=O)[O-])c6F)c6ccc3[nH]6)C=C5)C=C4)cc2)[C@@H]2CCS(=O)(=O)C2)C[C@@H]1C
REMARK SMILES IDX 14 1 13 2 12 3 11 4 10 5 9 6 7 7 8 8 6 9 5 10 1 11 2 12 3 13
REMARK SMILES IDX 92 14 4 15 91 16 93 17 84 18 85 19 90 20 86 21 87 22 88 23
REMARK SMILES IDX 89 24 15 25 16 26 17 27 18 28 19 29 20 30 21 31 22 32 83 33
REMARK SMILES IDX 23 34 82 35 24 36 25 37 26 38 76 39 27 40 81 41 75 42 77 43
REMARK SMILES IDX 28 44 80 45 74 46 73 47 29 49 61 50 41 51 60 52 42 53 45 54
REMARK SMILES IDX 59 55 78 56 43 57 44 58 58 60 79 61 46 62 30 63 31 64 39 65
REMARK SMILES IDX 32 66 34 67 40 68 33 69 35 70 36 71 37 72 38 73 62 74 63 75
REMARK SMILES IDX 71 76 64 77 66 78 72 79 65 80 67 81 68 82 69 83 70 84 47 85
REMARK SMILES IDX 48 86 56 87 49 88 51 89 57 90 50 91 52 92 53 93 54 94 55 95
REMARK H PARENT 77 48 45 59
REMARK Flexibility Score: inf
ROOT
ATOM      1  C   UNL A   1      35.024  33.064  28.006  1.00  0.00     0.188 C 
ENDROOT
BRANCH   1   2
ATOM      2  C   UNL A   1      33.779  32.147  27.996  1.00  0.00     0.188 C 
BRANCH   2   3
ATOM      3  O   UNL A   1      34.112  30.846  27.525  1.00  0.00    -0.376 OA
BRANCH   3   4
ATOM      4  C   UNL A   1      33.246  30.165  26.618  1.00  0.00     0.202 C 
BRANCH   4   5
ATOM      5  C   UNL A   1      33.742  28.842  26.039  1.00  0.00     0.261 C 
BRANCH   5   6
ATOM      6  O   UNL A   1      33.331  27.743  26.876  1.00  0.00    -0.463 OA
BRANCH   6   7
ATOM      7  C   UNL A   1      32.189  27.088  26.549  1.00  0.00     0.309 C 
ATOM      8  O   UNL A   1      31.164  27.155  27.207  1.00  0.00    -0.252 OA
BRANCH   7   9
ATOM      9  C   UNL A   1      32.456  26.145  25.351  1.00  0.00     0.106 C 
BRANCH   9  10
ATOM     10  C   UNL A   1      33.563  25.102  25.805  1.00  0.00     0.004 C 
ATOM     11  C   UNL A   1      32.534  22.272  22.756  1.00  0.00     0.008 C 
ATOM     12  C   UNL A   1      33.270  22.721  24.029  1.00  0.00    -0.011 C 
ATOM     13  C   UNL A   1      34.244  23.862  23.642  1.00  0.00     0.004 C 
ATOM     14  C   UNL A   1      32.339  23.037  25.225  1.00  0.00    -0.011 C 
ATOM     15  C   UNL A   1      34.637  24.849  24.741  1.00  0.00     0.005 C 
ATOM     16  C   UNL A   1      33.089  23.731  26.336  1.00  0.00     0.008 C 
ATOM     17  C   UNL A   1      31.412  21.907  25.654  1.00  0.00     0.008 C 
ENDBRANCH   9  10
BRANCH   9  18
ATOM     18  C   UNL A   1      31.282  25.716  24.349  1.00  0.00     0.019 C 
ATOM     19  C   UNL A   1      31.686  25.871  22.866  1.00  0.00     0.021 C 
ATOM     20  C   UNL A   1      29.849  26.310  24.291  1.00  0.00     0.141 C 
ATOM     21  C   UNL A   1      31.071  27.154  22.303  1.00  0.00     0.137 C 
ATOM     22  S   UNL A   1      30.041  27.872  23.518  1.00  0.00     0.150 S 
ATOM     23  O   UNL A   1      30.819  28.750  24.346  1.00  0.00    -0.229 OA
ATOM     24  O   UNL A   1      28.804  28.316  22.932  1.00  0.00    -0.229 OA
ENDBRANCH   9  18
ENDBRANCH   7   9
ENDBRANCH   6   7
ENDBRANCH   5   6
ENDBRANCH   4   5
ENDBRANCH   3   4
ENDBRANCH   2   3
ENDBRANCH   1   2
BRANCH   1  25
ATOM     25  O   UNL A   1      34.818  34.326  28.623  1.00  0.00    -0.376 OA
BRANCH  25  26
ATOM     26  C   UNL A   1      33.507  34.879  28.458  1.00  0.00     0.202 C 
BRANCH  26  27
ATOM     27  C   UNL A   1      33.164  36.093  29.349  1.00  0.00     0.261 C 
BRANCH  27  28
ATOM     28  O   UNL A   1      32.125  35.914  30.351  1.00  0.00    -0.460 OA
BRANCH  28  29
ATOM     29  C   UNL A   1      32.540  35.970  31.655  1.00  0.00     0.338 C 
ATOM     30  O   UNL A   1      31.926  36.507  32.565  1.00  0.00    -0.246 OA
BRANCH  29  31
ATOM     31  C   UNL A   1      33.788  35.181  31.920  1.00  0.00     0.060 A 
ATOM     32  C   UNL A   1      33.674  33.784  32.042  1.00  0.00     0.016 A 
ATOM     33  C   UNL A   1      35.054  35.765  32.044  1.00  0.00     0.016 A 
ATOM     34  C   UNL A   1      34.818  32.975  32.178  1.00  0.00     0.010 A 
ATOM     35  C   UNL A   1      36.197  34.952  32.246  1.00  0.00     0.010 A 
ATOM     36  C   UNL A   1      36.099  33.545  32.278  1.00  0.00    -0.014 A 
BRANCH  36  37
ATOM     37  C   UNL A   1      37.269  32.676  32.638  1.00  0.00     0.031 A 
ATOM     38  C   UNL A   1      37.931  32.961  33.961  1.00  0.00     0.074 A 
ATOM     39  C   UNL A   1      37.745  31.656  31.886  1.00  0.00     0.049 A 
ATOM     40  N   UNL A   1      38.929  32.351  34.546  1.00  0.00    -0.248 NA
ATOM     41  C   UNL A   1      37.371  34.081  34.735  1.00  0.00     0.031 C 
ATOM     42  C   UNL A   1      37.212  31.211  30.603  1.00  0.00     0.029 A 
ATOM     43  N   UNL A   1      38.814  30.803  32.098  1.00  0.00    -0.354 N 
ATOM     44  C   UNL A   1      39.119  33.018  35.749  1.00  0.00     0.074 A 
ATOM     45  C   UNL A   1      38.125  34.065  35.821  1.00  0.00     0.031 C 
ATOM     46  C   UNL A   1      37.954  30.191  30.133  1.00  0.00     0.029 A 
ATOM     47  C   UNL A   1      39.050  29.921  31.059  1.00  0.00     0.049 A 
ATOM     48  H   UNL A   1      39.358  30.821  32.918  1.00  0.00     0.167 HD
ATOM     49  C   UNL A   1      40.045  32.803  36.709  1.00  0.00     0.034 A 
ATOM     50  C   UNL A   1      40.046  29.026  30.857  1.00  0.00     0.034 A 
ATOM     51  C   UNL A   1      41.095  31.829  36.626  1.00  0.00     0.049 A 
ATOM     52  C   UNL A   1      41.131  28.876  31.902  1.00  0.00     0.074 A 
ATOM     53  C   UNL A   1      42.102  31.577  37.538  1.00  0.00     0.029 A 
ATOM     54  N   UNL A   1      41.302  30.981  35.552  1.00  0.00    -0.354 N 
ATOM     55  N   UNL A   1      41.236  29.453  33.074  1.00  0.00    -0.248 NA
ATOM     56  C   UNL A   1      42.227  27.937  31.605  1.00  0.00     0.031 C 
ATOM     57  C   UNL A   1      42.948  30.607  36.995  1.00  0.00     0.029 A 
ATOM     58  C   UNL A   1      42.432  30.212  35.771  1.00  0.00     0.049 A 
ATOM     59  H   UNL A   1      40.731  30.931  34.751  1.00  0.00     0.167 HD
ATOM     60  C   UNL A   1      42.381  28.922  33.664  1.00  0.00     0.074 A 
ATOM     61  C   UNL A   1      42.926  27.960  32.731  1.00  0.00     0.031 C 
ATOM     62  C   UNL A   1      42.937  29.216  34.865  1.00  0.00     0.034 A 
BRANCH  49  63
ATOM     63  C   UNL A   1      39.983  33.695  37.916  1.00  0.00     0.023 A 
ATOM     64  C   UNL A   1      40.813  34.833  37.992  1.00  0.00     0.012 A 
ATOM     65  C   UNL A   1      39.112  33.396  38.980  1.00  0.00     0.148 A 
ATOM     66  C   UNL A   1      40.802  35.639  39.128  1.00  0.00     0.002 A 
ATOM     67  C   UNL A   1      39.071  34.230  40.087  1.00  0.00     0.091 A 
ATOM     68  F   UNL A   1      38.357  32.291  38.895  1.00  0.00    -0.205 F 
ATOM     69  C   UNL A   1      39.927  35.343  40.170  1.00  0.00     0.022 A 
BRANCH  67  70
ATOM     70  S   UNL A   1      37.933  33.975  41.449  1.00  0.00     0.127 S 
ATOM     71  O   UNL A   1      37.781  35.334  41.966  1.00  0.00    -0.237 OA
ATOM     72  O   UNL A   1      36.754  33.448  40.761  1.00  0.00    -0.237 OA
ATOM     73  O   UNL A   1      38.584  33.036  42.351  1.00  0.00    -0.744 OA
ENDBRANCH  67  70
ENDBRANCH  49  63
BRANCH  50  74
ATOM     74  C   UNL A   1      40.107  28.188  29.612  1.00  0.00     0.023 A 
ATOM     75  C   UNL A   1      39.281  27.050  29.489  1.00  0.00     0.012 A 
ATOM     76  C   UNL A   1      41.031  28.465  28.584  1.00  0.00     0.148 A 
ATOM     77  C   UNL A   1      39.403  26.188  28.396  1.00  0.00     0.002 A 
ATOM     78  C   UNL A   1      41.108  27.634  27.470  1.00  0.00     0.091 A 
ATOM     79  F   UNL A   1      41.834  29.529  28.725  1.00  0.00    -0.205 F 
ATOM     80  C   UNL A   1      40.310  26.484  27.384  1.00  0.00     0.022 A 
BRANCH  78  81
ATOM     81  S   UNL A   1      42.179  27.980  26.069  1.00  0.00     0.127 S 
ATOM     82  O   UNL A   1      41.754  29.326  25.693  1.00  0.00    -0.237 OA
ATOM     83  O   UNL A   1      43.506  27.904  26.683  1.00  0.00    -0.237 OA
ATOM     84  O   UNL A   1      41.902  26.938  25.092  1.00  0.00    -0.744 OA
ENDBRANCH  78  81
ENDBRANCH  50  74
BRANCH  62  85
ATOM     85  C   UNL A   1      44.167  28.452  35.292  1.00  0.00     0.023 A 
ATOM     86  C   UNL A   1      45.452  28.968  35.038  1.00  0.00     0.012 A 
ATOM     87  C   UNL A   1      44.035  27.265  36.042  1.00  0.00     0.148 A 
ATOM     88  C   UNL A   1      46.587  28.299  35.496  1.00  0.00     0.002 A 
ATOM     89  C   UNL A   1      45.166  26.634  36.542  1.00  0.00     0.091 A 
ATOM     90  F   UNL A   1      42.803  26.781  36.260  1.00  0.00    -0.205 F 
ATOM     91  C   UNL A   1      46.444  27.141  36.260  1.00  0.00     0.022 A 
BRANCH  89  92
ATOM     92  S   UNL A   1      45.072  25.202  37.622  1.00  0.00     0.127 S 
ATOM     93  O   UNL A   1      44.448  25.770  38.816  1.00  0.00    -0.237 OA
ATOM     94  O   UNL A   1      44.214  24.294  36.859  1.00  0.00    -0.237 OA
ATOM     95  O   UNL A   1      46.441  24.736  37.798  1.00  0.00    -0.744 OA
ENDBRANCH  89  92
ENDBRANCH  62  85
ENDBRANCH  36  37
ENDBRANCH  29  31
ENDBRANCH  28  29
ENDBRANCH  27  28
ENDBRANCH  26  27
ENDBRANCH  25  26
ENDBRANCH   1  25
TORSDOF 22
ENDMDL
MODEL 2
REMARK VINA RESULT:     -10.3      6.680     12.799
REMARK SMILES C[C@H]1CC[C@@H]([C@H](C(=O)OCCOCCOCCOC(=O)c2ccc(-c3c4nc(c(-c5cccc(S(=O)(=O)[O-])c5F)c5ccc([nH]5)c(-c5cccc(S(=O)(=O)[O-])c5F)c5nc(c(-c6cccc(S(=O)(=O)[O-])c6F)c6ccc3[nH]6)C=C5)C=C4)cc2)[C@@H]2CCS(=O)(=O)C2)C[C@@H]1C
REMARK SMILES IDX 14 1 13 2 12 3 11 4 10 5 9 6 7 7 8 8 6 9 5 10 1 11 2 12 3 13
REMARK SMILES IDX 92 14 4 15 91 16 93 17 84 18 85 19 90 20 86 21 87 22 88 23
REMARK SMILES IDX 89 24 15 25 16 26 17 27 18 28 19 29 20 30 21 31 22 32 83 33
REMARK SMILES IDX 23 34 82 35 24 36 25 37 26 38 76 39 27 40 81 41 75 42 77 43
REMARK SMILES IDX 28 44 80 45 74 46 73 47 29 49 61 50 41 51 60 52 42 53 45 54
REMARK SMILES IDX 59 55 78 56 43 57 44 58 58 60 79 61 46 62 30 63 31 64 39 65
REMARK SMILES IDX 32 66 34 67 40 68 33 69 35 70 36 71 37 72 38 73 62 74 63 75
REMARK SMILES IDX 71 76 64 77 66 78 72 79 65 80 67 81 68 82 69 83 70 84 47 85
REMARK SMILES IDX 48 86 56 87 49 88 51 89 57 90 50 91 52 92 53 93 54 94 55 95
REMARK H PARENT 77 48 45 59
REMARK Flexibility Score: inf
ROOT
ATOM      1  C   UNL A   1      41.568  21.321  26.329  1.00  0.00     0.188 C 
ENDROOT
BRANCH   1   2
ATOM      2  C   UNL A   1      40.037  21.462  26.499  1.00  0.00     0.188 C 
BRANCH   2   3
ATOM      3  O   UNL A   1      39.717  22.617  27.265  1.00  0.00    -0.376 OA
BRANCH   3   4
ATOM      4  C   UNL A   1      39.065  23.730  26.654  1.00  0.00     0.202 C 
BRANCH   4   5
ATOM      5  C   UNL A   1      38.115  23.433  25.497  1.00  0.00     0.261 C 
BRANCH   5   6
ATOM      6  O   UNL A   1      36.851  24.092  25.704  1.00  0.00    -0.463 OA
BRANCH   6   7
ATOM      7  C   UNL A   1      35.842  23.819  24.837  1.00  0.00     0.309 C 
ATOM      8  O   UNL A   1      36.023  23.393  23.709  1.00  0.00    -0.252 OA
BRANCH   7   9
ATOM      9  C   UNL A   1      34.498  24.290  25.441  1.00  0.00     0.106 C 
BRANCH   9  10
ATOM     10  C   UNL A   1      34.179  23.352  26.682  1.00  0.00     0.004 C 
ATOM     11  C   UNL A   1      32.318  20.337  24.273  1.00  0.00     0.008 C 
ATOM     12  C   UNL A   1      32.702  20.992  25.610  1.00  0.00    -0.011 C 
ATOM     13  C   UNL A   1      34.245  20.947  25.740  1.00  0.00     0.004 C 
ATOM     14  C   UNL A   1      32.068  22.385  25.842  1.00  0.00    -0.011 C 
ATOM     15  C   UNL A   1      34.903  22.003  26.628  1.00  0.00     0.005 C 
ATOM     16  C   UNL A   1      32.697  23.084  27.024  1.00  0.00     0.008 C 
ATOM     17  C   UNL A   1      30.548  22.437  25.772  1.00  0.00     0.008 C 
ENDBRANCH   9  10
BRANCH   9  18
ATOM     18  C   UNL A   1      34.086  25.839  25.454  1.00  0.00     0.019 C 
ATOM     19  C   UNL A   1      32.802  26.101  26.273  1.00  0.00     0.021 C 
ATOM     20  C   UNL A   1      33.792  26.730  24.217  1.00  0.00     0.141 C 
ATOM     21  C   UNL A   1      31.617  26.268  25.320  1.00  0.00     0.137 C 
ATOM     22  S   UNL A   1      32.201  26.232  23.673  1.00  0.00     0.150 S 
ATOM     23  O   UNL A   1      32.231  24.875  23.206  1.00  0.00    -0.229 OA
ATOM     24  O   UNL A   1      31.573  27.266  22.893  1.00  0.00    -0.229 OA
ENDBRANCH   9  18
ENDBRANCH   7   9
ENDBRANCH   6   7
ENDBRANCH   5   6
ENDBRANCH   4   5
ENDBRANCH   3   4
ENDBRANCH   2   3
ENDBRANCH   1   2
BRANCH   1  25
ATOM     25  O   UNL A   1      42.198  20.525  27.323  1.00  0.00    -0.376 OA
BRANCH  25  26
ATOM     26  C   UNL A   1      42.396  19.152  26.969  1.00  0.00     0.202 C 
BRANCH  26  27
ATOM     27  C   UNL A   1      42.790  18.877  25.500  1.00  0.00     0.261 C 
BRANCH  27  28
ATOM     28  O   UNL A   1      44.180  18.548  25.232  1.00  0.00    -0.460 OA
BRANCH  28  29
ATOM     29  C   UNL A   1      44.793  19.297  24.262  1.00  0.00     0.338 C 
ATOM     30  O   UNL A   1      45.144  18.879  23.168  1.00  0.00    -0.246 OA
BRANCH  29  31
ATOM     31  C   UNL A   1      44.889  20.754  24.604  1.00  0.00     0.060 A 
ATOM     32  C   UNL A   1      45.347  21.104  25.888  1.00  0.00     0.016 A 
ATOM     33  C   UNL A   1      44.552  21.777  23.710  1.00  0.00     0.016 A 
ATOM     34  C   UNL A   1      45.567  22.450  26.236  1.00  0.00     0.010 A 
ATOM     35  C   UNL A   1      44.714  23.134  24.087  1.00  0.00     0.010 A 
ATOM     36  C   UNL A   1      45.258  23.488  25.339  1.00  0.00    -0.014 A 
BRANCH  36  37
ATOM     37  C   UNL A   1      45.299  24.912  25.813  1.00  0.00     0.031 A 
ATOM     38  C   UNL A   1      46.652  25.574  25.822  1.00  0.00     0.074 A 
ATOM     39  C   UNL A   1      44.223  25.638  26.198  1.00  0.00     0.049 A 
ATOM     40  N   UNL A   1      46.982  26.798  26.140  1.00  0.00    -0.248 NA
ATOM     41  C   UNL A   1      47.784  24.736  25.392  1.00  0.00     0.031 C 
ATOM     42  C   UNL A   1      42.839  25.180  26.218  1.00  0.00     0.029 A 
ATOM     43  N   UNL A   1      44.134  26.937  26.665  1.00  0.00    -0.354 N 
ATOM     44  C   UNL A   1      48.356  26.874  25.957  1.00  0.00     0.074 A 
ATOM     45  C   UNL A   1      48.797  25.581  25.483  1.00  0.00     0.031 C 
ATOM     46  C   UNL A   1      42.044  26.161  26.686  1.00  0.00     0.029 A 
ATOM     47  C   UNL A   1      42.859  27.319  27.041  1.00  0.00     0.049 A 
ATOM     48  H   UNL A   1      44.911  27.539  26.724  1.00  0.00     0.167 HD
ATOM     49  C   UNL A   1      49.193  27.911  26.177  1.00  0.00     0.034 A 
ATOM     50  C   UNL A   1      42.403  28.449  27.630  1.00  0.00     0.034 A 
ATOM     51  C   UNL A   1      48.798  29.175  26.726  1.00  0.00     0.049 A 
ATOM     52  C   UNL A   1      43.379  29.558  27.962  1.00  0.00     0.074 A 
ATOM     53  C   UNL A   1      49.593  30.267  27.022  1.00  0.00     0.029 A 
ATOM     54  N   UNL A   1      47.507  29.502  27.106  1.00  0.00    -0.354 N 
ATOM     55  N   UNL A   1      44.659  29.641  27.693  1.00  0.00    -0.248 NA
ATOM     56  C   UNL A   1      42.844  30.739  28.663  1.00  0.00     0.031 C 
ATOM     57  C   UNL A   1      48.792  31.239  27.625  1.00  0.00     0.029 A 
ATOM     58  C   UNL A   1      47.486  30.775  27.649  1.00  0.00     0.049 A 
ATOM     59  H   UNL A   1      46.722  28.917  27.006  1.00  0.00     0.167 HD
ATOM     60  C   UNL A   1      45.070  30.889  28.156  1.00  0.00     0.074 A 
ATOM     61  C   UNL A   1      43.899  31.540  28.703  1.00  0.00     0.031 C 
ATOM     62  C   UNL A   1      46.309  31.441  28.140  1.00  0.00     0.034 A 
BRANCH  49  63
ATOM     63  C   UNL A   1      50.645  27.682  25.865  1.00  0.00     0.023 A 
ATOM     64  C   UNL A   1      51.545  27.369  26.906  1.00  0.00     0.012 A 
ATOM     65  C   UNL A   1      51.117  27.792  24.545  1.00  0.00     0.148 A 
ATOM     66  C   UNL A   1      52.903  27.206  26.638  1.00  0.00     0.002 A 
ATOM     67  C   UNL A   1      52.462  27.580  24.279  1.00  0.00     0.091 A 
ATOM     68  F   UNL A   1      50.246  28.121  23.581  1.00  0.00    -0.205 F 
ATOM     69  C   UNL A   1      53.359  27.303  25.326  1.00  0.00     0.022 A 
BRANCH  67  70
ATOM     70  S   UNL A   1      53.136  27.614  22.617  1.00  0.00     0.127 S 
ATOM     71  O   UNL A   1      52.254  28.577  21.961  1.00  0.00    -0.237 OA
ATOM     72  O   UNL A   1      54.497  28.096  22.854  1.00  0.00    -0.237 OA
ATOM     73  O   UNL A   1      53.049  26.251  22.116  1.00  0.00    -0.744 OA
ENDBRANCH  67  70
ENDBRANCH  49  63
BRANCH  50  74
ATOM     74  C   UNL A   1      40.952  28.622  27.977  1.00  0.00     0.023 A 
ATOM     75  C   UNL A   1      40.039  29.046  26.988  1.00  0.00     0.012 A 
ATOM     76  C   UNL A   1      40.485  28.445  29.295  1.00  0.00     0.148 A 
ATOM     77  C   UNL A   1      38.709  29.329  27.312  1.00  0.00     0.002 A 
ATOM     78  C   UNL A   1      39.146  28.675  29.600  1.00  0.00     0.091 A 
ATOM     79  F   UNL A   1      41.366  28.075  30.234  1.00  0.00    -0.205 F 
ATOM     80  C   UNL A   1      38.261  29.136  28.614  1.00  0.00     0.022 A 
BRANCH  78  81
ATOM     81  S   UNL A   1      38.451  28.365  31.228  1.00  0.00     0.127 S 
ATOM     82  O   UNL A   1      38.554  26.911  31.327  1.00  0.00    -0.237 OA
ATOM     83  O   UNL A   1      39.372  29.107  32.091  1.00  0.00    -0.237 OA
ATOM     84  O   UNL A   1      37.096  28.897  31.187  1.00  0.00    -0.744 OA
ENDBRANCH  78  81
ENDBRANCH  50  74
BRANCH  62  85
ATOM     85  C   UNL A   1      46.475  32.844  28.667  1.00  0.00     0.023 A 
ATOM     86  C   UNL A   1      46.945  33.065  29.975  1.00  0.00     0.012 A 
ATOM     87  C   UNL A   1      46.260  33.948  27.815  1.00  0.00     0.148 A 
ATOM     88  C   UNL A   1      47.169  34.362  30.438  1.00  0.00     0.002 A 
ATOM     89  C   UNL A   1      46.538  35.232  28.263  1.00  0.00     0.091 A 
ATOM     90  F   UNL A   1      45.798  33.718  26.577  1.00  0.00    -0.205 F 
ATOM     91  C   UNL A   1      46.980  35.443  29.579  1.00  0.00     0.022 A 
BRANCH  89  92
ATOM     92  S   UNL A   1      46.426  36.671  27.194  1.00  0.00     0.127 S 
ATOM     93  O   UNL A   1      44.980  36.815  27.039  1.00  0.00    -0.237 OA
ATOM     94  O   UNL A   1      47.058  37.711  28.008  1.00  0.00    -0.237 OA
ATOM     95  O   UNL A   1      47.152  36.330  25.978  1.00  0.00    -0.744 OA
ENDBRANCH  89  92
ENDBRANCH  62  85
ENDBRANCH  36  37
ENDBRANCH  29  31
ENDBRANCH  28  29
ENDBRANCH  27  28
ENDBRANCH  26  27
ENDBRANCH  25  26
ENDBRANCH   1  25
TORSDOF 22
ENDMDL
MODEL 3
REMARK VINA RESULT:     -10.3      6.666     11.889
REMARK SMILES C[C@H]1CC[C@@H]([C@H](C(=O)OCCOCCOCCOC(=O)c2ccc(-c3c4nc(c(-c5cccc(S(=O)(=O)[O-])c5F)c5ccc([nH]5)c(-c5cccc(S(=O)(=O)[O-])c5F)c5nc(c(-c6cccc(S(=O)(=O)[O-])c6F)c6ccc3[nH]6)C=C5)C=C4)cc2)[C@@H]2CCS(=O)(=O)C2)C[C@@H]1C
REMARK SMILES IDX 14 1 13 2 12 3 11 4 10 5 9 6 7 7 8 8 6 9 5 10 1 11 2 12 3 13
REMARK SMILES IDX 92 14 4 15 91 16 93 17 84 18 85 19 90 20 86 21 87 22 88 23
REMARK SMILES IDX 89 24 15 25 16 26 17 27 18 28 19 29 20 30 21 31 22 32 83 33
REMARK SMILES IDX 23 34 82 35 24 36 25 37 26 38 76 39 27 40 81 41 75 42 77 43
REMARK SMILES IDX 28 44 80 45 74 46 73 47 29 49 61 50 41 51 60 52 42 53 45 54
REMARK SMILES IDX 59 55 78 56 43 57 44 58 58 60 79 61 46 62 30 63 31 64 39 65
REMARK SMILES IDX 32 66 34 67 40 68 33 69 35 70 36 71 37 72 38 73 62 74 63 75
REMARK SMILES IDX 71 76 64 77 66 78 72 79 65 80 67 81 68 82 69 83 70 84 47 85
REMARK SMILES IDX 48 86 56 87 49 88 51 89 57 90 50 91 52 92 53 93 54 94 55 95
REMARK H PARENT 77 48 45 59
REMARK Flexibility Score: inf
ROOT
ATOM      1  C   UNL A   1      38.127  21.981  25.325  1.00  0.00     0.188 C 
ENDROOT
BRANCH   1   2
ATOM      2  C   UNL A   1      37.200  23.031  25.982  1.00  0.00     0.188 C 
BRANCH   2   3
ATOM      3  O   UNL A   1      36.729  23.964  25.018  1.00  0.00    -0.376 OA
BRANCH   3   4
ATOM      4  C   UNL A   1      36.609  23.587  23.647  1.00  0.00     0.202 C 
BRANCH   4   5
ATOM      5  C   UNL A   1      35.319  22.888  23.224  1.00  0.00     0.261 C 
BRANCH   5   6
ATOM      6  O   UNL A   1      34.179  23.716  23.524  1.00  0.00    -0.463 OA
BRANCH   6   7
ATOM      7  C   UNL A   1      33.181  23.780  22.607  1.00  0.00     0.309 C 
ATOM      8  O   UNL A   1      33.260  23.293  21.492  1.00  0.00    -0.252 OA
BRANCH   7   9
ATOM      9  C   UNL A   1      32.047  24.689  23.138  1.00  0.00     0.106 C 
BRANCH   9  10
ATOM     10  C   UNL A   1      31.744  25.774  22.019  1.00  0.00     0.004 C 
ATOM     11  C   UNL A   1      34.017  28.830  23.982  1.00  0.00     0.008 C 
ATOM     12  C   UNL A   1      33.043  28.307  22.913  1.00  0.00    -0.011 C 
ATOM     13  C   UNL A   1      33.815  27.319  22.003  1.00  0.00     0.004 C 
ATOM     14  C   UNL A   1      31.708  27.765  23.479  1.00  0.00    -0.011 C 
ATOM     15  C   UNL A   1      32.996  26.252  21.277  1.00  0.00     0.005 C 
ATOM     16  C   UNL A   1      30.926  27.021  22.424  1.00  0.00     0.008 C 
ATOM     17  C   UNL A   1      30.910  28.742  24.332  1.00  0.00     0.008 C 
ENDBRANCH   9  10
BRANCH   9  18
ATOM     18  C   UNL A   1      30.871  24.105  24.057  1.00  0.00     0.019 C 
ATOM     19  C   UNL A   1      30.193  25.199  24.913  1.00  0.00     0.021 C 
ATOM     20  C   UNL A   1      30.998  22.984  25.123  1.00  0.00     0.141 C 
ATOM     21  C   UNL A   1      30.726  25.126  26.346  1.00  0.00     0.137 C 
ATOM     22  S   UNL A   1      31.790  23.748  26.488  1.00  0.00     0.150 S 
ATOM     23  O   UNL A   1      33.127  24.139  26.139  1.00  0.00    -0.229 OA
ATOM     24  O   UNL A   1      31.527  23.031  27.708  1.00  0.00    -0.229 OA
ENDBRANCH   9  18
ENDBRANCH   7   9
ENDBRANCH   6   7
ENDBRANCH   5   6
ENDBRANCH   4   5
ENDBRANCH   3   4
ENDBRANCH   2   3
ENDBRANCH   1   2
BRANCH   1  25
ATOM     25  O   UNL A   1      37.547  20.693  25.183  1.00  0.00    -0.376 OA
BRANCH  25  26
ATOM     26  C   UNL A   1      38.473  19.601  25.194  1.00  0.00     0.202 C 
BRANCH  26  27
ATOM     27  C   UNL A   1      39.809  19.850  25.931  1.00  0.00     0.261 C 
BRANCH  27  28
ATOM     28  O   UNL A   1      40.857  18.856  25.765  1.00  0.00    -0.460 OA
BRANCH  28  29
ATOM     29  C   UNL A   1      42.020  19.099  26.448  1.00  0.00     0.338 C 
ATOM     30  O   UNL A   1      42.824  18.245  26.792  1.00  0.00    -0.246 OA
BRANCH  29  31
ATOM     31  C   UNL A   1      42.309  20.559  26.635  1.00  0.00     0.060 A 
ATOM     32  C   UNL A   1      42.251  21.084  27.940  1.00  0.00     0.016 A 
ATOM     33  C   UNL A   1      42.638  21.418  25.580  1.00  0.00     0.016 A 
ATOM     34  C   UNL A   1      42.620  22.416  28.201  1.00  0.00     0.010 A 
ATOM     35  C   UNL A   1      42.946  22.778  25.839  1.00  0.00     0.010 A 
ATOM     36  C   UNL A   1      42.977  23.285  27.154  1.00  0.00    -0.014 A 
BRANCH  36  37
ATOM     37  C   UNL A   1      43.154  24.749  27.437  1.00  0.00     0.031 A 
ATOM     38  C   UNL A   1      44.532  25.312  27.203  1.00  0.00     0.074 A 
ATOM     39  C   UNL A   1      42.176  25.589  27.850  1.00  0.00     0.049 A 
ATOM     40  N   UNL A   1      44.965  26.540  27.323  1.00  0.00    -0.248 NA
ATOM     41  C   UNL A   1      45.554  24.353  26.754  1.00  0.00     0.031 C 
ATOM     42  C   UNL A   1      40.782  25.234  28.090  1.00  0.00     0.029 A 
ATOM     43  N   UNL A   1      42.218  26.938  28.156  1.00  0.00    -0.354 N 
ATOM     44  C   UNL A   1      46.308  26.497  26.973  1.00  0.00     0.074 A 
ATOM     45  C   UNL A   1      46.615  25.130  26.618  1.00  0.00     0.031 C 
ATOM     46  C   UNL A   1      40.107  26.316  28.519  1.00  0.00     0.029 A 
ATOM     47  C   UNL A   1      41.022  27.449  28.627  1.00  0.00     0.049 A 
ATOM     48  H   UNL A   1      43.027  27.487  28.048  1.00  0.00     0.167 HD
ATOM     49  C   UNL A   1      47.222  27.493  26.960  1.00  0.00     0.034 A 
ATOM     50  C   UNL A   1      40.705  28.670  29.118  1.00  0.00     0.034 A 
ATOM     51  C   UNL A   1      46.967  28.838  27.388  1.00  0.00     0.049 A 
ATOM     52  C   UNL A   1      41.773  29.740  29.190  1.00  0.00     0.074 A 
ATOM     53  C   UNL A   1      47.852  29.899  27.448  1.00  0.00     0.029 A 
ATOM     54  N   UNL A   1      45.754  29.297  27.872  1.00  0.00    -0.354 N 
ATOM     55  N   UNL A   1      43.013  29.702  28.766  1.00  0.00    -0.248 NA
ATOM     56  C   UNL A   1      41.395  31.030  29.794  1.00  0.00     0.031 C 
ATOM     57  C   UNL A   1      47.185  30.989  28.013  1.00  0.00     0.029 A 
ATOM     58  C   UNL A   1      45.870  30.623  28.248  1.00  0.00     0.049 A 
ATOM     59  H   UNL A   1      44.931  28.760  27.939  1.00  0.00     0.167 HD
ATOM     60  C   UNL A   1      43.546  30.964  29.015  1.00  0.00     0.074 A 
ATOM     61  C   UNL A   1      42.489  31.755  29.608  1.00  0.00     0.031 C 
ATOM     62  C   UNL A   1      44.800  31.422  28.785  1.00  0.00     0.034 A 
BRANCH  49  63
ATOM     63  C   UNL A   1      48.609  27.128  26.513  1.00  0.00     0.023 A 
ATOM     64  C   UNL A   1      49.492  26.494  27.411  1.00  0.00     0.012 A 
ATOM     65  C   UNL A   1      49.039  27.428  25.208  1.00  0.00     0.148 A 
ATOM     66  C   UNL A   1      50.797  26.197  27.026  1.00  0.00     0.002 A 
ATOM     67  C   UNL A   1      50.325  27.086  24.815  1.00  0.00     0.091 A 
ATOM     68  F   UNL A   1      48.189  28.060  24.385  1.00  0.00    -0.205 F 
ATOM     69  C   UNL A   1      51.210  26.486  25.727  1.00  0.00     0.022 A 
BRANCH  67  70
ATOM     70  S   UNL A   1      50.929  27.352  23.148  1.00  0.00     0.127 S 
ATOM     71  O   UNL A   1      49.897  26.693  22.351  1.00  0.00    -0.237 OA
ATOM     72  O   UNL A   1      50.931  28.813  23.057  1.00  0.00    -0.237 OA
ATOM     73  O   UNL A   1      52.246  26.735  23.090  1.00  0.00    -0.744 OA
ENDBRANCH  67  70
ENDBRANCH  49  63
BRANCH  50  74
ATOM     74  C   UNL A   1      39.320  28.984  29.608  1.00  0.00     0.023 A 
ATOM     75  C   UNL A   1      38.934  28.609  30.913  1.00  0.00     0.012 A 
ATOM     76  C   UNL A   1      38.360  29.581  28.766  1.00  0.00     0.148 A 
ATOM     77  C   UNL A   1      37.618  28.783  31.351  1.00  0.00     0.002 A 
ATOM     78  C   UNL A   1      37.065  29.803  29.228  1.00  0.00     0.091 A 
ATOM     79  F   UNL A   1      38.726  29.903  27.518  1.00  0.00    -0.205 F 
ATOM     80  C   UNL A   1      36.687  29.386  30.513  1.00  0.00     0.022 A 
BRANCH  78  81
ATOM     81  S   UNL A   1      35.818  30.657  28.256  1.00  0.00     0.127 S 
ATOM     82  O   UNL A   1      34.797  30.941  29.262  1.00  0.00    -0.237 OA
ATOM     83  O   UNL A   1      36.559  31.828  27.784  1.00  0.00    -0.237 OA
ATOM     84  O   UNL A   1      35.426  29.724  27.209  1.00  0.00    -0.744 OA
ENDBRANCH  78  81
ENDBRANCH  50  74
BRANCH  62  85
ATOM     85  C   UNL A   1      45.108  32.864  29.107  1.00  0.00     0.023 A 
ATOM     86  C   UNL A   1      45.656  33.216  30.355  1.00  0.00     0.012 A 
ATOM     87  C   UNL A   1      44.946  33.858  28.119  1.00  0.00     0.148 A 
ATOM     88  C   UNL A   1      46.008  34.538  30.627  1.00  0.00     0.002 A 
ATOM     89  C   UNL A   1      45.350  35.161  28.376  1.00  0.00     0.091 A 
ATOM     90  F   UNL A   1      44.409  33.505  26.942  1.00  0.00    -0.205 F 
ATOM     91  C   UNL A   1      45.869  35.507  29.633  1.00  0.00     0.022 A 
BRANCH  89  92
ATOM     92  S   UNL A   1      45.309  36.447  27.123  1.00  0.00     0.127 S 
ATOM     93  O   UNL A   1      45.988  37.548  27.805  1.00  0.00    -0.237 OA
ATOM     94  O   UNL A   1      46.073  35.842  26.032  1.00  0.00    -0.237 OA
ATOM     95  O   UNL A   1      43.902  36.675  26.823  1.00  0.00    -0.744 OA
ENDBRANCH  89  92
ENDBRANCH  62  85
ENDBRANCH  36  37
ENDBRANCH  29  31
ENDBRANCH  28  29
ENDBRANCH  27  28
ENDBRANCH  26  27
ENDBRANCH  25  26
ENDBRANCH   1  25
TORSDOF 22
ENDMDL
