MODEL 1
REMARK VINA RESULT:     -11.3      0.000      0.000
REMARK SMILES Cc1ccc(S(=O)(=O)N2c3ccc(C(=O)OCCOCCOCCOC(=O)c4ccc(-c5c6nc(c(-c7cccc(S(=O)(=O)[O-])c7F)c7ccc([nH]7)c(-c7cccc(S(=O)(=O)[O-])c7F)c7nc(c(-c8cccc(S(=O)(=O)[O-])c8F)c8ccc5[nH]8)C=C7)C=C6)cc4)cc3C[C@H]2C)cc1
REMARK SMILES IDX 21 1 20 2 19 3 18 4 17 5 16 6 14 7 15 8 13 9 9 10 10 11
REMARK SMILES IDX 94 12 11 13 92 14 93 15 95 16 12 17 91 18 6 19 7 20 8 21
REMARK SMILES IDX 5 22 1 23 2 24 3 25 97 26 4 27 96 28 22 29 23 30 24 31 25 32
REMARK SMILES IDX 26 33 27 34 28 35 29 36 90 37 30 38 89 39 31 40 32 41 33 42
REMARK SMILES IDX 83 43 34 44 88 45 82 46 84 47 35 48 87 49 81 50 80 51 36 53
REMARK SMILES IDX 68 54 48 55 67 56 49 57 52 58 66 59 85 60 50 61 51 62 65 64
REMARK SMILES IDX 86 65 53 66 37 67 38 68 46 69 39 70 41 71 47 72 40 73 42 74
REMARK SMILES IDX 43 75 44 76 45 77 69 78 70 79 78 80 71 81 73 82 79 83 72 84
REMARK SMILES IDX 74 85 75 86 76 87 77 88 54 89 55 90 63 91 56 92 58 93 64 94
REMARK SMILES IDX 57 95 59 96 60 97 61 98 62 99
REMARK H PARENT 84 52 52 63
REMARK Flexibility Score: inf
ROOT
ATOM      1  C   UNL A   1      36.588  22.190  24.425  1.00  0.00     0.188 C 
ENDROOT
BRANCH   1   2
ATOM      2  C   UNL A   1      35.758  21.367  25.407  1.00  0.00     0.188 C 
BRANCH   2   3
ATOM      3  O   UNL A   1      34.521  21.881  25.950  1.00  0.00    -0.376 OA
BRANCH   3   4
ATOM      4  C   UNL A   1      33.532  21.083  26.647  1.00  0.00     0.202 C 
BRANCH   4   5
ATOM      5  C   UNL A   1      32.583  20.052  25.793  1.00  0.00     0.261 C 
BRANCH   5   6
ATOM      6  O   UNL A   1      32.666  19.643  24.166  1.00  0.00    -0.460 OA
BRANCH   6   7
ATOM      7  C   UNL A   1      32.341  20.341  22.962  1.00  0.00     0.338 C 
ATOM      8  O   UNL A   1      32.021  19.862  21.882  1.00  0.00    -0.246 OA
BRANCH   7   9
ATOM      9  C   UNL A   1      32.151  21.804  22.728  1.00  0.00     0.060 A 
ATOM     10  N   UNL A   1      32.051  25.934  23.868  1.00  0.00    -0.263 N 
ATOM     11  C   UNL A   1      31.955  24.528  23.515  1.00  0.00     0.055 A 
ATOM     12  C   UNL A   1      33.465  26.321  23.406  1.00  0.00     0.101 C 
ATOM     13  C   UNL A   1      30.823  23.720  23.509  1.00  0.00     0.028 A 
ATOM     14  C   UNL A   1      33.193  24.003  23.188  1.00  0.00    -0.021 A 
ATOM     15  C   UNL A   1      34.283  25.009  23.441  1.00  0.00     0.063 C 
ATOM     16  C   UNL A   1      33.367  26.857  21.967  1.00  0.00     0.032 C 
ATOM     17  C   UNL A   1      30.927  22.358  23.133  1.00  0.00     0.018 A 
ATOM     18  C   UNL A   1      33.301  22.658  22.838  1.00  0.00     0.021 A 
BRANCH  10  19
ATOM     19  S   UNL A   1      31.779  26.216  25.563  1.00  0.00     0.264 S 
ATOM     20  O   UNL A   1      32.948  25.800  26.310  1.00  0.00    -0.201 OA
ATOM     21  O   UNL A   1      30.446  25.760  25.900  1.00  0.00    -0.201 OA
BRANCH  19  22
ATOM     22  C   UNL A   1      31.696  27.993  25.779  1.00  0.00     0.088 A 
ATOM     23  C   UNL A   1      31.557  32.223  26.593  1.00  0.00     0.044 C 
ATOM     24  C   UNL A   1      31.607  30.751  26.301  1.00  0.00    -0.051 A 
ATOM     25  C   UNL A   1      32.067  29.864  27.281  1.00  0.00     0.005 A 
ATOM     26  C   UNL A   1      31.170  30.241  25.072  1.00  0.00     0.005 A 
ATOM     27  C   UNL A   1      32.117  28.493  27.020  1.00  0.00     0.022 A 
ATOM     28  C   UNL A   1      31.207  28.865  24.811  1.00  0.00     0.022 A 
ENDBRANCH  19  22
ENDBRANCH  10  19
ENDBRANCH   7   9
ENDBRANCH   6   7
ENDBRANCH   5   6
ENDBRANCH   4   5
ENDBRANCH   3   4
ENDBRANCH   2   3
ENDBRANCH   1   2
BRANCH   1  29
ATOM     29  O   UNL A   1      37.914  21.712  24.473  1.00  0.00    -0.376 OA
BRANCH  29  30
ATOM     30  C   UNL A   1      38.398  21.264  25.716  1.00  0.00     0.202 C 
BRANCH  30  31
ATOM     31  C   UNL A   1      39.750  21.911  26.037  1.00  0.00     0.261 C 
BRANCH  31  32
ATOM     32  O   UNL A   1      39.651  22.710  27.244  1.00  0.00    -0.460 OA
BRANCH  32  33
ATOM     33  C   UNL A   1      39.119  23.976  27.121  1.00  0.00     0.338 C 
ATOM     34  O   UNL A   1      38.027  24.196  26.612  1.00  0.00    -0.246 OA
BRANCH  33  35
ATOM     35  C   UNL A   1      40.160  25.026  27.438  1.00  0.00     0.060 A 
ATOM     36  C   UNL A   1      41.203  24.931  28.374  1.00  0.00     0.016 A 
ATOM     37  C   UNL A   1      39.841  26.293  27.088  1.00  0.00     0.016 A 
ATOM     38  C   UNL A   1      41.800  26.120  29.019  1.00  0.00     0.010 A 
ATOM     39  C   UNL A   1      40.242  27.295  27.983  1.00  0.00     0.010 A 
ATOM     40  C   UNL A   1      41.280  27.415  28.887  1.00  0.00    -0.014 A 
BRANCH  40  41
ATOM     41  C   UNL A   1      41.475  28.719  29.806  1.00  0.00     0.031 A 
ATOM     42  C   UNL A   1      40.491  29.950  30.323  1.00  0.00     0.074 A 
ATOM     43  C   UNL A   1      42.751  28.943  30.191  1.00  0.00     0.049 A 
ATOM     44  N   UNL A   1      40.741  31.237  30.131  1.00  0.00    -0.248 NA
ATOM     45  C   UNL A   1      39.218  29.883  31.121  1.00  0.00     0.031 C 
ATOM     46  C   UNL A   1      43.245  29.974  31.098  1.00  0.00     0.029 A 
ATOM     47  N   UNL A   1      43.911  28.372  29.658  1.00  0.00    -0.354 N 
ATOM     48  C   UNL A   1      39.708  31.993  30.732  1.00  0.00     0.074 A 
ATOM     49  C   UNL A   1      38.710  31.096  31.145  1.00  0.00     0.031 C 
ATOM     50  C   UNL A   1      44.544  30.177  30.830  1.00  0.00     0.029 A 
ATOM     51  C   UNL A   1      44.885  29.373  29.670  1.00  0.00     0.049 A 
ATOM     52  H   UNL A   1      44.019  27.448  29.335  1.00  0.00     0.167 HD
ATOM     53  C   UNL A   1      39.751  33.282  31.170  1.00  0.00     0.034 A 
ATOM     54  C   UNL A   1      45.472  29.800  28.517  1.00  0.00     0.034 A 
ATOM     55  C   UNL A   1      41.115  33.725  31.160  1.00  0.00     0.049 A 
ATOM     56  C   UNL A   1      45.392  31.298  28.312  1.00  0.00     0.074 A 
ATOM     57  C   UNL A   1      42.125  33.627  32.100  1.00  0.00     0.029 A 
ATOM     58  N   UNL A   1      41.701  33.992  29.948  1.00  0.00    -0.354 N 
ATOM     59  N   UNL A   1      44.693  32.116  29.053  1.00  0.00    -0.248 NA
ATOM     60  C   UNL A   1      46.104  32.000  27.250  1.00  0.00     0.031 C 
ATOM     61  C   UNL A   1      43.355  33.799  31.419  1.00  0.00     0.029 A 
ATOM     62  C   UNL A   1      43.074  34.046  30.087  1.00  0.00     0.049 A 
ATOM     63  H   UNL A   1      41.214  34.126  29.103  1.00  0.00     0.167 HD
ATOM     64  C   UNL A   1      44.713  33.375  28.501  1.00  0.00     0.074 A 
ATOM     65  C   UNL A   1      45.694  33.266  27.438  1.00  0.00     0.031 C 
ATOM     66  C   UNL A   1      43.866  34.368  28.917  1.00  0.00     0.034 A 
BRANCH  53  67
ATOM     67  C   UNL A   1      38.619  33.883  32.020  1.00  0.00     0.023 A 
ATOM     68  C   UNL A   1      38.848  34.077  33.395  1.00  0.00     0.012 A 
ATOM     69  C   UNL A   1      37.298  34.157  31.559  1.00  0.00     0.148 A 
ATOM     70  C   UNL A   1      37.810  34.390  34.286  1.00  0.00     0.002 A 
ATOM     71  C   UNL A   1      36.245  34.373  32.461  1.00  0.00     0.091 A 
ATOM     72  F   UNL A   1      37.054  34.173  30.238  1.00  0.00    -0.205 F 
ATOM     73  C   UNL A   1      36.503  34.491  33.828  1.00  0.00     0.022 A 
BRANCH  71  74
ATOM     74  S   UNL A   1      34.506  34.273  31.968  1.00  0.00     0.127 S 
ATOM     75  O   UNL A   1      34.205  32.849  32.145  1.00  0.00    -0.237 OA
ATOM     76  O   UNL A   1      33.840  35.149  32.928  1.00  0.00    -0.237 OA
ATOM     77  O   UNL A   1      34.472  34.699  30.573  1.00  0.00    -0.744 OA
ENDBRANCH  71  74
ENDBRANCH  53  67
BRANCH  54  78
ATOM     78  C   UNL A   1      45.613  28.743  27.456  1.00  0.00     0.023 A 
ATOM     79  C   UNL A   1      44.441  28.438  26.712  1.00  0.00     0.012 A 
ATOM     80  C   UNL A   1      46.844  28.250  26.977  1.00  0.00     0.148 A 
ATOM     81  C   UNL A   1      44.497  27.773  25.487  1.00  0.00     0.002 A 
ATOM     82  C   UNL A   1      46.893  27.571  25.750  1.00  0.00     0.091 A 
ATOM     83  F   UNL A   1      47.956  28.521  27.673  1.00  0.00    -0.205 F 
ATOM     84  C   UNL A   1      45.725  27.356  24.996  1.00  0.00     0.022 A 
BRANCH  82  85
ATOM     85  S   UNL A   1      48.427  27.028  24.966  1.00  0.00     0.127 S 
ATOM     86  O   UNL A   1      49.084  28.306  24.699  1.00  0.00    -0.237 OA
ATOM     87  O   UNL A   1      49.061  26.237  26.021  1.00  0.00    -0.237 OA
ATOM     88  O   UNL A   1      48.030  26.270  23.791  1.00  0.00    -0.744 OA
ENDBRANCH  82  85
ENDBRANCH  54  78
BRANCH  66  89
ATOM     89  C   UNL A   1      43.584  35.707  28.237  1.00  0.00     0.023 A 
ATOM     90  C   UNL A   1      42.757  35.825  27.110  1.00  0.00     0.012 A 
ATOM     91  C   UNL A   1      44.001  36.933  28.837  1.00  0.00     0.148 A 
ATOM     92  C   UNL A   1      42.370  37.072  26.599  1.00  0.00     0.002 A 
ATOM     93  C   UNL A   1      43.505  38.161  28.407  1.00  0.00     0.091 A 
ATOM     94  F   UNL A   1      44.900  36.932  29.834  1.00  0.00    -0.205 F 
ATOM     95  C   UNL A   1      42.710  38.238  27.268  1.00  0.00     0.022 A 
BRANCH  93  96
ATOM     96  S   UNL A   1      43.728  39.630  29.426  1.00  0.00     0.127 S 
ATOM     97  O   UNL A   1      45.039  40.112  29.001  1.00  0.00    -0.237 OA
ATOM     98  O   UNL A   1      42.609  40.482  29.017  1.00  0.00    -0.237 OA
ATOM     99  O   UNL A   1      43.628  39.131  30.792  1.00  0.00    -0.744 OA
ENDBRANCH  93  96
ENDBRANCH  66  89
ENDBRANCH  40  41
ENDBRANCH  33  35
ENDBRANCH  32  33
ENDBRANCH  31  32
ENDBRANCH  30  31
ENDBRANCH  29  30
ENDBRANCH   1  29
TORSDOF 22
ENDMDL
MODEL 2
REMARK VINA RESULT:     -11.0      5.256     13.479
REMARK SMILES Cc1ccc(S(=O)(=O)N2c3ccc(C(=O)OCCOCCOCCOC(=O)c4ccc(-c5c6nc(c(-c7cccc(S(=O)(=O)[O-])c7F)c7ccc([nH]7)c(-c7cccc(S(=O)(=O)[O-])c7F)c7nc(c(-c8cccc(S(=O)(=O)[O-])c8F)c8ccc5[nH]8)C=C7)C=C6)cc4)cc3C[C@H]2C)cc1
REMARK SMILES IDX 21 1 20 2 19 3 18 4 17 5 16 6 14 7 15 8 13 9 9 10 10 11
REMARK SMILES IDX 94 12 11 13 92 14 93 15 95 16 12 17 91 18 6 19 7 20 8 21
REMARK SMILES IDX 5 22 1 23 2 24 3 25 97 26 4 27 96 28 22 29 23 30 24 31 25 32
REMARK SMILES IDX 26 33 27 34 28 35 29 36 90 37 30 38 89 39 31 40 32 41 33 42
REMARK SMILES IDX 83 43 34 44 88 45 82 46 84 47 35 48 87 49 81 50 80 51 36 53
REMARK SMILES IDX 68 54 48 55 67 56 49 57 52 58 66 59 85 60 50 61 51 62 65 64
REMARK SMILES IDX 86 65 53 66 37 67 38 68 46 69 39 70 41 71 47 72 40 73 42 74
REMARK SMILES IDX 43 75 44 76 45 77 69 78 70 79 78 80 71 81 73 82 79 83 72 84
REMARK SMILES IDX 74 85 75 86 76 87 77 88 54 89 55 90 63 91 56 92 58 93 64 94
REMARK SMILES IDX 57 95 59 96 60 97 61 98 62 99
REMARK H PARENT 84 52 52 63
REMARK Flexibility Score: inf
ROOT
ATOM      1  C   UNL A   1      34.430  34.458  31.398  1.00  0.00     0.188 C 
ENDROOT
BRANCH   1   2
ATOM      2  C   UNL A   1      35.350  33.245  31.502  1.00  0.00     0.188 C 
BRANCH   2   3
ATOM      3  O   UNL A   1      36.787  33.397  31.494  1.00  0.00    -0.376 OA
BRANCH   3   4
ATOM      4  C   UNL A   1      37.513  34.415  32.228  1.00  0.00     0.202 C 
BRANCH   4   5
ATOM      5  C   UNL A   1      38.935  34.979  31.630  1.00  0.00     0.261 C 
BRANCH   5   6
ATOM      6  O   UNL A   1      40.039  34.205  30.627  1.00  0.00    -0.460 OA
BRANCH   6   7
ATOM      7  C   UNL A   1      41.436  34.383  30.388  1.00  0.00     0.338 C 
ATOM      8  O   UNL A   1      42.370  33.884  31.001  1.00  0.00    -0.246 OA
BRANCH   7   9
ATOM      9  C   UNL A   1      42.132  35.076  29.261  1.00  0.00     0.060 A 
ATOM     10  N   UNL A   1      43.273  38.472  26.911  1.00  0.00    -0.263 N 
ATOM     11  C   UNL A   1      42.780  37.308  27.626  1.00  0.00     0.055 A 
ATOM     12  C   UNL A   1      44.643  38.734  27.558  1.00  0.00     0.101 C 
ATOM     13  C   UNL A   1      41.685  36.510  27.316  1.00  0.00     0.028 A 
ATOM     14  C   UNL A   1      43.532  37.056  28.760  1.00  0.00    -0.021 A 
ATOM     15  C   UNL A   1      44.541  38.149  28.986  1.00  0.00     0.063 C 
ATOM     16  C   UNL A   1      45.708  37.983  26.741  1.00  0.00     0.032 C 
ATOM     17  C   UNL A   1      41.353  35.408  28.143  1.00  0.00     0.018 A 
ATOM     18  C   UNL A   1      43.197  35.985  29.586  1.00  0.00     0.021 A 
BRANCH  10  19
ATOM     19  S   UNL A   1      42.190  39.829  27.016  1.00  0.00     0.264 S 
ATOM     20  O   UNL A   1      42.027  40.203  28.406  1.00  0.00    -0.201 OA
ATOM     21  O   UNL A   1      41.057  39.587  26.145  1.00  0.00    -0.201 OA
BRANCH  19  22
ATOM     22  C   UNL A   1      43.031  41.216  26.256  1.00  0.00     0.088 A 
ATOM     23  C   UNL A   1      45.172  44.617  24.699  1.00  0.00     0.044 C 
ATOM     24  C   UNL A   1      44.427  43.429  25.233  1.00  0.00    -0.051 A 
ATOM     25  C   UNL A   1      44.674  42.982  26.535  1.00  0.00     0.005 A 
ATOM     26  C   UNL A   1      43.458  42.774  24.461  1.00  0.00     0.005 A 
ATOM     27  C   UNL A   1      43.985  41.879  27.043  1.00  0.00     0.022 A 
ATOM     28  C   UNL A   1      42.756  41.674  24.970  1.00  0.00     0.022 A 
ENDBRANCH  19  22
ENDBRANCH  10  19
ENDBRANCH   7   9
ENDBRANCH   6   7
ENDBRANCH   5   6
ENDBRANCH   4   5
ENDBRANCH   3   4
ENDBRANCH   2   3
ENDBRANCH   1   2
BRANCH   1  29
ATOM     29  O   UNL A   1      33.592  34.270  30.279  1.00  0.00    -0.376 OA
BRANCH  29  30
ATOM     30  C   UNL A   1      34.145  34.507  29.007  1.00  0.00     0.202 C 
BRANCH  30  31
ATOM     31  C   UNL A   1      33.790  33.370  28.041  1.00  0.00     0.261 C 
BRANCH  31  32
ATOM     32  O   UNL A   1      34.996  32.703  27.587  1.00  0.00    -0.460 OA
BRANCH  32  33
ATOM     33  C   UNL A   1      35.036  31.329  27.695  1.00  0.00     0.338 C 
ATOM     34  O   UNL A   1      34.120  30.602  27.330  1.00  0.00    -0.246 OA
BRANCH  33  35
ATOM     35  C   UNL A   1      36.205  30.893  28.551  1.00  0.00     0.060 A 
ATOM     36  C   UNL A   1      37.276  31.688  28.990  1.00  0.00     0.016 A 
ATOM     37  C   UNL A   1      36.453  29.564  28.573  1.00  0.00     0.016 A 
ATOM     38  C   UNL A   1      38.602  31.121  29.315  1.00  0.00     0.010 A 
ATOM     39  C   UNL A   1      37.805  29.193  28.587  1.00  0.00     0.010 A 
ATOM     40  C   UNL A   1      38.959  29.789  29.059  1.00  0.00    -0.014 A 
BRANCH  40  41
ATOM     41  C   UNL A   1      40.405  29.103  28.913  1.00  0.00     0.031 A 
ATOM     42  C   UNL A   1      40.961  27.640  28.363  1.00  0.00     0.074 A 
ATOM     43  C   UNL A   1      41.420  29.827  29.435  1.00  0.00     0.049 A 
ATOM     44  N   UNL A   1      41.711  26.812  29.074  1.00  0.00    -0.248 NA
ATOM     45  C   UNL A   1      40.798  27.006  27.010  1.00  0.00     0.031 C 
ATOM     46  C   UNL A   1      42.848  29.535  29.381  1.00  0.00     0.029 A 
ATOM     47  N   UNL A   1      41.325  30.909  30.316  1.00  0.00    -0.354 N 
ATOM     48  C   UNL A   1      42.021  25.685  28.277  1.00  0.00     0.074 A 
ATOM     49  C   UNL A   1      41.264  25.779  27.098  1.00  0.00     0.031 C 
ATOM     50  C   UNL A   1      43.444  30.177  30.397  1.00  0.00     0.029 A 
ATOM     51  C   UNL A   1      42.402  30.797  31.198  1.00  0.00     0.049 A 
ATOM     52  H   UNL A   1      40.634  31.611  30.315  1.00  0.00     0.167 HD
ATOM     53  C   UNL A   1      43.073  24.830  28.398  1.00  0.00     0.034 A 
ATOM     54  C   UNL A   1      42.205  30.660  32.539  1.00  0.00     0.034 A 
ATOM     55  C   UNL A   1      44.007  25.379  29.338  1.00  0.00     0.049 A 
ATOM     56  C   UNL A   1      42.905  29.459  33.137  1.00  0.00     0.074 A 
ATOM     57  C   UNL A   1      45.057  26.267  29.186  1.00  0.00     0.029 A 
ATOM     58  N   UNL A   1      43.678  25.352  30.671  1.00  0.00    -0.354 N 
ATOM     59  N   UNL A   1      43.507  28.527  32.449  1.00  0.00    -0.248 NA
ATOM     60  C   UNL A   1      42.988  29.215  34.574  1.00  0.00     0.031 C 
ATOM     61  C   UNL A   1      45.335  26.817  30.461  1.00  0.00     0.029 A 
ATOM     62  C   UNL A   1      44.484  26.222  31.376  1.00  0.00     0.049 A 
ATOM     63  H   UNL A   1      42.970  24.793  31.065  1.00  0.00     0.167 HD
ATOM     64  C   UNL A   1      43.896  27.508  33.287  1.00  0.00     0.074 A 
ATOM     65  C   UNL A   1      43.641  28.041  34.612  1.00  0.00     0.031 C 
ATOM     66  C   UNL A   1      44.318  26.294  32.814  1.00  0.00     0.034 A 
BRANCH  53  67
ATOM     67  C   UNL A   1      43.403  23.797  27.307  1.00  0.00     0.023 A 
ATOM     68  C   UNL A   1      44.036  24.246  26.132  1.00  0.00     0.012 A 
ATOM     69  C   UNL A   1      43.015  22.426  27.325  1.00  0.00     0.148 A 
ATOM     70  C   UNL A   1      44.158  23.434  24.995  1.00  0.00     0.002 A 
ATOM     71  C   UNL A   1      43.049  21.647  26.159  1.00  0.00     0.091 A 
ATOM     72  F   UNL A   1      42.576  21.883  28.473  1.00  0.00    -0.205 F 
ATOM     73  C   UNL A   1      43.624  22.152  24.991  1.00  0.00     0.022 A 
BRANCH  71  74
ATOM     74  S   UNL A   1      42.162  20.075  26.013  1.00  0.00     0.127 S 
ATOM     75  O   UNL A   1      42.252  19.529  27.372  1.00  0.00    -0.237 OA
ATOM     76  O   UNL A   1      40.817  20.490  25.624  1.00  0.00    -0.237 OA
ATOM     77  O   UNL A   1      42.908  19.297  25.031  1.00  0.00    -0.744 OA
ENDBRANCH  71  74
ENDBRANCH  53  67
BRANCH  54  78
ATOM     78  C   UNL A   1      40.979  31.356  33.066  1.00  0.00     0.023 A 
ATOM     79  C   UNL A   1      39.755  30.642  32.955  1.00  0.00     0.012 A 
ATOM     80  C   UNL A   1      41.001  32.504  33.882  1.00  0.00     0.148 A 
ATOM     81  C   UNL A   1      38.632  30.982  33.711  1.00  0.00     0.002 A 
ATOM     82  C   UNL A   1      39.865  32.850  34.630  1.00  0.00     0.091 A 
ATOM     83  F   UNL A   1      42.145  33.193  33.988  1.00  0.00    -0.205 F 
ATOM     84  C   UNL A   1      38.693  32.075  34.562  1.00  0.00     0.022 A 
BRANCH  82  85
ATOM     85  S   UNL A   1      39.824  34.207  35.821  1.00  0.00     0.127 S 
ATOM     86  O   UNL A   1      41.204  34.212  36.303  1.00  0.00    -0.237 OA
ATOM     87  O   UNL A   1      39.477  35.356  34.983  1.00  0.00    -0.237 OA
ATOM     88  O   UNL A   1      38.817  33.847  36.805  1.00  0.00    -0.744 OA
ENDBRANCH  82  85
ENDBRANCH  54  78
BRANCH  66  89
ATOM     89  C   UNL A   1      44.519  24.998  33.599  1.00  0.00     0.023 A 
ATOM     90  C   UNL A   1      43.643  23.908  33.501  1.00  0.00     0.012 A 
ATOM     91  C   UNL A   1      45.723  24.769  34.331  1.00  0.00     0.148 A 
ATOM     92  C   UNL A   1      43.928  22.669  34.091  1.00  0.00     0.002 A 
ATOM     93  C   UNL A   1      46.061  23.502  34.799  1.00  0.00     0.091 A 
ATOM     94  F   UNL A   1      46.561  25.782  34.598  1.00  0.00    -0.205 F 
ATOM     95  C   UNL A   1      45.152  22.452  34.706  1.00  0.00     0.022 A 
BRANCH  93  96
ATOM     96  S   UNL A   1      47.743  23.163  35.350  1.00  0.00     0.127 S 
ATOM     97  O   UNL A   1      48.545  23.667  34.239  1.00  0.00    -0.237 OA
ATOM     98  O   UNL A   1      47.848  23.955  36.578  1.00  0.00    -0.237 OA
ATOM     99  O   UNL A   1      47.761  21.722  35.567  1.00  0.00    -0.744 OA
ENDBRANCH  93  96
ENDBRANCH  66  89
ENDBRANCH  40  41
ENDBRANCH  33  35
ENDBRANCH  32  33
ENDBRANCH  31  32
ENDBRANCH  30  31
ENDBRANCH  29  30
ENDBRANCH   1  29
TORSDOF 22
ENDMDL
MODEL 3
REMARK VINA RESULT:     -11.0      4.091      9.936
REMARK SMILES Cc1ccc(S(=O)(=O)N2c3ccc(C(=O)OCCOCCOCCOC(=O)c4ccc(-c5c6nc(c(-c7cccc(S(=O)(=O)[O-])c7F)c7ccc([nH]7)c(-c7cccc(S(=O)(=O)[O-])c7F)c7nc(c(-c8cccc(S(=O)(=O)[O-])c8F)c8ccc5[nH]8)C=C7)C=C6)cc4)cc3C[C@H]2C)cc1
REMARK SMILES IDX 21 1 20 2 19 3 18 4 17 5 16 6 14 7 15 8 13 9 9 10 10 11
REMARK SMILES IDX 94 12 11 13 92 14 93 15 95 16 12 17 91 18 6 19 7 20 8 21
REMARK SMILES IDX 5 22 1 23 2 24 3 25 97 26 4 27 96 28 22 29 23 30 24 31 25 32
REMARK SMILES IDX 26 33 27 34 28 35 29 36 90 37 30 38 89 39 31 40 32 41 33 42
REMARK SMILES IDX 83 43 34 44 88 45 82 46 84 47 35 48 87 49 81 50 80 51 36 53
REMARK SMILES IDX 68 54 48 55 67 56 49 57 52 58 66 59 85 60 50 61 51 62 65 64
REMARK SMILES IDX 86 65 53 66 37 67 38 68 46 69 39 70 41 71 47 72 40 73 42 74
REMARK SMILES IDX 43 75 44 76 45 77 69 78 70 79 78 80 71 81 73 82 79 83 72 84
REMARK SMILES IDX 74 85 75 86 76 87 77 88 54 89 55 90 63 91 56 92 58 93 64 94
REMARK SMILES IDX 57 95 59 96 60 97 61 98 62 99
REMARK H PARENT 84 52 52 63
REMARK Flexibility Score: inf
ROOT
ATOM      1  C   UNL A   1      36.314  32.855  30.879  1.00  0.00     0.188 C 
ENDROOT
BRANCH   1   2
ATOM      2  C   UNL A   1      34.796  32.695  30.847  1.00  0.00     0.188 C 
BRANCH   2   3
ATOM      3  O   UNL A   1      33.985  33.464  29.931  1.00  0.00    -0.376 OA
BRANCH   3   4
ATOM      4  C   UNL A   1      34.142  33.462  28.490  1.00  0.00     0.202 C 
BRANCH   4   5
ATOM      5  C   UNL A   1      33.263  32.411  27.585  1.00  0.00     0.261 C 
BRANCH   5   6
ATOM      6  O   UNL A   1      33.511  30.767  27.340  1.00  0.00    -0.460 OA
BRANCH   6   7
ATOM      7  C   UNL A   1      32.771  29.757  26.652  1.00  0.00     0.338 C 
ATOM      8  O   UNL A   1      32.055  29.892  25.669  1.00  0.00    -0.246 OA
BRANCH   7   9
ATOM      9  C   UNL A   1      32.783  28.273  26.833  1.00  0.00     0.060 A 
ATOM     10  N   UNL A   1      32.628  24.203  25.502  1.00  0.00    -0.263 N 
ATOM     11  C   UNL A   1      32.546  25.578  25.965  1.00  0.00     0.055 A 
ATOM     12  C   UNL A   1      34.140  23.935  25.444  1.00  0.00     0.101 C 
ATOM     13  C   UNL A   1      31.424  26.272  26.401  1.00  0.00     0.028 A 
ATOM     14  C   UNL A   1      33.778  26.206  25.901  1.00  0.00    -0.021 A 
ATOM     15  C   UNL A   1      34.795  25.321  25.233  1.00  0.00     0.063 C 
ATOM     16  C   UNL A   1      34.571  23.335  26.793  1.00  0.00     0.032 C 
ATOM     17  C   UNL A   1      31.541  27.621  26.816  1.00  0.00     0.018 A 
ATOM     18  C   UNL A   1      33.893  27.539  26.290  1.00  0.00     0.021 A 
BRANCH  10  19
ATOM     19  S   UNL A   1      31.827  23.965  23.976  1.00  0.00     0.264 S 
ATOM     20  O   UNL A   1      32.559  24.660  22.939  1.00  0.00    -0.201 OA
ATOM     21  O   UNL A   1      30.402  24.146  24.168  1.00  0.00    -0.201 OA
BRANCH  19  22
ATOM     22  C   UNL A   1      31.992  22.226  23.578  1.00  0.00     0.088 A 
ATOM     23  C   UNL A   1      32.468  17.995  22.908  1.00  0.00     0.044 C 
ATOM     24  C   UNL A   1      32.297  19.469  23.135  1.00  0.00    -0.051 A 
ATOM     25  C   UNL A   1      32.336  19.981  24.436  1.00  0.00     0.005 A 
ATOM     26  C   UNL A   1      32.130  20.352  22.060  1.00  0.00     0.005 A 
ATOM     27  C   UNL A   1      32.179  21.350  24.658  1.00  0.00     0.022 A 
ATOM     28  C   UNL A   1      31.984  21.729  22.277  1.00  0.00     0.022 A 
ENDBRANCH  19  22
ENDBRANCH  10  19
ENDBRANCH   7   9
ENDBRANCH   6   7
ENDBRANCH   5   6
ENDBRANCH   4   5
ENDBRANCH   3   4
ENDBRANCH   2   3
ENDBRANCH   1   2
BRANCH   1  29
ATOM     29  O   UNL A   1      36.887  31.584  30.663  1.00  0.00    -0.376 OA
BRANCH  29  30
ATOM     30  C   UNL A   1      36.401  30.830  29.579  1.00  0.00     0.202 C 
BRANCH  30  31
ATOM     31  C   UNL A   1      37.010  29.422  29.581  1.00  0.00     0.261 C 
BRANCH  31  32
ATOM     32  O   UNL A   1      37.687  29.166  28.324  1.00  0.00    -0.460 OA
BRANCH  32  33
ATOM     33  C   UNL A   1      38.795  28.346  28.359  1.00  0.00     0.338 C 
ATOM     34  O   UNL A   1      38.771  27.207  28.810  1.00  0.00    -0.246 OA
BRANCH  33  35
ATOM     35  C   UNL A   1      40.049  29.127  28.032  1.00  0.00     0.060 A 
ATOM     36  C   UNL A   1      40.880  28.966  26.912  1.00  0.00     0.016 A 
ATOM     37  C   UNL A   1      40.637  29.756  29.075  1.00  0.00     0.016 A 
ATOM     38  C   UNL A   1      42.312  29.331  26.929  1.00  0.00     0.010 A 
ATOM     39  C   UNL A   1      42.039  29.753  29.080  1.00  0.00     0.010 A 
ATOM     40  C   UNL A   1      43.002  29.705  28.090  1.00  0.00    -0.014 A 
BRANCH  40  41
ATOM     41  C   UNL A   1      44.576  29.704  28.419  1.00  0.00     0.031 A 
ATOM     42  C   UNL A   1      45.834  30.749  28.143  1.00  0.00     0.074 A 
ATOM     43  C   UNL A   1      45.028  28.557  28.970  1.00  0.00     0.049 A 
ATOM     44  N   UNL A   1      46.951  30.422  27.510  1.00  0.00    -0.248 NA
ATOM     45  C   UNL A   1      45.998  32.180  28.574  1.00  0.00     0.031 C 
ATOM     46  C   UNL A   1      46.369  28.271  29.469  1.00  0.00     0.029 A 
ATOM     47  N   UNL A   1      44.379  27.318  29.004  1.00  0.00    -0.354 N 
ATOM     48  C   UNL A   1      47.806  31.548  27.490  1.00  0.00     0.074 A 
ATOM     49  C   UNL A   1      47.078  32.643  27.982  1.00  0.00     0.031 C 
ATOM     50  C   UNL A   1      46.544  26.940  29.457  1.00  0.00     0.029 A 
ATOM     51  C   UNL A   1      45.370  26.348  28.840  1.00  0.00     0.049 A 
ATOM     52  H   UNL A   1      43.414  27.162  29.120  1.00  0.00     0.167 HD
ATOM     53  C   UNL A   1      49.162  31.576  27.364  1.00  0.00     0.034 A 
ATOM     54  C   UNL A   1      45.343  25.483  27.788  1.00  0.00     0.034 A 
ATOM     55  C   UNL A   1      49.664  30.239  27.498  1.00  0.00     0.049 A 
ATOM     56  C   UNL A   1      46.623  25.467  26.980  1.00  0.00     0.074 A 
ATOM     57  C   UNL A   1      50.025  29.495  28.606  1.00  0.00     0.029 A 
ATOM     58  N   UNL A   1      49.466  29.365  26.458  1.00  0.00    -0.354 N 
ATOM     59  N   UNL A   1      47.615  26.301  27.137  1.00  0.00    -0.248 NA
ATOM     60  C   UNL A   1      46.892  24.494  25.926  1.00  0.00     0.031 C 
ATOM     61  C   UNL A   1      50.000  28.130  28.227  1.00  0.00     0.029 A 
ATOM     62  C   UNL A   1      49.672  28.068  26.884  1.00  0.00     0.049 A 
ATOM     63  H   UNL A   1      49.214  29.625  25.543  1.00  0.00     0.167 HD
ATOM     64  C   UNL A   1      48.546  26.109  26.143  1.00  0.00     0.074 A 
ATOM     65  C   UNL A   1      48.094  24.900  25.482  1.00  0.00     0.031 C 
ATOM     66  C   UNL A   1      49.557  27.003  25.908  1.00  0.00     0.034 A 
BRANCH  53  67
ATOM     67  C   UNL A   1      49.967  32.864  27.603  1.00  0.00     0.023 A 
ATOM     68  C   UNL A   1      50.263  33.231  28.930  1.00  0.00     0.012 A 
ATOM     69  C   UNL A   1      50.348  33.798  26.595  1.00  0.00     0.148 A 
ATOM     70  C   UNL A   1      50.777  34.494  29.257  1.00  0.00     0.002 A 
ATOM     71  C   UNL A   1      50.768  35.094  26.928  1.00  0.00     0.091 A 
ATOM     72  F   UNL A   1      50.266  33.439  25.303  1.00  0.00    -0.205 F 
ATOM     73  C   UNL A   1      50.985  35.442  28.264  1.00  0.00     0.022 A 
BRANCH  71  74
ATOM     74  S   UNL A   1      50.823  36.440  25.719  1.00  0.00     0.127 S 
ATOM     75  O   UNL A   1      51.158  37.603  26.549  1.00  0.00    -0.237 OA
ATOM     76  O   UNL A   1      51.891  36.026  24.813  1.00  0.00    -0.237 OA
ATOM     77  O   UNL A   1      49.482  36.507  25.149  1.00  0.00    -0.744 OA
ENDBRANCH  71  74
ENDBRANCH  53  67
BRANCH  54  78
ATOM     78  C   UNL A   1      43.963  25.117  27.313  1.00  0.00     0.023 A 
ATOM     79  C   UNL A   1      43.309  26.069  26.486  1.00  0.00     0.012 A 
ATOM     80  C   UNL A   1      43.405  23.825  27.399  1.00  0.00     0.148 A 
ATOM     81  C   UNL A   1      42.217  25.727  25.687  1.00  0.00     0.002 A 
ATOM     82  C   UNL A   1      42.299  23.489  26.603  1.00  0.00     0.091 A 
ATOM     83  F   UNL A   1      44.005  22.919  28.183  1.00  0.00    -0.205 F 
ATOM     84  C   UNL A   1      41.724  24.431  25.732  1.00  0.00     0.022 A 
BRANCH  82  85
ATOM     85  S   UNL A   1      41.594  21.828  26.516  1.00  0.00     0.127 S 
ATOM     86  O   UNL A   1      42.560  21.149  25.654  1.00  0.00    -0.237 OA
ATOM     87  O   UNL A   1      41.629  21.394  27.913  1.00  0.00    -0.237 OA
ATOM     88  O   UNL A   1      40.261  21.987  25.961  1.00  0.00    -0.744 OA
ENDBRANCH  82  85
ENDBRANCH  54  78
BRANCH  66  89
ATOM     89  C   UNL A   1      50.488  27.070  24.697  1.00  0.00     0.023 A 
ATOM     90  C   UNL A   1      51.856  26.770  24.775  1.00  0.00     0.012 A 
ATOM     91  C   UNL A   1      49.963  27.260  23.384  1.00  0.00     0.148 A 
ATOM     92  C   UNL A   1      52.661  26.671  23.632  1.00  0.00     0.002 A 
ATOM     93  C   UNL A   1      50.737  27.028  22.249  1.00  0.00     0.091 A 
ATOM     94  F   UNL A   1      48.701  27.682  23.209  1.00  0.00    -0.205 F 
ATOM     95  C   UNL A   1      52.097  26.760  22.368  1.00  0.00     0.022 A 
BRANCH  93  96
ATOM     96  S   UNL A   1      49.949  26.881  20.636  1.00  0.00     0.127 S 
ATOM     97  O   UNL A   1      49.499  28.246  20.380  1.00  0.00    -0.237 OA
ATOM     98  O   UNL A   1      51.048  26.436  19.776  1.00  0.00    -0.237 OA
ATOM     99  O   UNL A   1      48.909  25.879  20.839  1.00  0.00    -0.744 OA
ENDBRANCH  93  96
ENDBRANCH  66  89
ENDBRANCH  40  41
ENDBRANCH  33  35
ENDBRANCH  32  33
ENDBRANCH  31  32
ENDBRANCH  30  31
ENDBRANCH  29  30
ENDBRANCH   1  29
TORSDOF 22
ENDMDL
