MODEL 1
REMARK VINA RESULT:      -9.1      0.000      0.000
REMARK SMILES CCCCCC[C@@H](C)N1C[C@H](C(=O)OCCOCCOCCOC(=O)c2ccc(-c3c4nc(c(-c5cccc(S(=O)(=O)[O-])c5F)c5ccc([nH]5)c(-c5cccc(S(=O)(=O)[O-])c5F)c5nc(c(-c6cccc(S(=O)(=O)[O-])c6F)c6ccc3[nH]6)C=C5)C=C4)cc2)CC1=O
REMARK SMILES IDX 17 1 16 2 15 3 14 4 12 5 13 6 11 7 9 8 10 9 90 10 89 11
REMARK SMILES IDX 91 12 7 13 8 14 6 15 5 16 4 17 3 18 2 19 1 20 18 21 19 22
REMARK SMILES IDX 20 23 21 24 22 25 23 26 24 27 25 28 26 29 27 30 88 31 28 32
REMARK SMILES IDX 87 33 29 34 30 35 31 36 81 37 32 38 86 39 80 40 82 41 33 42
REMARK SMILES IDX 85 43 79 44 78 45 34 47 66 48 46 49 65 50 47 51 50 52 64 53
REMARK SMILES IDX 83 54 48 55 49 56 63 58 84 59 51 60 35 61 36 62 44 63 37 64
REMARK SMILES IDX 39 65 45 66 38 67 40 68 41 69 42 70 43 71 67 72 68 73 76 74
REMARK SMILES IDX 69 75 71 76 77 77 70 78 72 79 73 80 74 81 75 82 52 83 53 84
REMARK SMILES IDX 61 85 54 86 56 87 62 88 55 89 57 90 58 91 59 92 60 93
REMARK H PARENT 82 46 50 57
REMARK Flexibility Score: inf
ROOT
ATOM      1  O   UNL A   1      34.719  21.651  24.191  1.00  0.00    -0.376 OA
ENDROOT
BRANCH   1   2
ATOM      2  C   UNL A   1      34.045  21.134  25.325  1.00  0.00     0.202 C 
BRANCH   2   3
ATOM      3  C   UNL A   1      32.715  21.737  25.817  1.00  0.00     0.261 C 
BRANCH   3   4
ATOM      4  O   UNL A   1      31.682  21.862  24.834  1.00  0.00    -0.463 OA
BRANCH   4   5
ATOM      5  C   UNL A   1      31.495  23.072  24.238  1.00  0.00     0.311 C 
ATOM      6  O   UNL A   1      30.955  23.230  23.156  1.00  0.00    -0.252 OA
BRANCH   5   7
ATOM      7  C   UNL A   1      31.920  24.190  25.189  1.00  0.00     0.128 C 
ATOM      8  N   UNL A   1      31.720  26.147  23.935  1.00  0.00    -0.339 N 
ATOM      9  C   UNL A   1      32.727  25.256  24.473  1.00  0.00     0.135 C 
ATOM     10  C   UNL A   1      30.497  25.933  24.586  1.00  0.00     0.223 C 
ATOM     11  C   UNL A   1      30.734  24.970  25.715  1.00  0.00     0.117 C 
ATOM     12  O   UNL A   1      29.406  26.418  24.330  1.00  0.00    -0.275 OA
BRANCH   8  13
ATOM     13  C   UNL A   1      31.893  26.823  22.636  1.00  0.00     0.082 C 
ATOM     14  C   UNL A   1      33.042  26.219  21.808  1.00  0.00     0.031 C 
BRANCH  13  15
ATOM     15  C   UNL A   1      32.098  28.347  22.762  1.00  0.00     0.025 C 
BRANCH  15  16
ATOM     16  C   UNL A   1      33.294  28.777  23.620  1.00  0.00     0.002 C 
BRANCH  16  17
ATOM     17  C   UNL A   1      32.926  29.364  24.989  1.00  0.00     0.000 C 
BRANCH  17  18
ATOM     18  C   UNL A   1      33.629  28.724  26.193  1.00  0.00    -0.000 C 
BRANCH  18  19
ATOM     19  C   UNL A   1      32.790  27.709  26.976  1.00  0.00    -0.003 C 
ATOM     20  C   UNL A   1      31.565  28.322  27.634  1.00  0.00     0.004 C 
ENDBRANCH  18  19
ENDBRANCH  17  18
ENDBRANCH  16  17
ENDBRANCH  15  16
ENDBRANCH  13  15
ENDBRANCH   8  13
ENDBRANCH   5   7
ENDBRANCH   4   5
ENDBRANCH   3   4
ENDBRANCH   2   3
ENDBRANCH   1   2
BRANCH   1  21
ATOM     21  C   UNL A   1      35.707  22.642  24.384  1.00  0.00     0.188 C 
BRANCH  21  22
ATOM     22  C   UNL A   1      37.143  22.066  24.337  1.00  0.00     0.188 C 
BRANCH  22  23
ATOM     23  O   UNL A   1      37.565  21.141  25.327  1.00  0.00    -0.376 OA
BRANCH  23  24
ATOM     24  C   UNL A   1      38.109  19.896  24.908  1.00  0.00     0.202 C 
BRANCH  24  25
ATOM     25  C   UNL A   1      39.222  19.189  25.713  1.00  0.00     0.261 C 
BRANCH  25  26
ATOM     26  O   UNL A   1      40.551  19.727  25.616  1.00  0.00    -0.460 OA
BRANCH  26  27
ATOM     27  C   UNL A   1      41.220  19.883  26.787  1.00  0.00     0.338 C 
ATOM     28  O   UNL A   1      41.826  19.021  27.402  1.00  0.00    -0.246 OA
BRANCH  27  29
ATOM     29  C   UNL A   1      41.297  21.320  27.136  1.00  0.00     0.060 A 
ATOM     30  C   UNL A   1      40.867  22.268  26.192  1.00  0.00     0.016 A 
ATOM     31  C   UNL A   1      41.832  21.737  28.353  1.00  0.00     0.016 A 
ATOM     32  C   UNL A   1      40.989  23.632  26.455  1.00  0.00     0.010 A 
ATOM     33  C   UNL A   1      41.981  23.107  28.604  1.00  0.00     0.010 A 
ATOM     34  C   UNL A   1      41.588  24.061  27.645  1.00  0.00    -0.014 A 
BRANCH  34  35
ATOM     35  C   UNL A   1      41.968  25.487  27.813  1.00  0.00     0.031 A 
ATOM     36  C   UNL A   1      43.339  25.925  27.371  1.00  0.00     0.074 A 
ATOM     37  C   UNL A   1      41.122  26.379  28.360  1.00  0.00     0.049 A 
ATOM     38  N   UNL A   1      43.915  27.093  27.487  1.00  0.00    -0.248 NA
ATOM     39  C   UNL A   1      44.173  24.905  26.713  1.00  0.00     0.031 C 
ATOM     40  C   UNL A   1      39.763  26.089  28.813  1.00  0.00     0.029 A 
ATOM     41  N   UNL A   1      41.301  27.709  28.655  1.00  0.00    -0.354 N 
ATOM     42  C   UNL A   1      45.190  26.941  26.954  1.00  0.00     0.074 A 
ATOM     43  C   UNL A   1      45.305  25.566  26.519  1.00  0.00     0.031 C 
ATOM     44  C   UNL A   1      39.245  27.199  29.367  1.00  0.00     0.029 A 
ATOM     45  C   UNL A   1      40.243  28.267  29.335  1.00  0.00     0.049 A 
ATOM     46  H   UNL A   1      42.108  28.214  28.406  1.00  0.00     0.167 HD
ATOM     47  C   UNL A   1      46.174  27.862  26.829  1.00  0.00     0.034 A 
ATOM     48  C   UNL A   1      40.110  29.486  29.897  1.00  0.00     0.034 A 
ATOM     49  C   UNL A   1      46.058  29.231  27.254  1.00  0.00     0.049 A 
ATOM     50  C   UNL A   1      41.235  30.484  29.780  1.00  0.00     0.074 A 
ATOM     51  C   UNL A   1      46.985  30.251  27.129  1.00  0.00     0.029 A 
ATOM     52  N   UNL A   1      44.958  29.769  27.902  1.00  0.00    -0.354 N 
ATOM     53  N   UNL A   1      42.394  30.358  29.179  1.00  0.00    -0.248 NA
ATOM     54  C   UNL A   1      41.021  31.804  30.393  1.00  0.00     0.031 C 
ATOM     55  C   UNL A   1      46.461  31.395  27.740  1.00  0.00     0.029 A 
ATOM     56  C   UNL A   1      45.188  31.101  28.200  1.00  0.00     0.049 A 
ATOM     57  H   UNL A   1      44.134  29.276  28.120  1.00  0.00     0.167 HD
ATOM     58  C   UNL A   1      43.027  31.591  29.306  1.00  0.00     0.074 A 
ATOM     59  C   UNL A   1      42.117  32.455  30.026  1.00  0.00     0.031 C 
ATOM     60  C   UNL A   1      44.255  31.970  28.873  1.00  0.00     0.034 A 
BRANCH  47  61
ATOM     61  C   UNL A   1      47.470  27.420  26.199  1.00  0.00     0.023 A 
ATOM     62  C   UNL A   1      48.452  26.784  26.984  1.00  0.00     0.012 A 
ATOM     63  C   UNL A   1      47.691  27.589  24.818  1.00  0.00     0.148 A 
ATOM     64  C   UNL A   1      49.650  26.355  26.412  1.00  0.00     0.002 A 
ATOM     65  C   UNL A   1      48.866  27.116  24.247  1.00  0.00     0.091 A 
ATOM     66  F   UNL A   1      46.754  28.216  24.092  1.00  0.00    -0.205 F 
ATOM     67  C   UNL A   1      49.852  26.512  25.044  1.00  0.00     0.022 A 
BRANCH  65  68
ATOM     68  S   UNL A   1      49.186  27.196  22.481  1.00  0.00     0.127 S 
ATOM     69  O   UNL A   1      48.401  26.064  21.989  1.00  0.00    -0.237 OA
ATOM     70  O   UNL A   1      48.645  28.510  22.132  1.00  0.00    -0.237 OA
ATOM     71  O   UNL A   1      50.628  27.069  22.326  1.00  0.00    -0.744 OA
ENDBRANCH  65  68
ENDBRANCH  47  61
BRANCH  48  72
ATOM     72  C   UNL A   1      38.856  29.844  30.620  1.00  0.00     0.023 A 
ATOM     73  C   UNL A   1      38.615  29.320  31.904  1.00  0.00     0.012 A 
ATOM     74  C   UNL A   1      37.899  30.699  30.037  1.00  0.00     0.148 A 
ATOM     75  C   UNL A   1      37.431  29.613  32.581  1.00  0.00     0.002 A 
ATOM     76  C   UNL A   1      36.748  31.033  30.740  1.00  0.00     0.091 A 
ATOM     77  F   UNL A   1      38.140  31.174  28.807  1.00  0.00    -0.205 F 
ATOM     78  C   UNL A   1      36.503  30.476  32.005  1.00  0.00     0.022 A 
BRANCH  76  79
ATOM     79  S   UNL A   1      35.555  32.227  30.128  1.00  0.00     0.127 S 
ATOM     80  O   UNL A   1      34.524  32.176  31.161  1.00  0.00    -0.237 OA
ATOM     81  O   UNL A   1      36.347  33.457  30.108  1.00  0.00    -0.237 OA
ATOM     82  O   UNL A   1      35.154  31.747  28.813  1.00  0.00    -0.744 OA
ENDBRANCH  76  79
ENDBRANCH  48  72
BRANCH  60  83
ATOM     83  C   UNL A   1      44.679  33.398  29.109  1.00  0.00     0.023 A 
ATOM     84  C   UNL A   1      44.376  34.396  28.160  1.00  0.00     0.012 A 
ATOM     85  C   UNL A   1      45.313  33.764  30.314  1.00  0.00     0.148 A 
ATOM     86  C   UNL A   1      44.731  35.725  28.390  1.00  0.00     0.002 A 
ATOM     87  C   UNL A   1      45.614  35.098  30.560  1.00  0.00     0.091 A 
ATOM     88  F   UNL A   1      45.606  32.800  31.199  1.00  0.00    -0.205 F 
ATOM     89  C   UNL A   1      45.338  36.078  29.593  1.00  0.00     0.022 A 
BRANCH  87  90
ATOM     90  S   UNL A   1      46.305  35.660  32.120  1.00  0.00     0.127 S 
ATOM     91  O   UNL A   1      46.399  37.103  31.902  1.00  0.00    -0.237 OA
ATOM     92  O   UNL A   1      45.276  35.255  33.078  1.00  0.00    -0.237 OA
ATOM     93  O   UNL A   1      47.579  34.970  32.271  1.00  0.00    -0.744 OA
ENDBRANCH  87  90
ENDBRANCH  60  83
ENDBRANCH  34  35
ENDBRANCH  27  29
ENDBRANCH  26  27
ENDBRANCH  25  26
ENDBRANCH  24  25
ENDBRANCH  23  24
ENDBRANCH  22  23
ENDBRANCH  21  22
ENDBRANCH   1  21
TORSDOF 26
ENDMDL
MODEL 2
REMARK VINA RESULT:      -8.5      1.893      2.635
REMARK SMILES CCCCCC[C@@H](C)N1C[C@H](C(=O)OCCOCCOCCOC(=O)c2ccc(-c3c4nc(c(-c5cccc(S(=O)(=O)[O-])c5F)c5ccc([nH]5)c(-c5cccc(S(=O)(=O)[O-])c5F)c5nc(c(-c6cccc(S(=O)(=O)[O-])c6F)c6ccc3[nH]6)C=C5)C=C4)cc2)CC1=O
REMARK SMILES IDX 17 1 16 2 15 3 14 4 12 5 13 6 11 7 9 8 10 9 90 10 89 11
REMARK SMILES IDX 91 12 7 13 8 14 6 15 5 16 4 17 3 18 2 19 1 20 18 21 19 22
REMARK SMILES IDX 20 23 21 24 22 25 23 26 24 27 25 28 26 29 27 30 88 31 28 32
REMARK SMILES IDX 87 33 29 34 30 35 31 36 81 37 32 38 86 39 80 40 82 41 33 42
REMARK SMILES IDX 85 43 79 44 78 45 34 47 66 48 46 49 65 50 47 51 50 52 64 53
REMARK SMILES IDX 83 54 48 55 49 56 63 58 84 59 51 60 35 61 36 62 44 63 37 64
REMARK SMILES IDX 39 65 45 66 38 67 40 68 41 69 42 70 43 71 67 72 68 73 76 74
REMARK SMILES IDX 69 75 71 76 77 77 70 78 72 79 73 80 74 81 75 82 52 83 53 84
REMARK SMILES IDX 61 85 54 86 56 87 62 88 55 89 57 90 58 91 59 92 60 93
REMARK H PARENT 82 46 50 57
REMARK Flexibility Score: inf
ROOT
ATOM      1  O   UNL A   1      34.113  22.012  23.915  1.00  0.00    -0.376 OA
ENDROOT
BRANCH   1   2
ATOM      2  C   UNL A   1      33.694  21.448  25.146  1.00  0.00     0.202 C 
BRANCH   2   3
ATOM      3  C   UNL A   1      32.319  21.778  25.758  1.00  0.00     0.261 C 
BRANCH   3   4
ATOM      4  O   UNL A   1      31.334  22.286  24.851  1.00  0.00    -0.463 OA
BRANCH   4   5
ATOM      5  C   UNL A   1      31.204  23.635  24.723  1.00  0.00     0.311 C 
ATOM      6  O   UNL A   1      31.339  24.243  23.673  1.00  0.00    -0.252 OA
BRANCH   5   7
ATOM      7  C   UNL A   1      30.720  24.238  26.040  1.00  0.00     0.128 C 
ATOM      8  N   UNL A   1      32.034  26.141  26.345  1.00  0.00    -0.339 N 
ATOM      9  C   UNL A   1      31.871  24.796  26.856  1.00  0.00     0.135 C 
ATOM     10  C   UNL A   1      30.885  26.526  25.640  1.00  0.00     0.223 C 
ATOM     11  C   UNL A   1      29.847  25.455  25.822  1.00  0.00     0.117 C 
ATOM     12  O   UNL A   1      30.701  27.540  24.984  1.00  0.00    -0.275 OA
BRANCH   8  13
ATOM     13  C   UNL A   1      33.361  26.776  26.233  1.00  0.00     0.082 C 
ATOM     14  C   UNL A   1      33.343  28.254  26.662  1.00  0.00     0.031 C 
BRANCH  13  15
ATOM     15  C   UNL A   1      33.977  26.659  24.823  1.00  0.00     0.025 C 
BRANCH  15  16
ATOM     16  C   UNL A   1      33.965  27.950  23.995  1.00  0.00     0.002 C 
BRANCH  16  17
ATOM     17  C   UNL A   1      33.297  27.826  22.620  1.00  0.00     0.000 C 
BRANCH  17  18
ATOM     18  C   UNL A   1      33.063  26.393  22.124  1.00  0.00    -0.000 C 
BRANCH  18  19
ATOM     19  C   UNL A   1      32.881  26.246  20.611  1.00  0.00    -0.003 C 
ATOM     20  C   UNL A   1      32.697  24.805  20.164  1.00  0.00     0.004 C 
ENDBRANCH  18  19
ENDBRANCH  17  18
ENDBRANCH  16  17
ENDBRANCH  15  16
ENDBRANCH  13  15
ENDBRANCH   8  13
ENDBRANCH   5   7
ENDBRANCH   4   5
ENDBRANCH   3   4
ENDBRANCH   2   3
ENDBRANCH   1   2
BRANCH   1  21
ATOM     21  C   UNL A   1      35.156  22.963  23.927  1.00  0.00     0.188 C 
BRANCH  21  22
ATOM     22  C   UNL A   1      36.557  22.308  23.853  1.00  0.00     0.188 C 
BRANCH  22  23
ATOM     23  O   UNL A   1      37.012  21.491  24.921  1.00  0.00    -0.376 OA
BRANCH  23  24
ATOM     24  C   UNL A   1      37.510  20.194  24.621  1.00  0.00     0.202 C 
BRANCH  24  25
ATOM     25  C   UNL A   1      38.540  19.494  25.535  1.00  0.00     0.261 C 
BRANCH  25  26
ATOM     26  O   UNL A   1      39.930  19.782  25.307  1.00  0.00    -0.460 OA
BRANCH  26  27
ATOM     27  C   UNL A   1      40.719  19.829  26.412  1.00  0.00     0.338 C 
ATOM     28  O   UNL A   1      41.350  18.905  26.897  1.00  0.00    -0.246 OA
BRANCH  27  29
ATOM     29  C   UNL A   1      40.886  21.232  26.852  1.00  0.00     0.060 A 
ATOM     30  C   UNL A   1      40.277  22.252  26.102  1.00  0.00     0.016 A 
ATOM     31  C   UNL A   1      41.673  21.550  27.957  1.00  0.00     0.016 A 
ATOM     32  C   UNL A   1      40.469  23.591  26.444  1.00  0.00     0.010 A 
ATOM     33  C   UNL A   1      41.889  22.896  28.281  1.00  0.00     0.010 A 
ATOM     34  C   UNL A   1      41.314  23.924  27.510  1.00  0.00    -0.014 A 
BRANCH  34  35
ATOM     35  C   UNL A   1      41.738  25.333  27.709  1.00  0.00     0.031 A 
ATOM     36  C   UNL A   1      43.127  25.734  27.287  1.00  0.00     0.074 A 
ATOM     37  C   UNL A   1      40.916  26.242  28.266  1.00  0.00     0.049 A 
ATOM     38  N   UNL A   1      43.740  26.880  27.432  1.00  0.00    -0.248 NA
ATOM     39  C   UNL A   1      43.933  24.700  26.617  1.00  0.00     0.031 C 
ATOM     40  C   UNL A   1      39.545  25.987  28.702  1.00  0.00     0.029 A 
ATOM     41  N   UNL A   1      41.136  27.558  28.589  1.00  0.00    -0.354 N 
ATOM     42  C   UNL A   1      45.014  26.697  26.907  1.00  0.00     0.074 A 
ATOM     43  C   UNL A   1      45.087  25.327  26.446  1.00  0.00     0.031 C 
ATOM     44  C   UNL A   1      39.058  27.103  29.272  1.00  0.00     0.029 A 
ATOM     45  C   UNL A   1      40.091  28.138  29.271  1.00  0.00     0.049 A 
ATOM     46  H   UNL A   1      41.962  28.042  28.357  1.00  0.00     0.167 HD
ATOM     47  C   UNL A   1      46.029  27.587  26.809  1.00  0.00     0.034 A 
ATOM     48  C   UNL A   1      39.992  29.349  29.855  1.00  0.00     0.034 A 
ATOM     49  C   UNL A   1      45.953  28.950  27.259  1.00  0.00     0.049 A 
ATOM     50  C   UNL A   1      41.150  30.312  29.767  1.00  0.00     0.074 A 
ATOM     51  C   UNL A   1      46.914  29.942  27.162  1.00  0.00     0.029 A 
ATOM     52  N   UNL A   1      44.865  29.512  27.908  1.00  0.00    -0.354 N 
ATOM     53  N   UNL A   1      42.310  30.160  29.175  1.00  0.00    -0.248 NA
ATOM     54  C   UNL A   1      40.974  31.626  30.405  1.00  0.00     0.031 C 
ATOM     55  C   UNL A   1      46.422  31.090  27.792  1.00  0.00     0.029 A 
ATOM     56  C   UNL A   1      45.136  30.830  28.235  1.00  0.00     0.049 A 
ATOM     57  H   UNL A   1      44.023  29.042  28.110  1.00  0.00     0.167 HD
ATOM     58  C   UNL A   1      42.982  31.369  29.331  1.00  0.00     0.074 A 
ATOM     59  C   UNL A   1      42.094  32.248  30.060  1.00  0.00     0.031 C 
ATOM     60  C   UNL A   1      44.226  31.715  28.916  1.00  0.00     0.034 A 
BRANCH  47  61
ATOM     61  C   UNL A   1      47.315  27.115  26.181  1.00  0.00     0.023 A 
ATOM     62  C   UNL A   1      47.555  27.348  24.812  1.00  0.00     0.012 A 
ATOM     63  C   UNL A   1      48.306  26.488  26.960  1.00  0.00     0.148 A 
ATOM     64  C   UNL A   1      48.747  26.931  24.219  1.00  0.00     0.002 A 
ATOM     65  C   UNL A   1      49.511  26.119  26.374  1.00  0.00     0.091 A 
ATOM     66  F   UNL A   1      48.051  26.256  28.255  1.00  0.00    -0.205 F 
ATOM     67  C   UNL A   1      49.727  26.327  25.001  1.00  0.00     0.022 A 
BRANCH  65  68
ATOM     68  S   UNL A   1      50.869  25.410  27.311  1.00  0.00     0.127 S 
ATOM     69  O   UNL A   1      51.227  26.519  28.195  1.00  0.00    -0.237 OA
ATOM     70  O   UNL A   1      50.220  24.282  27.980  1.00  0.00    -0.237 OA
ATOM     71  O   UNL A   1      51.883  25.038  26.335  1.00  0.00    -0.744 OA
ENDBRANCH  65  68
ENDBRANCH  47  61
BRANCH  48  72
ATOM     72  C   UNL A   1      38.744  29.734  30.574  1.00  0.00     0.023 A 
ATOM     73  C   UNL A   1      38.481  29.204  31.852  1.00  0.00     0.012 A 
ATOM     74  C   UNL A   1      37.815  30.621  29.994  1.00  0.00     0.148 A 
ATOM     75  C   UNL A   1      37.301  29.523  32.524  1.00  0.00     0.002 A 
ATOM     76  C   UNL A   1      36.669  30.979  30.693  1.00  0.00     0.091 A 
ATOM     77  F   UNL A   1      38.076  31.102  28.770  1.00  0.00    -0.205 F 
ATOM     78  C   UNL A   1      36.401  30.416  31.951  1.00  0.00     0.022 A 
BRANCH  76  79
ATOM     79  S   UNL A   1      35.513  32.212  30.087  1.00  0.00     0.127 S 
ATOM     80  O   UNL A   1      34.862  31.498  28.991  1.00  0.00    -0.237 OA
ATOM     81  O   UNL A   1      34.671  32.436  31.262  1.00  0.00    -0.237 OA
ATOM     82  O   UNL A   1      36.324  33.357  29.698  1.00  0.00    -0.744 OA
ENDBRANCH  76  79
ENDBRANCH  48  72
BRANCH  60  83
ATOM     83  C   UNL A   1      44.694  33.124  29.184  1.00  0.00     0.023 A 
ATOM     84  C   UNL A   1      45.361  33.435  30.386  1.00  0.00     0.012 A 
ATOM     85  C   UNL A   1      44.537  34.126  28.205  1.00  0.00     0.148 A 
ATOM     86  C   UNL A   1      45.830  34.727  30.624  1.00  0.00     0.002 A 
ATOM     87  C   UNL A   1      45.055  35.396  28.425  1.00  0.00     0.091 A 
ATOM     88  F   UNL A   1      43.887  33.817  27.073  1.00  0.00    -0.205 F 
ATOM     89  C   UNL A   1      45.689  35.703  29.640  1.00  0.00     0.022 A 
BRANCH  87  90
ATOM     90  S   UNL A   1      45.009  36.689  27.177  1.00  0.00     0.127 S 
ATOM     91  O   UNL A   1      45.524  37.838  27.920  1.00  0.00    -0.237 OA
ATOM     92  O   UNL A   1      45.917  36.166  26.157  1.00  0.00    -0.237 OA
ATOM     93  O   UNL A   1      43.619  36.793  26.755  1.00  0.00    -0.744 OA
ENDBRANCH  87  90
ENDBRANCH  60  83
ENDBRANCH  34  35
ENDBRANCH  27  29
ENDBRANCH  26  27
ENDBRANCH  25  26
ENDBRANCH  24  25
ENDBRANCH  23  24
ENDBRANCH  22  23
ENDBRANCH  21  22
ENDBRANCH   1  21
TORSDOF 26
ENDMDL
MODEL 3
REMARK VINA RESULT:      -8.0      3.129      8.323
REMARK SMILES CCCCCC[C@@H](C)N1C[C@H](C(=O)OCCOCCOCCOC(=O)c2ccc(-c3c4nc(c(-c5cccc(S(=O)(=O)[O-])c5F)c5ccc([nH]5)c(-c5cccc(S(=O)(=O)[O-])c5F)c5nc(c(-c6cccc(S(=O)(=O)[O-])c6F)c6ccc3[nH]6)C=C5)C=C4)cc2)CC1=O
REMARK SMILES IDX 17 1 16 2 15 3 14 4 12 5 13 6 11 7 9 8 10 9 90 10 89 11
REMARK SMILES IDX 91 12 7 13 8 14 6 15 5 16 4 17 3 18 2 19 1 20 18 21 19 22
REMARK SMILES IDX 20 23 21 24 22 25 23 26 24 27 25 28 26 29 27 30 88 31 28 32
REMARK SMILES IDX 87 33 29 34 30 35 31 36 81 37 32 38 86 39 80 40 82 41 33 42
REMARK SMILES IDX 85 43 79 44 78 45 34 47 66 48 46 49 65 50 47 51 50 52 64 53
REMARK SMILES IDX 83 54 48 55 49 56 63 58 84 59 51 60 35 61 36 62 44 63 37 64
REMARK SMILES IDX 39 65 45 66 38 67 40 68 41 69 42 70 43 71 67 72 68 73 76 74
REMARK SMILES IDX 69 75 71 76 77 77 70 78 72 79 73 80 74 81 75 82 52 83 53 84
REMARK SMILES IDX 61 85 54 86 56 87 62 88 55 89 57 90 58 91 59 92 60 93
REMARK H PARENT 82 46 50 57
REMARK Flexibility Score: inf
ROOT
ATOM      1  O   UNL A   1      37.655  23.509  26.505  1.00  0.00    -0.376 OA
ENDROOT
BRANCH   1   2
ATOM      2  C   UNL A   1      36.960  23.332  25.283  1.00  0.00     0.202 C 
BRANCH   2   3
ATOM      3  C   UNL A   1      35.608  24.022  25.016  1.00  0.00     0.261 C 
BRANCH   3   4
ATOM      4  O   UNL A   1      34.530  23.642  25.878  1.00  0.00    -0.463 OA
BRANCH   4   5
ATOM      5  C   UNL A   1      33.478  22.963  25.342  1.00  0.00     0.311 C 
ATOM      6  O   UNL A   1      33.586  22.048  24.542  1.00  0.00    -0.252 OA
BRANCH   5   7
ATOM      7  C   UNL A   1      32.177  23.412  26.004  1.00  0.00     0.128 C 
ATOM      8  N   UNL A   1      31.708  25.488  25.049  1.00  0.00    -0.339 N 
ATOM      9  C   UNL A   1      32.180  24.903  26.287  1.00  0.00     0.135 C 
ATOM     10  C   UNL A   1      31.079  24.509  24.268  1.00  0.00     0.223 C 
ATOM     11  C   UNL A   1      30.985  23.251  25.085  1.00  0.00     0.117 C 
ATOM     12  O   UNL A   1      30.657  24.605  23.125  1.00  0.00    -0.275 OA
BRANCH   8  13
ATOM     13  C   UNL A   1      32.217  26.782  24.556  1.00  0.00     0.082 C 
ATOM     14  C   UNL A   1      33.592  27.137  25.151  1.00  0.00     0.031 C 
BRANCH  13  15
ATOM     15  C   UNL A   1      31.239  27.953  24.790  1.00  0.00     0.025 C 
BRANCH  15  16
ATOM     16  C   UNL A   1      30.103  28.070  23.767  1.00  0.00     0.002 C 
BRANCH  16  17
ATOM     17  C   UNL A   1      30.168  29.314  22.873  1.00  0.00     0.000 C 
BRANCH  17  18
ATOM     18  C   UNL A   1      28.854  29.700  22.180  1.00  0.00    -0.000 C 
BRANCH  18  19
ATOM     19  C   UNL A   1      27.705  30.075  23.121  1.00  0.00    -0.003 C 
ATOM     20  C   UNL A   1      27.677  31.553  23.476  1.00  0.00     0.004 C 
ENDBRANCH  18  19
ENDBRANCH  17  18
ENDBRANCH  16  17
ENDBRANCH  15  16
ENDBRANCH  13  15
ENDBRANCH   8  13
ENDBRANCH   5   7
ENDBRANCH   4   5
ENDBRANCH   3   4
ENDBRANCH   2   3
ENDBRANCH   1   2
BRANCH   1  21
ATOM     21  C   UNL A   1      38.870  24.227  26.495  1.00  0.00     0.188 C 
BRANCH  21  22
ATOM     22  C   UNL A   1      39.976  23.535  27.328  1.00  0.00     0.188 C 
BRANCH  22  23
ATOM     23  O   UNL A   1      40.775  22.521  26.737  1.00  0.00    -0.376 OA
BRANCH  23  24
ATOM     24  C   UNL A   1      40.564  21.172  27.132  1.00  0.00     0.202 C 
BRANCH  24  25
ATOM     25  C   UNL A   1      41.489  20.034  26.646  1.00  0.00     0.261 C 
BRANCH  25  26
ATOM     26  O   UNL A   1      42.070  20.169  25.338  1.00  0.00    -0.460 OA
BRANCH  26  27
ATOM     27  C   UNL A   1      43.424  20.086  25.274  1.00  0.00     0.338 C 
ATOM     28  O   UNL A   1      44.080  19.116  24.933  1.00  0.00    -0.246 OA
BRANCH  27  29
ATOM     29  C   UNL A   1      44.020  21.425  25.482  1.00  0.00     0.060 A 
ATOM     30  C   UNL A   1      44.918  21.606  26.547  1.00  0.00     0.016 A 
ATOM     31  C   UNL A   1      43.666  22.503  24.673  1.00  0.00     0.016 A 
ATOM     32  C   UNL A   1      45.447  22.869  26.818  1.00  0.00     0.010 A 
ATOM     33  C   UNL A   1      44.175  23.775  24.964  1.00  0.00     0.010 A 
ATOM     34  C   UNL A   1      45.044  23.971  26.055  1.00  0.00    -0.014 A 
BRANCH  34  35
ATOM     35  C   UNL A   1      45.384  25.346  26.501  1.00  0.00     0.031 A 
ATOM     36  C   UNL A   1      44.276  26.240  26.992  1.00  0.00     0.074 A 
ATOM     37  C   UNL A   1      46.648  25.805  26.460  1.00  0.00     0.049 A 
ATOM     38  N   UNL A   1      44.321  27.494  27.357  1.00  0.00    -0.248 NA
ATOM     39  C   UNL A   1      42.935  25.635  27.077  1.00  0.00     0.031 C 
ATOM     40  C   UNL A   1      47.813  25.039  26.023  1.00  0.00     0.029 A 
ATOM     41  N   UNL A   1      47.153  27.046  26.764  1.00  0.00    -0.354 N 
ATOM     42  C   UNL A   1      43.014  27.842  27.679  1.00  0.00     0.074 A 
ATOM     43  C   UNL A   1      42.198  26.667  27.459  1.00  0.00     0.031 C 
ATOM     44  C   UNL A   1      48.893  25.839  26.049  1.00  0.00     0.029 A 
ATOM     45  C   UNL A   1      48.491  27.179  26.473  1.00  0.00     0.049 A 
ATOM     46  H   UNL A   1      46.611  27.770  27.151  1.00  0.00     0.167 HD
ATOM     47  C   UNL A   1      42.535  29.027  28.124  1.00  0.00     0.034 A 
ATOM     48  C   UNL A   1      49.290  28.265  26.511  1.00  0.00     0.034 A 
ATOM     49  C   UNL A   1      43.346  30.193  28.349  1.00  0.00     0.049 A 
ATOM     50  C   UNL A   1      48.727  29.586  26.973  1.00  0.00     0.074 A 
ATOM     51  C   UNL A   1      42.959  31.427  28.842  1.00  0.00     0.029 A 
ATOM     52  N   UNL A   1      44.703  30.278  28.081  1.00  0.00    -0.354 N 
ATOM     53  N   UNL A   1      47.511  29.872  27.374  1.00  0.00    -0.248 NA
ATOM     54  C   UNL A   1      49.653  30.728  27.015  1.00  0.00     0.031 C 
ATOM     55  C   UNL A   1      44.075  32.272  28.830  1.00  0.00     0.029 A 
ATOM     56  C   UNL A   1      45.167  31.548  28.379  1.00  0.00     0.049 A 
ATOM     57  H   UNL A   1      45.256  29.544  27.728  1.00  0.00     0.167 HD
ATOM     58  C   UNL A   1      47.539  31.211  27.755  1.00  0.00     0.074 A 
ATOM     59  C   UNL A   1      48.895  31.674  27.552  1.00  0.00     0.031 C 
ATOM     60  C   UNL A   1      46.530  31.987  28.222  1.00  0.00     0.034 A 
BRANCH  47  61
ATOM     61  C   UNL A   1      41.057  29.124  28.404  1.00  0.00     0.023 A 
ATOM     62  C   UNL A   1      40.145  29.233  27.335  1.00  0.00     0.012 A 
ATOM     63  C   UNL A   1      40.571  29.054  29.724  1.00  0.00     0.148 A 
ATOM     64  C   UNL A   1      38.773  29.308  27.578  1.00  0.00     0.002 A 
ATOM     65  C   UNL A   1      39.201  29.080  29.955  1.00  0.00     0.091 A 
ATOM     66  F   UNL A   1      41.455  28.972  30.728  1.00  0.00    -0.205 F 
ATOM     67  C   UNL A   1      38.302  29.221  28.884  1.00  0.00     0.022 A 
BRANCH  65  68
ATOM     68  S   UNL A   1      38.490  28.892  31.593  1.00  0.00     0.127 S 
ATOM     69  O   UNL A   1      37.058  28.943  31.300  1.00  0.00    -0.237 OA
ATOM     70  O   UNL A   1      38.985  27.574  31.991  1.00  0.00    -0.237 OA
ATOM     71  O   UNL A   1      39.003  30.001  32.386  1.00  0.00    -0.744 OA
ENDBRANCH  65  68
ENDBRANCH  47  61
BRANCH  48  72
ATOM     72  C   UNL A   1      50.722  28.155  26.108  1.00  0.00     0.023 A 
ATOM     73  C   UNL A   1      51.093  28.401  24.772  1.00  0.00     0.012 A 
ATOM     74  C   UNL A   1      51.716  27.806  27.044  1.00  0.00     0.148 A 
ATOM     75  C   UNL A   1      52.422  28.267  24.367  1.00  0.00     0.002 A 
ATOM     76  C   UNL A   1      53.046  27.729  26.647  1.00  0.00     0.091 A 
ATOM     77  F   UNL A   1      51.340  27.561  28.307  1.00  0.00    -0.205 F 
ATOM     78  C   UNL A   1      53.398  27.941  25.304  1.00  0.00     0.022 A 
BRANCH  76  79
ATOM     79  S   UNL A   1      54.384  27.434  27.806  1.00  0.00     0.127 S 
ATOM     80  O   UNL A   1      53.824  26.378  28.647  1.00  0.00    -0.237 OA
ATOM     81  O   UNL A   1      55.463  27.005  26.915  1.00  0.00    -0.237 OA
ATOM     82  O   UNL A   1      54.621  28.708  28.469  1.00  0.00    -0.744 OA
ENDBRANCH  76  79
ENDBRANCH  48  72
BRANCH  60  83
ATOM     83  C   UNL A   1      46.852  33.411  28.604  1.00  0.00     0.023 A 
ATOM     84  C   UNL A   1      47.246  33.721  29.922  1.00  0.00     0.012 A 
ATOM     85  C   UNL A   1      46.838  34.431  27.632  1.00  0.00     0.148 A 
ATOM     86  C   UNL A   1      47.582  35.028  30.273  1.00  0.00     0.002 A 
ATOM     87  C   UNL A   1      47.227  35.720  27.975  1.00  0.00     0.091 A 
ATOM     88  F   UNL A   1      46.448  34.120  26.387  1.00  0.00    -0.205 F 
ATOM     89  C   UNL A   1      47.585  36.024  29.298  1.00  0.00     0.022 A 
BRANCH  87  90
ATOM     90  S   UNL A   1      47.358  37.044  26.768  1.00  0.00     0.127 S 
ATOM     91  O   UNL A   1      46.394  36.619  25.754  1.00  0.00    -0.237 OA
ATOM     92  O   UNL A   1      46.949  38.214  27.545  1.00  0.00    -0.237 OA
ATOM     93  O   UNL A   1      48.749  37.060  26.335  1.00  0.00    -0.744 OA
ENDBRANCH  87  90
ENDBRANCH  60  83
ENDBRANCH  34  35
ENDBRANCH  27  29
ENDBRANCH  26  27
ENDBRANCH  25  26
ENDBRANCH  24  25
ENDBRANCH  23  24
ENDBRANCH  22  23
ENDBRANCH  21  22
ENDBRANCH   1  21
TORSDOF 26
ENDMDL
