MODEL 1
REMARK VINA RESULT:      -9.3      0.000      0.000
REMARK SMILES CC(C)(C)N(CC(=O)OCCOCCOCCOC(=O)c1ccc(-c2c3nc(c(-c4cccc(S(=O)(=O)[O-])c4F)c4ccc([nH]4)c(-c4cccc(S(=O)(=O)[O-])c4F)c4nc(c(-c5cccc(S(=O)(=O)[O-])c5F)c5ccc2[nH]5)C=C4)C=C3)cc1)C(=O)N1CC[C@H](C[NH3+])C1
REMARK SMILES IDX 13 1 12 2 11 3 10 4 9 5 7 6 8 7 6 8 5 9 2 10 1 11 3 12 4 13
REMARK SMILES IDX 84 14 85 15 86 16 87 17 92 18 88 19 89 20 90 21 91 22 14 26
REMARK SMILES IDX 15 27 16 28 17 29 18 30 19 31 20 32 21 33 22 34 83 35 23 36
REMARK SMILES IDX 82 37 24 38 25 39 26 40 76 41 27 42 81 43 75 44 77 45 28 46
REMARK SMILES IDX 80 47 74 48 73 49 29 51 61 52 41 53 60 54 42 55 45 56 59 57
REMARK SMILES IDX 78 58 43 59 44 60 58 62 79 63 46 64 30 65 31 66 39 67 32 68
REMARK SMILES IDX 34 69 40 70 33 71 35 72 36 73 37 74 38 75 62 76 63 77 71 78
REMARK SMILES IDX 64 79 66 80 72 81 65 82 67 83 68 84 69 85 70 86 47 87 48 88
REMARK SMILES IDX 56 89 49 90 51 91 57 92 50 93 52 94 53 95 54 96 55 97
REMARK H PARENT 91 23 91 24 91 25 77 50 45 61
REMARK Flexibility Score: inf
ROOT
ATOM      1  C   UNL A   1      39.807  21.276  26.034  1.00  0.00     0.188 C 
ENDROOT
BRANCH   1   2
ATOM      2  O   UNL A   1      38.999  22.442  26.012  1.00  0.00    -0.376 OA
BRANCH   2   3
ATOM      3  C   UNL A   1      37.648  22.292  25.583  1.00  0.00     0.202 C 
BRANCH   3   4
ATOM      4  C   UNL A   1      36.852  23.551  25.170  1.00  0.00     0.261 C 
BRANCH   4   5
ATOM      5  O   UNL A   1      35.512  23.627  25.733  1.00  0.00    -0.462 OA
BRANCH   5   6
ATOM      6  C   UNL A   1      34.746  24.638  25.222  1.00  0.00     0.325 C 
ATOM      7  O   UNL A   1      34.730  25.768  25.711  1.00  0.00    -0.250 OA
BRANCH   6   8
ATOM      8  C   UNL A   1      34.014  24.340  23.880  1.00  0.00     0.244 C 
BRANCH   8   9
ATOM      9  N   UNL A   1      32.727  23.612  23.785  1.00  0.00    -0.309 N 
BRANCH   9  10
ATOM     10  C   UNL A   1      31.450  24.348  24.135  1.00  0.00     0.037 C 
ATOM     11  C   UNL A   1      31.585  25.883  23.986  1.00  0.00     0.034 C 
ATOM     12  C   UNL A   1      31.058  24.054  25.593  1.00  0.00     0.034 C 
ATOM     13  C   UNL A   1      30.267  23.966  23.198  1.00  0.00     0.034 C 
ENDBRANCH   9  10
BRANCH   9  14
ATOM     14  C   UNL A   1      32.617  22.322  23.249  1.00  0.00     0.320 C 
ATOM     15  O   UNL A   1      32.273  22.121  22.084  1.00  0.00    -0.248 OA
BRANCH  14  16
ATOM     16  N   UNL A   1      32.961  21.245  24.041  1.00  0.00    -0.324 N 
ATOM     17  C   UNL A   1      32.887  21.238  25.473  1.00  0.00     0.122 C 
ATOM     18  C   UNL A   1      32.694  19.882  23.585  1.00  0.00     0.130 C 
ATOM     19  C   UNL A   1      33.243  19.872  25.927  1.00  0.00     0.033 C 
ATOM     20  C   UNL A   1      32.495  19.087  24.890  1.00  0.00     0.065 C 
BRANCH  20  21
ATOM     21  C   UNL A   1      33.049  17.710  24.876  1.00  0.00     0.264 C 
BRANCH  21  22
ATOM     22  N   UNL A   1      34.500  17.687  24.749  1.00  0.00    -0.357 N 
ATOM     23  H   UNL A   1      34.853  18.643  24.704  1.00  0.00     0.344 HD
ATOM     24  H   UNL A   1      34.759  17.188  23.898  1.00  0.00     0.344 HD
ATOM     25  H   UNL A   1      34.906  17.214  25.557  1.00  0.00     0.344 HD
ENDBRANCH  21  22
ENDBRANCH  20  21
ENDBRANCH  14  16
ENDBRANCH   9  14
ENDBRANCH   8   9
ENDBRANCH   6   8
ENDBRANCH   5   6
ENDBRANCH   4   5
ENDBRANCH   3   4
ENDBRANCH   2   3
ENDBRANCH   1   2
BRANCH   1  26
ATOM     26  C   UNL A   1      41.284  21.444  26.477  1.00  0.00     0.188 C 
BRANCH  26  27
ATOM     27  O   UNL A   1      42.272  20.760  25.723  1.00  0.00    -0.376 OA
BRANCH  27  28
ATOM     28  C   UNL A   1      43.589  21.252  25.866  1.00  0.00     0.202 C 
BRANCH  28  29
ATOM     29  C   UNL A   1      44.216  22.050  24.703  1.00  0.00     0.261 C 
BRANCH  29  30
ATOM     30  O   UNL A   1      43.684  23.357  24.375  1.00  0.00    -0.460 OA
BRANCH  30  31
ATOM     31  C   UNL A   1      44.399  24.418  24.872  1.00  0.00     0.338 C 
ATOM     32  O   UNL A   1      45.560  24.664  24.612  1.00  0.00    -0.246 OA
BRANCH  31  33
ATOM     33  C   UNL A   1      43.605  25.278  25.818  1.00  0.00     0.060 A 
ATOM     34  C   UNL A   1      44.199  26.438  26.344  1.00  0.00     0.016 A 
ATOM     35  C   UNL A   1      42.326  24.937  26.266  1.00  0.00     0.016 A 
ATOM     36  C   UNL A   1      43.509  27.280  27.248  1.00  0.00     0.010 A 
ATOM     37  C   UNL A   1      41.647  25.765  27.195  1.00  0.00     0.010 A 
ATOM     38  C   UNL A   1      42.212  26.968  27.684  1.00  0.00    -0.014 A 
BRANCH  38  39
ATOM     39  C   UNL A   1      41.546  27.730  28.807  1.00  0.00     0.031 A 
ATOM     40  C   UNL A   1      42.172  27.533  30.148  1.00  0.00     0.074 A 
ATOM     41  C   UNL A   1      40.502  28.601  28.755  1.00  0.00     0.049 A 
ATOM     42  N   UNL A   1      42.017  28.268  31.210  1.00  0.00    -0.248 NA
ATOM     43  C   UNL A   1      43.208  26.494  30.260  1.00  0.00     0.031 C 
ATOM     44  C   UNL A   1      39.958  29.249  27.579  1.00  0.00     0.029 A 
ATOM     45  N   UNL A   1      39.666  29.100  29.737  1.00  0.00    -0.354 N 
ATOM     46  C   UNL A   1      43.020  27.871  32.070  1.00  0.00     0.074 A 
ATOM     47  C   UNL A   1      43.730  26.780  31.440  1.00  0.00     0.031 C 
ATOM     48  C   UNL A   1      38.739  29.758  27.809  1.00  0.00     0.029 A 
ATOM     49  C   UNL A   1      38.537  29.738  29.244  1.00  0.00     0.049 A 
ATOM     50  H   UNL A   1      39.855  29.009  30.698  1.00  0.00     0.167 HD
ATOM     51  C   UNL A   1      43.342  28.410  33.263  1.00  0.00     0.034 A 
ATOM     52  C   UNL A   1      37.524  30.401  29.839  1.00  0.00     0.034 A 
ATOM     53  C   UNL A   1      42.515  29.360  33.948  1.00  0.00     0.049 A 
ATOM     54  C   UNL A   1      37.757  30.798  31.264  1.00  0.00     0.074 A 
ATOM     55  C   UNL A   1      42.663  29.861  35.225  1.00  0.00     0.029 A 
ATOM     56  N   UNL A   1      41.335  29.889  33.440  1.00  0.00    -0.354 N 
ATOM     57  N   UNL A   1      38.792  30.520  32.017  1.00  0.00    -0.248 NA
ATOM     58  C   UNL A   1      36.788  31.718  31.871  1.00  0.00     0.031 C 
ATOM     59  C   UNL A   1      41.530  30.629  35.520  1.00  0.00     0.029 A 
ATOM     60  C   UNL A   1      40.714  30.667  34.399  1.00  0.00     0.049 A 
ATOM     61  H   UNL A   1      40.991  29.733  32.529  1.00  0.00     0.167 HD
ATOM     62  C   UNL A   1      38.648  31.292  33.156  1.00  0.00     0.074 A 
ATOM     63  C   UNL A   1      37.415  32.042  32.996  1.00  0.00     0.031 C 
ATOM     64  C   UNL A   1      39.476  31.387  34.224  1.00  0.00     0.034 A 
BRANCH  51  65
ATOM     65  C   UNL A   1      44.595  27.881  33.887  1.00  0.00     0.023 A 
ATOM     66  C   UNL A   1      45.837  28.478  33.579  1.00  0.00     0.012 A 
ATOM     67  C   UNL A   1      44.555  26.720  34.672  1.00  0.00     0.148 A 
ATOM     68  C   UNL A   1      47.026  27.895  34.012  1.00  0.00     0.002 A 
ATOM     69  C   UNL A   1      45.740  26.166  35.130  1.00  0.00     0.091 A 
ATOM     70  F   UNL A   1      43.364  26.150  34.905  1.00  0.00    -0.205 F 
ATOM     71  C   UNL A   1      46.977  26.740  34.789  1.00  0.00     0.022 A 
BRANCH  69  72
ATOM     72  S   UNL A   1      45.775  24.697  36.155  1.00  0.00     0.127 S 
ATOM     73  O   UNL A   1      47.210  24.538  36.393  1.00  0.00    -0.237 OA
ATOM     74  O   UNL A   1      45.004  25.123  37.322  1.00  0.00    -0.237 OA
ATOM     75  O   UNL A   1      45.157  23.639  35.368  1.00  0.00    -0.744 OA
ENDBRANCH  69  72
ENDBRANCH  51  65
BRANCH  52  76
ATOM     76  C   UNL A   1      36.384  30.961  29.040  1.00  0.00     0.023 A 
ATOM     77  C   UNL A   1      36.248  32.355  28.875  1.00  0.00     0.012 A 
ATOM     78  C   UNL A   1      35.447  30.112  28.413  1.00  0.00     0.148 A 
ATOM     79  C   UNL A   1      35.190  32.892  28.136  1.00  0.00     0.002 A 
ATOM     80  C   UNL A   1      34.410  30.653  27.653  1.00  0.00     0.091 A 
ATOM     81  F   UNL A   1      35.583  28.788  28.578  1.00  0.00    -0.205 F 
ATOM     82  C   UNL A   1      34.274  32.044  27.522  1.00  0.00     0.022 A 
BRANCH  80  83
ATOM     83  S   UNL A   1      33.228  29.640  26.749  1.00  0.00     0.127 S 
ATOM     84  O   UNL A   1      32.374  30.652  26.134  1.00  0.00    -0.237 OA
ATOM     85  O   UNL A   1      34.097  28.920  25.818  1.00  0.00    -0.237 OA
ATOM     86  O   UNL A   1      32.588  28.797  27.749  1.00  0.00    -0.744 OA
ENDBRANCH  80  83
ENDBRANCH  52  76
BRANCH  64  87
ATOM     87  C   UNL A   1      39.060  32.324  35.320  1.00  0.00     0.023 A 
ATOM     88  C   UNL A   1      38.129  31.903  36.290  1.00  0.00     0.012 A 
ATOM     89  C   UNL A   1      39.648  33.598  35.421  1.00  0.00     0.148 A 
ATOM     90  C   UNL A   1      37.759  32.756  37.326  1.00  0.00     0.002 A 
ATOM     91  C   UNL A   1      39.322  34.417  36.491  1.00  0.00     0.091 A 
ATOM     92  F   UNL A   1      40.509  33.985  34.468  1.00  0.00    -0.205 F 
ATOM     93  C   UNL A   1      38.365  34.006  37.434  1.00  0.00     0.022 A 
BRANCH  91  94
ATOM     94  S   UNL A   1      40.140  35.988  36.775  1.00  0.00     0.127 S 
ATOM     95  O   UNL A   1      39.815  36.716  35.551  1.00  0.00    -0.237 OA
ATOM     96  O   UNL A   1      39.462  36.474  37.977  1.00  0.00    -0.237 OA
ATOM     97  O   UNL A   1      41.552  35.678  36.963  1.00  0.00    -0.744 OA
ENDBRANCH  91  94
ENDBRANCH  64  87
ENDBRANCH  38  39
ENDBRANCH  31  33
ENDBRANCH  30  31
ENDBRANCH  29  30
ENDBRANCH  28  29
ENDBRANCH  27  28
ENDBRANCH  26  27
ENDBRANCH   1  26
TORSDOF 26
ENDMDL
MODEL 2
REMARK VINA RESULT:      -9.0      1.776      2.163
REMARK SMILES CC(C)(C)N(CC(=O)OCCOCCOCCOC(=O)c1ccc(-c2c3nc(c(-c4cccc(S(=O)(=O)[O-])c4F)c4ccc([nH]4)c(-c4cccc(S(=O)(=O)[O-])c4F)c4nc(c(-c5cccc(S(=O)(=O)[O-])c5F)c5ccc2[nH]5)C=C4)C=C3)cc1)C(=O)N1CC[C@H](C[NH3+])C1
REMARK SMILES IDX 13 1 12 2 11 3 10 4 9 5 7 6 8 7 6 8 5 9 2 10 1 11 3 12 4 13
REMARK SMILES IDX 84 14 85 15 86 16 87 17 92 18 88 19 89 20 90 21 91 22 14 26
REMARK SMILES IDX 15 27 16 28 17 29 18 30 19 31 20 32 21 33 22 34 83 35 23 36
REMARK SMILES IDX 82 37 24 38 25 39 26 40 76 41 27 42 81 43 75 44 77 45 28 46
REMARK SMILES IDX 80 47 74 48 73 49 29 51 61 52 41 53 60 54 42 55 45 56 59 57
REMARK SMILES IDX 78 58 43 59 44 60 58 62 79 63 46 64 30 65 31 66 39 67 32 68
REMARK SMILES IDX 34 69 40 70 33 71 35 72 36 73 37 74 38 75 62 76 63 77 71 78
REMARK SMILES IDX 64 79 66 80 72 81 65 82 67 83 68 84 69 85 70 86 47 87 48 88
REMARK SMILES IDX 56 89 49 90 51 91 57 92 50 93 52 94 53 95 54 96 55 97
REMARK H PARENT 91 23 91 24 91 25 77 50 45 61
REMARK Flexibility Score: inf
ROOT
ATOM      1  C   UNL A   1      39.716  21.424  25.961  1.00  0.00     0.188 C 
ENDROOT
BRANCH   1   2
ATOM      2  O   UNL A   1      38.958  22.619  26.052  1.00  0.00    -0.376 OA
BRANCH   2   3
ATOM      3  C   UNL A   1      37.605  22.570  25.610  1.00  0.00     0.202 C 
BRANCH   3   4
ATOM      4  C   UNL A   1      36.833  23.896  25.416  1.00  0.00     0.261 C 
BRANCH   4   5
ATOM      5  O   UNL A   1      35.469  23.878  25.921  1.00  0.00    -0.462 OA
BRANCH   5   6
ATOM      6  C   UNL A   1      34.710  24.943  25.523  1.00  0.00     0.325 C 
ATOM      7  O   UNL A   1      34.615  25.975  26.190  1.00  0.00    -0.250 OA
BRANCH   6   8
ATOM      8  C   UNL A   1      34.097  24.859  24.094  1.00  0.00     0.244 C 
BRANCH   8   9
ATOM      9  N   UNL A   1      33.013  23.923  23.714  1.00  0.00    -0.309 N 
BRANCH   9  10
ATOM     10  C   UNL A   1      31.615  24.183  24.235  1.00  0.00     0.037 C 
ATOM     11  C   UNL A   1      31.339  23.480  25.586  1.00  0.00     0.034 C 
ATOM     12  C   UNL A   1      30.575  23.672  23.223  1.00  0.00     0.034 C 
ATOM     13  C   UNL A   1      31.356  25.691  24.518  1.00  0.00     0.034 C 
ENDBRANCH   9  10
BRANCH   9  14
ATOM     14  C   UNL A   1      33.186  22.893  22.779  1.00  0.00     0.320 C 
ATOM     15  O   UNL A   1      33.248  23.107  21.569  1.00  0.00    -0.248 OA
BRANCH  14  16
ATOM     16  N   UNL A   1      33.348  21.603  23.241  1.00  0.00    -0.324 N 
ATOM     17  C   UNL A   1      33.969  21.261  24.487  1.00  0.00     0.122 C 
ATOM     18  C   UNL A   1      32.325  20.593  22.974  1.00  0.00     0.130 C 
ATOM     19  C   UNL A   1      33.851  19.792  24.651  1.00  0.00     0.033 C 
ATOM     20  C   UNL A   1      32.442  19.622  24.165  1.00  0.00     0.065 C 
BRANCH  20  21
ATOM     21  C   UNL A   1      32.248  18.190  23.828  1.00  0.00     0.264 C 
BRANCH  21  22
ATOM     22  N   UNL A   1      33.472  17.410  23.948  1.00  0.00    -0.357 N 
ATOM     23  H   UNL A   1      34.001  17.730  24.760  1.00  0.00     0.344 HD
ATOM     24  H   UNL A   1      34.036  17.529  23.107  1.00  0.00     0.344 HD
ATOM     25  H   UNL A   1      33.238  16.424  24.063  1.00  0.00     0.344 HD
ENDBRANCH  21  22
ENDBRANCH  20  21
ENDBRANCH  14  16
ENDBRANCH   9  14
ENDBRANCH   8   9
ENDBRANCH   6   8
ENDBRANCH   5   6
ENDBRANCH   4   5
ENDBRANCH   3   4
ENDBRANCH   2   3
ENDBRANCH   1   2
BRANCH   1  26
ATOM     26  C   UNL A   1      41.171  21.462  26.495  1.00  0.00     0.188 C 
BRANCH  26  27
ATOM     27  O   UNL A   1      42.147  20.719  25.782  1.00  0.00    -0.376 OA
BRANCH  27  28
ATOM     28  C   UNL A   1      43.468  21.213  25.873  1.00  0.00     0.202 C 
BRANCH  28  29
ATOM     29  C   UNL A   1      44.131  21.804  24.611  1.00  0.00     0.261 C 
BRANCH  29  30
ATOM     30  O   UNL A   1      43.737  23.121  24.156  1.00  0.00    -0.460 OA
BRANCH  30  31
ATOM     31  C   UNL A   1      44.467  24.160  24.679  1.00  0.00     0.338 C 
ATOM     32  O   UNL A   1      45.633  24.392  24.430  1.00  0.00    -0.246 OA
BRANCH  31  33
ATOM     33  C   UNL A   1      43.682  25.014  25.638  1.00  0.00     0.060 A 
ATOM     34  C   UNL A   1      44.326  26.090  26.273  1.00  0.00     0.016 A 
ATOM     35  C   UNL A   1      42.358  24.741  25.992  1.00  0.00     0.016 A 
ATOM     36  C   UNL A   1      43.646  26.922  27.194  1.00  0.00     0.010 A 
ATOM     37  C   UNL A   1      41.686  25.557  26.938  1.00  0.00     0.010 A 
ATOM     38  C   UNL A   1      42.306  26.680  27.538  1.00  0.00    -0.014 A 
BRANCH  38  39
ATOM     39  C   UNL A   1      41.631  27.416  28.672  1.00  0.00     0.031 A 
ATOM     40  C   UNL A   1      42.309  27.273  29.995  1.00  0.00     0.074 A 
ATOM     41  C   UNL A   1      40.536  28.223  28.645  1.00  0.00     0.049 A 
ATOM     42  N   UNL A   1      42.144  28.011  31.054  1.00  0.00    -0.248 NA
ATOM     43  C   UNL A   1      43.407  26.298  30.085  1.00  0.00     0.031 C 
ATOM     44  C   UNL A   1      39.918  28.823  27.479  1.00  0.00     0.029 A 
ATOM     45  N   UNL A   1      39.703  28.684  29.647  1.00  0.00    -0.354 N 
ATOM     46  C   UNL A   1      43.195  27.684  31.885  1.00  0.00     0.074 A 
ATOM     47  C   UNL A   1      43.949  26.629  31.245  1.00  0.00     0.031 C 
ATOM     48  C   UNL A   1      38.680  29.263  27.742  1.00  0.00     0.029 A 
ATOM     49  C   UNL A   1      38.524  29.249  29.183  1.00  0.00     0.049 A 
ATOM     50  H   UNL A   1      39.927  28.617  30.603  1.00  0.00     0.167 HD
ATOM     51  C   UNL A   1      43.521  28.256  33.062  1.00  0.00     0.034 A 
ATOM     52  C   UNL A   1      37.492  29.858  29.803  1.00  0.00     0.034 A 
ATOM     53  C   UNL A   1      42.662  29.165  33.763  1.00  0.00     0.049 A 
ATOM     54  C   UNL A   1      37.745  30.287  31.215  1.00  0.00     0.074 A 
ATOM     55  C   UNL A   1      42.819  29.690  35.029  1.00  0.00     0.029 A 
ATOM     56  N   UNL A   1      41.437  29.617  33.286  1.00  0.00    -0.354 N 
ATOM     57  N   UNL A   1      38.818  30.080  31.938  1.00  0.00    -0.248 NA
ATOM     58  C   UNL A   1      36.743  31.157  31.843  1.00  0.00     0.031 C 
ATOM     59  C   UNL A   1      41.653  30.394  35.351  1.00  0.00     0.029 A 
ATOM     60  C   UNL A   1      40.801  30.369  34.256  1.00  0.00     0.049 A 
ATOM     61  H   UNL A   1      41.075  29.430  32.389  1.00  0.00     0.167 HD
ATOM     62  C   UNL A   1      38.664  30.856  33.072  1.00  0.00     0.074 A 
ATOM     63  C   UNL A   1      37.385  31.531  32.943  1.00  0.00     0.031 C 
ATOM     64  C   UNL A   1      39.518  31.013  34.113  1.00  0.00     0.034 A 
BRANCH  51  65
ATOM     65  C   UNL A   1      44.822  27.810  33.651  1.00  0.00     0.023 A 
ATOM     66  C   UNL A   1      44.850  26.705  34.531  1.00  0.00     0.012 A 
ATOM     67  C   UNL A   1      45.988  28.558  33.433  1.00  0.00     0.148 A 
ATOM     68  C   UNL A   1      46.018  26.384  35.221  1.00  0.00     0.002 A 
ATOM     69  C   UNL A   1      47.155  28.210  34.094  1.00  0.00     0.091 A 
ATOM     70  F   UNL A   1      45.915  29.630  32.630  1.00  0.00    -0.205 F 
ATOM     71  C   UNL A   1      47.170  27.134  35.001  1.00  0.00     0.022 A 
BRANCH  69  72
ATOM     72  S   UNL A   1      48.691  29.101  33.856  1.00  0.00     0.127 S 
ATOM     73  O   UNL A   1      49.624  28.293  34.643  1.00  0.00    -0.237 OA
ATOM     74  O   UNL A   1      48.873  29.009  32.408  1.00  0.00    -0.237 OA
ATOM     75  O   UNL A   1      48.460  30.447  34.360  1.00  0.00    -0.744 OA
ENDBRANCH  69  72
ENDBRANCH  51  65
BRANCH  52  76
ATOM     76  C   UNL A   1      36.297  30.341  29.035  1.00  0.00     0.023 A 
ATOM     77  C   UNL A   1      35.447  29.419  28.388  1.00  0.00     0.012 A 
ATOM     78  C   UNL A   1      35.978  31.714  28.970  1.00  0.00     0.148 A 
ATOM     79  C   UNL A   1      34.331  29.853  27.666  1.00  0.00     0.002 A 
ATOM     80  C   UNL A   1      34.846  32.138  28.272  1.00  0.00     0.091 A 
ATOM     81  F   UNL A   1      36.792  32.582  29.586  1.00  0.00    -0.205 F 
ATOM     82  C   UNL A   1      34.028  31.209  27.611  1.00  0.00     0.022 A 
BRANCH  80  83
ATOM     83  S   UNL A   1      34.321  33.859  28.216  1.00  0.00     0.127 S 
ATOM     84  O   UNL A   1      35.243  34.422  27.232  1.00  0.00    -0.237 OA
ATOM     85  O   UNL A   1      32.936  33.736  27.760  1.00  0.00    -0.237 OA
ATOM     86  O   UNL A   1      34.466  34.359  29.576  1.00  0.00    -0.744 OA
ENDBRANCH  80  83
ENDBRANCH  52  76
BRANCH  64  87
ATOM     87  C   UNL A   1      39.082  31.938  35.210  1.00  0.00     0.023 A 
ATOM     88  C   UNL A   1      38.157  31.496  36.177  1.00  0.00     0.012 A 
ATOM     89  C   UNL A   1      39.644  33.223  35.317  1.00  0.00     0.148 A 
ATOM     90  C   UNL A   1      37.768  32.338  37.216  1.00  0.00     0.002 A 
ATOM     91  C   UNL A   1      39.300  34.032  36.390  1.00  0.00     0.091 A 
ATOM     92  F   UNL A   1      40.500  33.630  34.368  1.00  0.00    -0.205 F 
ATOM     93  C   UNL A   1      38.350  33.599  37.330  1.00  0.00     0.022 A 
BRANCH  91  94
ATOM     94  S   UNL A   1      40.087  35.617  36.682  1.00  0.00     0.127 S 
ATOM     95  O   UNL A   1      41.503  35.261  36.614  1.00  0.00    -0.237 OA
ATOM     96  O   UNL A   1      39.600  36.414  35.555  1.00  0.00    -0.237 OA
ATOM     97  O   UNL A   1      39.617  36.065  37.986  1.00  0.00    -0.744 OA
ENDBRANCH  91  94
ENDBRANCH  64  87
ENDBRANCH  38  39
ENDBRANCH  31  33
ENDBRANCH  30  31
ENDBRANCH  29  30
ENDBRANCH  28  29
ENDBRANCH  27  28
ENDBRANCH  26  27
ENDBRANCH   1  26
TORSDOF 26
ENDMDL
MODEL 3
REMARK VINA RESULT:      -7.8      6.143      9.999
REMARK SMILES CC(C)(C)N(CC(=O)OCCOCCOCCOC(=O)c1ccc(-c2c3nc(c(-c4cccc(S(=O)(=O)[O-])c4F)c4ccc([nH]4)c(-c4cccc(S(=O)(=O)[O-])c4F)c4nc(c(-c5cccc(S(=O)(=O)[O-])c5F)c5ccc2[nH]5)C=C4)C=C3)cc1)C(=O)N1CC[C@H](C[NH3+])C1
REMARK SMILES IDX 13 1 12 2 11 3 10 4 9 5 7 6 8 7 6 8 5 9 2 10 1 11 3 12 4 13
REMARK SMILES IDX 84 14 85 15 86 16 87 17 92 18 88 19 89 20 90 21 91 22 14 26
REMARK SMILES IDX 15 27 16 28 17 29 18 30 19 31 20 32 21 33 22 34 83 35 23 36
REMARK SMILES IDX 82 37 24 38 25 39 26 40 76 41 27 42 81 43 75 44 77 45 28 46
REMARK SMILES IDX 80 47 74 48 73 49 29 51 61 52 41 53 60 54 42 55 45 56 59 57
REMARK SMILES IDX 78 58 43 59 44 60 58 62 79 63 46 64 30 65 31 66 39 67 32 68
REMARK SMILES IDX 34 69 40 70 33 71 35 72 36 73 37 74 38 75 62 76 63 77 71 78
REMARK SMILES IDX 64 79 66 80 72 81 65 82 67 83 68 84 69 85 70 86 47 87 48 88
REMARK SMILES IDX 56 89 49 90 51 91 57 92 50 93 52 94 53 95 54 96 55 97
REMARK H PARENT 91 23 91 24 91 25 77 50 45 61
REMARK Flexibility Score: inf
ROOT
ATOM      1  C   UNL A   1      32.409  28.842  26.847  1.00  0.00     0.188 C 
ENDROOT
BRANCH   1   2
ATOM      2  O   UNL A   1      31.828  28.603  25.576  1.00  0.00    -0.376 OA
BRANCH   2   3
ATOM      3  C   UNL A   1      31.692  27.245  25.164  1.00  0.00     0.202 C 
BRANCH   3   4
ATOM      4  C   UNL A   1      30.776  26.305  25.980  1.00  0.00     0.261 C 
BRANCH   4   5
ATOM      5  O   UNL A   1      31.465  25.526  26.997  1.00  0.00    -0.462 OA
BRANCH   5   6
ATOM      6  C   UNL A   1      31.351  24.172  26.841  1.00  0.00     0.325 C 
ATOM      7  O   UNL A   1      30.261  23.605  26.755  1.00  0.00    -0.250 OA
BRANCH   6   8
ATOM      8  C   UNL A   1      32.677  23.390  26.605  1.00  0.00     0.244 C 
BRANCH   8   9
ATOM      9  N   UNL A   1      33.186  23.013  25.266  1.00  0.00    -0.309 N 
BRANCH   9  10
ATOM     10  C   UNL A   1      34.565  23.488  24.855  1.00  0.00     0.037 C 
ATOM     11  C   UNL A   1      34.954  23.033  23.427  1.00  0.00     0.034 C 
ATOM     12  C   UNL A   1      35.622  22.932  25.826  1.00  0.00     0.034 C 
ATOM     13  C   UNL A   1      34.673  25.040  24.815  1.00  0.00     0.034 C 
ENDBRANCH   9  10
BRANCH   9  14
ATOM     14  C   UNL A   1      32.519  22.118  24.419  1.00  0.00     0.320 C 
ATOM     15  O   UNL A   1      31.679  22.490  23.600  1.00  0.00    -0.248 OA
BRANCH  14  16
ATOM     16  N   UNL A   1      32.859  20.781  24.471  1.00  0.00    -0.324 N 
ATOM     17  C   UNL A   1      32.865  19.993  25.668  1.00  0.00     0.122 C 
ATOM     18  C   UNL A   1      32.507  19.890  23.366  1.00  0.00     0.130 C 
ATOM     19  C   UNL A   1      33.185  18.599  25.279  1.00  0.00     0.033 C 
ATOM     20  C   UNL A   1      32.347  18.513  24.038  1.00  0.00     0.065 C 
BRANCH  20  21
ATOM     21  C   UNL A   1      32.838  17.363  23.237  1.00  0.00     0.264 C 
BRANCH  21  22
ATOM     22  N   UNL A   1      34.291  17.259  23.233  1.00  0.00    -0.357 N 
ATOM     23  H   UNL A   1      34.621  17.132  22.276  1.00  0.00     0.344 HD
ATOM     24  H   UNL A   1      34.577  16.461  23.799  1.00  0.00     0.344 HD
ATOM     25  H   UNL A   1      34.695  18.112  23.620  1.00  0.00     0.344 HD
ENDBRANCH  21  22
ENDBRANCH  20  21
ENDBRANCH  14  16
ENDBRANCH   9  14
ENDBRANCH   8   9
ENDBRANCH   6   8
ENDBRANCH   5   6
ENDBRANCH   4   5
ENDBRANCH   3   4
ENDBRANCH   2   3
ENDBRANCH   1   2
BRANCH   1  26
ATOM     26  C   UNL A   1      32.837  30.297  27.170  1.00  0.00     0.188 C 
BRANCH  26  27
ATOM     27  O   UNL A   1      34.215  30.613  27.050  1.00  0.00    -0.376 OA
BRANCH  27  28
ATOM     28  C   UNL A   1      35.014  30.261  28.160  1.00  0.00     0.202 C 
BRANCH  28  29
ATOM     29  C   UNL A   1      35.644  31.385  29.011  1.00  0.00     0.261 C 
BRANCH  29  30
ATOM     30  O   UNL A   1      36.912  31.148  29.668  1.00  0.00    -0.460 OA
BRANCH  30  31
ATOM     31  C   UNL A   1      36.830  30.518  30.885  1.00  0.00     0.338 C 
ATOM     32  O   UNL A   1      36.227  29.484  31.098  1.00  0.00    -0.246 OA
BRANCH  31  33
ATOM     33  C   UNL A   1      37.559  31.245  31.982  1.00  0.00     0.060 A 
ATOM     34  C   UNL A   1      38.469  30.532  32.782  1.00  0.00     0.016 A 
ATOM     35  C   UNL A   1      37.317  32.584  32.300  1.00  0.00     0.016 A 
ATOM     36  C   UNL A   1      39.175  31.156  33.837  1.00  0.00     0.010 A 
ATOM     37  C   UNL A   1      38.003  33.201  33.377  1.00  0.00     0.010 A 
ATOM     38  C   UNL A   1      38.966  32.508  34.150  1.00  0.00    -0.014 A 
BRANCH  38  39
ATOM     39  C   UNL A   1      39.543  33.134  35.400  1.00  0.00     0.031 A 
ATOM     40  C   UNL A   1      40.788  33.928  35.177  1.00  0.00     0.074 A 
ATOM     41  C   UNL A   1      39.061  33.119  36.672  1.00  0.00     0.049 A 
ATOM     42  N   UNL A   1      41.322  34.804  35.978  1.00  0.00    -0.248 NA
ATOM     43  C   UNL A   1      41.408  33.847  33.845  1.00  0.00     0.031 C 
ATOM     44  C   UNL A   1      37.725  32.756  37.099  1.00  0.00     0.029 A 
ATOM     45  N   UNL A   1      39.655  33.403  37.887  1.00  0.00    -0.354 N 
ATOM     46  C   UNL A   1      42.253  35.471  35.208  1.00  0.00     0.074 A 
ATOM     47  C   UNL A   1      42.267  34.850  33.902  1.00  0.00     0.031 C 
ATOM     48  C   UNL A   1      37.673  32.509  38.415  1.00  0.00     0.029 A 
ATOM     49  C   UNL A   1      38.916  32.989  38.985  1.00  0.00     0.049 A 
ATOM     50  H   UNL A   1      40.524  33.858  37.966  1.00  0.00     0.167 HD
ATOM     51  C   UNL A   1      42.996  36.540  35.558  1.00  0.00     0.034 A 
ATOM     52  C   UNL A   1      39.096  33.121  40.316  1.00  0.00     0.034 A 
ATOM     53  C   UNL A   1      43.103  37.019  36.906  1.00  0.00     0.049 A 
ATOM     54  C   UNL A   1      40.110  34.139  40.736  1.00  0.00     0.074 A 
ATOM     55  C   UNL A   1      43.939  37.997  37.404  1.00  0.00     0.029 A 
ATOM     56  N   UNL A   1      42.407  36.492  37.987  1.00  0.00    -0.354 N 
ATOM     57  N   UNL A   1      40.889  34.862  39.969  1.00  0.00    -0.248 NA
ATOM     58  C   UNL A   1      40.167  34.482  42.162  1.00  0.00     0.031 C 
ATOM     59  C   UNL A   1      43.807  38.006  38.797  1.00  0.00     0.029 A 
ATOM     60  C   UNL A   1      42.836  37.085  39.160  1.00  0.00     0.049 A 
ATOM     61  H   UNL A   1      41.710  35.797  37.927  1.00  0.00     0.167 HD
ATOM     62  C   UNL A   1      41.469  35.802  40.800  1.00  0.00     0.074 A 
ATOM     63  C   UNL A   1      40.958  35.548  42.136  1.00  0.00     0.031 C 
ATOM     64  C   UNL A   1      42.328  36.800  40.480  1.00  0.00     0.034 A 
BRANCH  51  65
ATOM     65  C   UNL A   1      43.790  37.158  34.451  1.00  0.00     0.023 A 
ATOM     66  C   UNL A   1      43.218  38.184  33.666  1.00  0.00     0.012 A 
ATOM     67  C   UNL A   1      45.047  36.637  34.110  1.00  0.00     0.148 A 
ATOM     68  C   UNL A   1      43.873  38.649  32.528  1.00  0.00     0.002 A 
ATOM     69  C   UNL A   1      45.709  37.131  32.998  1.00  0.00     0.091 A 
ATOM     70  F   UNL A   1      45.540  35.631  34.846  1.00  0.00    -0.205 F 
ATOM     71  C   UNL A   1      45.119  38.124  32.195  1.00  0.00     0.022 A 
BRANCH  69  72
ATOM     72  S   UNL A   1      47.326  36.536  32.505  1.00  0.00     0.127 S 
ATOM     73  O   UNL A   1      47.032  35.148  32.145  1.00  0.00    -0.237 OA
ATOM     74  O   UNL A   1      47.639  37.408  31.375  1.00  0.00    -0.237 OA
ATOM     75  O   UNL A   1      48.190  36.705  33.665  1.00  0.00    -0.744 OA
ENDBRANCH  69  72
ENDBRANCH  51  65
BRANCH  52  76
ATOM     76  C   UNL A   1      38.134  32.515  41.296  1.00  0.00     0.023 A 
ATOM     77  C   UNL A   1      38.312  31.189  41.741  1.00  0.00     0.012 A 
ATOM     78  C   UNL A   1      37.057  33.264  41.817  1.00  0.00     0.148 A 
ATOM     79  C   UNL A   1      37.424  30.610  42.652  1.00  0.00     0.002 A 
ATOM     80  C   UNL A   1      36.191  32.689  42.748  1.00  0.00     0.091 A 
ATOM     81  F   UNL A   1      36.895  34.523  41.387  1.00  0.00    -0.205 F 
ATOM     82  C   UNL A   1      36.366  31.359  43.158  1.00  0.00     0.022 A 
BRANCH  80  83
ATOM     83  S   UNL A   1      34.848  33.601  43.527  1.00  0.00     0.127 S 
ATOM     84  O   UNL A   1      35.566  34.697  44.174  1.00  0.00    -0.237 OA
ATOM     85  O   UNL A   1      34.040  33.993  42.372  1.00  0.00    -0.237 OA
ATOM     86  O   UNL A   1      34.200  32.655  44.424  1.00  0.00    -0.744 OA
ENDBRANCH  80  83
ENDBRANCH  52  76
BRANCH  64  87
ATOM     87  C   UNL A   1      42.789  37.681  41.603  1.00  0.00     0.023 A 
ATOM     88  C   UNL A   1      43.945  37.342  42.334  1.00  0.00     0.012 A 
ATOM     89  C   UNL A   1      42.111  38.880  41.885  1.00  0.00     0.148 A 
ATOM     90  C   UNL A   1      44.396  38.168  43.360  1.00  0.00     0.002 A 
ATOM     91  C   UNL A   1      42.603  39.729  42.865  1.00  0.00     0.091 A 
ATOM     92  F   UNL A   1      40.997  39.166  41.194  1.00  0.00    -0.205 F 
ATOM     93  C   UNL A   1      43.734  39.368  43.615  1.00  0.00     0.022 A 
BRANCH  91  94
ATOM     94  S   UNL A   1      41.887  41.344  43.177  1.00  0.00     0.127 S 
ATOM     95  O   UNL A   1      42.002  41.978  41.865  1.00  0.00    -0.237 OA
ATOM     96  O   UNL A   1      40.521  41.003  43.576  1.00  0.00    -0.237 OA
ATOM     97  O   UNL A   1      42.692  41.944  44.233  1.00  0.00    -0.744 OA
ENDBRANCH  91  94
ENDBRANCH  64  87
ENDBRANCH  38  39
ENDBRANCH  31  33
ENDBRANCH  30  31
ENDBRANCH  29  30
ENDBRANCH  28  29
ENDBRANCH  27  28
ENDBRANCH  26  27
ENDBRANCH   1  26
TORSDOF 26
ENDMDL
