MODEL 1
REMARK VINA RESULT:      -8.3      0.000      0.000
REMARK SMILES O=C(CCCC[C@H](O)c1ccc(Cl)s1)OCCOCCOCCOC(=O)c1ccc(-c2c3nc(c(-c4cccc(S(=O)(=O)[O-])c4F)c4ccc([nH]4)c(-c4cccc(S(=O)(=O)[O-])c4F)c4nc(c(-c5cccc(S(=O)(=O)[O-])c5F)c5ccc2[nH]5)C=C4)C=C3)cc1
REMARK SMILES IDX 19 1 18 2 17 3 16 4 15 5 2 6 1 7 3 8 4 9 5 10 6 11 7 12 9 13
REMARK SMILES IDX 10 14 14 15 11 16 12 17 13 18 8 19 20 21 21 22 22 23 23 24
REMARK SMILES IDX 24 25 25 26 26 27 27 28 28 29 89 30 29 31 88 32 30 33 31 34
REMARK SMILES IDX 32 35 82 36 33 37 87 38 81 39 83 40 34 41 86 42 80 43 79 44
REMARK SMILES IDX 35 46 67 47 47 48 66 49 48 50 51 51 65 52 84 53 49 54 50 55
REMARK SMILES IDX 64 57 85 58 52 59 36 60 37 61 45 62 38 63 40 64 46 65 39 66
REMARK SMILES IDX 41 67 42 68 43 69 44 70 68 71 69 72 77 73 70 74 72 75 78 76
REMARK SMILES IDX 71 77 73 78 74 79 75 80 76 81 53 82 54 83 62 84 55 85 57 86
REMARK SMILES IDX 63 87 56 88 58 89 59 90 60 91 61 92
REMARK H PARENT 8 20 83 45 51 56
REMARK Flexibility Score: inf
ROOT
ATOM      1  C   UNL A   1      33.988  30.857  27.646  1.00  0.00     0.188 C 
ENDROOT
BRANCH   1   2
ATOM      2  O   UNL A   1      32.671  30.918  27.105  1.00  0.00    -0.376 OA
BRANCH   2   3
ATOM      3  C   UNL A   1      31.994  29.676  26.992  1.00  0.00     0.202 C 
BRANCH   3   4
ATOM      4  C   UNL A   1      32.976  28.525  26.841  1.00  0.00     0.261 C 
BRANCH   4   5
ATOM      5  O   UNL A   1      33.242  28.230  25.461  1.00  0.00    -0.463 OA
BRANCH   5   6
ATOM      6  C   UNL A   1      32.253  28.218  24.534  1.00  0.00     0.305 C 
ATOM      7  O   UNL A   1      32.321  28.966  23.561  1.00  0.00    -0.252 OA
BRANCH   6   8
ATOM      8  C   UNL A   1      31.020  27.378  24.802  1.00  0.00     0.123 C 
BRANCH   8   9
ATOM      9  C   UNL A   1      31.199  25.881  24.559  1.00  0.00     0.012 C 
BRANCH   9  10
ATOM     10  C   UNL A   1      30.545  24.927  25.572  1.00  0.00     0.004 C 
BRANCH  10  11
ATOM     11  C   UNL A   1      31.414  24.391  26.725  1.00  0.00     0.037 C 
BRANCH  11  12
ATOM     12  C   UNL A   1      31.662  22.877  26.712  1.00  0.00     0.154 C 
BRANCH  12  13
ATOM     13  C   UNL A   1      32.871  22.534  25.881  1.00  0.00     0.035 A 
ATOM     14  C   UNL A   1      33.102  21.404  25.110  1.00  0.00     0.020 A 
ATOM     15  S   UNL A   1      34.209  23.612  25.810  1.00  0.00    -0.126 S 
ATOM     16  C   UNL A   1      34.358  21.449  24.435  1.00  0.00     0.033 A 
ATOM     17  C   UNL A   1      35.038  22.599  24.739  1.00  0.00     0.093 A 
ATOM     18  Cl  UNL A   1      36.586  23.057  24.154  1.00  0.00    -0.072 Cl
ENDBRANCH  12  13
BRANCH  12  19
ATOM     19  O   UNL A   1      31.938  22.421  28.030  1.00  0.00    -0.388 OA
ATOM     20  H   UNL A   1      32.138  23.180  28.600  1.00  0.00     0.211 HD
ENDBRANCH  12  19
ENDBRANCH  11  12
ENDBRANCH  10  11
ENDBRANCH   9  10
ENDBRANCH   8   9
ENDBRANCH   6   8
ENDBRANCH   5   6
ENDBRANCH   4   5
ENDBRANCH   3   4
ENDBRANCH   2   3
ENDBRANCH   1   2
BRANCH   1  21
ATOM     21  C   UNL A   1      34.542  32.186  28.174  1.00  0.00     0.188 C 
BRANCH  21  22
ATOM     22  O   UNL A   1      33.808  33.374  27.889  1.00  0.00    -0.376 OA
BRANCH  22  23
ATOM     23  C   UNL A   1      34.197  34.596  28.513  1.00  0.00     0.202 C 
BRANCH  23  24
ATOM     24  C   UNL A   1      33.135  35.279  29.369  1.00  0.00     0.261 C 
BRANCH  24  25
ATOM     25  O   UNL A   1      33.700  35.835  30.568  1.00  0.00    -0.460 OA
BRANCH  25  26
ATOM     26  C   UNL A   1      33.189  35.371  31.729  1.00  0.00     0.338 C 
ATOM     27  O   UNL A   1      32.012  35.355  32.066  1.00  0.00    -0.246 OA
BRANCH  26  28
ATOM     28  C   UNL A   1      34.261  34.785  32.544  1.00  0.00     0.060 A 
ATOM     29  C   UNL A   1      35.567  35.265  32.382  1.00  0.00     0.016 A 
ATOM     30  C   UNL A   1      33.996  33.689  33.368  1.00  0.00     0.016 A 
ATOM     31  C   UNL A   1      36.631  34.599  32.989  1.00  0.00     0.010 A 
ATOM     32  C   UNL A   1      35.060  33.020  33.967  1.00  0.00     0.010 A 
ATOM     33  C   UNL A   1      36.382  33.442  33.737  1.00  0.00    -0.014 A 
BRANCH  33  34
ATOM     34  C   UNL A   1      37.484  32.535  34.125  1.00  0.00     0.031 A 
ATOM     35  C   UNL A   1      38.295  32.884  35.341  1.00  0.00     0.074 A 
ATOM     36  C   UNL A   1      37.817  31.489  33.353  1.00  0.00     0.049 A 
ATOM     37  N   UNL A   1      39.416  32.368  35.767  1.00  0.00    -0.248 NA
ATOM     38  C   UNL A   1      37.780  33.983  36.177  1.00  0.00     0.031 C 
ATOM     39  C   UNL A   1      37.102  31.065  32.152  1.00  0.00     0.029 A 
ATOM     40  N   UNL A   1      38.885  30.631  33.437  1.00  0.00    -0.354 N 
ATOM     41  C   UNL A   1      39.767  33.108  36.890  1.00  0.00     0.074 A 
ATOM     42  C   UNL A   1      38.740  34.107  37.081  1.00  0.00     0.031 C 
ATOM     43  C   UNL A   1      37.784  30.062  31.575  1.00  0.00     0.029 A 
ATOM     44  C   UNL A   1      38.997  29.801  32.349  1.00  0.00     0.049 A 
ATOM     45  H   UNL A   1      39.508  30.614  34.199  1.00  0.00     0.167 HD
ATOM     46  C   UNL A   1      40.848  32.964  37.692  1.00  0.00     0.034 A 
ATOM     47  C   UNL A   1      39.988  28.958  31.997  1.00  0.00     0.034 A 
ATOM     48  C   UNL A   1      41.852  31.953  37.506  1.00  0.00     0.049 A 
ATOM     49  C   UNL A   1      41.181  28.808  32.904  1.00  0.00     0.074 A 
ATOM     50  C   UNL A   1      42.954  31.677  38.294  1.00  0.00     0.029 A 
ATOM     51  N   UNL A   1      41.880  31.059  36.446  1.00  0.00    -0.354 N 
ATOM     52  N   UNL A   1      41.445  29.429  34.028  1.00  0.00    -0.248 NA
ATOM     53  C   UNL A   1      42.197  27.820  32.512  1.00  0.00     0.031 C 
ATOM     54  C   UNL A   1      43.660  30.627  37.698  1.00  0.00     0.029 A 
ATOM     55  C   UNL A   1      42.985  30.234  36.552  1.00  0.00     0.049 A 
ATOM     56  H   UNL A   1      41.212  31.017  35.724  1.00  0.00     0.167 HD
ATOM     57  C   UNL A   1      42.635  28.883  34.498  1.00  0.00     0.074 A 
ATOM     58  C   UNL A   1      43.037  27.875  33.539  1.00  0.00     0.031 C 
ATOM     59  C   UNL A   1      43.335  29.193  35.618  1.00  0.00     0.034 A 
BRANCH  46  60
ATOM     60  C   UNL A   1      40.983  33.915  38.851  1.00  0.00     0.023 A 
ATOM     61  C   UNL A   1      40.254  33.681  40.035  1.00  0.00     0.012 A 
ATOM     62  C   UNL A   1      41.847  35.024  38.779  1.00  0.00     0.148 A 
ATOM     63  C   UNL A   1      40.351  34.560  41.114  1.00  0.00     0.002 A 
ATOM     64  C   UNL A   1      41.972  35.872  39.875  1.00  0.00     0.091 A 
ATOM     65  F   UNL A   1      42.511  35.249  37.636  1.00  0.00    -0.205 F 
ATOM     66  C   UNL A   1      41.216  35.649  41.037  1.00  0.00     0.022 A 
BRANCH  64  67
ATOM     67  S   UNL A   1      43.118  37.255  39.887  1.00  0.00     0.127 S 
ATOM     68  O   UNL A   1      42.861  37.841  41.202  1.00  0.00    -0.237 OA
ATOM     69  O   UNL A   1      44.415  36.588  39.760  1.00  0.00    -0.237 OA
ATOM     70  O   UNL A   1      42.753  38.079  38.745  1.00  0.00    -0.744 OA
ENDBRANCH  64  67
ENDBRANCH  46  60
BRANCH  47  71
ATOM     71  C   UNL A   1      39.865  28.176  30.736  1.00  0.00     0.023 A 
ATOM     72  C   UNL A   1      39.007  27.061  30.695  1.00  0.00     0.012 A 
ATOM     73  C   UNL A   1      40.532  28.576  29.561  1.00  0.00     0.148 A 
ATOM     74  C   UNL A   1      38.826  26.349  29.510  1.00  0.00     0.002 A 
ATOM     75  C   UNL A   1      40.307  27.894  28.371  1.00  0.00     0.091 A 
ATOM     76  F   UNL A   1      41.352  29.633  29.627  1.00  0.00    -0.205 F 
ATOM     77  C   UNL A   1      39.466  26.771  28.346  1.00  0.00     0.022 A 
BRANCH  75  78
ATOM     78  S   UNL A   1      40.976  28.450  26.798  1.00  0.00     0.127 S 
ATOM     79  O   UNL A   1      41.088  27.194  26.060  1.00  0.00    -0.237 OA
ATOM     80  O   UNL A   1      39.924  29.351  26.326  1.00  0.00    -0.237 OA
ATOM     81  O   UNL A   1      42.234  29.111  27.114  1.00  0.00    -0.744 OA
ENDBRANCH  75  78
ENDBRANCH  47  71
BRANCH  59  82
ATOM     82  C   UNL A   1      44.588  28.410  35.908  1.00  0.00     0.023 A 
ATOM     83  C   UNL A   1      45.821  28.840  35.381  1.00  0.00     0.012 A 
ATOM     84  C   UNL A   1      44.556  27.316  36.796  1.00  0.00     0.148 A 
ATOM     85  C   UNL A   1      47.003  28.182  35.721  1.00  0.00     0.002 A 
ATOM     86  C   UNL A   1      45.743  26.693  37.163  1.00  0.00     0.091 A 
ATOM     87  F   UNL A   1      43.369  26.912  37.270  1.00  0.00    -0.205 F 
ATOM     88  C   UNL A   1      46.965  27.118  36.620  1.00  0.00     0.022 A 
BRANCH  86  89
ATOM     89  S   UNL A   1      45.799  25.382  38.391  1.00  0.00     0.127 S 
ATOM     90  O   UNL A   1      47.237  25.144  38.506  1.00  0.00    -0.237 OA
ATOM     91  O   UNL A   1      45.190  26.022  39.557  1.00  0.00    -0.237 OA
ATOM     92  O   UNL A   1      45.025  24.279  37.836  1.00  0.00    -0.744 OA
ENDBRANCH  86  89
ENDBRANCH  59  82
ENDBRANCH  33  34
ENDBRANCH  26  28
ENDBRANCH  25  26
ENDBRANCH  24  25
ENDBRANCH  23  24
ENDBRANCH  22  23
ENDBRANCH  21  22
ENDBRANCH   1  21
TORSDOF 26
ENDMDL
MODEL 2
REMARK VINA RESULT:      -8.0      1.924      2.255
REMARK SMILES O=C(CCCC[C@H](O)c1ccc(Cl)s1)OCCOCCOCCOC(=O)c1ccc(-c2c3nc(c(-c4cccc(S(=O)(=O)[O-])c4F)c4ccc([nH]4)c(-c4cccc(S(=O)(=O)[O-])c4F)c4nc(c(-c5cccc(S(=O)(=O)[O-])c5F)c5ccc2[nH]5)C=C4)C=C3)cc1
REMARK SMILES IDX 19 1 18 2 17 3 16 4 15 5 2 6 1 7 3 8 4 9 5 10 6 11 7 12 9 13
REMARK SMILES IDX 10 14 14 15 11 16 12 17 13 18 8 19 20 21 21 22 22 23 23 24
REMARK SMILES IDX 24 25 25 26 26 27 27 28 28 29 89 30 29 31 88 32 30 33 31 34
REMARK SMILES IDX 32 35 82 36 33 37 87 38 81 39 83 40 34 41 86 42 80 43 79 44
REMARK SMILES IDX 35 46 67 47 47 48 66 49 48 50 51 51 65 52 84 53 49 54 50 55
REMARK SMILES IDX 64 57 85 58 52 59 36 60 37 61 45 62 38 63 40 64 46 65 39 66
REMARK SMILES IDX 41 67 42 68 43 69 44 70 68 71 69 72 77 73 70 74 72 75 78 76
REMARK SMILES IDX 71 77 73 78 74 79 75 80 76 81 53 82 54 83 62 84 55 85 57 86
REMARK SMILES IDX 63 87 56 88 58 89 59 90 60 91 61 92
REMARK H PARENT 8 20 83 45 51 56
REMARK Flexibility Score: inf
ROOT
ATOM      1  C   UNL A   1      33.802  31.301  27.834  1.00  0.00     0.188 C 
ENDROOT
BRANCH   1   2
ATOM      2  O   UNL A   1      32.651  31.253  26.996  1.00  0.00    -0.376 OA
BRANCH   2   3
ATOM      3  C   UNL A   1      31.994  29.997  26.924  1.00  0.00     0.202 C 
BRANCH   3   4
ATOM      4  C   UNL A   1      32.994  28.852  26.929  1.00  0.00     0.261 C 
BRANCH   4   5
ATOM      5  O   UNL A   1      33.523  28.601  25.618  1.00  0.00    -0.463 OA
BRANCH   5   6
ATOM      6  C   UNL A   1      32.713  28.468  24.539  1.00  0.00     0.305 C 
ATOM      7  O   UNL A   1      32.936  29.125  23.525  1.00  0.00    -0.252 OA
BRANCH   6   8
ATOM      8  C   UNL A   1      31.469  27.612  24.670  1.00  0.00     0.123 C 
BRANCH   8   9
ATOM      9  C   UNL A   1      31.684  26.124  24.401  1.00  0.00     0.012 C 
BRANCH   9  10
ATOM     10  C   UNL A   1      31.026  25.137  25.380  1.00  0.00     0.004 C 
BRANCH  10  11
ATOM     11  C   UNL A   1      31.932  24.410  26.391  1.00  0.00     0.037 C 
BRANCH  11  12
ATOM     12  C   UNL A   1      31.533  22.964  26.709  1.00  0.00     0.154 C 
BRANCH  12  13
ATOM     13  C   UNL A   1      32.230  21.996  25.787  1.00  0.00     0.035 A 
ATOM     14  C   UNL A   1      32.006  21.772  24.436  1.00  0.00     0.020 A 
ATOM     15  S   UNL A   1      33.480  20.977  26.382  1.00  0.00    -0.126 S 
ATOM     16  C   UNL A   1      32.890  20.795  23.890  1.00  0.00     0.033 A 
ATOM     17  C   UNL A   1      33.731  20.300  24.852  1.00  0.00     0.093 A 
ATOM     18  Cl  UNL A   1      34.946  19.106  24.634  1.00  0.00    -0.072 Cl
ENDBRANCH  12  13
BRANCH  12  19
ATOM     19  O   UNL A   1      31.945  22.627  28.028  1.00  0.00    -0.388 OA
ATOM     20  H   UNL A   1      31.213  22.192  28.494  1.00  0.00     0.211 HD
ENDBRANCH  12  19
ENDBRANCH  11  12
ENDBRANCH  10  11
ENDBRANCH   9  10
ENDBRANCH   8   9
ENDBRANCH   6   8
ENDBRANCH   5   6
ENDBRANCH   4   5
ENDBRANCH   3   4
ENDBRANCH   2   3
ENDBRANCH   1   2
BRANCH   1  21
ATOM     21  C   UNL A   1      34.276  32.709  28.216  1.00  0.00     0.188 C 
BRANCH  21  22
ATOM     22  O   UNL A   1      33.491  33.817  27.783  1.00  0.00    -0.376 OA
BRANCH  22  23
ATOM     23  C   UNL A   1      33.852  35.130  28.206  1.00  0.00     0.202 C 
BRANCH  23  24
ATOM     24  C   UNL A   1      32.975  35.751  29.289  1.00  0.00     0.261 C 
BRANCH  24  25
ATOM     25  O   UNL A   1      33.711  35.970  30.504  1.00  0.00    -0.460 OA
BRANCH  25  26
ATOM     26  C   UNL A   1      33.146  35.480  31.629  1.00  0.00     0.338 C 
ATOM     27  O   UNL A   1      31.954  35.443  31.904  1.00  0.00    -0.246 OA
BRANCH  26  28
ATOM     28  C   UNL A   1      34.183  34.894  32.490  1.00  0.00     0.060 A 
ATOM     29  C   UNL A   1      35.480  35.418  32.431  1.00  0.00     0.016 A 
ATOM     30  C   UNL A   1      33.900  33.758  33.252  1.00  0.00     0.016 A 
ATOM     31  C   UNL A   1      36.524  34.759  33.079  1.00  0.00     0.010 A 
ATOM     32  C   UNL A   1      34.945  33.098  33.893  1.00  0.00     0.010 A 
ATOM     33  C   UNL A   1      36.265  33.566  33.766  1.00  0.00    -0.014 A 
BRANCH  33  34
ATOM     34  C   UNL A   1      37.368  32.677  34.190  1.00  0.00     0.031 A 
ATOM     35  C   UNL A   1      38.160  33.061  35.408  1.00  0.00     0.074 A 
ATOM     36  C   UNL A   1      37.720  31.617  33.447  1.00  0.00     0.049 A 
ATOM     37  N   UNL A   1      39.279  32.564  35.861  1.00  0.00    -0.248 NA
ATOM     38  C   UNL A   1      37.625  34.175  36.211  1.00  0.00     0.031 C 
ATOM     39  C   UNL A   1      37.024  31.159  32.247  1.00  0.00     0.029 A 
ATOM     40  N   UNL A   1      38.793  30.770  33.565  1.00  0.00    -0.354 N 
ATOM     41  C   UNL A   1      39.609  33.333  36.971  1.00  0.00     0.074 A 
ATOM     42  C   UNL A   1      38.571  34.328  37.125  1.00  0.00     0.031 C 
ATOM     43  C   UNL A   1      37.722  30.149  31.702  1.00  0.00     0.029 A 
ATOM     44  C   UNL A   1      38.926  29.915  32.498  1.00  0.00     0.049 A 
ATOM     45  H   UNL A   1      39.405  30.775  34.336  1.00  0.00     0.167 HD
ATOM     46  C   UNL A   1      40.680  33.216  37.791  1.00  0.00     0.034 A 
ATOM     47  C   UNL A   1      39.929  29.072  32.180  1.00  0.00     0.034 A 
ATOM     48  C   UNL A   1      41.693  32.209  37.642  1.00  0.00     0.049 A 
ATOM     49  C   UNL A   1      41.110  28.952  33.106  1.00  0.00     0.074 A 
ATOM     50  C   UNL A   1      42.787  31.960  38.452  1.00  0.00     0.029 A 
ATOM     51  N   UNL A   1      41.743  31.291  36.604  1.00  0.00    -0.354 N 
ATOM     52  N   UNL A   1      41.354  29.601  34.219  1.00  0.00    -0.248 NA
ATOM     53  C   UNL A   1      42.139  27.964  32.752  1.00  0.00     0.031 C 
ATOM     54  C   UNL A   1      43.509  30.902  37.890  1.00  0.00     0.029 A 
ATOM     55  C   UNL A   1      42.853  30.477  36.745  1.00  0.00     0.049 A 
ATOM     56  H   UNL A   1      41.086  31.227  35.874  1.00  0.00     0.167 HD
ATOM     57  C   UNL A   1      42.541  29.076  34.718  1.00  0.00     0.074 A 
ATOM     58  C   UNL A   1      42.964  28.049  33.788  1.00  0.00     0.031 C 
ATOM     59  C   UNL A   1      43.223  29.418  35.840  1.00  0.00     0.034 A 
BRANCH  46  60
ATOM     60  C   UNL A   1      40.792  34.194  38.929  1.00  0.00     0.023 A 
ATOM     61  C   UNL A   1      41.698  35.270  38.841  1.00  0.00     0.012 A 
ATOM     62  C   UNL A   1      39.985  34.064  40.076  1.00  0.00     0.148 A 
ATOM     63  C   UNL A   1      41.830  36.177  39.892  1.00  0.00     0.002 A 
ATOM     64  C   UNL A   1      40.090  34.998  41.102  1.00  0.00     0.091 A 
ATOM     65  F   UNL A   1      39.148  33.020  40.158  1.00  0.00    -0.205 F 
ATOM     66  C   UNL A   1      41.020  36.046  41.017  1.00  0.00     0.022 A 
BRANCH  64  67
ATOM     67  S   UNL A   1      39.034  34.946  42.553  1.00  0.00     0.127 S 
ATOM     68  O   UNL A   1      39.632  35.982  43.393  1.00  0.00    -0.237 OA
ATOM     69  O   UNL A   1      37.723  35.292  42.000  1.00  0.00    -0.237 OA
ATOM     70  O   UNL A   1      39.129  33.585  43.062  1.00  0.00    -0.744 OA
ENDBRANCH  64  67
ENDBRANCH  46  60
BRANCH  47  71
ATOM     71  C   UNL A   1      39.829  28.260  30.936  1.00  0.00     0.023 A 
ATOM     72  C   UNL A   1      39.024  27.106  30.927  1.00  0.00     0.012 A 
ATOM     73  C   UNL A   1      40.463  28.667  29.746  1.00  0.00     0.148 A 
ATOM     74  C   UNL A   1      38.864  26.361  29.758  1.00  0.00     0.002 A 
ATOM     75  C   UNL A   1      40.257  27.952  28.572  1.00  0.00     0.091 A 
ATOM     76  F   UNL A   1      41.233  29.763  29.781  1.00  0.00    -0.205 F 
ATOM     77  C   UNL A   1      39.470  26.790  28.579  1.00  0.00     0.022 A 
BRANCH  75  78
ATOM     78  S   UNL A   1      40.882  28.507  26.981  1.00  0.00     0.127 S 
ATOM     79  O   UNL A   1      39.835  29.433  26.555  1.00  0.00    -0.237 OA
ATOM     80  O   UNL A   1      42.147  29.137  27.358  1.00  0.00    -0.237 OA
ATOM     81  O   UNL A   1      41.029  27.305  26.171  1.00  0.00    -0.744 OA
ENDBRANCH  75  78
ENDBRANCH  47  71
BRANCH  59  82
ATOM     82  C   UNL A   1      44.478  28.652  36.165  1.00  0.00     0.023 A 
ATOM     83  C   UNL A   1      44.404  27.483  36.946  1.00  0.00     0.012 A 
ATOM     84  C   UNL A   1      45.712  29.031  35.599  1.00  0.00     0.148 A 
ATOM     85  C   UNL A   1      45.543  26.711  37.173  1.00  0.00     0.002 A 
ATOM     86  C   UNL A   1      46.833  28.233  35.793  1.00  0.00     0.091 A 
ATOM     87  F   UNL A   1      45.763  30.158  34.874  1.00  0.00    -0.205 F 
ATOM     88  C   UNL A   1      46.752  27.078  36.587  1.00  0.00     0.022 A 
BRANCH  86  89
ATOM     89  S   UNL A   1      48.407  28.575  34.996  1.00  0.00     0.127 S 
ATOM     90  O   UNL A   1      48.073  28.383  33.585  1.00  0.00    -0.237 OA
ATOM     91  O   UNL A   1      48.654  29.965  35.380  1.00  0.00    -0.237 OA
ATOM     92  O   UNL A   1      49.355  27.618  35.551  1.00  0.00    -0.744 OA
ENDBRANCH  86  89
ENDBRANCH  59  82
ENDBRANCH  33  34
ENDBRANCH  26  28
ENDBRANCH  25  26
ENDBRANCH  24  25
ENDBRANCH  23  24
ENDBRANCH  22  23
ENDBRANCH  21  22
ENDBRANCH   1  21
TORSDOF 26
ENDMDL
MODEL 3
REMARK VINA RESULT:      -8.0      9.825     13.383
REMARK SMILES O=C(CCCC[C@H](O)c1ccc(Cl)s1)OCCOCCOCCOC(=O)c1ccc(-c2c3nc(c(-c4cccc(S(=O)(=O)[O-])c4F)c4ccc([nH]4)c(-c4cccc(S(=O)(=O)[O-])c4F)c4nc(c(-c5cccc(S(=O)(=O)[O-])c5F)c5ccc2[nH]5)C=C4)C=C3)cc1
REMARK SMILES IDX 19 1 18 2 17 3 16 4 15 5 2 6 1 7 3 8 4 9 5 10 6 11 7 12 9 13
REMARK SMILES IDX 10 14 14 15 11 16 12 17 13 18 8 19 20 21 21 22 22 23 23 24
REMARK SMILES IDX 24 25 25 26 26 27 27 28 28 29 89 30 29 31 88 32 30 33 31 34
REMARK SMILES IDX 32 35 82 36 33 37 87 38 81 39 83 40 34 41 86 42 80 43 79 44
REMARK SMILES IDX 35 46 67 47 47 48 66 49 48 50 51 51 65 52 84 53 49 54 50 55
REMARK SMILES IDX 64 57 85 58 52 59 36 60 37 61 45 62 38 63 40 64 46 65 39 66
REMARK SMILES IDX 41 67 42 68 43 69 44 70 68 71 69 72 77 73 70 74 72 75 78 76
REMARK SMILES IDX 71 77 73 78 74 79 75 80 76 81 53 82 54 83 62 84 55 85 57 86
REMARK SMILES IDX 63 87 56 88 58 89 59 90 60 91 61 92
REMARK H PARENT 8 20 83 45 51 56
REMARK Flexibility Score: inf
ROOT
ATOM      1  C   UNL A   1      38.446  22.295  25.870  1.00  0.00     0.188 C 
ENDROOT
BRANCH   1   2
ATOM      2  O   UNL A   1      37.481  21.344  25.432  1.00  0.00    -0.376 OA
BRANCH   2   3
ATOM      3  C   UNL A   1      36.856  21.626  24.189  1.00  0.00     0.202 C 
BRANCH   3   4
ATOM      4  C   UNL A   1      36.730  23.125  23.965  1.00  0.00     0.261 C 
BRANCH   4   5
ATOM      5  O   UNL A   1      35.612  23.444  23.123  1.00  0.00    -0.463 OA
BRANCH   5   6
ATOM      6  C   UNL A   1      34.435  23.875  23.639  1.00  0.00     0.305 C 
ATOM      7  O   UNL A   1      33.418  23.839  22.949  1.00  0.00    -0.252 OA
BRANCH   6   8
ATOM      8  C   UNL A   1      34.439  24.522  25.009  1.00  0.00     0.123 C 
BRANCH   8   9
ATOM      9  C   UNL A   1      33.649  23.768  26.077  1.00  0.00     0.012 C 
BRANCH   9  10
ATOM     10  C   UNL A   1      34.380  22.633  26.813  1.00  0.00     0.004 C 
BRANCH  10  11
ATOM     11  C   UNL A   1      33.732  21.236  26.811  1.00  0.00     0.037 C 
BRANCH  11  12
ATOM     12  C   UNL A   1      33.143  20.787  25.467  1.00  0.00     0.154 C 
BRANCH  12  13
ATOM     13  C   UNL A   1      33.508  19.355  25.170  1.00  0.00     0.035 A 
ATOM     14  C   UNL A   1      34.618  18.864  24.499  1.00  0.00     0.020 A 
ATOM     15  S   UNL A   1      32.477  18.075  25.676  1.00  0.00    -0.126 S 
ATOM     16  C   UNL A   1      34.637  17.439  24.441  1.00  0.00     0.033 A 
ATOM     17  C   UNL A   1      33.529  16.908  25.047  1.00  0.00     0.093 A 
ATOM     18  Cl  UNL A   1      33.146  15.241  25.201  1.00  0.00    -0.072 Cl
ENDBRANCH  12  13
BRANCH  12  19
ATOM     19  O   UNL A   1      31.724  20.837  25.520  1.00  0.00    -0.388 OA
ATOM     20  H   UNL A   1      31.436  20.909  26.444  1.00  0.00     0.211 HD
ENDBRANCH  12  19
ENDBRANCH  11  12
ENDBRANCH  10  11
ENDBRANCH   9  10
ENDBRANCH   8   9
ENDBRANCH   6   8
ENDBRANCH   5   6
ENDBRANCH   4   5
ENDBRANCH   3   4
ENDBRANCH   2   3
ENDBRANCH   1   2
BRANCH   1  21
ATOM     21  C   UNL A   1      39.680  21.705  26.566  1.00  0.00     0.188 C 
BRANCH  21  22
ATOM     22  O   UNL A   1      40.944  21.864  25.928  1.00  0.00    -0.376 OA
BRANCH  22  23
ATOM     23  C   UNL A   1      41.788  22.944  26.320  1.00  0.00     0.202 C 
BRANCH  23  24
ATOM     24  C   UNL A   1      43.197  22.943  25.734  1.00  0.00     0.261 C 
BRANCH  24  25
ATOM     25  O   UNL A   1      44.197  23.000  26.764  1.00  0.00    -0.460 OA
BRANCH  25  26
ATOM     26  C   UNL A   1      45.466  23.189  26.340  1.00  0.00     0.338 C 
ATOM     27  O   UNL A   1      46.229  22.347  25.887  1.00  0.00    -0.246 OA
BRANCH  26  28
ATOM     28  C   UNL A   1      45.807  24.617  26.418  1.00  0.00     0.060 A 
ATOM     29  C   UNL A   1      45.895  25.352  25.229  1.00  0.00     0.016 A 
ATOM     30  C   UNL A   1      46.159  25.187  27.643  1.00  0.00     0.016 A 
ATOM     31  C   UNL A   1      46.409  26.648  25.252  1.00  0.00     0.010 A 
ATOM     32  C   UNL A   1      46.680  26.478  27.663  1.00  0.00     0.010 A 
ATOM     33  C   UNL A   1      46.854  27.191  26.464  1.00  0.00    -0.014 A 
BRANCH  33  34
ATOM     34  C   UNL A   1      47.687  28.413  26.490  1.00  0.00     0.031 A 
ATOM     35  C   UNL A   1      46.992  29.744  26.545  1.00  0.00     0.074 A 
ATOM     36  C   UNL A   1      49.021  28.338  26.359  1.00  0.00     0.049 A 
ATOM     37  N   UNL A   1      47.482  30.943  26.381  1.00  0.00    -0.248 NA
ATOM     38  C   UNL A   1      45.541  29.714  26.797  1.00  0.00     0.031 C 
ATOM     39  C   UNL A   1      49.793  27.100  26.293  1.00  0.00     0.029 A 
ATOM     40  N   UNL A   1      49.952  29.333  26.198  1.00  0.00    -0.354 N 
ATOM     41  C   UNL A   1      46.396  31.807  26.461  1.00  0.00     0.074 A 
ATOM     42  C   UNL A   1      45.222  30.994  26.690  1.00  0.00     0.031 C 
ATOM     43  C   UNL A   1      51.077  27.406  26.045  1.00  0.00     0.029 A 
ATOM     44  C   UNL A   1      51.205  28.855  25.903  1.00  0.00     0.049 A 
ATOM     45  H   UNL A   1      49.742  30.291  26.284  1.00  0.00     0.167 HD
ATOM     46  C   UNL A   1      46.380  33.156  26.355  1.00  0.00     0.034 A 
ATOM     47  C   UNL A   1      52.317  29.514  25.518  1.00  0.00     0.034 A 
ATOM     48  C   UNL A   1      47.556  33.954  26.149  1.00  0.00     0.049 A 
ATOM     49  C   UNL A   1      52.282  31.015  25.411  1.00  0.00     0.074 A 
ATOM     50  C   UNL A   1      47.663  35.332  26.091  1.00  0.00     0.029 A 
ATOM     51  N   UNL A   1      48.830  33.442  25.955  1.00  0.00    -0.354 N 
ATOM     52  N   UNL A   1      51.275  31.832  25.605  1.00  0.00    -0.248 NA
ATOM     53  C   UNL A   1      53.541  31.689  25.062  1.00  0.00     0.031 C 
ATOM     54  C   UNL A   1      49.002  35.651  25.841  1.00  0.00     0.029 A 
ATOM     55  C   UNL A   1      49.731  34.475  25.767  1.00  0.00     0.049 A 
ATOM     56  H   UNL A   1      49.060  32.485  25.951  1.00  0.00     0.167 HD
ATOM     57  C   UNL A   1      51.785  33.116  25.442  1.00  0.00     0.074 A 
ATOM     58  C   UNL A   1      53.193  32.968  25.137  1.00  0.00     0.031 C 
ATOM     59  C   UNL A   1      51.143  34.308  25.527  1.00  0.00     0.034 A 
BRANCH  46  60
ATOM     60  C   UNL A   1      45.048  33.846  26.481  1.00  0.00     0.023 A 
ATOM     61  C   UNL A   1      44.296  34.131  25.323  1.00  0.00     0.012 A 
ATOM     62  C   UNL A   1      44.529  34.191  27.743  1.00  0.00     0.148 A 
ATOM     63  C   UNL A   1      43.068  34.785  25.416  1.00  0.00     0.002 A 
ATOM     64  C   UNL A   1      43.284  34.804  27.832  1.00  0.00     0.091 A 
ATOM     65  F   UNL A   1      45.269  33.940  28.833  1.00  0.00    -0.205 F 
ATOM     66  C   UNL A   1      42.559  35.114  26.670  1.00  0.00     0.022 A 
BRANCH  64  67
ATOM     67  S   UNL A   1      42.521  35.195  29.410  1.00  0.00     0.127 S 
ATOM     68  O   UNL A   1      43.373  36.281  29.891  1.00  0.00    -0.237 OA
ATOM     69  O   UNL A   1      41.173  35.608  29.013  1.00  0.00    -0.237 OA
ATOM     70  O   UNL A   1      42.566  33.963  30.185  1.00  0.00    -0.744 OA
ENDBRANCH  64  67
ENDBRANCH  46  60
BRANCH  47  71
ATOM     71  C   UNL A   1      53.559  28.741  25.238  1.00  0.00     0.023 A 
ATOM     72  C   UNL A   1      53.837  28.334  23.919  1.00  0.00     0.012 A 
ATOM     73  C   UNL A   1      54.498  28.475  26.253  1.00  0.00     0.148 A 
ATOM     74  C   UNL A   1      55.022  27.662  23.620  1.00  0.00     0.002 A 
ATOM     75  C   UNL A   1      55.701  27.854  25.939  1.00  0.00     0.091 A 
ATOM     76  F   UNL A   1      54.207  28.863  27.503  1.00  0.00    -0.205 F 
ATOM     77  C   UNL A   1      55.958  27.433  24.626  1.00  0.00     0.022 A 
BRANCH  75  78
ATOM     78  S   UNL A   1      57.022  27.644  27.139  1.00  0.00     0.127 S 
ATOM     79  O   UNL A   1      57.431  26.263  26.896  1.00  0.00    -0.237 OA
ATOM     80  O   UNL A   1      57.985  28.658  26.706  1.00  0.00    -0.237 OA
ATOM     81  O   UNL A   1      56.421  27.905  28.440  1.00  0.00    -0.744 OA
ENDBRANCH  75  78
ENDBRANCH  47  71
BRANCH  59  82
ATOM     82  C   UNL A   1      51.955  35.563  25.337  1.00  0.00     0.023 A 
ATOM     83  C   UNL A   1      52.150  36.082  24.044  1.00  0.00     0.012 A 
ATOM     84  C   UNL A   1      52.423  36.285  26.453  1.00  0.00     0.148 A 
ATOM     85  C   UNL A   1      52.817  37.294  23.862  1.00  0.00     0.002 A 
ATOM     86  C   UNL A   1      53.047  37.513  26.267  1.00  0.00     0.091 A 
ATOM     87  F   UNL A   1      52.242  35.761  27.675  1.00  0.00    -0.205 F 
ATOM     88  C   UNL A   1      53.252  38.014  24.972  1.00  0.00     0.022 A 
BRANCH  86  89
ATOM     89  S   UNL A   1      53.550  38.553  27.643  1.00  0.00     0.127 S 
ATOM     90  O   UNL A   1      53.677  39.859  26.997  1.00  0.00    -0.237 OA
ATOM     91  O   UNL A   1      52.413  38.432  28.556  1.00  0.00    -0.237 OA
ATOM     92  O   UNL A   1      54.791  37.981  28.146  1.00  0.00    -0.744 OA
ENDBRANCH  86  89
ENDBRANCH  59  82
ENDBRANCH  33  34
ENDBRANCH  26  28
ENDBRANCH  25  26
ENDBRANCH  24  25
ENDBRANCH  23  24
ENDBRANCH  22  23
ENDBRANCH  21  22
ENDBRANCH   1  21
TORSDOF 26
ENDMDL
