MODEL 1
REMARK VINA RESULT:     -10.3      0.000      0.000
REMARK SMILES Cc1ccc2nc(CC3(CC(=O)OCCOCCOCCOC(=O)c4ccc(-c5c6nc(c(-c7cccc(S(=O)(=O)[O-])c7F)c7ccc([nH]7)c(-c7cccc(S(=O)(=O)[O-])c7F)c7nc(c(-c8cccc(S(=O)(=O)[O-])c8F)c8ccc5[nH]8)C=C7)C=C6)cc4)CCCCC3)sc2c1
REMARK SMILES IDX 17 1 16 2 15 3 14 4 13 5 11 6 12 7 10 8 9 9 88 10 92 11
REMARK SMILES IDX 89 12 91 13 90 14 8 15 7 16 1 17 2 18 3 19 95 20 4 21 94 22
REMARK SMILES IDX 5 23 93 24 6 25 18 26 19 27 20 28 21 29 22 30 23 31 24 32
REMARK SMILES IDX 25 33 26 34 87 35 27 36 86 37 28 38 29 39 30 40 80 41 31 42
REMARK SMILES IDX 85 43 79 44 81 45 32 46 84 47 78 48 77 49 33 51 65 52 45 53
REMARK SMILES IDX 64 54 46 55 49 56 63 57 82 58 47 59 48 60 62 62 83 63 50 64
REMARK SMILES IDX 34 65 35 66 43 67 36 68 38 69 44 70 37 71 39 72 40 73 41 74
REMARK SMILES IDX 42 75 66 76 67 77 75 78 68 79 70 80 76 81 69 82 71 83 72 84
REMARK SMILES IDX 73 85 74 86 51 87 52 88 60 89 53 90 55 91 61 92 54 93 56 94
REMARK SMILES IDX 57 95 58 96 59 97
REMARK H PARENT 81 50 49 61
REMARK Flexibility Score: inf
ROOT
ATOM      1  C   UNL A   1      37.331  24.008  25.775  1.00  0.00     0.188 C 
ENDROOT
BRANCH   1   2
ATOM      2  O   UNL A   1      35.909  23.941  25.745  1.00  0.00    -0.376 OA
BRANCH   2   3
ATOM      3  C   UNL A   1      35.293  24.160  24.480  1.00  0.00     0.202 C 
BRANCH   3   4
ATOM      4  C   UNL A   1      34.366  25.378  24.390  1.00  0.00     0.261 C 
BRANCH   4   5
ATOM      5  O   UNL A   1      33.657  25.484  23.138  1.00  0.00    -0.463 OA
BRANCH   5   6
ATOM      6  C   UNL A   1      33.119  26.699  22.868  1.00  0.00     0.306 C 
ATOM      7  O   UNL A   1      33.770  27.722  22.675  1.00  0.00    -0.252 OA
BRANCH   6   8
ATOM      8  C   UNL A   1      31.606  26.693  22.719  1.00  0.00     0.130 C 
BRANCH   8   9
ATOM      9  C   UNL A   1      30.656  26.917  23.945  1.00  0.00    -0.013 C 
ATOM     10  C   UNL A   1      29.632  28.037  23.565  1.00  0.00     0.008 C 
ATOM     11  C   UNL A   1      31.410  27.376  25.217  1.00  0.00     0.008 C 
ATOM     12  C   UNL A   1      30.239  29.443  23.479  1.00  0.00     0.001 C 
ATOM     13  C   UNL A   1      32.081  28.735  25.060  1.00  0.00     0.001 C 
ATOM     14  C   UNL A   1      31.048  29.803  24.720  1.00  0.00     0.000 C 
BRANCH   9  15
ATOM     15  C   UNL A   1      29.870  25.588  24.179  1.00  0.00     0.075 C 
BRANCH  15  16
ATOM     16  C   UNL A   1      30.711  24.355  24.412  1.00  0.00     0.094 A 
ATOM     17  C   UNL A   1      34.282  19.302  24.715  1.00  0.00     0.044 C 
ATOM     18  C   UNL A   1      33.487  20.549  24.974  1.00  0.00    -0.050 A 
ATOM     19  C   UNL A   1      33.453  21.113  26.252  1.00  0.00     0.006 A 
ATOM     20  C   UNL A   1      32.787  21.159  23.919  1.00  0.00     0.024 A 
ATOM     21  C   UNL A   1      32.730  22.285  26.498  1.00  0.00     0.030 A 
ATOM     22  C   UNL A   1      32.043  22.323  24.185  1.00  0.00     0.055 A 
ATOM     23  C   UNL A   1      32.018  22.903  25.452  1.00  0.00     0.082 A 
ATOM     24  S   UNL A   1      31.044  23.252  23.133  1.00  0.00    -0.119 S 
ATOM     25  N   UNL A   1      31.272  24.061  25.564  1.00  0.00    -0.241 NA
ENDBRANCH  15  16
ENDBRANCH   9  15
ENDBRANCH   8   9
ENDBRANCH   6   8
ENDBRANCH   5   6
ENDBRANCH   4   5
ENDBRANCH   3   4
ENDBRANCH   2   3
ENDBRANCH   1   2
BRANCH   1  26
ATOM     26  C   UNL A   1      38.063  22.687  26.033  1.00  0.00     0.188 C 
BRANCH  26  27
ATOM     27  O   UNL A   1      37.295  21.536  25.702  1.00  0.00    -0.376 OA
BRANCH  27  28
ATOM     28  C   UNL A   1      37.877  20.564  24.830  1.00  0.00     0.202 C 
BRANCH  28  29
ATOM     29  C   UNL A   1      38.860  19.523  25.398  1.00  0.00     0.261 C 
BRANCH  29  30
ATOM     30  O   UNL A   1      39.796  20.046  26.359  1.00  0.00    -0.460 OA
BRANCH  30  31
ATOM     31  C   UNL A   1      41.100  19.734  26.171  1.00  0.00     0.338 C 
ATOM     32  O   UNL A   1      41.539  18.695  25.707  1.00  0.00    -0.246 OA
BRANCH  31  33
ATOM     33  C   UNL A   1      41.903  20.965  26.387  1.00  0.00     0.060 A 
ATOM     34  C   UNL A   1      42.317  21.263  27.692  1.00  0.00     0.016 A 
ATOM     35  C   UNL A   1      42.316  21.772  25.325  1.00  0.00     0.016 A 
ATOM     36  C   UNL A   1      43.099  22.389  27.950  1.00  0.00     0.010 A 
ATOM     37  C   UNL A   1      43.092  22.908  25.583  1.00  0.00     0.010 A 
ATOM     38  C   UNL A   1      43.455  23.243  26.901  1.00  0.00    -0.014 A 
BRANCH  38  39
ATOM     39  C   UNL A   1      44.008  24.588  27.200  1.00  0.00     0.031 A 
ATOM     40  C   UNL A   1      43.065  25.635  27.732  1.00  0.00     0.074 A 
ATOM     41  C   UNL A   1      45.306  24.888  27.018  1.00  0.00     0.049 A 
ATOM     42  N   UNL A   1      43.286  26.895  27.997  1.00  0.00    -0.248 NA
ATOM     43  C   UNL A   1      41.683  25.196  27.997  1.00  0.00     0.031 C 
ATOM     44  C   UNL A   1      46.334  23.965  26.540  1.00  0.00     0.029 A 
ATOM     45  N   UNL A   1      45.975  26.076  27.191  1.00  0.00    -0.354 N 
ATOM     46  C   UNL A   1      42.066  27.410  28.417  1.00  0.00     0.074 A 
ATOM     47  C   UNL A   1      41.107  26.328  28.370  1.00  0.00     0.031 C 
ATOM     48  C   UNL A   1      47.497  24.630  26.425  1.00  0.00     0.029 A 
ATOM     49  C   UNL A   1      47.290  26.032  26.791  1.00  0.00     0.049 A 
ATOM     50  H   UNL A   1      45.552  26.883  27.566  1.00  0.00     0.167 HD
ATOM     51  C   UNL A   1      41.767  28.667  28.819  1.00  0.00     0.034 A 
ATOM     52  C   UNL A   1      48.209  27.015  26.700  1.00  0.00     0.034 A 
ATOM     53  C   UNL A   1      42.719  29.740  28.892  1.00  0.00     0.049 A 
ATOM     54  C   UNL A   1      47.843  28.419  27.119  1.00  0.00     0.074 A 
ATOM     55  C   UNL A   1      42.516  31.038  29.326  1.00  0.00     0.029 A 
ATOM     56  N   UNL A   1      44.047  29.648  28.512  1.00  0.00    -0.354 N 
ATOM     57  N   UNL A   1      46.714  28.869  27.607  1.00  0.00    -0.248 NA
ATOM     58  C   UNL A   1      48.891  29.446  26.997  1.00  0.00     0.031 C 
ATOM     59  C   UNL A   1      43.717  31.740  29.179  1.00  0.00     0.029 A 
ATOM     60  C   UNL A   1      44.676  30.868  28.689  1.00  0.00     0.049 A 
ATOM     61  H   UNL A   1      44.482  28.833  28.168  1.00  0.00     0.167 HD
ATOM     62  C   UNL A   1      46.926  30.216  27.888  1.00  0.00     0.074 A 
ATOM     63  C   UNL A   1      48.298  30.506  27.530  1.00  0.00     0.031 C 
ATOM     64  C   UNL A   1      46.059  31.133  28.384  1.00  0.00     0.034 A 
BRANCH  51  65
ATOM     65  C   UNL A   1      40.344  28.948  29.216  1.00  0.00     0.023 A 
ATOM     66  C   UNL A   1      39.387  29.256  28.229  1.00  0.00     0.012 A 
ATOM     67  C   UNL A   1      39.947  28.863  30.565  1.00  0.00     0.148 A 
ATOM     68  C   UNL A   1      38.061  29.509  28.582  1.00  0.00     0.002 A 
ATOM     69  C   UNL A   1      38.616  29.070  30.903  1.00  0.00     0.091 A 
ATOM     70  F   UNL A   1      40.879  28.595  31.490  1.00  0.00    -0.205 F 
ATOM     71  C   UNL A   1      37.674  29.405  29.915  1.00  0.00     0.022 A 
BRANCH  69  72
ATOM     72  S   UNL A   1      38.006  28.882  32.581  1.00  0.00     0.127 S 
ATOM     73  O   UNL A   1      38.162  27.443  32.791  1.00  0.00    -0.237 OA
ATOM     74  O   UNL A   1      38.939  29.713  33.342  1.00  0.00    -0.237 OA
ATOM     75  O   UNL A   1      36.633  29.367  32.566  1.00  0.00    -0.744 OA
ENDBRANCH  69  72
ENDBRANCH  51  65
BRANCH  52  76
ATOM     76  C   UNL A   1      49.581  26.713  26.198  1.00  0.00     0.023 A 
ATOM     77  C   UNL A   1      50.491  26.025  27.024  1.00  0.00     0.012 A 
ATOM     78  C   UNL A   1      49.990  27.113  24.911  1.00  0.00     0.148 A 
ATOM     79  C   UNL A   1      51.793  25.766  26.589  1.00  0.00     0.002 A 
ATOM     80  C   UNL A   1      51.269  26.804  24.463  1.00  0.00     0.091 A 
ATOM     81  F   UNL A   1      49.117  27.787  24.150  1.00  0.00    -0.205 F 
ATOM     82  C   UNL A   1      52.178  26.147  25.306  1.00  0.00     0.022 A 
BRANCH  80  83
ATOM     83  S   UNL A   1      51.814  27.151  22.787  1.00  0.00     0.127 S 
ATOM     84  O   UNL A   1      52.990  26.293  22.672  1.00  0.00    -0.237 OA
ATOM     85  O   UNL A   1      50.657  26.720  22.001  1.00  0.00    -0.237 OA
ATOM     86  O   UNL A   1      52.072  28.583  22.745  1.00  0.00    -0.744 OA
ENDBRANCH  80  83
ENDBRANCH  52  76
BRANCH  64  87
ATOM     87  C   UNL A   1      46.566  32.534  28.626  1.00  0.00     0.023 A 
ATOM     88  C   UNL A   1      47.043  32.901  29.900  1.00  0.00     0.012 A 
ATOM     89  C   UNL A   1      46.653  33.457  27.564  1.00  0.00     0.148 A 
ATOM     90  C   UNL A   1      47.570  34.174  30.120  1.00  0.00     0.002 A 
ATOM     91  C   UNL A   1      47.226  34.705  27.779  1.00  0.00     0.091 A 
ATOM     92  F   UNL A   1      46.181  33.095  26.362  1.00  0.00    -0.205 F 
ATOM     93  C   UNL A   1      47.673  35.070  29.059  1.00  0.00     0.022 A 
BRANCH  91  94
ATOM     94  S   UNL A   1      47.490  35.886  26.451  1.00  0.00     0.127 S 
ATOM     95  O   UNL A   1      48.372  35.138  25.557  1.00  0.00    -0.237 OA
ATOM     96  O   UNL A   1      46.133  36.088  25.940  1.00  0.00    -0.237 OA
ATOM     97  O   UNL A   1      48.083  37.063  27.071  1.00  0.00    -0.744 OA
ENDBRANCH  91  94
ENDBRANCH  64  87
ENDBRANCH  38  39
ENDBRANCH  31  33
ENDBRANCH  30  31
ENDBRANCH  29  30
ENDBRANCH  28  29
ENDBRANCH  27  28
ENDBRANCH  26  27
ENDBRANCH   1  26
TORSDOF 23
ENDMDL
MODEL 2
REMARK VINA RESULT:     -10.1      1.796      3.794
REMARK SMILES Cc1ccc2nc(CC3(CC(=O)OCCOCCOCCOC(=O)c4ccc(-c5c6nc(c(-c7cccc(S(=O)(=O)[O-])c7F)c7ccc([nH]7)c(-c7cccc(S(=O)(=O)[O-])c7F)c7nc(c(-c8cccc(S(=O)(=O)[O-])c8F)c8ccc5[nH]8)C=C7)C=C6)cc4)CCCCC3)sc2c1
REMARK SMILES IDX 17 1 16 2 15 3 14 4 13 5 11 6 12 7 10 8 9 9 88 10 92 11
REMARK SMILES IDX 89 12 91 13 90 14 8 15 7 16 1 17 2 18 3 19 95 20 4 21 94 22
REMARK SMILES IDX 5 23 93 24 6 25 18 26 19 27 20 28 21 29 22 30 23 31 24 32
REMARK SMILES IDX 25 33 26 34 87 35 27 36 86 37 28 38 29 39 30 40 80 41 31 42
REMARK SMILES IDX 85 43 79 44 81 45 32 46 84 47 78 48 77 49 33 51 65 52 45 53
REMARK SMILES IDX 64 54 46 55 49 56 63 57 82 58 47 59 48 60 62 62 83 63 50 64
REMARK SMILES IDX 34 65 35 66 43 67 36 68 38 69 44 70 37 71 39 72 40 73 41 74
REMARK SMILES IDX 42 75 66 76 67 77 75 78 68 79 70 80 76 81 69 82 71 83 72 84
REMARK SMILES IDX 73 85 74 86 51 87 52 88 60 89 53 90 55 91 61 92 54 93 56 94
REMARK SMILES IDX 57 95 58 96 59 97
REMARK H PARENT 81 50 49 61
REMARK Flexibility Score: inf
ROOT
ATOM      1  C   UNL A   1      38.061  23.846  25.704  1.00  0.00     0.188 C 
ENDROOT
BRANCH   1   2
ATOM      2  O   UNL A   1      36.983  23.707  24.784  1.00  0.00    -0.376 OA
BRANCH   2   3
ATOM      3  C   UNL A   1      35.735  24.263  25.184  1.00  0.00     0.202 C 
BRANCH   3   4
ATOM      4  C   UNL A   1      34.973  23.487  26.266  1.00  0.00     0.261 C 
BRANCH   4   5
ATOM      5  O   UNL A   1      33.549  23.422  26.048  1.00  0.00    -0.463 OA
BRANCH   5   6
ATOM      6  C   UNL A   1      32.975  22.214  26.271  1.00  0.00     0.306 C 
ATOM      7  O   UNL A   1      33.062  21.584  27.322  1.00  0.00    -0.252 OA
BRANCH   6   8
ATOM      8  C   UNL A   1      32.106  21.716  25.128  1.00  0.00     0.130 C 
BRANCH   8   9
ATOM      9  C   UNL A   1      32.728  21.139  23.811  1.00  0.00    -0.013 C 
ATOM     10  C   UNL A   1      32.190  19.682  23.620  1.00  0.00     0.008 C 
ATOM     11  C   UNL A   1      34.274  21.072  23.851  1.00  0.00     0.008 C 
ATOM     12  C   UNL A   1      32.762  18.664  24.614  1.00  0.00     0.001 C 
ATOM     13  C   UNL A   1      34.806  20.122  24.917  1.00  0.00     0.001 C 
ATOM     14  C   UNL A   1      34.284  18.709  24.679  1.00  0.00     0.000 C 
BRANCH   9  15
ATOM     15  C   UNL A   1      32.211  22.015  22.625  1.00  0.00     0.075 C 
BRANCH  15  16
ATOM     16  C   UNL A   1      31.828  23.434  22.970  1.00  0.00     0.094 A 
ATOM     17  C   UNL A   1      30.745  29.450  23.984  1.00  0.00     0.044 C 
ATOM     18  C   UNL A   1      30.687  27.955  23.848  1.00  0.00    -0.050 A 
ATOM     19  C   UNL A   1      29.518  27.260  24.169  1.00  0.00     0.006 A 
ATOM     20  C   UNL A   1      31.813  27.255  23.380  1.00  0.00     0.024 A 
ATOM     21  C   UNL A   1      29.449  25.871  24.028  1.00  0.00     0.030 A 
ATOM     22  C   UNL A   1      31.739  25.855  23.267  1.00  0.00     0.055 A 
ATOM     23  C   UNL A   1      30.572  25.156  23.567  1.00  0.00     0.082 A 
ATOM     24  S   UNL A   1      32.951  24.727  22.791  1.00  0.00    -0.119 S 
ATOM     25  N   UNL A   1      30.630  23.788  23.381  1.00  0.00    -0.241 NA
ENDBRANCH  15  16
ENDBRANCH   9  15
ENDBRANCH   8   9
ENDBRANCH   6   8
ENDBRANCH   5   6
ENDBRANCH   4   5
ENDBRANCH   3   4
ENDBRANCH   2   3
ENDBRANCH   1   2
BRANCH   1  26
ATOM     26  C   UNL A   1      38.484  22.573  26.443  1.00  0.00     0.188 C 
BRANCH  26  27
ATOM     27  O   UNL A   1      37.827  21.399  25.979  1.00  0.00    -0.376 OA
BRANCH  27  28
ATOM     28  C   UNL A   1      38.483  20.606  24.986  1.00  0.00     0.202 C 
BRANCH  28  29
ATOM     29  C   UNL A   1      39.272  19.354  25.411  1.00  0.00     0.261 C 
BRANCH  29  30
ATOM     30  O   UNL A   1      40.188  19.565  26.503  1.00  0.00    -0.460 OA
BRANCH  30  31
ATOM     31  C   UNL A   1      41.476  19.825  26.176  1.00  0.00     0.338 C 
ATOM     32  O   UNL A   1      42.210  19.122  25.502  1.00  0.00    -0.246 OA
BRANCH  31  33
ATOM     33  C   UNL A   1      41.772  21.228  26.560  1.00  0.00     0.060 A 
ATOM     34  C   UNL A   1      41.839  22.191  25.543  1.00  0.00     0.016 A 
ATOM     35  C   UNL A   1      41.902  21.618  27.894  1.00  0.00     0.016 A 
ATOM     36  C   UNL A   1      42.083  23.530  25.846  1.00  0.00     0.010 A 
ATOM     37  C   UNL A   1      42.157  22.959  28.200  1.00  0.00     0.010 A 
ATOM     38  C   UNL A   1      42.287  23.916  27.175  1.00  0.00    -0.014 A 
BRANCH  38  39
ATOM     39  C   UNL A   1      42.851  25.256  27.476  1.00  0.00     0.031 A 
ATOM     40  C   UNL A   1      41.959  26.258  28.159  1.00  0.00     0.074 A 
ATOM     41  C   UNL A   1      44.117  25.588  27.165  1.00  0.00     0.049 A 
ATOM     42  N   UNL A   1      42.191  27.508  28.460  1.00  0.00    -0.248 NA
ATOM     43  C   UNL A   1      40.622  25.781  28.554  1.00  0.00     0.031 C 
ATOM     44  C   UNL A   1      45.097  24.708  26.531  1.00  0.00     0.029 A 
ATOM     45  N   UNL A   1      44.784  26.779  27.321  1.00  0.00    -0.354 N 
ATOM     46  C   UNL A   1      41.019  27.979  29.037  1.00  0.00     0.074 A 
ATOM     47  C   UNL A   1      40.076  26.883  29.045  1.00  0.00     0.031 C 
ATOM     48  C   UNL A   1      46.231  25.401  26.321  1.00  0.00     0.029 A 
ATOM     49  C   UNL A   1      46.046  26.779  26.775  1.00  0.00     0.049 A 
ATOM     50  H   UNL A   1      44.395  27.559  27.780  1.00  0.00     0.167 HD
ATOM     51  C   UNL A   1      40.750  29.210  29.531  1.00  0.00     0.034 A 
ATOM     52  C   UNL A   1      46.936  27.783  26.631  1.00  0.00     0.034 A 
ATOM     53  C   UNL A   1      41.689  30.297  29.550  1.00  0.00     0.049 A 
ATOM     54  C   UNL A   1      46.600  29.159  27.157  1.00  0.00     0.074 A 
ATOM     55  C   UNL A   1      41.518  31.569  30.067  1.00  0.00     0.029 A 
ATOM     56  N   UNL A   1      42.968  30.247  29.021  1.00  0.00    -0.354 N 
ATOM     57  N   UNL A   1      45.526  29.563  27.789  1.00  0.00    -0.248 NA
ATOM     58  C   UNL A   1      47.613  30.209  26.969  1.00  0.00     0.031 C 
ATOM     59  C   UNL A   1      42.685  32.299  29.822  1.00  0.00     0.029 A 
ATOM     60  C   UNL A   1      43.595  31.470  29.186  1.00  0.00     0.049 A 
ATOM     61  H   UNL A   1      43.372  29.459  28.592  1.00  0.00     0.167 HD
ATOM     62  C   UNL A   1      45.750  30.899  28.110  1.00  0.00     0.074 A 
ATOM     63  C   UNL A   1      47.070  31.232  27.616  1.00  0.00     0.031 C 
ATOM     64  C   UNL A   1      44.932  31.776  28.744  1.00  0.00     0.034 A 
BRANCH  51  65
ATOM     65  C   UNL A   1      39.376  29.445  30.097  1.00  0.00     0.023 A 
ATOM     66  C   UNL A   1      39.079  29.030  31.411  1.00  0.00     0.012 A 
ATOM     67  C   UNL A   1      38.394  30.115  29.342  1.00  0.00     0.148 A 
ATOM     68  C   UNL A   1      37.812  29.249  31.953  1.00  0.00     0.002 A 
ATOM     69  C   UNL A   1      37.151  30.371  29.905  1.00  0.00     0.091 A 
ATOM     70  F   UNL A   1      38.691  30.476  28.086  1.00  0.00    -0.205 F 
ATOM     71  C   UNL A   1      36.854  29.929  31.205  1.00  0.00     0.022 A 
BRANCH  69  72
ATOM     72  S   UNL A   1      35.880  31.307  29.052  1.00  0.00     0.127 S 
ATOM     73  O   UNL A   1      36.672  32.338  28.382  1.00  0.00    -0.237 OA
ATOM     74  O   UNL A   1      35.307  30.302  28.156  1.00  0.00    -0.237 OA
ATOM     75  O   UNL A   1      34.972  31.788  30.084  1.00  0.00    -0.744 OA
ENDBRANCH  69  72
ENDBRANCH  51  65
BRANCH  52  76
ATOM     76  C   UNL A   1      48.248  27.531  25.966  1.00  0.00     0.023 A 
ATOM     77  C   UNL A   1      49.370  27.186  26.743  1.00  0.00     0.012 A 
ATOM     78  C   UNL A   1      48.388  27.641  24.569  1.00  0.00     0.148 A 
ATOM     79  C   UNL A   1      50.616  26.984  26.146  1.00  0.00     0.002 A 
ATOM     80  C   UNL A   1      49.618  27.386  23.974  1.00  0.00     0.091 A 
ATOM     81  F   UNL A   1      47.314  27.994  23.850  1.00  0.00    -0.205 F 
ATOM     82  C   UNL A   1      50.737  27.074  24.761  1.00  0.00     0.022 A 
BRANCH  80  83
ATOM     83  S   UNL A   1      49.841  27.363  22.192  1.00  0.00     0.127 S 
ATOM     84  O   UNL A   1      49.612  28.763  21.844  1.00  0.00    -0.237 OA
ATOM     85  O   UNL A   1      51.230  26.917  22.070  1.00  0.00    -0.237 OA
ATOM     86  O   UNL A   1      48.857  26.417  21.684  1.00  0.00    -0.744 OA
ENDBRANCH  80  83
ENDBRANCH  52  76
BRANCH  64  87
ATOM     87  C   UNL A   1      45.443  33.173  28.996  1.00  0.00     0.023 A 
ATOM     88  C   UNL A   1      46.231  33.440  30.133  1.00  0.00     0.012 A 
ATOM     89  C   UNL A   1      45.219  34.198  28.055  1.00  0.00     0.148 A 
ATOM     90  C   UNL A   1      46.759  34.714  30.346  1.00  0.00     0.002 A 
ATOM     91  C   UNL A   1      45.791  35.450  28.248  1.00  0.00     0.091 A 
ATOM     92  F   UNL A   1      44.456  33.929  26.985  1.00  0.00    -0.205 F 
ATOM     93  C   UNL A   1      46.550  35.713  29.399  1.00  0.00     0.022 A 
BRANCH  91  94
ATOM     94  S   UNL A   1      45.659  36.768  27.033  1.00  0.00     0.127 S 
ATOM     95  O   UNL A   1      46.397  36.207  25.903  1.00  0.00    -0.237 OA
ATOM     96  O   UNL A   1      44.212  36.860  26.832  1.00  0.00    -0.237 OA
ATOM     97  O   UNL A   1      46.258  37.944  27.649  1.00  0.00    -0.744 OA
ENDBRANCH  91  94
ENDBRANCH  64  87
ENDBRANCH  38  39
ENDBRANCH  31  33
ENDBRANCH  30  31
ENDBRANCH  29  30
ENDBRANCH  28  29
ENDBRANCH  27  28
ENDBRANCH  26  27
ENDBRANCH   1  26
TORSDOF 23
ENDMDL
MODEL 3
REMARK VINA RESULT:      -9.4      4.902      8.446
REMARK SMILES Cc1ccc2nc(CC3(CC(=O)OCCOCCOCCOC(=O)c4ccc(-c5c6nc(c(-c7cccc(S(=O)(=O)[O-])c7F)c7ccc([nH]7)c(-c7cccc(S(=O)(=O)[O-])c7F)c7nc(c(-c8cccc(S(=O)(=O)[O-])c8F)c8ccc5[nH]8)C=C7)C=C6)cc4)CCCCC3)sc2c1
REMARK SMILES IDX 17 1 16 2 15 3 14 4 13 5 11 6 12 7 10 8 9 9 88 10 92 11
REMARK SMILES IDX 89 12 91 13 90 14 8 15 7 16 1 17 2 18 3 19 95 20 4 21 94 22
REMARK SMILES IDX 5 23 93 24 6 25 18 26 19 27 20 28 21 29 22 30 23 31 24 32
REMARK SMILES IDX 25 33 26 34 87 35 27 36 86 37 28 38 29 39 30 40 80 41 31 42
REMARK SMILES IDX 85 43 79 44 81 45 32 46 84 47 78 48 77 49 33 51 65 52 45 53
REMARK SMILES IDX 64 54 46 55 49 56 63 57 82 58 47 59 48 60 62 62 83 63 50 64
REMARK SMILES IDX 34 65 35 66 43 67 36 68 38 69 44 70 37 71 39 72 40 73 41 74
REMARK SMILES IDX 42 75 66 76 67 77 75 78 68 79 70 80 76 81 69 82 71 83 72 84
REMARK SMILES IDX 73 85 74 86 51 87 52 88 60 89 53 90 55 91 61 92 54 93 56 94
REMARK SMILES IDX 57 95 58 96 59 97
REMARK H PARENT 81 50 49 61
REMARK Flexibility Score: inf
ROOT
ATOM      1  C   UNL A   1      31.353  28.955  24.785  1.00  0.00     0.188 C 
ENDROOT
BRANCH   1   2
ATOM      2  O   UNL A   1      31.885  29.297  23.508  1.00  0.00    -0.376 OA
BRANCH   2   3
ATOM      3  C   UNL A   1      32.870  28.416  22.979  1.00  0.00     0.202 C 
BRANCH   3   4
ATOM      4  C   UNL A   1      33.737  27.683  24.010  1.00  0.00     0.261 C 
BRANCH   4   5
ATOM      5  O   UNL A   1      33.563  26.252  24.011  1.00  0.00    -0.463 OA
BRANCH   5   6
ATOM      6  C   UNL A   1      33.334  25.688  25.223  1.00  0.00     0.306 C 
ATOM      7  O   UNL A   1      33.227  26.314  26.274  1.00  0.00    -0.252 OA
BRANCH   6   8
ATOM      8  C   UNL A   1      33.112  24.185  25.180  1.00  0.00     0.130 C 
BRANCH   8   9
ATOM      9  C   UNL A   1      31.786  23.563  24.623  1.00  0.00    -0.013 C 
ATOM     10  C   UNL A   1      30.831  24.736  24.225  1.00  0.00     0.008 C 
ATOM     11  C   UNL A   1      31.050  22.682  25.661  1.00  0.00     0.008 C 
ATOM     12  C   UNL A   1      30.247  25.504  25.418  1.00  0.00     0.001 C 
ATOM     13  C   UNL A   1      30.568  23.464  26.877  1.00  0.00     0.001 C 
ATOM     14  C   UNL A   1      29.617  24.577  26.452  1.00  0.00     0.000 C 
BRANCH   9  15
ATOM     15  C   UNL A   1      32.150  22.763  23.331  1.00  0.00     0.075 C 
BRANCH  15  16
ATOM     16  C   UNL A   1      32.674  21.363  23.546  1.00  0.00     0.094 A 
ATOM     17  C   UNL A   1      35.066  15.838  25.007  1.00  0.00     0.044 C 
ATOM     18  C   UNL A   1      34.289  16.994  24.445  1.00  0.00    -0.050 A 
ATOM     19  C   UNL A   1      33.278  16.776  23.506  1.00  0.00     0.006 A 
ATOM     20  C   UNL A   1      34.572  18.300  24.880  1.00  0.00     0.024 A 
ATOM     21  C   UNL A   1      32.537  17.844  22.991  1.00  0.00     0.030 A 
ATOM     22  C   UNL A   1      33.837  19.368  24.335  1.00  0.00     0.055 A 
ATOM     23  C   UNL A   1      32.814  19.158  23.413  1.00  0.00     0.082 A 
ATOM     24  S   UNL A   1      33.989  21.061  24.615  1.00  0.00    -0.119 S 
ATOM     25  N   UNL A   1      32.154  20.294  22.984  1.00  0.00    -0.241 NA
ENDBRANCH  15  16
ENDBRANCH   9  15
ENDBRANCH   8   9
ENDBRANCH   6   8
ENDBRANCH   5   6
ENDBRANCH   4   5
ENDBRANCH   3   4
ENDBRANCH   2   3
ENDBRANCH   1   2
BRANCH   1  26
ATOM     26  C   UNL A   1      31.584  29.975  25.905  1.00  0.00     0.188 C 
BRANCH  26  27
ATOM     27  O   UNL A   1      32.468  29.516  26.921  1.00  0.00    -0.376 OA
BRANCH  27  28
ATOM     28  C   UNL A   1      33.784  30.073  26.973  1.00  0.00     0.202 C 
BRANCH  28  29
ATOM     29  C   UNL A   1      33.969  31.557  27.341  1.00  0.00     0.261 C 
BRANCH  29  30
ATOM     30  O   UNL A   1      33.997  31.824  28.756  1.00  0.00    -0.460 OA
BRANCH  30  31
ATOM     31  C   UNL A   1      35.006  32.605  29.208  1.00  0.00     0.338 C 
ATOM     32  O   UNL A   1      34.914  33.758  29.593  1.00  0.00    -0.246 OA
BRANCH  31  33
ATOM     33  C   UNL A   1      36.201  31.746  29.401  1.00  0.00     0.060 A 
ATOM     34  C   UNL A   1      36.040  30.533  30.084  1.00  0.00     0.016 A 
ATOM     35  C   UNL A   1      37.443  32.075  28.854  1.00  0.00     0.016 A 
ATOM     36  C   UNL A   1      37.121  29.671  30.268  1.00  0.00     0.010 A 
ATOM     37  C   UNL A   1      38.531  31.216  29.046  1.00  0.00     0.010 A 
ATOM     38  C   UNL A   1      38.384  30.028  29.787  1.00  0.00    -0.014 A 
BRANCH  38  39
ATOM     39  C   UNL A   1      39.585  29.284  30.242  1.00  0.00     0.031 A 
ATOM     40  C   UNL A   1      40.289  29.772  31.481  1.00  0.00     0.074 A 
ATOM     41  C   UNL A   1      40.048  28.201  29.592  1.00  0.00     0.049 A 
ATOM     42  N   UNL A   1      41.391  29.343  32.034  1.00  0.00    -0.248 NA
ATOM     43  C   UNL A   1      39.660  30.901  32.187  1.00  0.00     0.031 C 
ATOM     44  C   UNL A   1      39.449  27.602  28.401  1.00  0.00     0.029 A 
ATOM     45  N   UNL A   1      41.157  27.427  29.837  1.00  0.00    -0.354 N 
ATOM     46  C   UNL A   1      41.613  30.173  33.125  1.00  0.00     0.074 A 
ATOM     47  C   UNL A   1      40.532  31.134  33.156  1.00  0.00     0.031 C 
ATOM     48  C   UNL A   1      40.217  26.574  27.998  1.00  0.00     0.029 A 
ATOM     49  C   UNL A   1      41.377  26.462  28.882  1.00  0.00     0.049 A 
ATOM     50  H   UNL A   1      41.740  27.552  30.621  1.00  0.00     0.167 HD
ATOM     51  C   UNL A   1      42.617  30.137  34.031  1.00  0.00     0.034 A 
ATOM     52  C   UNL A   1      42.411  25.609  28.724  1.00  0.00     0.034 A 
ATOM     53  C   UNL A   1      43.680  29.172  34.022  1.00  0.00     0.049 A 
ATOM     54  C   UNL A   1      43.540  25.611  29.726  1.00  0.00     0.074 A 
ATOM     55  C   UNL A   1      44.721  29.032  34.923  1.00  0.00     0.029 A 
ATOM     56  N   UNL A   1      43.849  28.189  33.061  1.00  0.00    -0.354 N 
ATOM     57  N   UNL A   1      43.685  26.336  30.808  1.00  0.00    -0.248 NA
ATOM     58  C   UNL A   1      44.636  24.657  29.497  1.00  0.00     0.031 C 
ATOM     59  C   UNL A   1      45.537  27.983  34.489  1.00  0.00     0.029 A 
ATOM     60  C   UNL A   1      44.983  27.446  33.338  1.00  0.00     0.049 A 
ATOM     61  H   UNL A   1      43.250  28.040  32.293  1.00  0.00     0.167 HD
ATOM     62  C   UNL A   1      44.862  25.900  31.409  1.00  0.00     0.074 A 
ATOM     63  C   UNL A   1      45.385  24.835  30.578  1.00  0.00     0.031 C 
ATOM     64  C   UNL A   1      45.464  26.349  32.538  1.00  0.00     0.034 A 
BRANCH  51  65
ATOM     65  C   UNL A   1      42.609  31.178  35.117  1.00  0.00     0.023 A 
ATOM     66  C   UNL A   1      42.005  30.892  36.358  1.00  0.00     0.012 A 
ATOM     67  C   UNL A   1      43.238  32.423  34.921  1.00  0.00     0.148 A 
ATOM     68  C   UNL A   1      41.999  31.844  37.378  1.00  0.00     0.002 A 
ATOM     69  C   UNL A   1      43.268  33.347  35.957  1.00  0.00     0.091 A 
ATOM     70  F   UNL A   1      43.781  32.683  33.724  1.00  0.00    -0.205 F 
ATOM     71  C   UNL A   1      42.639  33.065  37.181  1.00  0.00     0.022 A 
BRANCH  69  72
ATOM     72  S   UNL A   1      44.134  34.914  35.827  1.00  0.00     0.127 S 
ATOM     73  O   UNL A   1      45.233  34.570  34.926  1.00  0.00    -0.237 OA
ATOM     74  O   UNL A   1      43.113  35.782  35.238  1.00  0.00    -0.237 OA
ATOM     75  O   UNL A   1      44.525  35.271  37.183  1.00  0.00    -0.744 OA
ENDBRANCH  69  72
ENDBRANCH  51  65
BRANCH  52  76
ATOM     76  C   UNL A   1      42.431  24.664  27.570  1.00  0.00     0.023 A 
ATOM     77  C   UNL A   1      43.201  24.967  26.431  1.00  0.00     0.012 A 
ATOM     78  C   UNL A   1      41.682  23.471  27.594  1.00  0.00     0.148 A 
ATOM     79  C   UNL A   1      43.203  24.115  25.324  1.00  0.00     0.002 A 
ATOM     80  C   UNL A   1      41.731  22.600  26.512  1.00  0.00     0.091 A 
ATOM     81  F   UNL A   1      40.937  23.212  28.677  1.00  0.00    -0.205 F 
ATOM     82  C   UNL A   1      42.477  22.927  25.369  1.00  0.00     0.022 A 
BRANCH  80  83
ATOM     83  S   UNL A   1      40.923  20.996  26.527  1.00  0.00     0.127 S 
ATOM     84  O   UNL A   1      40.888  20.692  27.955  1.00  0.00    -0.237 OA
ATOM     85  O   UNL A   1      39.624  21.309  25.930  1.00  0.00    -0.237 OA
ATOM     86  O   UNL A   1      41.764  20.124  25.717  1.00  0.00    -0.744 OA
ENDBRANCH  80  83
ENDBRANCH  52  76
BRANCH  64  87
ATOM     87  C   UNL A   1      46.733  25.666  32.987  1.00  0.00     0.023 A 
ATOM     88  C   UNL A   1      46.684  24.677  33.989  1.00  0.00     0.012 A 
ATOM     89  C   UNL A   1      47.960  25.943  32.350  1.00  0.00     0.148 A 
ATOM     90  C   UNL A   1      47.841  23.996  34.371  1.00  0.00     0.002 A 
ATOM     91  C   UNL A   1      49.098  25.225  32.700  1.00  0.00     0.091 A 
ATOM     92  F   UNL A   1      47.990  26.898  31.409  1.00  0.00    -0.205 F 
ATOM     93  C   UNL A   1      49.043  24.262  33.719  1.00  0.00     0.022 A 
BRANCH  91  94
ATOM     94  S   UNL A   1      50.666  25.429  31.847  1.00  0.00     0.127 S 
ATOM     95  O   UNL A   1      51.022  26.802  32.201  1.00  0.00    -0.237 OA
ATOM     96  O   UNL A   1      51.497  24.402  32.477  1.00  0.00    -0.237 OA
ATOM     97  O   UNL A   1      50.389  25.199  30.436  1.00  0.00    -0.744 OA
ENDBRANCH  91  94
ENDBRANCH  64  87
ENDBRANCH  38  39
ENDBRANCH  31  33
ENDBRANCH  30  31
ENDBRANCH  29  30
ENDBRANCH  28  29
ENDBRANCH  27  28
ENDBRANCH  26  27
ENDBRANCH   1  26
TORSDOF 23
ENDMDL
