MODEL 1
REMARK VINA RESULT:      -9.3      0.000      0.000
REMARK SMILES COc1ccccc1C[N@@H+](C)[C@@H](C)c1ccc(C(=O)OCCOCCOCCOC(=O)c2ccc(-c3c4nc(c(-c5cccc(S(=O)(=O)[O-])c5F)c5ccc([nH]5)c(-c5cccc(S(=O)(=O)[O-])c5F)c5nc(c(-c6cccc(S(=O)(=O)[O-])c6F)c6ccc3[nH]6)C=C5)C=C4)cc2)o1
REMARK SMILES IDX 24 1 23 2 22 3 21 4 20 5 18 6 19 7 17 8 14 9 15 10 95 11
REMARK SMILES IDX 16 12 12 13 13 14 10 15 11 16 9 18 8 19 3 20 4 21 5 22 7 23
REMARK SMILES IDX 6 24 2 25 1 26 25 27 26 28 27 29 28 30 29 31 30 32 31 33
REMARK SMILES IDX 32 34 33 35 94 36 34 37 93 38 35 39 36 40 37 41 87 42 38 43
REMARK SMILES IDX 92 44 86 45 88 46 39 47 91 48 85 49 84 50 40 52 72 53 52 54
REMARK SMILES IDX 71 55 53 56 56 57 70 58 89 59 54 60 55 61 69 63 90 64 57 65
REMARK SMILES IDX 41 66 42 67 50 68 43 69 45 70 51 71 44 72 46 73 47 74 48 75
REMARK SMILES IDX 49 76 73 77 74 78 82 79 75 80 77 81 83 82 76 83 78 84 79 85
REMARK SMILES IDX 80 86 81 87 58 88 59 89 67 90 60 91 62 92 68 93 61 94 63 95
REMARK SMILES IDX 64 96 65 97 66 98
REMARK H PARENT 10 17 88 51 56 62
REMARK Flexibility Score: inf
ROOT
ATOM      1  C   UNL A   1      39.728  21.635  26.083  1.00  0.00     0.188 C 
ENDROOT
BRANCH   1   2
ATOM      2  O   UNL A   1      38.391  22.120  26.070  1.00  0.00    -0.376 OA
BRANCH   2   3
ATOM      3  C   UNL A   1      37.518  21.345  25.248  1.00  0.00     0.202 C 
BRANCH   3   4
ATOM      4  C   UNL A   1      36.427  22.185  24.555  1.00  0.00     0.261 C 
BRANCH   4   5
ATOM      5  O   UNL A   1      35.103  21.619  24.716  1.00  0.00    -0.457 OA
BRANCH   5   6
ATOM      6  C   UNL A   1      34.387  21.972  25.839  1.00  0.00     0.374 C 
ATOM      7  O   UNL A   1      34.608  21.521  26.957  1.00  0.00    -0.242 OA
BRANCH   6   8
ATOM      8  C   UNL A   1      33.348  22.924  25.487  1.00  0.00     0.212 A 
ATOM      9  C   UNL A   1      32.531  24.878  24.773  1.00  0.00     0.162 A 
ATOM     10  C   UNL A   1      31.461  24.012  24.919  1.00  0.00     0.053 A 
ATOM     11  O   UNL A   1      33.677  24.232  25.185  1.00  0.00    -0.448 OA
ATOM     12  C   UNL A   1      31.977  22.773  25.367  1.00  0.00     0.059 A 
BRANCH   9  13
ATOM     13  C   UNL A   1      32.621  26.341  24.330  1.00  0.00     0.248 C 
ATOM     14  C   UNL A   1      32.314  27.284  25.508  1.00  0.00     0.084 C 
BRANCH  13  15
ATOM     15  N   UNL A   1      31.868  26.689  23.092  1.00  0.00    -0.325 N 
ATOM     16  C   UNL A   1      32.644  26.411  21.883  1.00  0.00     0.333 C 
ATOM     17  H   UNL A   1      31.054  26.077  23.151  1.00  0.00     0.348 HD
BRANCH  15  18
ATOM     18  C   UNL A   1      31.330  28.068  23.014  1.00  0.00     0.303 C 
BRANCH  18  19
ATOM     19  C   UNL A   1      29.831  28.061  22.916  1.00  0.00     0.048 A 
ATOM     20  C   UNL A   1      29.092  29.104  22.351  1.00  0.00     0.127 A 
ATOM     21  C   UNL A   1      27.735  29.237  22.638  1.00  0.00     0.047 A 
ATOM     22  C   UNL A   1      27.094  28.260  23.396  1.00  0.00     0.004 A 
ATOM     23  C   UNL A   1      29.155  27.023  23.564  1.00  0.00     0.013 A 
ATOM     24  C   UNL A   1      27.800  27.129  23.804  1.00  0.00     0.001 A 
BRANCH  20  25
ATOM     25  O   UNL A   1      29.674  30.049  21.549  1.00  0.00    -0.496 OA
ATOM     26  C   UNL A   1      28.839  31.215  21.534  1.00  0.00     0.278 C 
ENDBRANCH  20  25
ENDBRANCH  18  19
ENDBRANCH  15  18
ENDBRANCH  13  15
ENDBRANCH   9  13
ENDBRANCH   6   8
ENDBRANCH   5   6
ENDBRANCH   4   5
ENDBRANCH   3   4
ENDBRANCH   2   3
ENDBRANCH   1   2
BRANCH   1  27
ATOM     27  C   UNL A   1      40.373  21.753  27.460  1.00  0.00     0.188 C 
BRANCH  27  28
ATOM     28  O   UNL A   1      41.782  21.483  27.400  1.00  0.00    -0.376 OA
BRANCH  28  29
ATOM     29  C   UNL A   1      42.171  20.785  26.218  1.00  0.00     0.202 C 
BRANCH  29  30
ATOM     30  C   UNL A   1      43.382  21.332  25.436  1.00  0.00     0.261 C 
BRANCH  30  31
ATOM     31  O   UNL A   1      43.126  22.554  24.728  1.00  0.00    -0.460 OA
BRANCH  31  32
ATOM     32  C   UNL A   1      44.212  23.356  24.580  1.00  0.00     0.338 C 
ATOM     33  O   UNL A   1      45.102  23.219  23.754  1.00  0.00    -0.246 OA
BRANCH  32  34
ATOM     34  C   UNL A   1      44.117  24.540  25.475  1.00  0.00     0.060 A 
ATOM     35  C   UNL A   1      43.635  25.723  24.908  1.00  0.00     0.016 A 
ATOM     36  C   UNL A   1      44.467  24.518  26.828  1.00  0.00     0.016 A 
ATOM     37  C   UNL A   1      43.483  26.877  25.677  1.00  0.00     0.010 A 
ATOM     38  C   UNL A   1      44.352  25.691  27.595  1.00  0.00     0.010 A 
ATOM     39  C   UNL A   1      43.872  26.880  27.018  1.00  0.00    -0.014 A 
BRANCH  39  40
ATOM     40  C   UNL A   1      43.972  28.178  27.731  1.00  0.00     0.031 A 
ATOM     41  C   UNL A   1      42.728  28.733  28.369  1.00  0.00     0.074 A 
ATOM     42  C   UNL A   1      45.136  28.841  27.864  1.00  0.00     0.049 A 
ATOM     43  N   UNL A   1      42.561  29.846  29.035  1.00  0.00    -0.248 NA
ATOM     44  C   UNL A   1      41.511  27.912  28.251  1.00  0.00     0.031 C 
ATOM     45  C   UNL A   1      46.432  28.396  27.357  1.00  0.00     0.029 A 
ATOM     46  N   UNL A   1      45.405  30.050  28.462  1.00  0.00    -0.354 N 
ATOM     47  C   UNL A   1      41.222  29.870  29.399  1.00  0.00     0.074 A 
ATOM     48  C   UNL A   1      40.619  28.659  28.884  1.00  0.00     0.031 C 
ATOM     49  C   UNL A   1      47.353  29.337  27.636  1.00  0.00     0.029 A 
ATOM     50  C   UNL A   1      46.709  30.460  28.318  1.00  0.00     0.049 A 
ATOM     51  H   UNL A   1      44.726  30.572  28.948  1.00  0.00     0.167 HD
ATOM     52  C   UNL A   1      40.547  30.806  30.104  1.00  0.00     0.034 A 
ATOM     53  C   UNL A   1      47.306  31.617  28.673  1.00  0.00     0.034 A 
ATOM     54  C   UNL A   1      41.126  32.015  30.620  1.00  0.00     0.049 A 
ATOM     55  C   UNL A   1      46.509  32.686  29.384  1.00  0.00     0.074 A 
ATOM     56  C   UNL A   1      40.511  33.017  31.349  1.00  0.00     0.029 A 
ATOM     57  N   UNL A   1      42.447  32.396  30.451  1.00  0.00    -0.354 N 
ATOM     58  N   UNL A   1      45.269  32.654  29.807  1.00  0.00    -0.248 NA
ATOM     59  C   UNL A   1      47.207  33.949  29.687  1.00  0.00     0.031 C 
ATOM     60  C   UNL A   1      41.455  34.018  31.601  1.00  0.00     0.029 A 
ATOM     61  C   UNL A   1      42.663  33.627  31.047  1.00  0.00     0.049 A 
ATOM     62  H   UNL A   1      43.130  31.870  29.975  1.00  0.00     0.167 HD
ATOM     63  C   UNL A   1      45.051  33.868  30.454  1.00  0.00     0.074 A 
ATOM     64  C   UNL A   1      46.292  34.608  30.385  1.00  0.00     0.031 C 
ATOM     65  C   UNL A   1      43.917  34.334  31.036  1.00  0.00     0.034 A 
BRANCH  52  66
ATOM     66  C   UNL A   1      39.091  30.550  30.363  1.00  0.00     0.023 A 
ATOM     67  C   UNL A   1      38.709  29.785  31.482  1.00  0.00     0.012 A 
ATOM     68  C   UNL A   1      38.105  31.094  29.520  1.00  0.00     0.148 A 
ATOM     69  C   UNL A   1      37.361  29.543  31.745  1.00  0.00     0.002 A 
ATOM     70  C   UNL A   1      36.763  30.880  29.810  1.00  0.00     0.091 A 
ATOM     71  F   UNL A   1      38.496  31.791  28.444  1.00  0.00    -0.205 F 
ATOM     72  C   UNL A   1      36.390  30.098  30.915  1.00  0.00     0.022 A 
BRANCH  70  73
ATOM     73  S   UNL A   1      35.443  31.608  28.835  1.00  0.00     0.127 S 
ATOM     74  O   UNL A   1      34.966  30.453  28.077  1.00  0.00    -0.237 OA
ATOM     75  O   UNL A   1      34.521  32.083  29.867  1.00  0.00    -0.237 OA
ATOM     76  O   UNL A   1      36.064  32.664  28.048  1.00  0.00    -0.744 OA
ENDBRANCH  70  73
ENDBRANCH  52  66
BRANCH  53  77
ATOM     77  C   UNL A   1      48.749  31.845  28.372  1.00  0.00     0.023 A 
ATOM     78  C   UNL A   1      49.727  31.427  29.295  1.00  0.00     0.012 A 
ATOM     79  C   UNL A   1      49.152  32.503  27.194  1.00  0.00     0.148 A 
ATOM     80  C   UNL A   1      51.079  31.689  29.066  1.00  0.00     0.002 A 
ATOM     81  C   UNL A   1      50.504  32.718  26.948  1.00  0.00     0.091 A 
ATOM     82  F   UNL A   1      48.205  32.921  26.343  1.00  0.00    -0.205 F 
ATOM     83  C   UNL A   1      51.468  32.326  27.891  1.00  0.00     0.022 A 
BRANCH  81  84
ATOM     84  S   UNL A   1      51.101  33.443  25.417  1.00  0.00     0.127 S 
ATOM     85  O   UNL A   1      51.369  32.256  24.609  1.00  0.00    -0.237 OA
ATOM     86  O   UNL A   1      49.948  34.233  24.986  1.00  0.00    -0.237 OA
ATOM     87  O   UNL A   1      52.267  34.234  25.787  1.00  0.00    -0.744 OA
ENDBRANCH  81  84
ENDBRANCH  53  77
BRANCH  65  88
ATOM     88  C   UNL A   1      43.954  35.695  31.684  1.00  0.00     0.023 A 
ATOM     89  C   UNL A   1      44.258  35.807  33.055  1.00  0.00     0.012 A 
ATOM     90  C   UNL A   1      43.786  36.866  30.918  1.00  0.00     0.148 A 
ATOM     91  C   UNL A   1      44.371  37.060  33.658  1.00  0.00     0.002 A 
ATOM     92  C   UNL A   1      43.944  38.113  31.515  1.00  0.00     0.091 A 
ATOM     93  F   UNL A   1      43.479  36.742  29.618  1.00  0.00    -0.205 F 
ATOM     94  C   UNL A   1      44.227  38.212  32.887  1.00  0.00     0.022 A 
BRANCH  92  95
ATOM     95  S   UNL A   1      43.872  39.645  30.578  1.00  0.00     0.127 S 
ATOM     96  O   UNL A   1      43.378  39.181  29.283  1.00  0.00    -0.237 OA
ATOM     97  O   UNL A   1      42.913  40.438  31.347  1.00  0.00    -0.237 OA
ATOM     98  O   UNL A   1      45.229  40.176  30.579  1.00  0.00    -0.744 OA
ENDBRANCH  92  95
ENDBRANCH  65  88
ENDBRANCH  39  40
ENDBRANCH  32  34
ENDBRANCH  31  32
ENDBRANCH  30  31
ENDBRANCH  29  30
ENDBRANCH  28  29
ENDBRANCH  27  28
ENDBRANCH   1  27
TORSDOF 25
ENDMDL
MODEL 2
REMARK VINA RESULT:      -9.1      6.655     10.187
REMARK SMILES COc1ccccc1C[N@@H+](C)[C@@H](C)c1ccc(C(=O)OCCOCCOCCOC(=O)c2ccc(-c3c4nc(c(-c5cccc(S(=O)(=O)[O-])c5F)c5ccc([nH]5)c(-c5cccc(S(=O)(=O)[O-])c5F)c5nc(c(-c6cccc(S(=O)(=O)[O-])c6F)c6ccc3[nH]6)C=C5)C=C4)cc2)o1
REMARK SMILES IDX 24 1 23 2 22 3 21 4 20 5 18 6 19 7 17 8 14 9 15 10 95 11
REMARK SMILES IDX 16 12 12 13 13 14 10 15 11 16 9 18 8 19 3 20 4 21 5 22 7 23
REMARK SMILES IDX 6 24 2 25 1 26 25 27 26 28 27 29 28 30 29 31 30 32 31 33
REMARK SMILES IDX 32 34 33 35 94 36 34 37 93 38 35 39 36 40 37 41 87 42 38 43
REMARK SMILES IDX 92 44 86 45 88 46 39 47 91 48 85 49 84 50 40 52 72 53 52 54
REMARK SMILES IDX 71 55 53 56 56 57 70 58 89 59 54 60 55 61 69 63 90 64 57 65
REMARK SMILES IDX 41 66 42 67 50 68 43 69 45 70 51 71 44 72 46 73 47 74 48 75
REMARK SMILES IDX 49 76 73 77 74 78 82 79 75 80 77 81 83 82 76 83 78 84 79 85
REMARK SMILES IDX 80 86 81 87 58 88 59 89 67 90 60 91 62 92 68 93 61 94 63 95
REMARK SMILES IDX 64 96 65 97 66 98
REMARK H PARENT 10 17 88 51 56 62
REMARK Flexibility Score: inf
ROOT
ATOM      1  C   UNL A   1      39.285  27.143  28.844  1.00  0.00     0.188 C 
ENDROOT
BRANCH   1   2
ATOM      2  O   UNL A   1      39.581  26.536  27.591  1.00  0.00    -0.376 OA
BRANCH   2   3
ATOM      3  C   UNL A   1      40.364  25.348  27.712  1.00  0.00     0.202 C 
BRANCH   3   4
ATOM      4  C   UNL A   1      40.093  24.323  26.594  1.00  0.00     0.261 C 
BRANCH   4   5
ATOM      5  O   UNL A   1      39.648  23.043  27.109  1.00  0.00    -0.457 OA
BRANCH   5   6
ATOM      6  C   UNL A   1      39.556  21.993  26.222  1.00  0.00     0.374 C 
ATOM      7  O   UNL A   1      40.520  21.342  25.836  1.00  0.00    -0.242 OA
BRANCH   6   8
ATOM      8  C   UNL A   1      38.174  21.802  25.819  1.00  0.00     0.212 A 
ATOM      9  C   UNL A   1      35.967  22.152  25.878  1.00  0.00     0.162 A 
ATOM     10  C   UNL A   1      36.225  21.321  24.801  1.00  0.00     0.053 A 
ATOM     11  O   UNL A   1      37.152  22.392  26.540  1.00  0.00    -0.448 OA
ATOM     12  C   UNL A   1      37.621  21.102  24.761  1.00  0.00     0.059 A 
BRANCH   9  13
ATOM     13  C   UNL A   1      34.669  22.739  26.440  1.00  0.00     0.248 C 
ATOM     14  C   UNL A   1      33.788  21.629  27.042  1.00  0.00     0.084 C 
BRANCH  13  15
ATOM     15  N   UNL A   1      33.921  23.647  25.527  1.00  0.00    -0.325 N 
ATOM     16  C   UNL A   1      32.980  22.916  24.677  1.00  0.00     0.333 C 
ATOM     17  H   UNL A   1      33.424  24.255  26.180  1.00  0.00     0.348 HD
BRANCH  15  18
ATOM     18  C   UNL A   1      34.736  24.549  24.679  1.00  0.00     0.303 C 
BRANCH  18  19
ATOM     19  C   UNL A   1      33.901  25.662  24.111  1.00  0.00     0.048 A 
ATOM     20  C   UNL A   1      33.174  26.558  24.900  1.00  0.00     0.127 A 
ATOM     21  C   UNL A   1      32.129  27.292  24.345  1.00  0.00     0.047 A 
ATOM     22  C   UNL A   1      31.888  27.216  22.975  1.00  0.00     0.004 A 
ATOM     23  C   UNL A   1      33.736  25.690  22.724  1.00  0.00     0.013 A 
ATOM     24  C   UNL A   1      32.734  26.458  22.166  1.00  0.00     0.001 A 
BRANCH  20  25
ATOM     25  O   UNL A   1      33.422  26.707  26.239  1.00  0.00    -0.496 OA
ATOM     26  C   UNL A   1      33.718  28.086  26.499  1.00  0.00     0.278 C 
ENDBRANCH  20  25
ENDBRANCH  18  19
ENDBRANCH  15  18
ENDBRANCH  13  15
ENDBRANCH   9  13
ENDBRANCH   6   8
ENDBRANCH   5   6
ENDBRANCH   4   5
ENDBRANCH   3   4
ENDBRANCH   2   3
ENDBRANCH   1   2
BRANCH   1  27
ATOM     27  C   UNL A   1      39.068  28.648  28.720  1.00  0.00     0.188 C 
BRANCH  27  28
ATOM     28  O   UNL A   1      37.709  28.951  28.373  1.00  0.00    -0.376 OA
BRANCH  28  29
ATOM     29  C   UNL A   1      37.396  30.339  28.484  1.00  0.00     0.202 C 
BRANCH  29  30
ATOM     30  C   UNL A   1      36.995  30.868  29.875  1.00  0.00     0.261 C 
BRANCH  30  31
ATOM     31  O   UNL A   1      36.772  29.844  30.855  1.00  0.00    -0.460 OA
BRANCH  31  32
ATOM     32  C   UNL A   1      37.238  30.143  32.096  1.00  0.00     0.338 C 
ATOM     33  O   UNL A   1      36.637  30.762  32.961  1.00  0.00    -0.246 OA
BRANCH  32  34
ATOM     34  C   UNL A   1      38.548  29.484  32.339  1.00  0.00     0.060 A 
ATOM     35  C   UNL A   1      39.660  30.319  32.479  1.00  0.00     0.016 A 
ATOM     36  C   UNL A   1      38.711  28.100  32.443  1.00  0.00     0.016 A 
ATOM     37  C   UNL A   1      40.925  29.793  32.737  1.00  0.00     0.010 A 
ATOM     38  C   UNL A   1      39.992  27.565  32.664  1.00  0.00     0.010 A 
ATOM     39  C   UNL A   1      41.108  28.410  32.799  1.00  0.00    -0.014 A 
BRANCH  39  40
ATOM     40  C   UNL A   1      42.491  27.871  32.786  1.00  0.00     0.031 A 
ATOM     41  C   UNL A   1      43.169  27.631  34.108  1.00  0.00     0.074 A 
ATOM     42  C   UNL A   1      43.129  27.548  31.646  1.00  0.00     0.049 A 
ATOM     43  N   UNL A   1      44.370  27.176  34.354  1.00  0.00    -0.248 NA
ATOM     44  C   UNL A   1      42.377  27.931  35.313  1.00  0.00     0.031 C 
ATOM     45  C   UNL A   1      42.577  27.663  30.299  1.00  0.00     0.029 A 
ATOM     46  N   UNL A   1      44.403  27.066  31.449  1.00  0.00    -0.354 N 
ATOM     47  C   UNL A   1      44.487  27.153  35.738  1.00  0.00     0.074 A 
ATOM     48  C   UNL A   1      43.234  27.636  36.279  1.00  0.00     0.031 C 
ATOM     49  C   UNL A   1      43.519  27.296  29.411  1.00  0.00     0.029 A 
ATOM     50  C   UNL A   1      44.748  26.942  30.124  1.00  0.00     0.049 A 
ATOM     51  H   UNL A   1      45.009  26.831  32.188  1.00  0.00     0.167 HD
ATOM     52  C   UNL A   1      45.534  26.761  36.498  1.00  0.00     0.034 A 
ATOM     53  C   UNL A   1      45.925  26.608  29.554  1.00  0.00     0.034 A 
ATOM     54  C   UNL A   1      46.785  26.283  35.980  1.00  0.00     0.049 A 
ATOM     55  C   UNL A   1      47.108  26.257  30.426  1.00  0.00     0.074 A 
ATOM     56  C   UNL A   1      47.899  25.862  36.685  1.00  0.00     0.029 A 
ATOM     57  N   UNL A   1      47.098  26.177  34.635  1.00  0.00    -0.354 N 
ATOM     58  N   UNL A   1      47.174  26.146  31.731  1.00  0.00    -0.248 NA
ATOM     59  C   UNL A   1      48.378  25.962  29.740  1.00  0.00     0.031 C 
ATOM     60  C   UNL A   1      48.897  25.523  35.764  1.00  0.00     0.029 A 
ATOM     61  C   UNL A   1      48.394  25.712  34.487  1.00  0.00     0.049 A 
ATOM     62  H   UNL A   1      46.489  26.400  33.894  1.00  0.00     0.167 HD
ATOM     63  C   UNL A   1      48.474  25.736  32.016  1.00  0.00     0.074 A 
ATOM     64  C   UNL A   1      49.159  25.599  30.749  1.00  0.00     0.031 C 
ATOM     65  C   UNL A   1      49.053  25.512  33.223  1.00  0.00     0.034 A 
BRANCH  52  66
ATOM     66  C   UNL A   1      45.363  26.831  37.988  1.00  0.00     0.023 A 
ATOM     67  C   UNL A   1      44.991  25.673  38.699  1.00  0.00     0.012 A 
ATOM     68  C   UNL A   1      45.602  28.030  38.683  1.00  0.00     0.148 A 
ATOM     69  C   UNL A   1      44.835  25.715  40.084  1.00  0.00     0.002 A 
ATOM     70  C   UNL A   1      45.481  28.054  40.067  1.00  0.00     0.091 A 
ATOM     71  F   UNL A   1      45.923  29.125  37.980  1.00  0.00    -0.205 F 
ATOM     72  C   UNL A   1      45.090  26.902  40.767  1.00  0.00     0.022 A 
BRANCH  70  73
ATOM     73  S   UNL A   1      45.850  29.519  41.036  1.00  0.00     0.127 S 
ATOM     74  O   UNL A   1      44.554  30.194  41.056  1.00  0.00    -0.237 OA
ATOM     75  O   UNL A   1      46.259  28.947  42.320  1.00  0.00    -0.237 OA
ATOM     76  O   UNL A   1      46.910  30.215  40.320  1.00  0.00    -0.744 OA
ENDBRANCH  70  73
ENDBRANCH  52  66
BRANCH  53  77
ATOM     77  C   UNL A   1      46.062  26.579  28.070  1.00  0.00     0.023 A 
ATOM     78  C   UNL A   1      46.316  27.775  27.370  1.00  0.00     0.012 A 
ATOM     79  C   UNL A   1      45.907  25.380  27.346  1.00  0.00     0.148 A 
ATOM     80  C   UNL A   1      46.382  27.783  25.976  1.00  0.00     0.002 A 
ATOM     81  C   UNL A   1      46.022  25.387  25.961  1.00  0.00     0.091 A 
ATOM     82  F   UNL A   1      45.634  24.258  28.027  1.00  0.00    -0.205 F 
ATOM     83  C   UNL A   1      46.243  26.590  25.273  1.00  0.00     0.022 A 
BRANCH  81  84
ATOM     84  S   UNL A   1      45.953  23.882  24.982  1.00  0.00     0.127 S 
ATOM     85  O   UNL A   1      46.819  24.220  23.855  1.00  0.00    -0.237 OA
ATOM     86  O   UNL A   1      46.505  22.893  25.907  1.00  0.00    -0.237 OA
ATOM     87  O   UNL A   1      44.546  23.687  24.663  1.00  0.00    -0.744 OA
ENDBRANCH  81  84
ENDBRANCH  53  77
BRANCH  65  88
ATOM     88  C   UNL A   1      50.491  25.057  33.252  1.00  0.00     0.023 A 
ATOM     89  C   UNL A   1      51.521  26.006  33.402  1.00  0.00     0.012 A 
ATOM     90  C   UNL A   1      50.816  23.686  33.232  1.00  0.00     0.148 A 
ATOM     91  C   UNL A   1      52.851  25.600  33.507  1.00  0.00     0.002 A 
ATOM     92  C   UNL A   1      52.140  23.285  33.382  1.00  0.00     0.091 A 
ATOM     93  F   UNL A   1      49.826  22.795  33.070  1.00  0.00    -0.205 F 
ATOM     94  C   UNL A   1      53.160  24.242  33.510  1.00  0.00     0.022 A 
BRANCH  92  95
ATOM     95  S   UNL A   1      52.616  21.556  33.494  1.00  0.00     0.127 S 
ATOM     96  O   UNL A   1      52.214  21.049  32.183  1.00  0.00    -0.237 OA
ATOM     97  O   UNL A   1      54.062  21.641  33.697  1.00  0.00    -0.237 OA
ATOM     98  O   UNL A   1      51.880  21.013  34.629  1.00  0.00    -0.744 OA
ENDBRANCH  92  95
ENDBRANCH  65  88
ENDBRANCH  39  40
ENDBRANCH  32  34
ENDBRANCH  31  32
ENDBRANCH  30  31
ENDBRANCH  29  30
ENDBRANCH  28  29
ENDBRANCH  27  28
ENDBRANCH   1  27
TORSDOF 25
ENDMDL
MODEL 3
REMARK VINA RESULT:      -9.1      2.393      7.748
REMARK SMILES COc1ccccc1C[N@@H+](C)[C@@H](C)c1ccc(C(=O)OCCOCCOCCOC(=O)c2ccc(-c3c4nc(c(-c5cccc(S(=O)(=O)[O-])c5F)c5ccc([nH]5)c(-c5cccc(S(=O)(=O)[O-])c5F)c5nc(c(-c6cccc(S(=O)(=O)[O-])c6F)c6ccc3[nH]6)C=C5)C=C4)cc2)o1
REMARK SMILES IDX 24 1 23 2 22 3 21 4 20 5 18 6 19 7 17 8 14 9 15 10 95 11
REMARK SMILES IDX 16 12 12 13 13 14 10 15 11 16 9 18 8 19 3 20 4 21 5 22 7 23
REMARK SMILES IDX 6 24 2 25 1 26 25 27 26 28 27 29 28 30 29 31 30 32 31 33
REMARK SMILES IDX 32 34 33 35 94 36 34 37 93 38 35 39 36 40 37 41 87 42 38 43
REMARK SMILES IDX 92 44 86 45 88 46 39 47 91 48 85 49 84 50 40 52 72 53 52 54
REMARK SMILES IDX 71 55 53 56 56 57 70 58 89 59 54 60 55 61 69 63 90 64 57 65
REMARK SMILES IDX 41 66 42 67 50 68 43 69 45 70 51 71 44 72 46 73 47 74 48 75
REMARK SMILES IDX 49 76 73 77 74 78 82 79 75 80 77 81 83 82 76 83 78 84 79 85
REMARK SMILES IDX 80 86 81 87 58 88 59 89 67 90 60 91 62 92 68 93 61 94 63 95
REMARK SMILES IDX 64 96 65 97 66 98
REMARK H PARENT 10 17 88 51 56 62
REMARK Flexibility Score: inf
ROOT
ATOM      1  C   UNL A   1      40.703  20.864  26.644  1.00  0.00     0.188 C 
ENDROOT
BRANCH   1   2
ATOM      2  O   UNL A   1      40.000  21.760  27.496  1.00  0.00    -0.376 OA
BRANCH   2   3
ATOM      3  C   UNL A   1      39.813  23.054  26.922  1.00  0.00     0.202 C 
BRANCH   3   4
ATOM      4  C   UNL A   1      38.367  23.312  26.458  1.00  0.00     0.261 C 
BRANCH   4   5
ATOM      5  O   UNL A   1      38.126  22.853  25.104  1.00  0.00    -0.457 OA
BRANCH   5   6
ATOM      6  C   UNL A   1      37.218  21.833  24.925  1.00  0.00     0.374 C 
ATOM      7  O   UNL A   1      37.423  20.672  25.261  1.00  0.00    -0.242 OA
BRANCH   6   8
ATOM      8  C   UNL A   1      36.022  22.341  24.276  1.00  0.00     0.212 A 
ATOM      9  C   UNL A   1      33.874  22.945  24.147  1.00  0.00     0.162 A 
ATOM     10  C   UNL A   1      34.476  23.305  22.953  1.00  0.00     0.053 A 
ATOM     11  O   UNL A   1      34.804  22.295  24.929  1.00  0.00    -0.448 OA
ATOM     12  C   UNL A   1      35.837  22.927  23.036  1.00  0.00     0.059 A 
BRANCH   9  13
ATOM     13  C   UNL A   1      32.437  23.081  24.659  1.00  0.00     0.248 C 
ATOM     14  C   UNL A   1      31.438  23.052  23.487  1.00  0.00     0.084 C 
BRANCH  13  15
ATOM     15  N   UNL A   1      32.192  24.205  25.606  1.00  0.00    -0.325 N 
ATOM     16  C   UNL A   1      31.511  23.759  26.822  1.00  0.00     0.333 C 
ATOM     17  H   UNL A   1      33.138  24.526  25.815  1.00  0.00     0.348 HD
BRANCH  15  18
ATOM     18  C   UNL A   1      31.480  25.385  25.059  1.00  0.00     0.303 C 
BRANCH  18  19
ATOM     19  C   UNL A   1      32.440  26.492  24.727  1.00  0.00     0.048 A 
ATOM     20  C   UNL A   1      32.715  27.557  25.590  1.00  0.00     0.127 A 
ATOM     21  C   UNL A   1      33.278  28.732  25.097  1.00  0.00     0.047 A 
ATOM     22  C   UNL A   1      33.671  28.797  23.763  1.00  0.00     0.004 A 
ATOM     23  C   UNL A   1      32.953  26.522  23.428  1.00  0.00     0.013 A 
ATOM     24  C   UNL A   1      33.559  27.668  22.952  1.00  0.00     0.001 A 
BRANCH  20  25
ATOM     25  O   UNL A   1      32.400  27.506  26.922  1.00  0.00    -0.496 OA
ATOM     26  C   UNL A   1      31.835  28.767  27.308  1.00  0.00     0.278 C 
ENDBRANCH  20  25
ENDBRANCH  18  19
ENDBRANCH  15  18
ENDBRANCH  13  15
ENDBRANCH   9  13
ENDBRANCH   6   8
ENDBRANCH   5   6
ENDBRANCH   4   5
ENDBRANCH   3   4
ENDBRANCH   2   3
ENDBRANCH   1   2
BRANCH   1  27
ATOM     27  C   UNL A   1      41.277  19.673  27.405  1.00  0.00     0.188 C 
BRANCH  27  28
ATOM     28  O   UNL A   1      42.650  19.443  27.054  1.00  0.00    -0.376 OA
BRANCH  28  29
ATOM     29  C   UNL A   1      42.921  19.663  25.671  1.00  0.00     0.202 C 
BRANCH  29  30
ATOM     30  C   UNL A   1      43.865  20.826  25.309  1.00  0.00     0.261 C 
BRANCH  30  31
ATOM     31  O   UNL A   1      43.195  22.055  24.994  1.00  0.00    -0.460 OA
BRANCH  31  32
ATOM     32  C   UNL A   1      44.024  23.081  24.670  1.00  0.00     0.338 C 
ATOM     33  O   UNL A   1      44.787  23.118  23.716  1.00  0.00    -0.246 OA
BRANCH  32  34
ATOM     34  C   UNL A   1      43.784  24.250  25.557  1.00  0.00     0.060 A 
ATOM     35  C   UNL A   1      43.519  25.473  24.935  1.00  0.00     0.016 A 
ATOM     36  C   UNL A   1      43.800  24.179  26.953  1.00  0.00     0.016 A 
ATOM     37  C   UNL A   1      43.252  26.618  25.685  1.00  0.00     0.010 A 
ATOM     38  C   UNL A   1      43.571  25.340  27.711  1.00  0.00     0.010 A 
ATOM     39  C   UNL A   1      43.309  26.569  27.079  1.00  0.00    -0.014 A 
BRANCH  39  40
ATOM     40  C   UNL A   1      43.308  27.843  27.840  1.00  0.00     0.031 A 
ATOM     41  C   UNL A   1      44.631  28.507  28.110  1.00  0.00     0.074 A 
ATOM     42  C   UNL A   1      42.173  28.441  28.246  1.00  0.00     0.049 A 
ATOM     43  N   UNL A   1      44.888  29.614  28.758  1.00  0.00    -0.248 NA
ATOM     44  C   UNL A   1      45.823  27.836  27.564  1.00  0.00     0.031 C 
ATOM     45  C   UNL A   1      40.818  27.951  28.001  1.00  0.00     0.029 A 
ATOM     46  N   UNL A   1      41.989  29.595  28.972  1.00  0.00    -0.354 N 
ATOM     47  C   UNL A   1      46.268  29.764  28.713  1.00  0.00     0.074 A 
ATOM     48  C   UNL A   1      46.795  28.637  27.974  1.00  0.00     0.031 C 
ATOM     49  C   UNL A   1      39.942  28.782  28.597  1.00  0.00     0.029 A 
ATOM     50  C   UNL A   1      40.674  29.846  29.285  1.00  0.00     0.049 A 
ATOM     51  H   UNL A   1      42.730  30.185  29.242  1.00  0.00     0.167 HD
ATOM     52  C   UNL A   1      47.034  30.750  29.231  1.00  0.00     0.034 A 
ATOM     53  C   UNL A   1      40.128  30.809  30.059  1.00  0.00     0.034 A 
ATOM     54  C   UNL A   1      46.531  31.874  29.970  1.00  0.00     0.049 A 
ATOM     55  C   UNL A   1      41.015  31.851  30.699  1.00  0.00     0.074 A 
ATOM     56  C   UNL A   1      47.242  32.921  30.529  1.00  0.00     0.029 A 
ATOM     57  N   UNL A   1      45.196  32.091  30.271  1.00  0.00    -0.354 N 
ATOM     58  N   UNL A   1      42.306  32.035  30.568  1.00  0.00    -0.248 NA
ATOM     59  C   UNL A   1      40.361  32.834  31.580  1.00  0.00     0.031 C 
ATOM     60  C   UNL A   1      46.339  33.762  31.188  1.00  0.00     0.029 A 
ATOM     61  C   UNL A   1      45.064  33.247  31.020  1.00  0.00     0.049 A 
ATOM     62  H   UNL A   1      44.453  31.508  29.992  1.00  0.00     0.167 HD
ATOM     63  C   UNL A   1      42.610  33.170  31.316  1.00  0.00     0.074 A 
ATOM     64  C   UNL A   1      41.367  33.644  31.884  1.00  0.00     0.031 C 
ATOM     65  C   UNL A   1      43.816  33.755  31.529  1.00  0.00     0.034 A 
BRANCH  52  66
ATOM     66  C   UNL A   1      48.516  30.655  29.008  1.00  0.00     0.023 A 
ATOM     67  C   UNL A   1      49.325  30.026  29.975  1.00  0.00     0.012 A 
ATOM     68  C   UNL A   1      49.099  31.156  27.829  1.00  0.00     0.148 A 
ATOM     69  C   UNL A   1      50.701  29.918  29.782  1.00  0.00     0.002 A 
ATOM     70  C   UNL A   1      50.466  31.012  27.628  1.00  0.00     0.091 A 
ATOM     71  F   UNL A   1      48.312  31.779  26.941  1.00  0.00    -0.205 F 
ATOM     72  C   UNL A   1      51.269  30.402  28.605  1.00  0.00     0.022 A 
BRANCH  70  73
ATOM     73  S   UNL A   1      51.274  31.547  26.117  1.00  0.00     0.127 S 
ATOM     74  O   UNL A   1      50.467  32.708  25.747  1.00  0.00    -0.237 OA
ATOM     75  O   UNL A   1      52.624  31.866  26.584  1.00  0.00    -0.237 OA
ATOM     76  O   UNL A   1      51.202  30.415  25.203  1.00  0.00    -0.744 OA
ENDBRANCH  70  73
ENDBRANCH  52  66
BRANCH  53  77
ATOM     77  C   UNL A   1      38.654  30.852  30.280  1.00  0.00     0.023 A 
ATOM     78  C   UNL A   1      38.058  29.943  31.176  1.00  0.00     0.012 A 
ATOM     79  C   UNL A   1      37.838  31.763  29.581  1.00  0.00     0.148 A 
ATOM     80  C   UNL A   1      36.673  29.919  31.349  1.00  0.00     0.002 A 
ATOM     81  C   UNL A   1      36.464  31.767  29.795  1.00  0.00     0.091 A 
ATOM     82  F   UNL A   1      38.419  32.598  28.710  1.00  0.00    -0.205 F 
ATOM     83  C   UNL A   1      35.878  30.835  30.666  1.00  0.00     0.022 A 
BRANCH  81  84
ATOM     84  S   UNL A   1      35.375  32.974  29.031  1.00  0.00     0.127 S 
ATOM     85  O   UNL A   1      35.470  32.612  27.619  1.00  0.00    -0.237 OA
ATOM     86  O   UNL A   1      34.090  32.665  29.661  1.00  0.00    -0.237 OA
ATOM     87  O   UNL A   1      35.921  34.276  29.389  1.00  0.00    -0.744 OA
ENDBRANCH  81  84
ENDBRANCH  53  77
BRANCH  65  88
ATOM     88  C   UNL A   1      43.867  34.999  32.381  1.00  0.00     0.023 A 
ATOM     89  C   UNL A   1      43.782  36.266  31.773  1.00  0.00     0.012 A 
ATOM     90  C   UNL A   1      43.899  34.911  33.788  1.00  0.00     0.148 A 
ATOM     91  C   UNL A   1      43.752  37.426  32.548  1.00  0.00     0.002 A 
ATOM     92  C   UNL A   1      43.824  36.068  34.556  1.00  0.00     0.091 A 
ATOM     93  F   UNL A   1      43.999  33.698  34.351  1.00  0.00    -0.205 F 
ATOM     94  C   UNL A   1      43.760  37.327  33.937  1.00  0.00     0.022 A 
BRANCH  92  95
ATOM     95  S   UNL A   1      43.731  36.028  36.350  1.00  0.00     0.127 S 
ATOM     96  O   UNL A   1      45.082  35.602  36.711  1.00  0.00    -0.237 OA
ATOM     97  O   UNL A   1      43.423  37.420  36.679  1.00  0.00    -0.237 OA
ATOM     98  O   UNL A   1      42.667  35.086  36.673  1.00  0.00    -0.744 OA
ENDBRANCH  92  95
ENDBRANCH  65  88
ENDBRANCH  39  40
ENDBRANCH  32  34
ENDBRANCH  31  32
ENDBRANCH  30  31
ENDBRANCH  29  30
ENDBRANCH  28  29
ENDBRANCH  27  28
ENDBRANCH   1  27
TORSDOF 25
ENDMDL
