MODEL 1
REMARK VINA RESULT:      -8.2      0.000      0.000
REMARK SMILES O=C(OCCOCCOCCOC(=O)c1ccc(-c2c3nc(c(-c4cccc(S(=O)(=O)[O-])c4F)c4ccc([nH]4)c(-c4cccc(S(=O)(=O)[O-])c4F)c4nc(c(-c5cccc(S(=O)(=O)[O-])c5F)c5ccc2[nH]5)C=C4)C=C3)cc1)c1ccc(/C=N/NC(=O)c2cccc3ccccc23)cc1
REMARK SMILES IDX 7 1 6 2 5 3 4 4 3 5 2 6 1 7 78 8 79 9 98 10 80 11 97 12
REMARK SMILES IDX 81 13 82 14 83 15 84 16 85 17 86 19 87 20 88 21 96 22 89 23
REMARK SMILES IDX 91 24 95 25 90 26 92 27 94 28 93 29 8 30 9 31 10 32 11 33
REMARK SMILES IDX 12 34 13 35 14 36 15 37 16 38 77 39 17 40 76 41 18 42 19 43
REMARK SMILES IDX 20 44 70 45 21 46 75 47 69 48 71 49 22 50 74 51 68 52 67 53
REMARK SMILES IDX 23 55 55 56 35 57 54 58 36 59 39 60 53 61 72 62 37 63 38 64
REMARK SMILES IDX 52 66 73 67 40 68 24 69 25 70 33 71 26 72 28 73 34 74 27 75
REMARK SMILES IDX 29 76 30 77 31 78 32 79 56 80 57 81 65 82 58 83 60 84 66 85
REMARK SMILES IDX 59 86 61 87 62 88 63 89 64 90 41 91 42 92 50 93 43 94 45 95
REMARK SMILES IDX 51 96 44 97 46 98 47 99 48 100 49 101
REMARK H PARENT 84 18 71 54 39 65
REMARK Flexibility Score: inf
ROOT
ATOM      1  C   UNL A   1      45.592  22.684  26.100  1.00  0.00     0.188 C 
ENDROOT
BRANCH   1   2
ATOM      2  O   UNL A   1      44.219  23.015  26.328  1.00  0.00    -0.376 OA
BRANCH   2   3
ATOM      3  C   UNL A   1      43.995  24.387  26.657  1.00  0.00     0.202 C 
BRANCH   3   4
ATOM      4  C   UNL A   1      43.766  24.643  28.149  1.00  0.00     0.261 C 
BRANCH   4   5
ATOM      5  O   UNL A   1      42.768  25.650  28.375  1.00  0.00    -0.460 OA
BRANCH   5   6
ATOM      6  C   UNL A   1      41.418  25.510  28.362  1.00  0.00     0.338 C 
ATOM      7  O   UNL A   1      40.960  24.369  28.317  1.00  0.00    -0.246 OA
BRANCH   6   8
ATOM      8  C   UNL A   1      40.446  26.655  28.410  1.00  0.00     0.060 A 
ATOM      9  C   UNL A   1      39.514  26.884  29.424  1.00  0.00     0.016 A 
ATOM     10  C   UNL A   1      40.511  27.594  27.360  1.00  0.00     0.016 A 
ATOM     11  C   UNL A   1      38.604  27.935  29.350  1.00  0.00     0.010 A 
ATOM     12  C   UNL A   1      39.618  28.674  27.291  1.00  0.00     0.010 A 
ATOM     13  C   UNL A   1      38.638  28.808  28.269  1.00  0.00    -0.005 A 
BRANCH  13  14
ATOM     14  C   UNL A   1      37.488  29.694  28.039  1.00  0.00     0.141 C 
ATOM     15  N   UNL A   1      36.817  30.099  29.071  1.00  0.00    -0.180 NA
BRANCH  15  16
ATOM     16  N   UNL A   1      35.560  30.585  28.887  1.00  0.00    -0.243 N 
ATOM     17  C   UNL A   1      35.108  31.838  29.282  1.00  0.00     0.271 C 
ATOM     18  H   UNL A   1      34.914  29.997  28.434  1.00  0.00     0.194 HD
ATOM     19  O   UNL A   1      34.181  32.385  28.685  1.00  0.00    -0.267 OA
BRANCH  17  20
ATOM     20  C   UNL A   1      35.676  32.488  30.479  1.00  0.00     0.049 A 
ATOM     21  C   UNL A   1      34.999  32.192  31.667  1.00  0.00     0.014 A 
ATOM     22  C   UNL A   1      36.837  33.311  30.471  1.00  0.00    -0.006 A 
ATOM     23  C   UNL A   1      35.470  32.696  32.867  1.00  0.00     0.001 A 
ATOM     24  C   UNL A   1      37.289  33.824  31.714  1.00  0.00    -0.018 A 
ATOM     25  C   UNL A   1      37.593  33.628  29.317  1.00  0.00     0.009 A 
ATOM     26  C   UNL A   1      36.598  33.512  32.893  1.00  0.00     0.009 A 
ATOM     27  C   UNL A   1      38.439  34.627  31.771  1.00  0.00     0.009 A 
ATOM     28  C   UNL A   1      38.751  34.408  29.395  1.00  0.00     0.001 A 
ATOM     29  C   UNL A   1      39.170  34.912  30.621  1.00  0.00     0.001 A 
ENDBRANCH  17  20
ENDBRANCH  15  16
ENDBRANCH  13  14
ENDBRANCH   6   8
ENDBRANCH   5   6
ENDBRANCH   4   5
ENDBRANCH   3   4
ENDBRANCH   2   3
ENDBRANCH   1   2
BRANCH   1  30
ATOM     30  C   UNL A   1      45.895  22.652  24.599  1.00  0.00     0.188 C 
BRANCH  30  31
ATOM     31  O   UNL A   1      46.266  23.909  24.030  1.00  0.00    -0.376 OA
BRANCH  31  32
ATOM     32  C   UNL A   1      47.533  24.443  24.406  1.00  0.00     0.202 C 
BRANCH  32  33
ATOM     33  C   UNL A   1      47.618  25.958  24.632  1.00  0.00     0.261 C 
BRANCH  33  34
ATOM     34  O   UNL A   1      46.462  26.711  24.217  1.00  0.00    -0.460 OA
BRANCH  34  35
ATOM     35  C   UNL A   1      46.425  27.976  24.696  1.00  0.00     0.338 C 
ATOM     36  O   UNL A   1      46.788  28.995  24.114  1.00  0.00    -0.246 OA
BRANCH  35  37
ATOM     37  C   UNL A   1      45.861  28.044  26.052  1.00  0.00     0.060 A 
ATOM     38  C   UNL A   1      44.473  28.152  26.193  1.00  0.00     0.016 A 
ATOM     39  C   UNL A   1      46.705  28.302  27.137  1.00  0.00     0.016 A 
ATOM     40  C   UNL A   1      43.929  28.612  27.396  1.00  0.00     0.010 A 
ATOM     41  C   UNL A   1      46.155  28.753  28.342  1.00  0.00     0.010 A 
ATOM     42  C   UNL A   1      44.772  28.978  28.456  1.00  0.00    -0.014 A 
BRANCH  42  43
ATOM     43  C   UNL A   1      44.231  29.779  29.590  1.00  0.00     0.031 A 
ATOM     44  C   UNL A   1      43.922  29.086  30.899  1.00  0.00     0.074 A 
ATOM     45  C   UNL A   1      44.026  31.104  29.472  1.00  0.00     0.049 A 
ATOM     46  N   UNL A   1      43.466  29.591  32.018  1.00  0.00    -0.248 NA
ATOM     47  C   UNL A   1      44.148  27.631  30.950  1.00  0.00     0.031 C 
ATOM     48  C   UNL A   1      44.277  31.901  28.273  1.00  0.00     0.029 A 
ATOM     49  N   UNL A   1      43.544  32.011  30.383  1.00  0.00    -0.354 N 
ATOM     50  C   UNL A   1      43.319  28.517  32.891  1.00  0.00     0.074 A 
ATOM     51  C   UNL A   1      43.720  27.330  32.169  1.00  0.00     0.031 C 
ATOM     52  C   UNL A   1      43.942  33.181  28.520  1.00  0.00     0.029 A 
ATOM     53  C   UNL A   1      43.449  33.291  29.892  1.00  0.00     0.049 A 
ATOM     54  H   UNL A   1      43.290  31.768  31.303  1.00  0.00     0.167 HD
ATOM     55  C   UNL A   1      42.910  28.514  34.183  1.00  0.00     0.034 A 
ATOM     56  C   UNL A   1      43.025  34.423  30.488  1.00  0.00     0.034 A 
ATOM     57  C   UNL A   1      42.558  29.694  34.927  1.00  0.00     0.049 A 
ATOM     58  C   UNL A   1      42.589  34.391  31.932  1.00  0.00     0.074 A 
ATOM     59  C   UNL A   1      42.193  29.796  36.258  1.00  0.00     0.029 A 
ATOM     60  N   UNL A   1      42.526  30.976  34.406  1.00  0.00    -0.354 N 
ATOM     61  N   UNL A   1      42.585  33.389  32.776  1.00  0.00    -0.248 NA
ATOM     62  C   UNL A   1      42.140  35.667  32.515  1.00  0.00     0.031 C 
ATOM     63  C   UNL A   1      41.928  31.140  36.539  1.00  0.00     0.029 A 
ATOM     64  C   UNL A   1      42.145  31.876  35.385  1.00  0.00     0.049 A 
ATOM     65  H   UNL A   1      42.743  31.212  33.475  1.00  0.00     0.167 HD
ATOM     66  C   UNL A   1      42.182  33.922  33.998  1.00  0.00     0.074 A 
ATOM     67  C   UNL A   1      41.962  35.336  33.787  1.00  0.00     0.031 C 
ATOM     68  C   UNL A   1      41.999  33.294  35.185  1.00  0.00     0.034 A 
BRANCH  55  69
ATOM     69  C   UNL A   1      42.860  27.191  34.903  1.00  0.00     0.023 A 
ATOM     70  C   UNL A   1      41.721  26.371  34.774  1.00  0.00     0.012 A 
ATOM     71  C   UNL A   1      43.963  26.726  35.648  1.00  0.00     0.148 A 
ATOM     72  C   UNL A   1      41.668  25.124  35.396  1.00  0.00     0.002 A 
ATOM     73  C   UNL A   1      43.919  25.465  36.231  1.00  0.00     0.091 A 
ATOM     74  F   UNL A   1      45.030  27.527  35.779  1.00  0.00    -0.205 F 
ATOM     75  C   UNL A   1      42.769  24.667  36.114  1.00  0.00     0.022 A 
BRANCH  73  76
ATOM     76  S   UNL A   1      45.319  24.762  37.110  1.00  0.00     0.127 S 
ATOM     77  O   UNL A   1      45.161  23.336  36.828  1.00  0.00    -0.237 OA
ATOM     78  O   UNL A   1      46.458  25.392  36.440  1.00  0.00    -0.237 OA
ATOM     79  O   UNL A   1      45.150  25.151  38.503  1.00  0.00    -0.744 OA
ENDBRANCH  73  76
ENDBRANCH  55  69
BRANCH  56  80
ATOM     80  C   UNL A   1      43.065  35.725  29.767  1.00  0.00     0.023 A 
ATOM     81  C   UNL A   1      42.033  36.024  28.855  1.00  0.00     0.012 A 
ATOM     82  C   UNL A   1      44.134  36.626  29.919  1.00  0.00     0.148 A 
ATOM     83  C   UNL A   1      42.083  37.179  28.077  1.00  0.00     0.002 A 
ATOM     84  C   UNL A   1      44.171  37.783  29.148  1.00  0.00     0.091 A 
ATOM     85  F   UNL A   1      45.087  36.337  30.816  1.00  0.00    -0.205 F 
ATOM     86  C   UNL A   1      43.153  38.056  28.220  1.00  0.00     0.022 A 
BRANCH  84  87
ATOM     87  S   UNL A   1      45.491  38.992  29.263  1.00  0.00     0.127 S 
ATOM     88  O   UNL A   1      45.124  39.951  28.223  1.00  0.00    -0.237 OA
ATOM     89  O   UNL A   1      45.319  39.471  30.633  1.00  0.00    -0.237 OA
ATOM     90  O   UNL A   1      46.721  38.254  29.013  1.00  0.00    -0.744 OA
ENDBRANCH  84  87
ENDBRANCH  56  80
BRANCH  68  91
ATOM     91  C   UNL A   1      41.587  34.130  36.369  1.00  0.00     0.023 A 
ATOM     92  C   UNL A   1      40.221  34.383  36.609  1.00  0.00     0.012 A 
ATOM     93  C   UNL A   1      42.547  34.609  37.282  1.00  0.00     0.148 A 
ATOM     94  C   UNL A   1      39.821  35.125  37.720  1.00  0.00     0.002 A 
ATOM     95  C   UNL A   1      42.138  35.311  38.411  1.00  0.00     0.091 A 
ATOM     96  F   UNL A   1      43.844  34.382  37.028  1.00  0.00    -0.205 F 
ATOM     97  C   UNL A   1      40.777  35.579  38.626  1.00  0.00     0.022 A 
BRANCH  95  98
ATOM     98  S   UNL A   1      43.303  35.845  39.671  1.00  0.00     0.127 S 
ATOM     99  O   UNL A   1      44.086  36.848  38.951  1.00  0.00    -0.237 OA
ATOM    100  O   UNL A   1      42.424  36.388  40.709  1.00  0.00    -0.237 OA
ATOM    101  O   UNL A   1      44.025  34.643  40.070  1.00  0.00    -0.744 OA
ENDBRANCH  95  98
ENDBRANCH  68  91
ENDBRANCH  42  43
ENDBRANCH  35  37
ENDBRANCH  34  35
ENDBRANCH  33  34
ENDBRANCH  32  33
ENDBRANCH  31  32
ENDBRANCH  30  31
ENDBRANCH   1  30
TORSDOF 23
ENDMDL
MODEL 2
REMARK VINA RESULT:      -8.2      4.809      9.993
REMARK SMILES O=C(OCCOCCOCCOC(=O)c1ccc(-c2c3nc(c(-c4cccc(S(=O)(=O)[O-])c4F)c4ccc([nH]4)c(-c4cccc(S(=O)(=O)[O-])c4F)c4nc(c(-c5cccc(S(=O)(=O)[O-])c5F)c5ccc2[nH]5)C=C4)C=C3)cc1)c1ccc(/C=N/NC(=O)c2cccc3ccccc23)cc1
REMARK SMILES IDX 7 1 6 2 5 3 4 4 3 5 2 6 1 7 78 8 79 9 98 10 80 11 97 12
REMARK SMILES IDX 81 13 82 14 83 15 84 16 85 17 86 19 87 20 88 21 96 22 89 23
REMARK SMILES IDX 91 24 95 25 90 26 92 27 94 28 93 29 8 30 9 31 10 32 11 33
REMARK SMILES IDX 12 34 13 35 14 36 15 37 16 38 77 39 17 40 76 41 18 42 19 43
REMARK SMILES IDX 20 44 70 45 21 46 75 47 69 48 71 49 22 50 74 51 68 52 67 53
REMARK SMILES IDX 23 55 55 56 35 57 54 58 36 59 39 60 53 61 72 62 37 63 38 64
REMARK SMILES IDX 52 66 73 67 40 68 24 69 25 70 33 71 26 72 28 73 34 74 27 75
REMARK SMILES IDX 29 76 30 77 31 78 32 79 56 80 57 81 65 82 58 83 60 84 66 85
REMARK SMILES IDX 59 86 61 87 62 88 63 89 64 90 41 91 42 92 50 93 43 94 45 95
REMARK SMILES IDX 51 96 44 97 46 98 47 99 48 100 49 101
REMARK H PARENT 84 18 71 54 39 65
REMARK Flexibility Score: inf
ROOT
ATOM      1  C   UNL A   1      50.741  21.729  37.423  1.00  0.00     0.188 C 
ENDROOT
BRANCH   1   2
ATOM      2  O   UNL A   1      50.853  20.498  38.145  1.00  0.00    -0.376 OA
BRANCH   2   3
ATOM      3  C   UNL A   1      49.832  19.547  37.841  1.00  0.00     0.202 C 
BRANCH   3   4
ATOM      4  C   UNL A   1      48.926  19.200  39.027  1.00  0.00     0.261 C 
BRANCH   4   5
ATOM      5  O   UNL A   1      47.731  19.995  39.041  1.00  0.00    -0.460 OA
BRANCH   5   6
ATOM      6  C   UNL A   1      46.628  19.866  38.260  1.00  0.00     0.338 C 
ATOM      7  O   UNL A   1      45.837  18.963  38.530  1.00  0.00    -0.246 OA
BRANCH   6   8
ATOM      8  C   UNL A   1      46.305  20.756  37.094  1.00  0.00     0.060 A 
ATOM      9  C   UNL A   1      46.363  22.152  37.101  1.00  0.00     0.016 A 
ATOM     10  C   UNL A   1      45.953  20.125  35.883  1.00  0.00     0.016 A 
ATOM     11  C   UNL A   1      45.978  22.900  35.992  1.00  0.00     0.010 A 
ATOM     12  C   UNL A   1      45.591  20.868  34.751  1.00  0.00     0.010 A 
ATOM     13  C   UNL A   1      45.564  22.258  34.831  1.00  0.00    -0.005 A 
BRANCH  13  14
ATOM     14  C   UNL A   1      44.860  23.038  33.803  1.00  0.00     0.141 C 
ATOM     15  N   UNL A   1      45.285  24.236  33.553  1.00  0.00    -0.180 NA
BRANCH  15  16
ATOM     16  N   UNL A   1      44.459  25.106  32.913  1.00  0.00    -0.243 N 
ATOM     17  C   UNL A   1      43.726  26.122  33.513  1.00  0.00     0.271 C 
ATOM     18  H   UNL A   1      44.373  25.008  31.937  1.00  0.00     0.194 HD
ATOM     19  O   UNL A   1      43.415  27.128  32.877  1.00  0.00    -0.267 OA
BRANCH  17  20
ATOM     20  C   UNL A   1      43.235  25.964  34.896  1.00  0.00     0.049 A 
ATOM     21  C   UNL A   1      41.921  25.496  34.988  1.00  0.00     0.014 A 
ATOM     22  C   UNL A   1      44.019  26.212  36.058  1.00  0.00    -0.006 A 
ATOM     23  C   UNL A   1      41.366  25.253  36.233  1.00  0.00     0.001 A 
ATOM     24  C   UNL A   1      43.419  25.966  37.321  1.00  0.00    -0.018 A 
ATOM     25  C   UNL A   1      45.363  26.654  36.046  1.00  0.00     0.009 A 
ATOM     26  C   UNL A   1      42.102  25.493  37.390  1.00  0.00     0.009 A 
ATOM     27  C   UNL A   1      44.149  26.175  38.502  1.00  0.00     0.009 A 
ATOM     28  C   UNL A   1      46.084  26.833  37.232  1.00  0.00     0.001 A 
ATOM     29  C   UNL A   1      45.474  26.599  38.459  1.00  0.00     0.001 A 
ENDBRANCH  17  20
ENDBRANCH  15  16
ENDBRANCH  13  14
ENDBRANCH   6   8
ENDBRANCH   5   6
ENDBRANCH   4   5
ENDBRANCH   3   4
ENDBRANCH   2   3
ENDBRANCH   1   2
BRANCH   1  30
ATOM     30  C   UNL A   1      51.990  21.966  36.569  1.00  0.00     0.188 C 
BRANCH  30  31
ATOM     31  O   UNL A   1      51.995  21.296  35.307  1.00  0.00    -0.376 OA
BRANCH  31  32
ATOM     32  C   UNL A   1      53.144  21.476  34.482  1.00  0.00     0.202 C 
BRANCH  32  33
ATOM     33  C   UNL A   1      52.933  22.160  33.125  1.00  0.00     0.261 C 
BRANCH  33  34
ATOM     34  O   UNL A   1      53.335  23.542  33.060  1.00  0.00    -0.460 OA
BRANCH  34  35
ATOM     35  C   UNL A   1      52.533  24.383  33.752  1.00  0.00     0.338 C 
ATOM     36  O   UNL A   1      52.773  24.900  34.841  1.00  0.00    -0.246 OA
BRANCH  35  37
ATOM     37  C   UNL A   1      51.275  24.666  33.046  1.00  0.00     0.060 A 
ATOM     38  C   UNL A   1      51.284  25.626  32.027  1.00  0.00     0.016 A 
ATOM     39  C   UNL A   1      50.066  24.217  33.586  1.00  0.00     0.016 A 
ATOM     40  C   UNL A   1      50.083  26.209  31.611  1.00  0.00     0.010 A 
ATOM     41  C   UNL A   1      48.866  24.797  33.159  1.00  0.00     0.010 A 
ATOM     42  C   UNL A   1      48.873  25.845  32.221  1.00  0.00    -0.014 A 
BRANCH  42  43
ATOM     43  C   UNL A   1      47.663  26.691  32.031  1.00  0.00     0.031 A 
ATOM     44  C   UNL A   1      46.749  26.416  30.858  1.00  0.00     0.074 A 
ATOM     45  C   UNL A   1      47.365  27.685  32.889  1.00  0.00     0.049 A 
ATOM     46  N   UNL A   1      45.635  27.013  30.514  1.00  0.00    -0.248 NA
ATOM     47  C   UNL A   1      47.147  25.329  29.945  1.00  0.00     0.031 C 
ATOM     48  C   UNL A   1      48.154  28.064  34.059  1.00  0.00     0.029 A 
ATOM     49  N   UNL A   1      46.313  28.567  32.894  1.00  0.00    -0.354 N 
ATOM     50  C   UNL A   1      45.220  26.402  29.335  1.00  0.00     0.074 A 
ATOM     51  C   UNL A   1      46.207  25.396  29.012  1.00  0.00     0.031 C 
ATOM     52  C   UNL A   1      47.561  29.108  34.669  1.00  0.00     0.029 A 
ATOM     53  C   UNL A   1      46.354  29.471  33.928  1.00  0.00     0.049 A 
ATOM     54  H   UNL A   1      45.596  28.554  32.219  1.00  0.00     0.167 HD
ATOM     55  C   UNL A   1      44.108  26.635  28.595  1.00  0.00     0.034 A 
ATOM     56  C   UNL A   1      45.506  30.469  34.246  1.00  0.00     0.034 A 
ATOM     57  C   UNL A   1      43.093  27.596  28.934  1.00  0.00     0.049 A 
ATOM     58  C   UNL A   1      44.269  30.695  33.412  1.00  0.00     0.074 A 
ATOM     59  C   UNL A   1      41.902  27.858  28.280  1.00  0.00     0.029 A 
ATOM     60  N   UNL A   1      43.149  28.455  30.019  1.00  0.00    -0.354 N 
ATOM     61  N   UNL A   1      43.829  30.018  32.380  1.00  0.00    -0.248 NA
ATOM     62  C   UNL A   1      43.389  31.802  33.822  1.00  0.00     0.031 C 
ATOM     63  C   UNL A   1      41.242  28.885  28.963  1.00  0.00     0.029 A 
ATOM     64  C   UNL A   1      42.017  29.249  30.053  1.00  0.00     0.049 A 
ATOM     65  H   UNL A   1      43.885  28.493  30.671  1.00  0.00     0.167 HD
ATOM     66  C   UNL A   1      42.600  30.586  32.049  1.00  0.00     0.074 A 
ATOM     67  C   UNL A   1      42.362  31.653  32.997  1.00  0.00     0.031 C 
ATOM     68  C   UNL A   1      41.752  30.260  31.043  1.00  0.00     0.034 A 
BRANCH  55  69
ATOM     69  C   UNL A   1      43.899  25.802  27.357  1.00  0.00     0.023 A 
ATOM     70  C   UNL A   1      44.521  26.181  26.150  1.00  0.00     0.012 A 
ATOM     71  C   UNL A   1      43.148  24.610  27.401  1.00  0.00     0.148 A 
ATOM     72  C   UNL A   1      44.376  25.405  25.001  1.00  0.00     0.002 A 
ATOM     73  C   UNL A   1      43.043  23.819  26.261  1.00  0.00     0.091 A 
ATOM     74  F   UNL A   1      42.545  24.275  28.550  1.00  0.00    -0.205 F 
ATOM     75  C   UNL A   1      43.648  24.220  25.059  1.00  0.00     0.022 A 
BRANCH  73  76
ATOM     76  S   UNL A   1      42.189  22.239  26.263  1.00  0.00     0.127 S 
ATOM     77  O   UNL A   1      40.789  22.658  26.279  1.00  0.00    -0.237 OA
ATOM     78  O   UNL A   1      42.632  21.642  25.002  1.00  0.00    -0.237 OA
ATOM     79  O   UNL A   1      42.650  21.539  27.455  1.00  0.00    -0.744 OA
ENDBRANCH  73  76
ENDBRANCH  55  69
BRANCH  56  80
ATOM     80  C   UNL A   1      45.725  31.297  35.464  1.00  0.00     0.023 A 
ATOM     81  C   UNL A   1      46.540  32.442  35.365  1.00  0.00     0.012 A 
ATOM     82  C   UNL A   1      45.200  30.929  36.717  1.00  0.00     0.148 A 
ATOM     83  C   UNL A   1      46.864  33.186  36.499  1.00  0.00     0.002 A 
ATOM     84  C   UNL A   1      45.517  31.683  37.841  1.00  0.00     0.091 A 
ATOM     85  F   UNL A   1      44.400  29.855  36.780  1.00  0.00    -0.205 F 
ATOM     86  C   UNL A   1      46.356  32.805  37.736  1.00  0.00     0.022 A 
BRANCH  84  87
ATOM     87  S   UNL A   1      44.904  31.296  39.482  1.00  0.00     0.127 S 
ATOM     88  O   UNL A   1      45.353  32.449  40.260  1.00  0.00    -0.237 OA
ATOM     89  O   UNL A   1      43.464  31.236  39.241  1.00  0.00    -0.237 OA
ATOM     90  O   UNL A   1      45.526  30.030  39.843  1.00  0.00    -0.744 OA
ENDBRANCH  84  87
ENDBRANCH  56  80
BRANCH  68  91
ATOM     91  C   UNL A   1      40.459  31.026  30.935  1.00  0.00     0.023 A 
ATOM     92  C   UNL A   1      40.431  32.267  30.268  1.00  0.00     0.012 A 
ATOM     93  C   UNL A   1      39.257  30.485  31.435  1.00  0.00     0.148 A 
ATOM     94  C   UNL A   1      39.236  32.971  30.129  1.00  0.00     0.002 A 
ATOM     95  C   UNL A   1      38.062  31.172  31.254  1.00  0.00     0.091 A 
ATOM     96  F   UNL A   1      39.303  29.315  32.088  1.00  0.00    -0.205 F 
ATOM     97  C   UNL A   1      38.050  32.420  30.611  1.00  0.00     0.022 A 
BRANCH  95  98
ATOM     98  S   UNL A   1      36.483  30.481  31.763  1.00  0.00     0.127 S 
ATOM     99  O   UNL A   1      36.301  29.401  30.795  1.00  0.00    -0.237 OA
ATOM    100  O   UNL A   1      36.758  30.032  33.130  1.00  0.00    -0.237 OA
ATOM    101  O   UNL A   1      35.529  31.578  31.676  1.00  0.00    -0.744 OA
ENDBRANCH  95  98
ENDBRANCH  68  91
ENDBRANCH  42  43
ENDBRANCH  35  37
ENDBRANCH  34  35
ENDBRANCH  33  34
ENDBRANCH  32  33
ENDBRANCH  31  32
ENDBRANCH  30  31
ENDBRANCH   1  30
TORSDOF 23
ENDMDL
MODEL 3
REMARK VINA RESULT:      -8.2      4.271      8.760
REMARK SMILES O=C(OCCOCCOCCOC(=O)c1ccc(-c2c3nc(c(-c4cccc(S(=O)(=O)[O-])c4F)c4ccc([nH]4)c(-c4cccc(S(=O)(=O)[O-])c4F)c4nc(c(-c5cccc(S(=O)(=O)[O-])c5F)c5ccc2[nH]5)C=C4)C=C3)cc1)c1ccc(/C=N/NC(=O)c2cccc3ccccc23)cc1
REMARK SMILES IDX 7 1 6 2 5 3 4 4 3 5 2 6 1 7 78 8 79 9 98 10 80 11 97 12
REMARK SMILES IDX 81 13 82 14 83 15 84 16 85 17 86 19 87 20 88 21 96 22 89 23
REMARK SMILES IDX 91 24 95 25 90 26 92 27 94 28 93 29 8 30 9 31 10 32 11 33
REMARK SMILES IDX 12 34 13 35 14 36 15 37 16 38 77 39 17 40 76 41 18 42 19 43
REMARK SMILES IDX 20 44 70 45 21 46 75 47 69 48 71 49 22 50 74 51 68 52 67 53
REMARK SMILES IDX 23 55 55 56 35 57 54 58 36 59 39 60 53 61 72 62 37 63 38 64
REMARK SMILES IDX 52 66 73 67 40 68 24 69 25 70 33 71 26 72 28 73 34 74 27 75
REMARK SMILES IDX 29 76 30 77 31 78 32 79 56 80 57 81 65 82 58 83 60 84 66 85
REMARK SMILES IDX 59 86 61 87 62 88 63 89 64 90 41 91 42 92 50 93 43 94 45 95
REMARK SMILES IDX 51 96 44 97 46 98 47 99 48 100 49 101
REMARK H PARENT 84 18 71 54 39 65
REMARK Flexibility Score: inf
ROOT
ATOM      1  C   UNL A   1      48.224  30.583  27.247  1.00  0.00     0.188 C 
ENDROOT
BRANCH   1   2
ATOM      2  O   UNL A   1      47.421  30.966  26.126  1.00  0.00    -0.376 OA
BRANCH   2   3
ATOM      3  C   UNL A   1      46.144  31.499  26.478  1.00  0.00     0.202 C 
BRANCH   3   4
ATOM      4  C   UNL A   1      46.093  33.029  26.518  1.00  0.00     0.261 C 
BRANCH   4   5
ATOM      5  O   UNL A   1      44.777  33.516  26.821  1.00  0.00    -0.460 OA
BRANCH   5   6
ATOM      6  C   UNL A   1      44.431  34.552  27.627  1.00  0.00     0.338 C 
ATOM      7  O   UNL A   1      45.252  35.456  27.783  1.00  0.00    -0.246 OA
BRANCH   6   8
ATOM      8  C   UNL A   1      43.111  34.674  28.331  1.00  0.00     0.060 A 
ATOM      9  C   UNL A   1      42.747  33.991  29.494  1.00  0.00     0.016 A 
ATOM     10  C   UNL A   1      42.178  35.585  27.793  1.00  0.00     0.016 A 
ATOM     11  C   UNL A   1      41.473  34.113  30.040  1.00  0.00     0.010 A 
ATOM     12  C   UNL A   1      40.901  35.738  28.352  1.00  0.00     0.010 A 
ATOM     13  C   UNL A   1      40.543  34.962  29.450  1.00  0.00    -0.005 A 
BRANCH  13  14
ATOM     14  C   UNL A   1      39.128  34.836  29.830  1.00  0.00     0.141 C 
ATOM     15  N   UNL A   1      38.345  34.170  29.042  1.00  0.00    -0.180 NA
BRANCH  15  16
ATOM     16  N   UNL A   1      37.001  34.349  29.147  1.00  0.00    -0.243 N 
ATOM     17  C   UNL A   1      36.081  33.387  29.541  1.00  0.00     0.271 C 
ATOM     18  H   UNL A   1      36.649  35.241  28.923  1.00  0.00     0.194 HD
ATOM     19  O   UNL A   1      35.020  33.716  30.071  1.00  0.00    -0.267 OA
BRANCH  17  20
ATOM     20  C   UNL A   1      36.327  31.961  29.247  1.00  0.00     0.049 A 
ATOM     21  C   UNL A   1      36.019  31.586  27.935  1.00  0.00     0.014 A 
ATOM     22  C   UNL A   1      36.873  31.033  30.177  1.00  0.00    -0.006 A 
ATOM     23  C   UNL A   1      36.261  30.287  27.520  1.00  0.00     0.001 A 
ATOM     24  C   UNL A   1      37.098  29.706  29.727  1.00  0.00    -0.018 A 
ATOM     25  C   UNL A   1      37.240  31.345  31.508  1.00  0.00     0.009 A 
ATOM     26  C   UNL A   1      36.786  29.352  28.408  1.00  0.00     0.009 A 
ATOM     27  C   UNL A   1      37.651  28.750  30.594  1.00  0.00     0.009 A 
ATOM     28  C   UNL A   1      37.814  30.387  32.350  1.00  0.00     0.001 A 
ATOM     29  C   UNL A   1      38.014  29.089  31.895  1.00  0.00     0.001 A 
ENDBRANCH  17  20
ENDBRANCH  15  16
ENDBRANCH  13  14
ENDBRANCH   6   8
ENDBRANCH   5   6
ENDBRANCH   4   5
ENDBRANCH   3   4
ENDBRANCH   2   3
ENDBRANCH   1   2
BRANCH   1  30
ATOM     30  C   UNL A   1      49.415  31.533  27.405  1.00  0.00     0.188 C 
BRANCH  30  31
ATOM     31  O   UNL A   1      49.881  32.125  26.192  1.00  0.00    -0.376 OA
BRANCH  31  32
ATOM     32  C   UNL A   1      51.271  31.999  25.902  1.00  0.00     0.202 C 
BRANCH  32  33
ATOM     33  C   UNL A   1      52.216  33.033  26.530  1.00  0.00     0.261 C 
BRANCH  33  34
ATOM     34  O   UNL A   1      51.600  34.270  26.933  1.00  0.00    -0.460 OA
BRANCH  34  35
ATOM     35  C   UNL A   1      51.991  34.712  28.150  1.00  0.00     0.338 C 
ATOM     36  O   UNL A   1      53.145  34.810  28.563  1.00  0.00    -0.246 OA
BRANCH  35  37
ATOM     37  C   UNL A   1      50.854  35.109  28.994  1.00  0.00     0.060 A 
ATOM     38  C   UNL A   1      50.881  34.771  30.352  1.00  0.00     0.016 A 
ATOM     39  C   UNL A   1      49.665  35.530  28.392  1.00  0.00     0.016 A 
ATOM     40  C   UNL A   1      49.693  34.764  31.090  1.00  0.00     0.010 A 
ATOM     41  C   UNL A   1      48.480  35.530  29.137  1.00  0.00     0.010 A 
ATOM     42  C   UNL A   1      48.475  35.080  30.469  1.00  0.00    -0.014 A 
BRANCH  42  43
ATOM     43  C   UNL A   1      47.191  34.745  31.144  1.00  0.00     0.031 A 
ATOM     44  C   UNL A   1      46.550  35.767  32.057  1.00  0.00     0.074 A 
ATOM     45  C   UNL A   1      46.588  33.557  30.947  1.00  0.00     0.049 A 
ATOM     46  N   UNL A   1      45.427  35.694  32.727  1.00  0.00    -0.248 NA
ATOM     47  C   UNL A   1      47.274  37.036  32.246  1.00  0.00     0.031 C 
ATOM     48  C   UNL A   1      47.091  32.478  30.098  1.00  0.00     0.029 A 
ATOM     49  N   UNL A   1      45.418  33.059  31.464  1.00  0.00    -0.354 N 
ATOM     50  C   UNL A   1      45.328  36.885  33.440  1.00  0.00     0.074 A 
ATOM     51  C   UNL A   1      46.510  37.659  33.133  1.00  0.00     0.031 C 
ATOM     52  C   UNL A   1      46.235  31.440  30.156  1.00  0.00     0.029 A 
ATOM     53  C   UNL A   1      45.129  31.781  31.049  1.00  0.00     0.049 A 
ATOM     54  H   UNL A   1      44.839  33.570  32.076  1.00  0.00     0.167 HD
ATOM     55  C   UNL A   1      44.336  37.313  34.259  1.00  0.00     0.034 A 
ATOM     56  C   UNL A   1      44.084  30.985  31.347  1.00  0.00     0.034 A 
ATOM     57  C   UNL A   1      43.131  36.575  34.530  1.00  0.00     0.049 A 
ATOM     58  C   UNL A   1      42.987  31.494  32.251  1.00  0.00     0.074 A 
ATOM     59  C   UNL A   1      42.042  36.954  35.296  1.00  0.00     0.029 A 
ATOM     60  N   UNL A   1      42.856  35.307  34.048  1.00  0.00    -0.354 N 
ATOM     61  N   UNL A   1      42.850  32.673  32.806  1.00  0.00    -0.248 NA
ATOM     62  C   UNL A   1      41.878  30.567  32.529  1.00  0.00     0.031 C 
ATOM     63  C   UNL A   1      41.113  35.910  35.286  1.00  0.00     0.029 A 
ATOM     64  C   UNL A   1      41.618  34.886  34.500  1.00  0.00     0.049 A 
ATOM     65  H   UNL A   1      43.453  34.782  33.468  1.00  0.00     0.167 HD
ATOM     66  C   UNL A   1      41.619  32.645  33.457  1.00  0.00     0.074 A 
ATOM     67  C   UNL A   1      41.046  31.338  33.217  1.00  0.00     0.031 C 
ATOM     68  C   UNL A   1      41.022  33.611  34.196  1.00  0.00     0.034 A 
BRANCH  55  69
ATOM     69  C   UNL A   1      44.484  38.671  34.895  1.00  0.00     0.023 A 
ATOM     70  C   UNL A   1      45.284  38.816  36.046  1.00  0.00     0.012 A 
ATOM     71  C   UNL A   1      43.893  39.813  34.316  1.00  0.00     0.148 A 
ATOM     72  C   UNL A   1      45.470  40.069  36.629  1.00  0.00     0.002 A 
ATOM     73  C   UNL A   1      44.117  41.065  34.880  1.00  0.00     0.091 A 
ATOM     74  F   UNL A   1      43.118  39.654  33.234  1.00  0.00    -0.205 F 
ATOM     75  C   UNL A   1      44.897  41.193  36.040  1.00  0.00     0.022 A 
BRANCH  73  76
ATOM     76  S   UNL A   1      43.483  42.577  34.146  1.00  0.00     0.127 S 
ATOM     77  O   UNL A   1      43.807  43.564  35.174  1.00  0.00    -0.237 OA
ATOM     78  O   UNL A   1      44.278  42.689  32.922  1.00  0.00    -0.237 OA
ATOM     79  O   UNL A   1      42.062  42.344  33.922  1.00  0.00    -0.744 OA
ENDBRANCH  73  76
ENDBRANCH  55  69
BRANCH  56  80
ATOM     80  C   UNL A   1      43.950  29.638  30.725  1.00  0.00     0.023 A 
ATOM     81  C   UNL A   1      44.413  28.516  31.439  1.00  0.00     0.012 A 
ATOM     82  C   UNL A   1      43.440  29.468  29.425  1.00  0.00     0.148 A 
ATOM     83  C   UNL A   1      44.410  27.250  30.854  1.00  0.00     0.002 A 
ATOM     84  C   UNL A   1      43.428  28.201  28.854  1.00  0.00     0.091 A 
ATOM     85  F   UNL A   1      42.974  30.546  28.779  1.00  0.00    -0.205 F 
ATOM     86  C   UNL A   1      43.922  27.093  29.562  1.00  0.00     0.022 A 
BRANCH  84  87
ATOM     87  S   UNL A   1      42.805  27.879  27.203  1.00  0.00     0.127 S 
ATOM     88  O   UNL A   1      43.288  26.523  26.948  1.00  0.00    -0.237 OA
ATOM     89  O   UNL A   1      41.363  27.990  27.417  1.00  0.00    -0.237 OA
ATOM     90  O   UNL A   1      43.388  28.909  26.356  1.00  0.00    -0.744 OA
ENDBRANCH  84  87
ENDBRANCH  56  80
BRANCH  68  91
ATOM     91  C   UNL A   1      39.657  33.323  34.764  1.00  0.00     0.023 A 
ATOM     92  C   UNL A   1      39.536  32.694  36.020  1.00  0.00     0.012 A 
ATOM     93  C   UNL A   1      38.492  33.735  34.086  1.00  0.00     0.148 A 
ATOM     94  C   UNL A   1      38.281  32.451  36.574  1.00  0.00     0.002 A 
ATOM     95  C   UNL A   1      37.245  33.530  34.665  1.00  0.00     0.091 A 
ATOM     96  F   UNL A   1      38.620  34.311  32.882  1.00  0.00    -0.205 F 
ATOM     97  C   UNL A   1      37.136  32.879  35.904  1.00  0.00     0.022 A 
BRANCH  95  98
ATOM     98  S   UNL A   1      35.734  34.138  33.907  1.00  0.00     0.127 S 
ATOM     99  O   UNL A   1      35.018  34.685  35.057  1.00  0.00    -0.237 OA
ATOM    100  O   UNL A   1      36.232  35.143  32.965  1.00  0.00    -0.237 OA
ATOM    101  O   UNL A   1      35.120  32.978  33.272  1.00  0.00    -0.744 OA
ENDBRANCH  95  98
ENDBRANCH  68  91
ENDBRANCH  42  43
ENDBRANCH  35  37
ENDBRANCH  34  35
ENDBRANCH  33  34
ENDBRANCH  32  33
ENDBRANCH  31  32
ENDBRANCH  30  31
ENDBRANCH   1  30
TORSDOF 23
ENDMDL
