MODEL 1
REMARK VINA RESULT:      -8.1      0.000      0.000
REMARK SMILES CCCCCCOC(=O)Nc1cccc(-c2ccc([C@@H](C)C(=O)OCCOCCOCCOC(=O)c3ccc(-c4c5nc(c(-c6cccc(S(=O)(=O)[O-])c6F)c6ccc([nH]6)c(-c6cccc(S(=O)(=O)[O-])c6F)c6nc(c(-c7cccc(S(=O)(=O)[O-])c7F)c7ccc4[nH]7)C=C6)C=C5)cc3)cc2F)c1
REMARK SMILES IDX 25 1 24 2 22 3 23 4 20 5 21 6 19 7 16 8 17 9 100 10 18 11
REMARK SMILES IDX 99 12 101 13 15 14 11 15 12 16 102 17 13 18 14 19 10 20 8 21
REMARK SMILES IDX 9 22 7 24 6 25 5 26 4 27 3 28 2 29 1 30 26 31 27 32 28 33
REMARK SMILES IDX 29 34 30 35 31 36 32 37 33 38 34 39 35 40 36 41 37 42 98 43
REMARK SMILES IDX 38 44 97 45 39 46 40 47 41 48 91 49 42 50 96 51 90 52 92 53
REMARK SMILES IDX 43 54 95 55 89 56 88 57 44 59 76 60 56 61 75 62 57 63 60 64
REMARK SMILES IDX 74 65 93 66 58 67 59 68 73 70 94 71 61 72 45 73 46 74 54 75
REMARK SMILES IDX 47 76 49 77 55 78 48 79 50 80 51 81 52 82 53 83 77 84 78 85
REMARK SMILES IDX 86 86 79 87 81 88 87 89 80 90 82 91 83 92 84 93 85 94 62 95
REMARK SMILES IDX 63 96 71 97 64 98 66 99 72 100 65 101 67 102 68 103 69 104
REMARK SMILES IDX 70 105
REMARK H PARENT 10 23 92 58 60 69
REMARK Flexibility Score: inf
ROOT
ATOM      1  C   UNL A   1      33.879  23.977  24.959  1.00  0.00     0.261 C 
ENDROOT
BRANCH   1   2
ATOM      2  O   UNL A   1      34.063  22.552  24.807  1.00  0.00    -0.463 OA
BRANCH   2   3
ATOM      3  C   UNL A   1      34.965  21.978  25.641  1.00  0.00     0.313 C 
ATOM      4  O   UNL A   1      34.707  21.686  26.807  1.00  0.00    -0.252 OA
BRANCH   3   5
ATOM      5  C   UNL A   1      36.333  21.660  25.032  1.00  0.00     0.126 C 
ATOM      6  C   UNL A   1      36.416  20.149  24.804  1.00  0.00     0.025 C 
BRANCH   5   7
ATOM      7  C   UNL A   1      37.628  22.138  25.688  1.00  0.00    -0.031 A 
ATOM      8  C   UNL A   1      40.030  23.176  26.864  1.00  0.00     0.018 A 
ATOM      9  C   UNL A   1      39.949  21.850  26.405  1.00  0.00     0.012 A 
ATOM     10  C   UNL A   1      38.883  23.967  26.717  1.00  0.00     0.131 A 
ATOM     11  C   UNL A   1      38.772  21.340  25.822  1.00  0.00     0.005 A 
ATOM     12  C   UNL A   1      37.710  23.470  26.138  1.00  0.00     0.044 A 
ATOM     13  F   UNL A   1      38.894  25.252  27.108  1.00  0.00    -0.206 F 
BRANCH   8  14
ATOM     14  C   UNL A   1      41.276  23.731  27.426  1.00  0.00    -0.013 A 
ATOM     15  C   UNL A   1      43.174  25.269  27.295  1.00  0.00     0.045 A 
ATOM     16  C   UNL A   1      43.793  24.607  28.356  1.00  0.00     0.026 A 
ATOM     17  C   UNL A   1      41.919  24.836  26.840  1.00  0.00     0.035 A 
ATOM     18  C   UNL A   1      43.142  23.553  28.992  1.00  0.00     0.003 A 
ATOM     19  C   UNL A   1      41.899  23.116  28.527  1.00  0.00     0.009 A 
BRANCH  15  20
ATOM     20  N   UNL A   1      43.895  26.282  26.650  1.00  0.00    -0.291 N 
ATOM     21  C   UNL A   1      43.572  26.939  25.496  1.00  0.00     0.411 C 
ATOM     22  O   UNL A   1      44.435  27.502  24.833  1.00  0.00    -0.224 OA
ATOM     23  H   UNL A   1      44.737  26.555  27.080  1.00  0.00     0.173 HD
BRANCH  21  24
ATOM     24  O   UNL A   1      42.235  27.020  25.284  1.00  0.00    -0.449 OA
BRANCH  24  25
ATOM     25  C   UNL A   1      41.583  28.261  25.594  1.00  0.00     0.235 C 
BRANCH  25  26
ATOM     26  C   UNL A   1      40.977  28.277  26.999  1.00  0.00     0.042 C 
BRANCH  26  27
ATOM     27  C   UNL A   1      39.795  29.231  27.205  1.00  0.00     0.003 C 
BRANCH  27  28
ATOM     28  C   UNL A   1      38.764  28.779  28.247  1.00  0.00    -0.000 C 
BRANCH  28  29
ATOM     29  C   UNL A   1      39.268  27.748  29.258  1.00  0.00    -0.003 C 
ATOM     30  C   UNL A   1      39.173  28.236  30.695  1.00  0.00     0.004 C 
ENDBRANCH  28  29
ENDBRANCH  27  28
ENDBRANCH  26  27
ENDBRANCH  25  26
ENDBRANCH  24  25
ENDBRANCH  21  24
ENDBRANCH  15  20
ENDBRANCH   8  14
ENDBRANCH   5   7
ENDBRANCH   3   5
ENDBRANCH   2   3
ENDBRANCH   1   2
BRANCH   1  31
ATOM     31  C   UNL A   1      32.440  24.448  24.717  1.00  0.00     0.202 C 
BRANCH  31  32
ATOM     32  O   UNL A   1      32.086  25.735  25.206  1.00  0.00    -0.376 OA
BRANCH  32  33
ATOM     33  C   UNL A   1      32.877  26.860  24.839  1.00  0.00     0.188 C 
BRANCH  33  34
ATOM     34  C   UNL A   1      33.637  27.617  25.937  1.00  0.00     0.188 C 
BRANCH  34  35
ATOM     35  O   UNL A   1      33.514  29.026  25.876  1.00  0.00    -0.376 OA
BRANCH  35  36
ATOM     36  C   UNL A   1      34.298  29.755  26.803  1.00  0.00     0.202 C 
BRANCH  36  37
ATOM     37  C   UNL A   1      33.610  31.040  27.272  1.00  0.00     0.261 C 
BRANCH  37  38
ATOM     38  O   UNL A   1      33.921  31.455  28.614  1.00  0.00    -0.460 OA
BRANCH  38  39
ATOM     39  C   UNL A   1      34.258  32.751  28.809  1.00  0.00     0.338 C 
ATOM     40  O   UNL A   1      33.680  33.734  28.387  1.00  0.00    -0.246 OA
BRANCH  39  41
ATOM     41  C   UNL A   1      35.320  32.787  29.831  1.00  0.00     0.060 A 
ATOM     42  C   UNL A   1      35.840  34.026  30.233  1.00  0.00     0.016 A 
ATOM     43  C   UNL A   1      35.779  31.600  30.400  1.00  0.00     0.016 A 
ATOM     44  C   UNL A   1      36.839  34.079  31.207  1.00  0.00     0.010 A 
ATOM     45  C   UNL A   1      36.791  31.652  31.354  1.00  0.00     0.010 A 
ATOM     46  C   UNL A   1      37.341  32.886  31.743  1.00  0.00    -0.014 A 
BRANCH  46  47
ATOM     47  C   UNL A   1      38.572  32.869  32.562  1.00  0.00     0.031 A 
ATOM     48  C   UNL A   1      39.824  32.343  31.924  1.00  0.00     0.074 A 
ATOM     49  C   UNL A   1      38.549  33.198  33.866  1.00  0.00     0.049 A 
ATOM     50  N   UNL A   1      40.959  32.009  32.476  1.00  0.00    -0.248 NA
ATOM     51  C   UNL A   1      39.780  32.149  30.463  1.00  0.00     0.031 C 
ATOM     52  C   UNL A   1      37.396  33.735  34.585  1.00  0.00     0.029 A 
ATOM     53  N   UNL A   1      39.522  33.073  34.827  1.00  0.00    -0.354 N 
ATOM     54  C   UNL A   1      41.746  31.518  31.442  1.00  0.00     0.074 A 
ATOM     55  C   UNL A   1      40.965  31.607  30.228  1.00  0.00     0.031 C 
ATOM     56  C   UNL A   1      37.711  33.846  35.888  1.00  0.00     0.029 A 
ATOM     57  C   UNL A   1      39.071  33.348  36.097  1.00  0.00     0.049 A 
ATOM     58  H   UNL A   1      40.449  32.812  34.627  1.00  0.00     0.167 HD
ATOM     59  C   UNL A   1      43.008  31.036  31.500  1.00  0.00     0.034 A 
ATOM     60  C   UNL A   1      39.671  33.170  37.291  1.00  0.00     0.034 A 
ATOM     61  C   UNL A   1      43.781  30.963  32.708  1.00  0.00     0.049 A 
ATOM     62  C   UNL A   1      41.070  32.603  37.334  1.00  0.00     0.074 A 
ATOM     63  C   UNL A   1      45.083  30.527  32.870  1.00  0.00     0.029 A 
ATOM     64  N   UNL A   1      43.318  31.325  33.963  1.00  0.00    -0.354 N 
ATOM     65  N   UNL A   1      41.842  32.233  36.341  1.00  0.00    -0.248 NA
ATOM     66  C   UNL A   1      41.689  32.449  38.660  1.00  0.00     0.031 C 
ATOM     67  C   UNL A   1      45.399  30.602  34.229  1.00  0.00     0.029 A 
ATOM     68  C   UNL A   1      44.305  31.118  34.906  1.00  0.00     0.049 A 
ATOM     69  H   UNL A   1      42.418  31.677  34.153  1.00  0.00     0.167 HD
ATOM     70  C   UNL A   1      43.051  31.852  36.916  1.00  0.00     0.074 A 
ATOM     71  C   UNL A   1      42.910  32.036  38.345  1.00  0.00     0.031 C 
ATOM     72  C   UNL A   1      44.173  31.385  36.316  1.00  0.00     0.034 A 
BRANCH  59  73
ATOM     73  C   UNL A   1      43.634  30.559  30.219  1.00  0.00     0.023 A 
ATOM     74  C   UNL A   1      43.594  29.190  29.889  1.00  0.00     0.012 A 
ATOM     75  C   UNL A   1      44.220  31.473  29.321  1.00  0.00     0.148 A 
ATOM     76  C   UNL A   1      44.153  28.732  28.697  1.00  0.00     0.002 A 
ATOM     77  C   UNL A   1      44.734  31.015  28.114  1.00  0.00     0.091 A 
ATOM     78  F   UNL A   1      44.272  32.766  29.668  1.00  0.00    -0.205 F 
ATOM     79  C   UNL A   1      44.712  29.645  27.806  1.00  0.00     0.022 A 
BRANCH  77  80
ATOM     80  S   UNL A   1      45.401  32.122  26.867  1.00  0.00     0.127 S 
ATOM     81  O   UNL A   1      45.694  31.195  25.775  1.00  0.00    -0.237 OA
ATOM     82  O   UNL A   1      44.272  33.020  26.618  1.00  0.00    -0.237 OA
ATOM     83  O   UNL A   1      46.560  32.760  27.476  1.00  0.00    -0.744 OA
ENDBRANCH  77  80
ENDBRANCH  59  73
BRANCH  60  84
ATOM     84  C   UNL A   1      38.967  33.549  38.549  1.00  0.00     0.023 A 
ATOM     85  C   UNL A   1      39.272  34.778  39.168  1.00  0.00     0.012 A 
ATOM     86  C   UNL A   1      37.998  32.710  39.132  1.00  0.00     0.148 A 
ATOM     87  C   UNL A   1      38.647  35.150  40.358  1.00  0.00     0.002 A 
ATOM     88  C   UNL A   1      37.340  33.111  40.290  1.00  0.00     0.091 A 
ATOM     89  F   UNL A   1      37.733  31.537  38.539  1.00  0.00    -0.205 F 
ATOM     90  C   UNL A   1      37.676  34.323  40.914  1.00  0.00     0.022 A 
BRANCH  88  91
ATOM     91  S   UNL A   1      35.995  32.166  41.016  1.00  0.00     0.127 S 
ATOM     92  O   UNL A   1      36.673  30.933  41.407  1.00  0.00    -0.237 OA
ATOM     93  O   UNL A   1      35.591  33.026  42.129  1.00  0.00    -0.237 OA
ATOM     94  O   UNL A   1      34.997  32.033  39.965  1.00  0.00    -0.744 OA
ENDBRANCH  88  91
ENDBRANCH  60  84
BRANCH  72  95
ATOM     95  C   UNL A   1      45.381  31.108  37.171  1.00  0.00     0.023 A 
ATOM     96  C   UNL A   1      45.607  29.814  37.677  1.00  0.00     0.012 A 
ATOM     97  C   UNL A   1      46.361  32.105  37.352  1.00  0.00     0.148 A 
ATOM     98  C   UNL A   1      46.787  29.520  38.362  1.00  0.00     0.002 A 
ATOM     99  C   UNL A   1      47.553  31.794  37.992  1.00  0.00     0.091 A 
ATOM    100  F   UNL A   1      46.114  33.334  36.873  1.00  0.00    -0.205 F 
ATOM    101  C   UNL A   1      47.764  30.504  38.505  1.00  0.00     0.022 A 
BRANCH  99 102
ATOM    102  S   UNL A   1      48.910  32.963  38.130  1.00  0.00     0.127 S 
ATOM    103  O   UNL A   1      50.027  32.084  38.469  1.00  0.00    -0.237 OA
ATOM    104  O   UNL A   1      48.966  33.530  36.782  1.00  0.00    -0.237 OA
ATOM    105  O   UNL A   1      48.526  33.908  39.170  1.00  0.00    -0.744 OA
ENDBRANCH  99 102
ENDBRANCH  72  95
ENDBRANCH  46  47
ENDBRANCH  39  41
ENDBRANCH  38  39
ENDBRANCH  37  38
ENDBRANCH  36  37
ENDBRANCH  35  36
ENDBRANCH  34  35
ENDBRANCH  33  34
ENDBRANCH  32  33
ENDBRANCH  31  32
ENDBRANCH   1  31
TORSDOF 29
ENDMDL
MODEL 2
REMARK VINA RESULT:      -7.7      5.797     12.079
REMARK SMILES CCCCCCOC(=O)Nc1cccc(-c2ccc([C@@H](C)C(=O)OCCOCCOCCOC(=O)c3ccc(-c4c5nc(c(-c6cccc(S(=O)(=O)[O-])c6F)c6ccc([nH]6)c(-c6cccc(S(=O)(=O)[O-])c6F)c6nc(c(-c7cccc(S(=O)(=O)[O-])c7F)c7ccc4[nH]7)C=C6)C=C5)cc3)cc2F)c1
REMARK SMILES IDX 25 1 24 2 22 3 23 4 20 5 21 6 19 7 16 8 17 9 100 10 18 11
REMARK SMILES IDX 99 12 101 13 15 14 11 15 12 16 102 17 13 18 14 19 10 20 8 21
REMARK SMILES IDX 9 22 7 24 6 25 5 26 4 27 3 28 2 29 1 30 26 31 27 32 28 33
REMARK SMILES IDX 29 34 30 35 31 36 32 37 33 38 34 39 35 40 36 41 37 42 98 43
REMARK SMILES IDX 38 44 97 45 39 46 40 47 41 48 91 49 42 50 96 51 90 52 92 53
REMARK SMILES IDX 43 54 95 55 89 56 88 57 44 59 76 60 56 61 75 62 57 63 60 64
REMARK SMILES IDX 74 65 93 66 58 67 59 68 73 70 94 71 61 72 45 73 46 74 54 75
REMARK SMILES IDX 47 76 49 77 55 78 48 79 50 80 51 81 52 82 53 83 77 84 78 85
REMARK SMILES IDX 86 86 79 87 81 88 87 89 80 90 82 91 83 92 84 93 85 94 62 95
REMARK SMILES IDX 63 96 71 97 64 98 66 99 72 100 65 101 67 102 68 103 69 104
REMARK SMILES IDX 70 105
REMARK H PARENT 10 23 92 58 60 69
REMARK Flexibility Score: inf
ROOT
ATOM      1  C   UNL A   1      35.333  23.984  25.824  1.00  0.00     0.261 C 
ENDROOT
BRANCH   1   2
ATOM      2  O   UNL A   1      33.963  24.102  25.379  1.00  0.00    -0.463 OA
BRANCH   2   3
ATOM      3  C   UNL A   1      33.549  25.353  25.063  1.00  0.00     0.313 C 
ATOM      4  O   UNL A   1      33.752  25.869  23.965  1.00  0.00    -0.252 OA
BRANCH   3   5
ATOM      5  C   UNL A   1      32.756  26.091  26.145  1.00  0.00     0.126 C 
ATOM      6  C   UNL A   1      31.264  25.928  25.840  1.00  0.00     0.025 C 
BRANCH   5   7
ATOM      7  C   UNL A   1      33.040  27.553  26.485  1.00  0.00    -0.031 A 
ATOM      8  C   UNL A   1      33.708  30.253  27.184  1.00  0.00     0.018 A 
ATOM      9  C   UNL A   1      32.377  29.802  27.182  1.00  0.00     0.012 A 
ATOM     10  C   UNL A   1      34.692  29.322  26.831  1.00  0.00     0.131 A 
ATOM     11  C   UNL A   1      32.048  28.474  26.844  1.00  0.00     0.005 A 
ATOM     12  C   UNL A   1      34.375  28.001  26.496  1.00  0.00     0.044 A 
ATOM     13  F   UNL A   1      35.989  29.674  26.837  1.00  0.00    -0.206 F 
BRANCH   8  14
ATOM     14  C   UNL A   1      34.063  31.628  27.588  1.00  0.00    -0.013 A 
ATOM     15  C   UNL A   1      35.660  33.229  28.520  1.00  0.00     0.045 A 
ATOM     16  C   UNL A   1      34.655  34.192  28.607  1.00  0.00     0.026 A 
ATOM     17  C   UNL A   1      35.366  31.958  28.006  1.00  0.00     0.035 A 
ATOM     18  C   UNL A   1      33.375  33.906  28.138  1.00  0.00     0.003 A 
ATOM     19  C   UNL A   1      33.082  32.634  27.638  1.00  0.00     0.009 A 
BRANCH  15  20
ATOM     20  N   UNL A   1      36.913  33.546  29.061  1.00  0.00    -0.291 N 
ATOM     21  C   UNL A   1      37.321  33.428  30.360  1.00  0.00     0.411 C 
ATOM     22  O   UNL A   1      38.267  34.083  30.782  1.00  0.00    -0.224 OA
ATOM     23  H   UNL A   1      37.582  33.895  28.429  1.00  0.00     0.173 HD
BRANCH  21  24
ATOM     24  O   UNL A   1      36.687  32.434  31.031  1.00  0.00    -0.449 OA
BRANCH  24  25
ATOM     25  C   UNL A   1      37.442  31.699  32.006  1.00  0.00     0.235 C 
BRANCH  25  26
ATOM     26  C   UNL A   1      38.477  30.766  31.374  1.00  0.00     0.042 C 
BRANCH  26  27
ATOM     27  C   UNL A   1      37.987  29.933  30.184  1.00  0.00     0.003 C 
BRANCH  27  28
ATOM     28  C   UNL A   1      38.964  29.838  29.006  1.00  0.00    -0.000 C 
BRANCH  28  29
ATOM     29  C   UNL A   1      38.765  28.630  28.089  1.00  0.00    -0.003 C 
ATOM     30  C   UNL A   1      39.461  27.380  28.600  1.00  0.00     0.004 C 
ENDBRANCH  28  29
ENDBRANCH  27  28
ENDBRANCH  26  27
ENDBRANCH  25  26
ENDBRANCH  24  25
ENDBRANCH  21  24
ENDBRANCH  15  20
ENDBRANCH   8  14
ENDBRANCH   5   7
ENDBRANCH   3   5
ENDBRANCH   2   3
ENDBRANCH   1   2
BRANCH   1  31
ATOM     31  C   UNL A   1      35.910  22.569  25.692  1.00  0.00     0.202 C 
BRANCH  31  32
ATOM     32  O   UNL A   1      36.988  22.388  24.783  1.00  0.00    -0.376 OA
BRANCH  32  33
ATOM     33  C   UNL A   1      38.023  21.467  25.105  1.00  0.00     0.188 C 
BRANCH  33  34
ATOM     34  C   UNL A   1      39.076  21.875  26.145  1.00  0.00     0.188 C 
BRANCH  34  35
ATOM     35  O   UNL A   1      39.993  20.852  26.488  1.00  0.00    -0.376 OA
BRANCH  35  36
ATOM     36  C   UNL A   1      41.051  21.236  27.348  1.00  0.00     0.202 C 
BRANCH  36  37
ATOM     37  C   UNL A   1      40.991  22.718  27.729  1.00  0.00     0.261 C 
BRANCH  37  38
ATOM     38  O   UNL A   1      42.157  23.491  27.395  1.00  0.00    -0.460 OA
BRANCH  38  39
ATOM     39  C   UNL A   1      41.977  24.623  26.677  1.00  0.00     0.338 C 
ATOM     40  O   UNL A   1      40.957  24.993  26.127  1.00  0.00    -0.246 OA
BRANCH  39  41
ATOM     41  C   UNL A   1      43.170  25.467  26.867  1.00  0.00     0.060 A 
ATOM     42  C   UNL A   1      43.545  25.838  28.168  1.00  0.00     0.016 A 
ATOM     43  C   UNL A   1      43.924  25.867  25.765  1.00  0.00     0.016 A 
ATOM     44  C   UNL A   1      44.678  26.628  28.367  1.00  0.00     0.010 A 
ATOM     45  C   UNL A   1      45.040  26.674  25.963  1.00  0.00     0.010 A 
ATOM     46  C   UNL A   1      45.407  27.078  27.259  1.00  0.00    -0.014 A 
BRANCH  46  47
ATOM     47  C   UNL A   1      46.439  28.129  27.392  1.00  0.00     0.031 A 
ATOM     48  C   UNL A   1      46.007  29.554  27.208  1.00  0.00     0.074 A 
ATOM     49  C   UNL A   1      47.738  27.818  27.551  1.00  0.00     0.049 A 
ATOM     50  N   UNL A   1      46.732  30.626  27.045  1.00  0.00    -0.248 NA
ATOM     51  C   UNL A   1      44.553  29.797  27.185  1.00  0.00     0.031 C 
ATOM     52  C   UNL A   1      48.268  26.473  27.755  1.00  0.00     0.029 A 
ATOM     53  N   UNL A   1      48.850  28.621  27.510  1.00  0.00    -0.354 N 
ATOM     54  C   UNL A   1      45.828  31.662  26.850  1.00  0.00     0.074 A 
ATOM     55  C   UNL A   1      44.501  31.094  26.924  1.00  0.00     0.031 C 
ATOM     56  C   UNL A   1      49.612  26.534  27.771  1.00  0.00     0.029 A 
ATOM     57  C   UNL A   1      50.032  27.915  27.534  1.00  0.00     0.049 A 
ATOM     58  H   UNL A   1      48.808  29.603  27.467  1.00  0.00     0.167 HD
ATOM     59  C   UNL A   1      46.083  32.972  26.627  1.00  0.00     0.034 A 
ATOM     60  C   UNL A   1      51.298  28.334  27.340  1.00  0.00     0.034 A 
ATOM     61  C   UNL A   1      47.405  33.530  26.568  1.00  0.00     0.049 A 
ATOM     62  C   UNL A   1      51.557  29.795  27.064  1.00  0.00     0.074 A 
ATOM     63  C   UNL A   1      47.772  34.851  26.386  1.00  0.00     0.029 A 
ATOM     64  N   UNL A   1      48.575  32.797  26.676  1.00  0.00    -0.354 N 
ATOM     65  N   UNL A   1      50.700  30.784  26.978  1.00  0.00    -0.248 NA
ATOM     66  C   UNL A   1      52.959  30.204  26.881  1.00  0.00     0.031 C 
ATOM     67  C   UNL A   1      49.168  34.912  26.359  1.00  0.00     0.029 A 
ATOM     68  C   UNL A   1      49.668  33.635  26.560  1.00  0.00     0.049 A 
ATOM     69  H   UNL A   1      48.621  31.823  26.815  1.00  0.00     0.167 HD
ATOM     70  C   UNL A   1      51.459  31.934  26.782  1.00  0.00     0.074 A 
ATOM     71  C   UNL A   1      52.847  31.521  26.762  1.00  0.00     0.031 C 
ATOM     72  C   UNL A   1      51.044  33.215  26.625  1.00  0.00     0.034 A 
BRANCH  59  73
ATOM     73  C   UNL A   1      44.908  33.891  26.443  1.00  0.00     0.023 A 
ATOM     74  C   UNL A   1      44.213  33.900  25.217  1.00  0.00     0.012 A 
ATOM     75  C   UNL A   1      44.463  34.711  27.498  1.00  0.00     0.148 A 
ATOM     76  C   UNL A   1      43.110  34.732  25.033  1.00  0.00     0.002 A 
ATOM     77  C   UNL A   1      43.336  35.504  27.324  1.00  0.00     0.091 A 
ATOM     78  F   UNL A   1      45.156  34.708  28.646  1.00  0.00    -0.205 F 
ATOM     79  C   UNL A   1      42.666  35.525  26.089  1.00  0.00     0.022 A 
BRANCH  77  80
ATOM     80  S   UNL A   1      42.639  36.497  28.648  1.00  0.00     0.127 S 
ATOM     81  O   UNL A   1      41.689  37.336  27.919  1.00  0.00    -0.237 OA
ATOM     82  O   UNL A   1      42.024  35.480  29.503  1.00  0.00    -0.237 OA
ATOM     83  O   UNL A   1      43.760  37.202  29.254  1.00  0.00    -0.744 OA
ENDBRANCH  77  80
ENDBRANCH  59  73
BRANCH  60  84
ATOM     84  C   UNL A   1      52.428  27.364  27.416  1.00  0.00     0.023 A 
ATOM     85  C   UNL A   1      52.971  27.034  28.674  1.00  0.00     0.012 A 
ATOM     86  C   UNL A   1      52.964  26.764  26.260  1.00  0.00     0.148 A 
ATOM     87  C   UNL A   1      54.043  26.149  28.776  1.00  0.00     0.002 A 
ATOM     88  C   UNL A   1      53.999  25.842  26.374  1.00  0.00     0.091 A 
ATOM     89  F   UNL A   1      52.447  27.103  25.070  1.00  0.00    -0.205 F 
ATOM     90  C   UNL A   1      54.551  25.546  27.630  1.00  0.00     0.022 A 
BRANCH  88  91
ATOM     91  S   UNL A   1      54.640  24.929  24.966  1.00  0.00     0.127 S 
ATOM     92  O   UNL A   1      53.464  24.177  24.535  1.00  0.00    -0.237 OA
ATOM     93  O   UNL A   1      55.044  26.010  24.066  1.00  0.00    -0.237 OA
ATOM     94  O   UNL A   1      55.744  24.133  25.483  1.00  0.00    -0.744 OA
ENDBRANCH  88  91
ENDBRANCH  60  84
BRANCH  72  95
ATOM     95  C   UNL A   1      52.086  34.294  26.496  1.00  0.00     0.023 A 
ATOM     96  C   UNL A   1      52.547  34.683  25.224  1.00  0.00     0.012 A 
ATOM     97  C   UNL A   1      52.499  35.016  27.635  1.00  0.00     0.148 A 
ATOM     98  C   UNL A   1      53.415  35.767  25.089  1.00  0.00     0.002 A 
ATOM     99  C   UNL A   1      53.324  36.122  27.489  1.00  0.00     0.091 A 
ATOM    100  F   UNL A   1      52.056  34.616  28.836  1.00  0.00    -0.205 F 
ATOM    101  C   UNL A   1      53.789  36.495  26.218  1.00  0.00     0.022 A 
BRANCH  99 102
ATOM    102  S   UNL A   1      53.773  37.181  28.869  1.00  0.00     0.127 S 
ATOM    103  O   UNL A   1      54.592  38.197  28.210  1.00  0.00    -0.237 OA
ATOM    104  O   UNL A   1      52.468  37.655  29.332  1.00  0.00    -0.237 OA
ATOM    105  O   UNL A   1      54.481  36.332  29.818  1.00  0.00    -0.744 OA
ENDBRANCH  99 102
ENDBRANCH  72  95
ENDBRANCH  46  47
ENDBRANCH  39  41
ENDBRANCH  38  39
ENDBRANCH  37  38
ENDBRANCH  36  37
ENDBRANCH  35  36
ENDBRANCH  34  35
ENDBRANCH  33  34
ENDBRANCH  32  33
ENDBRANCH  31  32
ENDBRANCH   1  31
TORSDOF 29
ENDMDL
MODEL 3
REMARK VINA RESULT:      -7.3      5.254     11.940
REMARK SMILES CCCCCCOC(=O)Nc1cccc(-c2ccc([C@@H](C)C(=O)OCCOCCOCCOC(=O)c3ccc(-c4c5nc(c(-c6cccc(S(=O)(=O)[O-])c6F)c6ccc([nH]6)c(-c6cccc(S(=O)(=O)[O-])c6F)c6nc(c(-c7cccc(S(=O)(=O)[O-])c7F)c7ccc4[nH]7)C=C6)C=C5)cc3)cc2F)c1
REMARK SMILES IDX 25 1 24 2 22 3 23 4 20 5 21 6 19 7 16 8 17 9 100 10 18 11
REMARK SMILES IDX 99 12 101 13 15 14 11 15 12 16 102 17 13 18 14 19 10 20 8 21
REMARK SMILES IDX 9 22 7 24 6 25 5 26 4 27 3 28 2 29 1 30 26 31 27 32 28 33
REMARK SMILES IDX 29 34 30 35 31 36 32 37 33 38 34 39 35 40 36 41 37 42 98 43
REMARK SMILES IDX 38 44 97 45 39 46 40 47 41 48 91 49 42 50 96 51 90 52 92 53
REMARK SMILES IDX 43 54 95 55 89 56 88 57 44 59 76 60 56 61 75 62 57 63 60 64
REMARK SMILES IDX 74 65 93 66 58 67 59 68 73 70 94 71 61 72 45 73 46 74 54 75
REMARK SMILES IDX 47 76 49 77 55 78 48 79 50 80 51 81 52 82 53 83 77 84 78 85
REMARK SMILES IDX 86 86 79 87 81 88 87 89 80 90 82 91 83 92 84 93 85 94 62 95
REMARK SMILES IDX 63 96 71 97 64 98 66 99 72 100 65 101 67 102 68 103 69 104
REMARK SMILES IDX 70 105
REMARK H PARENT 10 23 92 58 60 69
REMARK Flexibility Score: inf
ROOT
ATOM      1  C   UNL A   1      34.881  23.781  25.796  1.00  0.00     0.261 C 
ENDROOT
BRANCH   1   2
ATOM      2  O   UNL A   1      33.496  24.049  25.480  1.00  0.00    -0.463 OA
BRANCH   2   3
ATOM      3  C   UNL A   1      33.191  25.341  25.205  1.00  0.00     0.313 C 
ATOM      4  O   UNL A   1      33.420  25.867  24.118  1.00  0.00    -0.252 OA
BRANCH   3   5
ATOM      5  C   UNL A   1      32.488  26.117  26.323  1.00  0.00     0.126 C 
ATOM      6  C   UNL A   1      30.977  25.981  26.122  1.00  0.00     0.025 C 
BRANCH   5   7
ATOM      7  C   UNL A   1      32.825  27.578  26.613  1.00  0.00    -0.031 A 
ATOM      8  C   UNL A   1      33.595  30.277  27.208  1.00  0.00     0.018 A 
ATOM      9  C   UNL A   1      32.262  29.850  27.325  1.00  0.00     0.012 A 
ATOM     10  C   UNL A   1      34.530  29.322  26.789  1.00  0.00     0.131 A 
ATOM     11  C   UNL A   1      31.882  28.523  27.039  1.00  0.00     0.005 A 
ATOM     12  C   UNL A   1      34.163  28.002  26.505  1.00  0.00     0.044 A 
ATOM     13  F   UNL A   1      35.828  29.650  26.680  1.00  0.00    -0.206 F 
BRANCH   8  14
ATOM     14  C   UNL A   1      34.007  31.650  27.557  1.00  0.00    -0.013 A 
ATOM     15  C   UNL A   1      35.707  33.239  28.310  1.00  0.00     0.045 A 
ATOM     16  C   UNL A   1      34.728  34.218  28.480  1.00  0.00     0.026 A 
ATOM     17  C   UNL A   1      35.347  31.966  27.844  1.00  0.00     0.035 A 
ATOM     18  C   UNL A   1      33.406  33.945  28.139  1.00  0.00     0.003 A 
ATOM     19  C   UNL A   1      33.049  32.672  27.687  1.00  0.00     0.009 A 
BRANCH  15  20
ATOM     20  N   UNL A   1      37.011  33.543  28.726  1.00  0.00    -0.291 N 
ATOM     21  C   UNL A   1      37.522  33.493  29.992  1.00  0.00     0.411 C 
ATOM     22  O   UNL A   1      38.520  34.138  30.291  1.00  0.00    -0.224 OA
ATOM     23  H   UNL A   1      37.635  33.827  28.019  1.00  0.00     0.173 HD
BRANCH  21  24
ATOM     24  O   UNL A   1      36.916  32.567  30.776  1.00  0.00    -0.449 OA
BRANCH  24  25
ATOM     25  C   UNL A   1      37.749  31.758  31.620  1.00  0.00     0.235 C 
BRANCH  25  26
ATOM     26  C   UNL A   1      38.624  30.783  30.830  1.00  0.00     0.042 C 
BRANCH  26  27
ATOM     27  C   UNL A   1      37.907  29.972  29.746  1.00  0.00     0.003 C 
BRANCH  27  28
ATOM     28  C   UNL A   1      38.413  30.201  28.316  1.00  0.00    -0.000 C 
BRANCH  28  29
ATOM     29  C   UNL A   1      39.079  28.991  27.658  1.00  0.00    -0.003 C 
ATOM     30  C   UNL A   1      40.428  28.654  28.273  1.00  0.00     0.004 C 
ENDBRANCH  28  29
ENDBRANCH  27  28
ENDBRANCH  26  27
ENDBRANCH  25  26
ENDBRANCH  24  25
ENDBRANCH  21  24
ENDBRANCH  15  20
ENDBRANCH   8  14
ENDBRANCH   5   7
ENDBRANCH   3   5
ENDBRANCH   2   3
ENDBRANCH   1   2
BRANCH   1  31
ATOM     31  C   UNL A   1      35.259  22.297  25.718  1.00  0.00     0.202 C 
BRANCH  31  32
ATOM     32  O   UNL A   1      36.056  21.886  24.614  1.00  0.00    -0.376 OA
BRANCH  32  33
ATOM     33  C   UNL A   1      37.180  21.045  24.842  1.00  0.00     0.188 C 
BRANCH  33  34
ATOM     34  C   UNL A   1      38.346  21.584  25.683  1.00  0.00     0.188 C 
BRANCH  34  35
ATOM     35  O   UNL A   1      39.399  20.660  25.893  1.00  0.00    -0.376 OA
BRANCH  35  36
ATOM     36  C   UNL A   1      40.536  21.164  26.570  1.00  0.00     0.202 C 
BRANCH  36  37
ATOM     37  C   UNL A   1      40.380  22.635  26.967  1.00  0.00     0.261 C 
BRANCH  37  38
ATOM     38  O   UNL A   1      41.454  23.503  26.566  1.00  0.00    -0.460 OA
BRANCH  38  39
ATOM     39  C   UNL A   1      41.151  24.792  26.290  1.00  0.00     0.338 C 
ATOM     40  O   UNL A   1      40.047  25.268  26.107  1.00  0.00    -0.246 OA
BRANCH  39  41
ATOM     41  C   UNL A   1      42.377  25.589  26.483  1.00  0.00     0.060 A 
ATOM     42  C   UNL A   1      43.126  25.418  27.657  1.00  0.00     0.016 A 
ATOM     43  C   UNL A   1      42.790  26.482  25.494  1.00  0.00     0.016 A 
ATOM     44  C   UNL A   1      44.294  26.158  27.850  1.00  0.00     0.010 A 
ATOM     45  C   UNL A   1      43.943  27.234  25.699  1.00  0.00     0.010 A 
ATOM     46  C   UNL A   1      44.684  27.094  26.885  1.00  0.00    -0.014 A 
BRANCH  46  47
ATOM     47  C   UNL A   1      45.745  28.087  27.161  1.00  0.00     0.031 A 
ATOM     48  C   UNL A   1      45.326  29.415  27.719  1.00  0.00     0.074 A 
ATOM     49  C   UNL A   1      47.024  27.859  26.814  1.00  0.00     0.049 A 
ATOM     50  N   UNL A   1      46.010  30.521  27.831  1.00  0.00    -0.248 NA
ATOM     51  C   UNL A   1      43.935  29.513  28.198  1.00  0.00     0.031 C 
ATOM     52  C   UNL A   1      47.546  26.603  26.280  1.00  0.00     0.029 A 
ATOM     53  N   UNL A   1      48.105  28.706  26.812  1.00  0.00    -0.354 N 
ATOM     54  C   UNL A   1      45.122  31.458  28.344  1.00  0.00     0.074 A 
ATOM     55  C   UNL A   1      43.853  30.791  28.531  1.00  0.00     0.031 C 
ATOM     56  C   UNL A   1      48.840  26.776  25.953  1.00  0.00     0.029 A 
ATOM     57  C   UNL A   1      49.220  28.164  26.215  1.00  0.00     0.049 A 
ATOM     58  H   UNL A   1      48.085  29.610  27.200  1.00  0.00     0.167 HD
ATOM     59  C   UNL A   1      45.346  32.761  28.633  1.00  0.00     0.034 A 
ATOM     60  C   UNL A   1      50.391  28.739  25.877  1.00  0.00     0.034 A 
ATOM     61  C   UNL A   1      46.614  33.412  28.455  1.00  0.00     0.049 A 
ATOM     62  C   UNL A   1      50.609  30.201  26.182  1.00  0.00     0.074 A 
ATOM     63  C   UNL A   1      46.957  34.718  28.753  1.00  0.00     0.029 A 
ATOM     64  N   UNL A   1      47.741  32.810  27.922  1.00  0.00    -0.354 N 
ATOM     65  N   UNL A   1      49.796  31.055  26.757  1.00  0.00    -0.248 NA
ATOM     66  C   UNL A   1      51.913  30.776  25.813  1.00  0.00     0.031 C 
ATOM     67  C   UNL A   1      48.288  34.912  28.376  1.00  0.00     0.029 A 
ATOM     68  C   UNL A   1      48.782  33.717  27.876  1.00  0.00     0.049 A 
ATOM     69  H   UNL A   1      47.793  31.874  27.620  1.00  0.00     0.167 HD
ATOM     70  C   UNL A   1      50.505  32.248  26.864  1.00  0.00     0.074 A 
ATOM     71  C   UNL A   1      51.814  32.008  26.295  1.00  0.00     0.031 C 
ATOM     72  C   UNL A   1      50.105  33.436  27.380  1.00  0.00     0.034 A 
BRANCH  59  73
ATOM     73  C   UNL A   1      44.198  33.563  29.180  1.00  0.00     0.023 A 
ATOM     74  C   UNL A   1      43.367  34.283  28.300  1.00  0.00     0.012 A 
ATOM     75  C   UNL A   1      43.915  33.564  30.560  1.00  0.00     0.148 A 
ATOM     76  C   UNL A   1      42.287  35.018  28.787  1.00  0.00     0.002 A 
ATOM     77  C   UNL A   1      42.810  34.261  31.033  1.00  0.00     0.091 A 
ATOM     78  F   UNL A   1      44.735  32.895  31.382  1.00  0.00    -0.205 F 
ATOM     79  C   UNL A   1      42.003  34.998  30.150  1.00  0.00     0.022 A 
BRANCH  77  80
ATOM     80  S   UNL A   1      42.316  34.229  32.759  1.00  0.00     0.127 S 
ATOM     81  O   UNL A   1      40.939  33.744  32.663  1.00  0.00    -0.237 OA
ATOM     82  O   UNL A   1      43.262  33.270  33.332  1.00  0.00    -0.237 OA
ATOM     83  O   UNL A   1      42.466  35.594  33.245  1.00  0.00    -0.744 OA
ENDBRANCH  77  80
ENDBRANCH  59  73
BRANCH  60  84
ATOM     84  C   UNL A   1      51.463  27.932  25.227  1.00  0.00     0.023 A 
ATOM     85  C   UNL A   1      52.268  27.089  26.019  1.00  0.00     0.012 A 
ATOM     86  C   UNL A   1      51.687  27.987  23.838  1.00  0.00     0.148 A 
ATOM     87  C   UNL A   1      53.294  26.340  25.445  1.00  0.00     0.002 A 
ATOM     88  C   UNL A   1      52.677  27.197  23.264  1.00  0.00     0.091 A 
ATOM     89  F   UNL A   1      50.923  28.807  23.103  1.00  0.00    -0.205 F 
ATOM     90  C   UNL A   1      53.494  26.385  24.068  1.00  0.00     0.022 A 
BRANCH  88  91
ATOM     91  S   UNL A   1      52.932  27.102  21.488  1.00  0.00     0.127 S 
ATOM     92  O   UNL A   1      51.668  26.528  21.035  1.00  0.00    -0.237 OA
ATOM     93  O   UNL A   1      53.129  28.510  21.138  1.00  0.00    -0.237 OA
ATOM     94  O   UNL A   1      54.109  26.266  21.303  1.00  0.00    -0.744 OA
ENDBRANCH  88  91
ENDBRANCH  60  84
BRANCH  72  95
ATOM     95  C   UNL A   1      51.101  34.563  27.438  1.00  0.00     0.023 A 
ATOM     96  C   UNL A   1      51.315  35.377  26.310  1.00  0.00     0.012 A 
ATOM     97  C   UNL A   1      51.719  34.895  28.662  1.00  0.00     0.148 A 
ATOM     98  C   UNL A   1      52.139  36.499  26.396  1.00  0.00     0.002 A 
ATOM     99  C   UNL A   1      52.499  36.040  28.751  1.00  0.00     0.091 A 
ATOM    100  F   UNL A   1      51.511  34.096  29.718  1.00  0.00    -0.205 F 
ATOM    101  C   UNL A   1      52.718  36.839  27.618  1.00  0.00     0.022 A 
BRANCH  99 102
ATOM    102  S   UNL A   1      53.198  36.614  30.305  1.00  0.00     0.127 S 
ATOM    103  O   UNL A   1      53.783  37.895  29.913  1.00  0.00    -0.237 OA
ATOM    104  O   UNL A   1      52.011  36.719  31.155  1.00  0.00    -0.237 OA
ATOM    105  O   UNL A   1      54.154  35.596  30.720  1.00  0.00    -0.744 OA
ENDBRANCH  99 102
ENDBRANCH  72  95
ENDBRANCH  46  47
ENDBRANCH  39  41
ENDBRANCH  38  39
ENDBRANCH  37  38
ENDBRANCH  36  37
ENDBRANCH  35  36
ENDBRANCH  34  35
ENDBRANCH  33  34
ENDBRANCH  32  33
ENDBRANCH  31  32
ENDBRANCH   1  31
TORSDOF 29
ENDMDL
