MODEL 1
REMARK VINA RESULT:     -10.8      0.000      0.000
REMARK SMILES Cc1ccc(S(=O)(=O)N2C[C@@H](CC(=O)OCCOCCOCCOC(=O)c3ccc(-c4c5nc(c(-c6cccc(S(=O)(=O)[O-])c6F)c6ccc([nH]6)c(-c6cccc(S(=O)(=O)[O-])c6F)c6nc(c(-c7cccc(S(=O)(=O)[O-])c7F)c7ccc4[nH]7)C=C6)C=C5)cc3)c3ccccc32)c(C)c1
REMARK SMILES IDX 19 1 18 2 17 3 16 4 15 5 13 6 14 7 12 8 11 9 9 10 10 11
REMARK SMILES IDX 95 12 90 13 94 14 91 15 93 16 92 17 6 18 7 19 8 20 5 21 1 22
REMARK SMILES IDX 2 23 3 24 98 25 4 26 96 27 97 28 20 29 21 30 22 31 23 32
REMARK SMILES IDX 24 33 25 34 26 35 27 36 28 37 89 38 29 39 88 40 30 41 31 42
REMARK SMILES IDX 32 43 82 44 33 45 87 46 81 47 83 48 34 49 86 50 80 51 79 52
REMARK SMILES IDX 35 54 67 55 47 56 66 57 48 58 51 59 65 60 84 61 49 62 50 63
REMARK SMILES IDX 64 65 85 66 52 67 36 68 37 69 45 70 38 71 40 72 46 73 39 74
REMARK SMILES IDX 41 75 42 76 43 77 44 78 68 79 69 80 77 81 70 82 72 83 78 84
REMARK SMILES IDX 71 85 73 86 74 87 75 88 76 89 53 90 54 91 62 92 55 93 57 94
REMARK SMILES IDX 63 95 56 96 58 97 59 98 60 99 61 100
REMARK H PARENT 83 53 51 64
REMARK Flexibility Score: inf
ROOT
ATOM      1  C   UNL A   1      39.571  21.598  26.312  1.00  0.00     0.188 C 
ENDROOT
BRANCH   1   2
ATOM      2  O   UNL A   1      38.863  22.817  26.503  1.00  0.00    -0.376 OA
BRANCH   2   3
ATOM      3  C   UNL A   1      37.739  23.038  25.654  1.00  0.00     0.202 C 
BRANCH   3   4
ATOM      4  C   UNL A   1      37.038  21.766  25.170  1.00  0.00     0.261 C 
BRANCH   4   5
ATOM      5  O   UNL A   1      35.888  22.047  24.343  1.00  0.00    -0.463 OA
BRANCH   5   6
ATOM      6  C   UNL A   1      34.694  21.671  24.855  1.00  0.00     0.306 C 
ATOM      7  O   UNL A   1      34.464  21.539  26.053  1.00  0.00    -0.252 OA
BRANCH   6   8
ATOM      8  C   UNL A   1      33.601  21.451  23.832  1.00  0.00     0.133 C 
BRANCH   8   9
ATOM      9  C   UNL A   1      32.545  22.520  23.541  1.00  0.00     0.053 C 
ATOM     10  N   UNL A   1      32.618  24.949  23.535  1.00  0.00    -0.265 N 
ATOM     11  C   UNL A   1      33.268  23.770  22.929  1.00  0.00     0.144 C 
ATOM     12  C   UNL A   1      31.848  24.539  24.648  1.00  0.00     0.055 A 
ATOM     13  C   UNL A   1      31.808  23.141  24.706  1.00  0.00    -0.018 A 
ATOM     14  C   UNL A   1      31.167  25.327  25.561  1.00  0.00     0.027 A 
ATOM     15  C   UNL A   1      31.056  22.517  25.690  1.00  0.00     0.006 A 
ATOM     16  C   UNL A   1      30.447  24.696  26.574  1.00  0.00     0.002 A 
ATOM     17  C   UNL A   1      30.387  23.300  26.634  1.00  0.00     0.000 A 
BRANCH  10  18
ATOM     18  S   UNL A   1      33.188  26.499  23.265  1.00  0.00     0.264 S 
ATOM     19  O   UNL A   1      33.602  26.570  21.872  1.00  0.00    -0.201 OA
ATOM     20  O   UNL A   1      34.102  26.831  24.334  1.00  0.00    -0.201 OA
BRANCH  18  21
ATOM     21  C   UNL A   1      31.814  27.649  23.413  1.00  0.00     0.090 A 
ATOM     22  C   UNL A   1      28.782  30.726  23.429  1.00  0.00     0.044 C 
ATOM     23  C   UNL A   1      29.813  29.636  23.431  1.00  0.00    -0.051 A 
ATOM     24  C   UNL A   1      29.745  28.573  22.529  1.00  0.00     0.005 A 
ATOM     25  C   UNL A   1      30.858  29.667  24.361  1.00  0.00     0.008 A 
ATOM     26  C   UNL A   1      30.734  27.582  22.523  1.00  0.00     0.023 A 
ATOM     27  C   UNL A   1      31.864  28.682  24.373  1.00  0.00    -0.030 A 
ATOM     28  C   UNL A   1      32.918  28.812  25.443  1.00  0.00     0.046 C 
ENDBRANCH  18  21
ENDBRANCH  10  18
ENDBRANCH   8   9
ENDBRANCH   6   8
ENDBRANCH   5   6
ENDBRANCH   4   5
ENDBRANCH   3   4
ENDBRANCH   2   3
ENDBRANCH   1   2
BRANCH   1  29
ATOM     29  C   UNL A   1      41.078  21.743  26.106  1.00  0.00     0.188 C 
BRANCH  29  30
ATOM     30  O   UNL A   1      41.889  20.724  26.684  1.00  0.00    -0.376 OA
BRANCH  30  31
ATOM     31  C   UNL A   1      41.800  19.447  26.035  1.00  0.00     0.202 C 
BRANCH  31  32
ATOM     32  C   UNL A   1      43.142  18.783  25.654  1.00  0.00     0.261 C 
BRANCH  32  33
ATOM     33  O   UNL A   1      43.665  19.162  24.364  1.00  0.00    -0.460 OA
BRANCH  33  34
ATOM     34  C   UNL A   1      44.908  19.696  24.325  1.00  0.00     0.338 C 
ATOM     35  O   UNL A   1      45.873  19.234  23.737  1.00  0.00    -0.246 OA
BRANCH  34  36
ATOM     36  C   UNL A   1      44.844  21.076  24.878  1.00  0.00     0.060 A 
ATOM     37  C   UNL A   1      44.314  22.091  24.067  1.00  0.00     0.016 A 
ATOM     38  C   UNL A   1      45.215  21.364  26.196  1.00  0.00     0.016 A 
ATOM     39  C   UNL A   1      44.194  23.396  24.555  1.00  0.00     0.010 A 
ATOM     40  C   UNL A   1      45.105  22.672  26.679  1.00  0.00     0.010 A 
ATOM     41  C   UNL A   1      44.628  23.703  25.851  1.00  0.00    -0.014 A 
BRANCH  41  42
ATOM     42  C   UNL A   1      44.791  25.118  26.267  1.00  0.00     0.031 A 
ATOM     43  C   UNL A   1      46.167  25.725  26.184  1.00  0.00     0.074 A 
ATOM     44  C   UNL A   1      43.762  25.858  26.720  1.00  0.00     0.049 A 
ATOM     45  N   UNL A   1      46.570  26.921  26.520  1.00  0.00    -0.248 NA
ATOM     46  C   UNL A   1      47.231  24.857  25.650  1.00  0.00     0.031 C 
ATOM     47  C   UNL A   1      42.379  25.404  26.847  1.00  0.00     0.029 A 
ATOM     48  N   UNL A   1      43.736  27.153  27.183  1.00  0.00    -0.354 N 
ATOM     49  C   UNL A   1      47.936  26.943  26.263  1.00  0.00     0.074 A 
ATOM     50  C   UNL A   1      48.296  25.637  25.758  1.00  0.00     0.031 C 
ATOM     51  C   UNL A   1      41.643  26.398  27.378  1.00  0.00     0.029 A 
ATOM     52  C   UNL A   1      42.504  27.549  27.650  1.00  0.00     0.049 A 
ATOM     53  H   UNL A   1      44.525  27.742  27.179  1.00  0.00     0.167 HD
ATOM     54  C   UNL A   1      48.815  27.962  26.414  1.00  0.00     0.034 A 
ATOM     55  C   UNL A   1      42.124  28.699  28.244  1.00  0.00     0.034 A 
ATOM     56  C   UNL A   1      48.467  29.266  26.903  1.00  0.00     0.049 A 
ATOM     57  C   UNL A   1      43.131  29.807  28.442  1.00  0.00     0.074 A 
ATOM     58  C   UNL A   1      49.284  30.372  27.055  1.00  0.00     0.029 A 
ATOM     59  N   UNL A   1      47.204  29.638  27.335  1.00  0.00    -0.354 N 
ATOM     60  N   UNL A   1      44.390  29.856  28.081  1.00  0.00    -0.248 NA
ATOM     61  C   UNL A   1      42.653  31.032  29.103  1.00  0.00     0.031 C 
ATOM     62  C   UNL A   1      48.519  31.407  27.604  1.00  0.00     0.029 A 
ATOM     63  C   UNL A   1      47.220  30.953  27.767  1.00  0.00     0.049 A 
ATOM     64  H   UNL A   1      46.412  29.054  27.335  1.00  0.00     0.167 HD
ATOM     65  C   UNL A   1      44.843  31.124  28.436  1.00  0.00     0.074 A 
ATOM     66  C   UNL A   1      43.719  31.819  29.025  1.00  0.00     0.031 C 
ATOM     67  C   UNL A   1      46.082  31.659  28.297  1.00  0.00     0.034 A 
BRANCH  54  68
ATOM     68  C   UNL A   1      50.242  27.704  26.016  1.00  0.00     0.023 A 
ATOM     69  C   UNL A   1      51.177  27.306  26.993  1.00  0.00     0.012 A 
ATOM     70  C   UNL A   1      50.651  27.824  24.674  1.00  0.00     0.148 A 
ATOM     71  C   UNL A   1      52.506  27.065  26.648  1.00  0.00     0.002 A 
ATOM     72  C   UNL A   1      51.967  27.539  24.330  1.00  0.00     0.091 A 
ATOM     73  F   UNL A   1      49.755  28.231  23.765  1.00  0.00    -0.205 F 
ATOM     74  C   UNL A   1      52.897  27.171  25.316  1.00  0.00     0.022 A 
BRANCH  72  75
ATOM     75  S   UNL A   1      52.548  27.577  22.631  1.00  0.00     0.127 S 
ATOM     76  O   UNL A   1      53.848  26.918  22.749  1.00  0.00    -0.237 OA
ATOM     77  O   UNL A   1      51.527  26.790  21.938  1.00  0.00    -0.237 OA
ATOM     78  O   UNL A   1      52.588  28.982  22.253  1.00  0.00    -0.744 OA
ENDBRANCH  72  75
ENDBRANCH  54  68
BRANCH  55  79
ATOM     79  C   UNL A   1      40.706  28.889  28.669  1.00  0.00     0.023 A 
ATOM     80  C   UNL A   1      39.722  29.163  27.699  1.00  0.00     0.012 A 
ATOM     81  C   UNL A   1      40.330  28.808  30.024  1.00  0.00     0.148 A 
ATOM     82  C   UNL A   1      38.395  29.379  28.073  1.00  0.00     0.002 A 
ATOM     83  C   UNL A   1      38.998  28.974  30.384  1.00  0.00     0.091 A 
ATOM     84  F   UNL A   1      41.285  28.570  30.934  1.00  0.00    -0.205 F 
ATOM     85  C   UNL A   1      38.031  29.276  29.413  1.00  0.00     0.022 A 
BRANCH  83  86
ATOM     86  S   UNL A   1      38.416  28.748  32.069  1.00  0.00     0.127 S 
ATOM     87  O   UNL A   1      39.099  29.833  32.769  1.00  0.00    -0.237 OA
ATOM     88  O   UNL A   1      36.973  28.927  31.915  1.00  0.00    -0.237 OA
ATOM     89  O   UNL A   1      38.820  27.400  32.447  1.00  0.00    -0.744 OA
ENDBRANCH  83  86
ENDBRANCH  55  79
BRANCH  67  90
ATOM     90  C   UNL A   1      46.296  33.082  28.749  1.00  0.00     0.023 A 
ATOM     91  C   UNL A   1      46.796  33.341  30.040  1.00  0.00     0.012 A 
ATOM     92  C   UNL A   1      46.091  34.158  27.861  1.00  0.00     0.148 A 
ATOM     93  C   UNL A   1      47.062  34.648  30.450  1.00  0.00     0.002 A 
ATOM     94  C   UNL A   1      46.403  35.453  28.259  1.00  0.00     0.091 A 
ATOM     95  F   UNL A   1      45.599  33.894  26.641  1.00  0.00    -0.205 F 
ATOM     96  C   UNL A   1      46.877  35.701  29.557  1.00  0.00     0.022 A 
BRANCH  94  97
ATOM     97  S   UNL A   1      46.289  36.859  27.145  1.00  0.00     0.127 S 
ATOM     98  O   UNL A   1      44.841  37.021  27.017  1.00  0.00    -0.237 OA
ATOM     99  O   UNL A   1      46.956  37.915  27.908  1.00  0.00    -0.237 OA
ATOM    100  O   UNL A   1      46.984  36.464  25.928  1.00  0.00    -0.744 OA
ENDBRANCH  94  97
ENDBRANCH  67  90
ENDBRANCH  41  42
ENDBRANCH  34  36
ENDBRANCH  33  34
ENDBRANCH  32  33
ENDBRANCH  31  32
ENDBRANCH  30  31
ENDBRANCH  29  30
ENDBRANCH   1  29
TORSDOF 23
ENDMDL
MODEL 2
REMARK VINA RESULT:     -10.3      1.764      2.240
REMARK SMILES Cc1ccc(S(=O)(=O)N2C[C@@H](CC(=O)OCCOCCOCCOC(=O)c3ccc(-c4c5nc(c(-c6cccc(S(=O)(=O)[O-])c6F)c6ccc([nH]6)c(-c6cccc(S(=O)(=O)[O-])c6F)c6nc(c(-c7cccc(S(=O)(=O)[O-])c7F)c7ccc4[nH]7)C=C6)C=C5)cc3)c3ccccc32)c(C)c1
REMARK SMILES IDX 19 1 18 2 17 3 16 4 15 5 13 6 14 7 12 8 11 9 9 10 10 11
REMARK SMILES IDX 95 12 90 13 94 14 91 15 93 16 92 17 6 18 7 19 8 20 5 21 1 22
REMARK SMILES IDX 2 23 3 24 98 25 4 26 96 27 97 28 20 29 21 30 22 31 23 32
REMARK SMILES IDX 24 33 25 34 26 35 27 36 28 37 89 38 29 39 88 40 30 41 31 42
REMARK SMILES IDX 32 43 82 44 33 45 87 46 81 47 83 48 34 49 86 50 80 51 79 52
REMARK SMILES IDX 35 54 67 55 47 56 66 57 48 58 51 59 65 60 84 61 49 62 50 63
REMARK SMILES IDX 64 65 85 66 52 67 36 68 37 69 45 70 38 71 40 72 46 73 39 74
REMARK SMILES IDX 41 75 42 76 43 77 44 78 68 79 69 80 77 81 70 82 72 83 78 84
REMARK SMILES IDX 71 85 73 86 74 87 75 88 76 89 53 90 54 91 62 92 55 93 57 94
REMARK SMILES IDX 63 95 56 96 58 97 59 98 60 99 61 100
REMARK H PARENT 83 53 51 64
REMARK Flexibility Score: inf
ROOT
ATOM      1  C   UNL A   1      38.829  21.663  25.929  1.00  0.00     0.188 C 
ENDROOT
BRANCH   1   2
ATOM      2  O   UNL A   1      37.732  22.565  26.013  1.00  0.00    -0.376 OA
BRANCH   2   3
ATOM      3  C   UNL A   1      37.387  23.259  24.816  1.00  0.00     0.202 C 
BRANCH   3   4
ATOM      4  C   UNL A   1      36.718  22.396  23.742  1.00  0.00     0.261 C 
BRANCH   4   5
ATOM      5  O   UNL A   1      35.994  23.182  22.771  1.00  0.00    -0.463 OA
BRANCH   5   6
ATOM      6  C   UNL A   1      34.773  23.614  23.162  1.00  0.00     0.306 C 
ATOM      7  O   UNL A   1      34.581  24.451  24.039  1.00  0.00    -0.252 OA
BRANCH   6   8
ATOM      8  C   UNL A   1      33.610  23.016  22.401  1.00  0.00     0.133 C 
BRANCH   8   9
ATOM      9  C   UNL A   1      32.160  23.373  22.737  1.00  0.00     0.053 C 
ATOM     10  N   UNL A   1      31.117  25.394  23.595  1.00  0.00    -0.265 N 
ATOM     11  C   UNL A   1      31.962  24.909  22.486  1.00  0.00     0.144 C 
ATOM     12  C   UNL A   1      31.079  24.416  24.617  1.00  0.00     0.055 A 
ATOM     13  C   UNL A   1      31.700  23.243  24.172  1.00  0.00    -0.018 A 
ATOM     14  C   UNL A   1      30.497  24.504  25.870  1.00  0.00     0.027 A 
ATOM     15  C   UNL A   1      31.726  22.127  24.995  1.00  0.00     0.006 A 
ATOM     16  C   UNL A   1      30.563  23.393  26.710  1.00  0.00     0.002 A 
ATOM     17  C   UNL A   1      31.168  22.211  26.273  1.00  0.00     0.000 A 
BRANCH  10  18
ATOM     18  S   UNL A   1      30.782  27.021  23.794  1.00  0.00     0.264 S 
ATOM     19  O   UNL A   1      29.494  27.117  24.465  1.00  0.00    -0.201 OA
ATOM     20  O   UNL A   1      31.019  27.683  22.532  1.00  0.00    -0.201 OA
BRANCH  18  21
ATOM     21  C   UNL A   1      31.973  27.715  24.949  1.00  0.00     0.090 A 
ATOM     22  C   UNL A   1      34.652  29.861  27.571  1.00  0.00     0.044 C 
ATOM     23  C   UNL A   1      33.723  29.091  26.679  1.00  0.00    -0.051 A 
ATOM     24  C   UNL A   1      32.475  28.659  27.132  1.00  0.00     0.005 A 
ATOM     25  C   UNL A   1      34.112  28.780  25.372  1.00  0.00     0.008 A 
ATOM     26  C   UNL A   1      31.608  27.970  26.277  1.00  0.00     0.023 A 
ATOM     27  C   UNL A   1      33.256  28.088  24.492  1.00  0.00    -0.030 A 
ATOM     28  C   UNL A   1      33.802  27.788  23.121  1.00  0.00     0.046 C 
ENDBRANCH  18  21
ENDBRANCH  10  18
ENDBRANCH   8   9
ENDBRANCH   6   8
ENDBRANCH   5   6
ENDBRANCH   4   5
ENDBRANCH   3   4
ENDBRANCH   2   3
ENDBRANCH   1   2
BRANCH   1  29
ATOM     29  C   UNL A   1      40.077  22.078  26.707  1.00  0.00     0.188 C 
BRANCH  29  30
ATOM     30  O   UNL A   1      40.823  21.020  27.303  1.00  0.00    -0.376 OA
BRANCH  30  31
ATOM     31  C   UNL A   1      40.806  19.787  26.568  1.00  0.00     0.202 C 
BRANCH  31  32
ATOM     32  C   UNL A   1      42.185  19.214  26.170  1.00  0.00     0.261 C 
BRANCH  32  33
ATOM     33  O   UNL A   1      42.679  19.652  24.887  1.00  0.00    -0.460 OA
BRANCH  33  34
ATOM     34  C   UNL A   1      44.016  19.812  24.755  1.00  0.00     0.338 C 
ATOM     35  O   UNL A   1      44.787  19.032  24.217  1.00  0.00    -0.246 OA
BRANCH  34  36
ATOM     36  C   UNL A   1      44.359  21.215  25.114  1.00  0.00     0.060 A 
ATOM     37  C   UNL A   1      44.496  21.537  26.473  1.00  0.00     0.016 A 
ATOM     38  C   UNL A   1      44.627  22.184  24.141  1.00  0.00     0.016 A 
ATOM     39  C   UNL A   1      44.858  22.831  26.860  1.00  0.00     0.010 A 
ATOM     40  C   UNL A   1      44.979  23.481  24.530  1.00  0.00     0.010 A 
ATOM     41  C   UNL A   1      45.062  23.822  25.892  1.00  0.00    -0.014 A 
BRANCH  41  42
ATOM     42  C   UNL A   1      45.142  25.250  26.291  1.00  0.00     0.031 A 
ATOM     43  C   UNL A   1      46.492  25.916  26.266  1.00  0.00     0.074 A 
ATOM     44  C   UNL A   1      44.059  25.950  26.678  1.00  0.00     0.049 A 
ATOM     45  N   UNL A   1      46.825  27.133  26.601  1.00  0.00    -0.248 NA
ATOM     46  C   UNL A   1      47.619  25.088  25.801  1.00  0.00     0.031 C 
ATOM     47  C   UNL A   1      42.693  25.436  26.744  1.00  0.00     0.029 A 
ATOM     48  N   UNL A   1      43.953  27.249  27.116  1.00  0.00    -0.354 N 
ATOM     49  C   UNL A   1      48.199  27.213  26.412  1.00  0.00     0.074 A 
ATOM     50  C   UNL A   1      48.642  25.916  25.949  1.00  0.00     0.031 C 
ATOM     51  C   UNL A   1      41.888  26.404  27.220  1.00  0.00     0.029 A 
ATOM     52  C   UNL A   1      42.683  27.597  27.514  1.00  0.00     0.049 A 
ATOM     53  H   UNL A   1      44.714  27.872  27.142  1.00  0.00     0.167 HD
ATOM     54  C   UNL A   1      49.024  28.272  26.589  1.00  0.00     0.034 A 
ATOM     55  C   UNL A   1      42.222  28.737  28.068  1.00  0.00     0.034 A 
ATOM     56  C   UNL A   1      48.594  29.567  27.037  1.00  0.00     0.049 A 
ATOM     57  C   UNL A   1      43.169  29.892  28.296  1.00  0.00     0.074 A 
ATOM     58  C   UNL A   1      49.353  30.711  27.211  1.00  0.00     0.029 A 
ATOM     59  N   UNL A   1      47.296  29.889  27.399  1.00  0.00    -0.354 N 
ATOM     60  N   UNL A   1      44.442  29.992  27.998  1.00  0.00    -0.248 NA
ATOM     61  C   UNL A   1      42.605  31.105  28.912  1.00  0.00     0.031 C 
ATOM     62  C   UNL A   1      48.517  31.719  27.702  1.00  0.00     0.029 A 
ATOM     63  C   UNL A   1      47.232  31.210  27.808  1.00  0.00     0.049 A 
ATOM     64  H   UNL A   1      46.532  29.269  27.369  1.00  0.00     0.167 HD
ATOM     65  C   UNL A   1      44.820  31.284  28.353  1.00  0.00     0.074 A 
ATOM     66  C   UNL A   1      43.638  31.938  28.873  1.00  0.00     0.031 C 
ATOM     67  C   UNL A   1      46.039  31.872  28.267  1.00  0.00     0.034 A 
BRANCH  54  68
ATOM     68  C   UNL A   1      50.480  28.072  26.267  1.00  0.00     0.023 A 
ATOM     69  C   UNL A   1      50.924  28.205  24.936  1.00  0.00     0.012 A 
ATOM     70  C   UNL A   1      51.412  27.785  27.283  1.00  0.00     0.148 A 
ATOM     71  C   UNL A   1      52.267  28.021  24.614  1.00  0.00     0.002 A 
ATOM     72  C   UNL A   1      52.756  27.647  26.961  1.00  0.00     0.091 A 
ATOM     73  F   UNL A   1      50.965  27.634  28.538  1.00  0.00    -0.205 F 
ATOM     74  C   UNL A   1      53.184  27.752  25.627  1.00  0.00     0.022 A 
BRANCH  72  75
ATOM     75  S   UNL A   1      54.021  27.372  28.206  1.00  0.00     0.127 S 
ATOM     76  O   UNL A   1      53.895  28.577  29.025  1.00  0.00    -0.237 OA
ATOM     77  O   UNL A   1      53.556  26.144  28.853  1.00  0.00    -0.237 OA
ATOM     78  O   UNL A   1      55.275  27.235  27.480  1.00  0.00    -0.744 OA
ENDBRANCH  72  75
ENDBRANCH  54  68
BRANCH  55  79
ATOM     79  C   UNL A   1      40.778  28.870  28.418  1.00  0.00     0.023 A 
ATOM     80  C   UNL A   1      39.838  29.124  27.400  1.00  0.00     0.012 A 
ATOM     81  C   UNL A   1      40.333  28.755  29.749  1.00  0.00     0.148 A 
ATOM     82  C   UNL A   1      38.486  29.287  27.704  1.00  0.00     0.002 A 
ATOM     83  C   UNL A   1      38.978  28.868  30.039  1.00  0.00     0.091 A 
ATOM     84  F   UNL A   1      41.246  28.537  30.706  1.00  0.00    -0.205 F 
ATOM     85  C   UNL A   1      38.055  29.150  29.020  1.00  0.00     0.022 A 
BRANCH  83  86
ATOM     86  S   UNL A   1      38.315  28.595  31.687  1.00  0.00     0.127 S 
ATOM     87  O   UNL A   1      39.087  29.548  32.481  1.00  0.00    -0.237 OA
ATOM     88  O   UNL A   1      36.907  28.943  31.505  1.00  0.00    -0.237 OA
ATOM     89  O   UNL A   1      38.556  27.189  31.980  1.00  0.00    -0.744 OA
ENDBRANCH  83  86
ENDBRANCH  55  79
BRANCH  67  90
ATOM     90  C   UNL A   1      46.168  33.310  28.704  1.00  0.00     0.023 A 
ATOM     91  C   UNL A   1      46.610  33.610  30.007  1.00  0.00     0.012 A 
ATOM     92  C   UNL A   1      45.940  34.362  27.793  1.00  0.00     0.148 A 
ATOM     93  C   UNL A   1      46.797  34.935  30.405  1.00  0.00     0.002 A 
ATOM     94  C   UNL A   1      46.174  35.676  28.182  1.00  0.00     0.091 A 
ATOM     95  F   UNL A   1      45.504  34.057  26.562  1.00  0.00    -0.205 F 
ATOM     96  C   UNL A   1      46.591  35.965  29.491  1.00  0.00     0.022 A 
BRANCH  94  97
ATOM     97  S   UNL A   1      46.029  37.059  27.044  1.00  0.00     0.127 S 
ATOM     98  O   UNL A   1      44.581  37.140  26.854  1.00  0.00    -0.237 OA
ATOM     99  O   UNL A   1      46.605  38.161  27.817  1.00  0.00    -0.237 OA
ATOM    100  O   UNL A   1      46.794  36.688  25.862  1.00  0.00    -0.744 OA
ENDBRANCH  94  97
ENDBRANCH  67  90
ENDBRANCH  41  42
ENDBRANCH  34  36
ENDBRANCH  33  34
ENDBRANCH  32  33
ENDBRANCH  31  32
ENDBRANCH  30  31
ENDBRANCH  29  30
ENDBRANCH   1  29
TORSDOF 23
ENDMDL
MODEL 3
REMARK VINA RESULT:      -9.5      8.849     13.213
REMARK SMILES Cc1ccc(S(=O)(=O)N2C[C@@H](CC(=O)OCCOCCOCCOC(=O)c3ccc(-c4c5nc(c(-c6cccc(S(=O)(=O)[O-])c6F)c6ccc([nH]6)c(-c6cccc(S(=O)(=O)[O-])c6F)c6nc(c(-c7cccc(S(=O)(=O)[O-])c7F)c7ccc4[nH]7)C=C6)C=C5)cc3)c3ccccc32)c(C)c1
REMARK SMILES IDX 19 1 18 2 17 3 16 4 15 5 13 6 14 7 12 8 11 9 9 10 10 11
REMARK SMILES IDX 95 12 90 13 94 14 91 15 93 16 92 17 6 18 7 19 8 20 5 21 1 22
REMARK SMILES IDX 2 23 3 24 98 25 4 26 96 27 97 28 20 29 21 30 22 31 23 32
REMARK SMILES IDX 24 33 25 34 26 35 27 36 28 37 89 38 29 39 88 40 30 41 31 42
REMARK SMILES IDX 32 43 82 44 33 45 87 46 81 47 83 48 34 49 86 50 80 51 79 52
REMARK SMILES IDX 35 54 67 55 47 56 66 57 48 58 51 59 65 60 84 61 49 62 50 63
REMARK SMILES IDX 64 65 85 66 52 67 36 68 37 69 45 70 38 71 40 72 46 73 39 74
REMARK SMILES IDX 41 75 42 76 43 77 44 78 68 79 69 80 77 81 70 82 72 83 78 84
REMARK SMILES IDX 71 85 73 86 74 87 75 88 76 89 53 90 54 91 62 92 55 93 57 94
REMARK SMILES IDX 63 95 56 96 58 97 59 98 60 99 61 100
REMARK H PARENT 83 53 51 64
REMARK Flexibility Score: inf
ROOT
ATOM      1  C   UNL A   1      34.553  32.290  27.674  1.00  0.00     0.188 C 
ENDROOT
BRANCH   1   2
ATOM      2  O   UNL A   1      35.804  32.038  28.305  1.00  0.00    -0.376 OA
BRANCH   2   3
ATOM      3  C   UNL A   1      36.070  30.685  28.667  1.00  0.00     0.202 C 
BRANCH   3   4
ATOM      4  C   UNL A   1      36.087  29.697  27.497  1.00  0.00     0.261 C 
BRANCH   4   5
ATOM      5  O   UNL A   1      34.994  28.754  27.552  1.00  0.00    -0.463 OA
BRANCH   5   6
ATOM      6  C   UNL A   1      34.117  28.816  26.525  1.00  0.00     0.306 C 
ATOM      7  O   UNL A   1      34.390  28.536  25.362  1.00  0.00    -0.252 OA
BRANCH   6   8
ATOM      8  C   UNL A   1      32.712  29.227  26.908  1.00  0.00     0.133 C 
BRANCH   8   9
ATOM      9  C   UNL A   1      31.489  28.423  26.462  1.00  0.00     0.053 C 
ATOM     10  N   UNL A   1      31.177  26.084  25.880  1.00  0.00    -0.265 N 
ATOM     11  C   UNL A   1      31.656  26.950  26.975  1.00  0.00     0.144 C 
ATOM     12  C   UNL A   1      31.067  26.847  24.694  1.00  0.00     0.055 A 
ATOM     13  C   UNL A   1      31.272  28.201  24.983  1.00  0.00    -0.018 A 
ATOM     14  C   UNL A   1      30.759  26.412  23.416  1.00  0.00     0.027 A 
ATOM     15  C   UNL A   1      31.152  29.143  23.972  1.00  0.00     0.006 A 
ATOM     16  C   UNL A   1      30.682  27.357  22.394  1.00  0.00     0.002 A 
ATOM     17  C   UNL A   1      30.870  28.715  22.672  1.00  0.00     0.000 A 
BRANCH  10  18
ATOM     18  S   UNL A   1      31.318  24.419  25.954  1.00  0.00     0.264 S 
ATOM     19  O   UNL A   1      30.350  23.862  25.020  1.00  0.00    -0.201 OA
ATOM     20  O   UNL A   1      31.321  24.032  27.347  1.00  0.00    -0.201 OA
BRANCH  18  21
ATOM     21  C   UNL A   1      32.929  23.950  25.307  1.00  0.00     0.090 A 
ATOM     22  C   UNL A   1      36.584  22.887  23.265  1.00  0.00     0.044 C 
ATOM     23  C   UNL A   1      35.331  23.266  23.999  1.00  0.00    -0.051 A 
ATOM     24  C   UNL A   1      35.084  24.586  24.378  1.00  0.00     0.005 A 
ATOM     25  C   UNL A   1      34.394  22.281  24.329  1.00  0.00     0.008 A 
ATOM     26  C   UNL A   1      33.895  24.927  25.033  1.00  0.00     0.023 A 
ATOM     27  C   UNL A   1      33.190  22.600  24.988  1.00  0.00    -0.030 A 
ATOM     28  C   UNL A   1      32.277  21.446  25.313  1.00  0.00     0.046 C 
ENDBRANCH  18  21
ENDBRANCH  10  18
ENDBRANCH   8   9
ENDBRANCH   6   8
ENDBRANCH   5   6
ENDBRANCH   4   5
ENDBRANCH   3   4
ENDBRANCH   2   3
ENDBRANCH   1   2
BRANCH   1  29
ATOM     29  C   UNL A   1      33.811  33.530  28.170  1.00  0.00     0.188 C 
BRANCH  29  30
ATOM     30  O   UNL A   1      34.607  34.691  28.388  1.00  0.00    -0.376 OA
BRANCH  30  31
ATOM     31  C   UNL A   1      34.673  35.125  29.754  1.00  0.00     0.202 C 
BRANCH  31  32
ATOM     32  C   UNL A   1      33.475  34.736  30.650  1.00  0.00     0.261 C 
BRANCH  32  33
ATOM     33  O   UNL A   1      33.823  34.329  31.990  1.00  0.00    -0.460 OA
BRANCH  33  34
ATOM     34  C   UNL A   1      34.396  33.113  32.145  1.00  0.00     0.338 C 
ATOM     35  O   UNL A   1      34.330  32.179  31.360  1.00  0.00    -0.246 OA
BRANCH  34  36
ATOM     36  C   UNL A   1      35.349  33.184  33.285  1.00  0.00     0.060 A 
ATOM     37  C   UNL A   1      35.135  34.160  34.269  1.00  0.00     0.016 A 
ATOM     38  C   UNL A   1      36.388  32.259  33.439  1.00  0.00     0.016 A 
ATOM     39  C   UNL A   1      35.979  34.240  35.382  1.00  0.00     0.010 A 
ATOM     40  C   UNL A   1      37.239  32.347  34.547  1.00  0.00     0.010 A 
ATOM     41  C   UNL A   1      37.061  33.359  35.506  1.00  0.00    -0.014 A 
BRANCH  41  42
ATOM     42  C   UNL A   1      38.128  33.625  36.503  1.00  0.00     0.031 A 
ATOM     43  C   UNL A   1      39.353  34.373  36.045  1.00  0.00     0.074 A 
ATOM     44  C   UNL A   1      38.038  33.213  37.781  1.00  0.00     0.049 A 
ATOM     45  N   UNL A   1      40.429  34.694  36.712  1.00  0.00    -0.248 NA
ATOM     46  C   UNL A   1      39.360  34.814  34.639  1.00  0.00     0.031 C 
ATOM     47  C   UNL A   1      36.911  32.487  38.363  1.00  0.00     0.029 A 
ATOM     48  N   UNL A   1      38.934  33.331  38.817  1.00  0.00    -0.354 N 
ATOM     49  C   UNL A   1      41.251  35.352  35.805  1.00  0.00     0.074 A 
ATOM     50  C   UNL A   1      40.557  35.370  34.536  1.00  0.00     0.031 C 
ATOM     51  C   UNL A   1      37.194  32.202  39.647  1.00  0.00     0.029 A 
ATOM     52  C   UNL A   1      38.529  32.705  39.973  1.00  0.00     0.049 A 
ATOM     53  H   UNL A   1      39.785  33.819  38.740  1.00  0.00     0.167 HD
ATOM     54  C   UNL A   1      42.468  35.909  36.007  1.00  0.00     0.034 A 
ATOM     55  C   UNL A   1      39.171  32.540  41.148  1.00  0.00     0.034 A 
ATOM     56  C   UNL A   1      43.162  35.907  37.264  1.00  0.00     0.049 A 
ATOM     57  C   UNL A   1      40.547  33.133  41.338  1.00  0.00     0.074 A 
ATOM     58  C   UNL A   1      44.383  36.480  37.572  1.00  0.00     0.029 A 
ATOM     59  N   UNL A   1      42.706  35.291  38.418  1.00  0.00    -0.354 N 
ATOM     60  N   UNL A   1      41.258  33.858  40.508  1.00  0.00    -0.248 NA
ATOM     61  C   UNL A   1      41.195  32.911  42.641  1.00  0.00     0.031 C 
ATOM     62  C   UNL A   1      44.677  36.188  38.908  1.00  0.00     0.029 A 
ATOM     63  C   UNL A   1      43.626  35.457  39.439  1.00  0.00     0.049 A 
ATOM     64  H   UNL A   1      41.852  34.807  38.500  1.00  0.00     0.167 HD
ATOM     65  C   UNL A   1      42.416  34.207  41.199  1.00  0.00     0.074 A 
ATOM     66  C   UNL A   1      42.304  33.630  42.521  1.00  0.00     0.031 C 
ATOM     67  C   UNL A   1      43.481  34.931  40.771  1.00  0.00     0.034 A 
BRANCH  54  68
ATOM     68  C   UNL A   1      43.115  36.594  34.834  1.00  0.00     0.023 A 
ATOM     69  C   UNL A   1      42.884  37.968  34.615  1.00  0.00     0.012 A 
ATOM     70  C   UNL A   1      43.973  35.890  33.968  1.00  0.00     0.148 A 
ATOM     71  C   UNL A   1      43.470  38.623  33.533  1.00  0.00     0.002 A 
ATOM     72  C   UNL A   1      44.588  36.560  32.917  1.00  0.00     0.091 A 
ATOM     73  F   UNL A   1      44.156  34.579  34.176  1.00  0.00    -0.205 F 
ATOM     74  C   UNL A   1      44.329  37.921  32.691  1.00  0.00     0.022 A 
BRANCH  72  75
ATOM     75  S   UNL A   1      45.766  35.759  31.824  1.00  0.00     0.127 S 
ATOM     76  O   UNL A   1      46.340  36.904  31.119  1.00  0.00    -0.237 OA
ATOM     77  O   UNL A   1      46.674  35.109  32.771  1.00  0.00    -0.237 OA
ATOM     78  O   UNL A   1      44.991  34.840  31.003  1.00  0.00    -0.744 OA
ENDBRANCH  72  75
ENDBRANCH  54  68
BRANCH  55  79
ATOM     79  C   UNL A   1      38.509  31.807  42.267  1.00  0.00     0.023 A 
ATOM     80  C   UNL A   1      38.747  30.428  42.428  1.00  0.00     0.012 A 
ATOM     81  C   UNL A   1      37.643  32.463  43.163  1.00  0.00     0.148 A 
ATOM     82  C   UNL A   1      38.114  29.710  43.445  1.00  0.00     0.002 A 
ATOM     83  C   UNL A   1      37.057  31.754  44.205  1.00  0.00     0.091 A 
ATOM     84  F   UNL A   1      37.413  33.771  42.979  1.00  0.00    -0.205 F 
ATOM     85  C   UNL A   1      37.277  30.374  44.338  1.00  0.00     0.022 A 
BRANCH  83  86
ATOM     86  S   UNL A   1      36.055  32.544  45.469  1.00  0.00     0.127 S 
ATOM     87  O   UNL A   1      35.858  31.452  46.420  1.00  0.00    -0.237 OA
ATOM     88  O   UNL A   1      36.943  33.610  45.932  1.00  0.00    -0.237 OA
ATOM     89  O   UNL A   1      34.856  33.011  44.787  1.00  0.00    -0.744 OA
ENDBRANCH  83  86
ENDBRANCH  55  79
BRANCH  67  90
ATOM     90  C   UNL A   1      44.605  35.185  41.745  1.00  0.00     0.023 A 
ATOM     91  C   UNL A   1      45.643  34.243  41.879  1.00  0.00     0.012 A 
ATOM     92  C   UNL A   1      44.679  36.401  42.456  1.00  0.00     0.148 A 
ATOM     93  C   UNL A   1      46.723  34.494  42.727  1.00  0.00     0.002 A 
ATOM     94  C   UNL A   1      45.782  36.664  43.261  1.00  0.00     0.091 A 
ATOM     95  F   UNL A   1      43.674  37.279  42.327  1.00  0.00    -0.205 F 
ATOM     96  C   UNL A   1      46.799  35.707  43.406  1.00  0.00     0.022 A 
BRANCH  94  97
ATOM     97  S   UNL A   1      46.012  38.238  44.098  1.00  0.00     0.127 S 
ATOM     98  O   UNL A   1      45.991  39.178  42.978  1.00  0.00    -0.237 OA
ATOM     99  O   UNL A   1      44.838  38.302  44.969  1.00  0.00    -0.237 OA
ATOM    100  O   UNL A   1      47.281  38.135  44.804  1.00  0.00    -0.744 OA
ENDBRANCH  94  97
ENDBRANCH  67  90
ENDBRANCH  41  42
ENDBRANCH  34  36
ENDBRANCH  33  34
ENDBRANCH  32  33
ENDBRANCH  31  32
ENDBRANCH  30  31
ENDBRANCH  29  30
ENDBRANCH   1  29
TORSDOF 23
ENDMDL
