MODEL 1
REMARK VINA RESULT:     -10.1      0.000      0.000
REMARK SMILES O=C(/C=C/c1cccs1)NCC(=O)OCCOCCOCCOC(=O)c1ccc(-c2c3nc(c(-c4cccc(S(=O)(=O)[O-])c4F)c4ccc([nH]4)c(-c4cccc(S(=O)(=O)[O-])c4F)c4nc(c(-c5cccc(S(=O)(=O)[O-])c5F)c5ccc2[nH]5)C=C4)C=C3)cc1
REMARK SMILES IDX 18 1 17 2 16 3 15 4 14 5 12 6 13 7 11 8 10 9 1 10 2 11 3 13
REMARK SMILES IDX 4 14 5 15 6 16 9 17 7 18 8 19 19 20 20 21 21 22 22 23 23 24
REMARK SMILES IDX 24 25 25 26 26 27 27 28 88 29 28 30 87 31 29 32 30 33 31 34
REMARK SMILES IDX 81 35 32 36 86 37 80 38 82 39 33 40 85 41 79 42 78 43 34 45
REMARK SMILES IDX 66 46 46 47 65 48 47 49 50 50 64 51 83 52 48 53 49 54 63 56
REMARK SMILES IDX 84 57 51 58 35 59 36 60 44 61 37 62 39 63 45 64 38 65 40 66
REMARK SMILES IDX 41 67 42 68 43 69 67 70 68 71 76 72 69 73 71 74 77 75 70 76
REMARK SMILES IDX 72 77 73 78 74 79 75 80 52 81 53 82 61 83 54 84 56 85 62 86
REMARK SMILES IDX 55 87 57 88 58 89 59 90 60 91
REMARK H PARENT 10 12 82 44 50 55
REMARK Flexibility Score: inf
ROOT
ATOM      1  C   UNL A   1      33.563  28.002  25.327  1.00  0.00     0.188 C 
ENDROOT
BRANCH   1   2
ATOM      2  O   UNL A   1      34.221  27.738  24.100  1.00  0.00    -0.376 OA
BRANCH   2   3
ATOM      3  C   UNL A   1      33.502  27.971  22.891  1.00  0.00     0.202 C 
BRANCH   3   4
ATOM      4  C   UNL A   1      33.188  26.791  21.950  1.00  0.00     0.261 C 
BRANCH   4   5
ATOM      5  O   UNL A   1      34.039  25.636  22.137  1.00  0.00    -0.462 OA
BRANCH   5   6
ATOM      6  C   UNL A   1      33.432  24.526  22.639  1.00  0.00     0.325 C 
ATOM      7  O   UNL A   1      32.746  23.760  21.968  1.00  0.00    -0.250 OA
BRANCH   6   8
ATOM      8  C   UNL A   1      33.836  24.178  24.084  1.00  0.00     0.239 C 
BRANCH   8   9
ATOM      9  N   UNL A   1      34.087  22.811  24.534  1.00  0.00    -0.342 N 
ATOM     10  O   UNL A   1      31.910  22.346  25.052  1.00  0.00    -0.270 OA
ATOM     11  C   UNL A   1      33.079  21.991  24.953  1.00  0.00     0.244 C 
ATOM     12  H   UNL A   1      35.010  22.471  24.535  1.00  0.00     0.164 HD
BRANCH  11  13
ATOM     13  C   UNL A   1      33.437  20.563  25.170  1.00  0.00     0.072 C 
ATOM     14  C   UNL A   1      33.114  19.535  24.368  1.00  0.00     0.024 C 
BRANCH  14  15
ATOM     15  C   UNL A   1      33.588  18.212  24.636  1.00  0.00     0.027 A 
ATOM     16  C   UNL A   1      34.772  17.581  24.279  1.00  0.00     0.020 A 
ATOM     17  S   UNL A   1      32.596  17.131  25.546  1.00  0.00    -0.144 S 
ATOM     18  C   UNL A   1      34.835  16.220  24.699  1.00  0.00     0.012 A 
ATOM     19  C   UNL A   1      33.706  15.843  25.387  1.00  0.00     0.065 A 
ENDBRANCH  14  15
ENDBRANCH  11  13
ENDBRANCH   8   9
ENDBRANCH   6   8
ENDBRANCH   5   6
ENDBRANCH   4   5
ENDBRANCH   3   4
ENDBRANCH   2   3
ENDBRANCH   1   2
BRANCH   1  20
ATOM     20  C   UNL A   1      32.080  27.632  25.440  1.00  0.00     0.188 C 
BRANCH  20  21
ATOM     21  O   UNL A   1      31.140  28.673  25.405  1.00  0.00    -0.376 OA
BRANCH  21  22
ATOM     22  C   UNL A   1      31.543  30.026  25.264  1.00  0.00     0.202 C 
BRANCH  22  23
ATOM     23  C   UNL A   1      31.767  31.037  26.409  1.00  0.00     0.261 C 
BRANCH  23  24
ATOM     24  O   UNL A   1      32.908  30.883  27.257  1.00  0.00    -0.460 OA
BRANCH  24  25
ATOM     25  C   UNL A   1      33.597  32.010  27.556  1.00  0.00     0.338 C 
ATOM     26  O   UNL A   1      33.147  33.144  27.633  1.00  0.00    -0.246 OA
BRANCH  25  27
ATOM     27  C   UNL A   1      34.925  31.596  28.062  1.00  0.00     0.060 A 
ATOM     28  C   UNL A   1      35.137  30.243  28.368  1.00  0.00     0.016 A 
ATOM     29  C   UNL A   1      35.961  32.521  28.190  1.00  0.00     0.016 A 
ATOM     30  C   UNL A   1      36.384  29.812  28.817  1.00  0.00     0.010 A 
ATOM     31  C   UNL A   1      37.201  32.094  28.673  1.00  0.00     0.010 A 
ATOM     32  C   UNL A   1      37.409  30.743  29.014  1.00  0.00    -0.014 A 
BRANCH  32  33
ATOM     33  C   UNL A   1      38.630  30.353  29.758  1.00  0.00     0.031 A 
ATOM     34  C   UNL A   1      39.547  29.338  29.134  1.00  0.00     0.074 A 
ATOM     35  C   UNL A   1      38.916  30.871  30.966  1.00  0.00     0.049 A 
ATOM     36  N   UNL A   1      40.621  28.779  29.622  1.00  0.00    -0.248 NA
ATOM     37  C   UNL A   1      39.200  28.892  27.774  1.00  0.00     0.031 C 
ATOM     38  C   UNL A   1      38.122  31.876  31.668  1.00  0.00     0.029 A 
ATOM     39  N   UNL A   1      39.947  30.590  31.830  1.00  0.00    -0.354 N 
ATOM     40  C   UNL A   1      41.056  27.886  28.650  1.00  0.00     0.074 A 
ATOM     41  C   UNL A   1      40.129  27.976  27.544  1.00  0.00     0.031 C 
ATOM     42  C   UNL A   1      38.673  32.102  32.874  1.00  0.00     0.029 A 
ATOM     43  C   UNL A   1      39.837  31.232  33.041  1.00  0.00     0.049 A 
ATOM     44  H   UNL A   1      40.691  29.986  31.605  1.00  0.00     0.167 HD
ATOM     45  C   UNL A   1      42.135  27.070  28.672  1.00  0.00     0.034 A 
ATOM     46  C   UNL A   1      40.572  31.104  34.165  1.00  0.00     0.034 A 
ATOM     47  C   UNL A   1      43.061  26.987  29.767  1.00  0.00     0.049 A 
ATOM     48  C   UNL A   1      41.744  30.153  34.180  1.00  0.00     0.074 A 
ATOM     49  C   UNL A   1      44.209  26.222  29.864  1.00  0.00     0.029 A 
ATOM     50  N   UNL A   1      42.938  27.678  30.962  1.00  0.00    -0.354 N 
ATOM     51  N   UNL A   1      42.204  29.392  33.218  1.00  0.00    -0.248 NA
ATOM     52  C   UNL A   1      42.514  30.066  35.430  1.00  0.00     0.031 C 
ATOM     53  C   UNL A   1      44.758  26.418  31.135  1.00  0.00     0.029 A 
ATOM     54  C   UNL A   1      43.979  27.343  31.811  1.00  0.00     0.049 A 
ATOM     55  H   UNL A   1      42.216  28.312  31.176  1.00  0.00     0.167 HD
ATOM     56  C   UNL A   1      43.338  28.770  33.731  1.00  0.00     0.074 A 
ATOM     57  C   UNL A   1      43.504  29.256  35.084  1.00  0.00     0.031 C 
ATOM     58  C   UNL A   1      44.165  27.872  33.138  1.00  0.00     0.034 A 
BRANCH  45  59
ATOM     59  C   UNL A   1      42.373  26.197  27.468  1.00  0.00     0.023 A 
ATOM     60  C   UNL A   1      43.047  26.717  26.344  1.00  0.00     0.012 A 
ATOM     61  C   UNL A   1      41.971  24.848  27.471  1.00  0.00     0.148 A 
ATOM     62  C   UNL A   1      43.287  25.916  25.229  1.00  0.00     0.002 A 
ATOM     63  C   UNL A   1      42.258  24.042  26.376  1.00  0.00     0.091 A 
ATOM     64  F   UNL A   1      41.311  24.379  28.539  1.00  0.00    -0.205 F 
ATOM     65  C   UNL A   1      42.904  24.578  25.249  1.00  0.00     0.022 A 
BRANCH  63  66
ATOM     66  S   UNL A   1      41.878  22.288  26.338  1.00  0.00     0.127 S 
ATOM     67  O   UNL A   1      42.625  21.850  25.161  1.00  0.00    -0.237 OA
ATOM     68  O   UNL A   1      42.428  21.829  27.614  1.00  0.00    -0.237 OA
ATOM     69  O   UNL A   1      40.429  22.191  26.230  1.00  0.00    -0.744 OA
ENDBRANCH  63  66
ENDBRANCH  45  59
BRANCH  46  70
ATOM     70  C   UNL A   1      40.232  31.905  35.377  1.00  0.00     0.023 A 
ATOM     71  C   UNL A   1      40.969  33.067  35.673  1.00  0.00     0.012 A 
ATOM     72  C   UNL A   1      39.189  31.515  36.239  1.00  0.00     0.148 A 
ATOM     73  C   UNL A   1      40.696  33.809  36.824  1.00  0.00     0.002 A 
ATOM     74  C   UNL A   1      38.884  32.289  37.352  1.00  0.00     0.091 A 
ATOM     75  F   UNL A   1      38.510  30.396  35.949  1.00  0.00    -0.205 F 
ATOM     76  C   UNL A   1      39.649  33.426  37.656  1.00  0.00     0.022 A 
BRANCH  74  77
ATOM     77  S   UNL A   1      37.479  31.942  38.415  1.00  0.00     0.127 S 
ATOM     78  O   UNL A   1      38.009  32.286  39.732  1.00  0.00    -0.237 OA
ATOM     79  O   UNL A   1      36.474  32.869  37.893  1.00  0.00    -0.237 OA
ATOM     80  O   UNL A   1      37.166  30.535  38.210  1.00  0.00    -0.744 OA
ENDBRANCH  74  77
ENDBRANCH  46  70
BRANCH  58  81
ATOM     81  C   UNL A   1      45.362  27.389  33.917  1.00  0.00     0.023 A 
ATOM     82  C   UNL A   1      46.570  28.112  33.886  1.00  0.00     0.012 A 
ATOM     83  C   UNL A   1      45.258  26.255  34.750  1.00  0.00     0.148 A 
ATOM     84  C   UNL A   1      47.666  27.696  34.643  1.00  0.00     0.002 A 
ATOM     85  C   UNL A   1      46.335  25.878  35.543  1.00  0.00     0.091 A 
ATOM     86  F   UNL A   1      44.105  25.571  34.756  1.00  0.00    -0.205 F 
ATOM     87  C   UNL A   1      47.544  26.589  35.479  1.00  0.00     0.022 A 
BRANCH  85  88
ATOM     88  S   UNL A   1      46.240  24.528  36.723  1.00  0.00     0.127 S 
ATOM     89  O   UNL A   1      46.666  23.391  35.909  1.00  0.00    -0.237 OA
ATOM     90  O   UNL A   1      47.202  24.943  37.744  1.00  0.00    -0.237 OA
ATOM     91  O   UNL A   1      44.857  24.485  37.176  1.00  0.00    -0.744 OA
ENDBRANCH  85  88
ENDBRANCH  58  81
ENDBRANCH  32  33
ENDBRANCH  25  27
ENDBRANCH  24  25
ENDBRANCH  23  24
ENDBRANCH  22  23
ENDBRANCH  21  22
ENDBRANCH  20  21
ENDBRANCH   1  20
TORSDOF 23
ENDMDL
MODEL 2
REMARK VINA RESULT:     -10.0      2.431      4.216
REMARK SMILES O=C(/C=C/c1cccs1)NCC(=O)OCCOCCOCCOC(=O)c1ccc(-c2c3nc(c(-c4cccc(S(=O)(=O)[O-])c4F)c4ccc([nH]4)c(-c4cccc(S(=O)(=O)[O-])c4F)c4nc(c(-c5cccc(S(=O)(=O)[O-])c5F)c5ccc2[nH]5)C=C4)C=C3)cc1
REMARK SMILES IDX 18 1 17 2 16 3 15 4 14 5 12 6 13 7 11 8 10 9 1 10 2 11 3 13
REMARK SMILES IDX 4 14 5 15 6 16 9 17 7 18 8 19 19 20 20 21 21 22 22 23 23 24
REMARK SMILES IDX 24 25 25 26 26 27 27 28 88 29 28 30 87 31 29 32 30 33 31 34
REMARK SMILES IDX 81 35 32 36 86 37 80 38 82 39 33 40 85 41 79 42 78 43 34 45
REMARK SMILES IDX 66 46 46 47 65 48 47 49 50 50 64 51 83 52 48 53 49 54 63 56
REMARK SMILES IDX 84 57 51 58 35 59 36 60 44 61 37 62 39 63 45 64 38 65 40 66
REMARK SMILES IDX 41 67 42 68 43 69 67 70 68 71 76 72 69 73 71 74 77 75 70 76
REMARK SMILES IDX 72 77 73 78 74 79 75 80 52 81 53 82 61 83 54 84 56 85 62 86
REMARK SMILES IDX 55 87 57 88 58 89 59 90 60 91
REMARK H PARENT 10 12 82 44 50 55
REMARK Flexibility Score: inf
ROOT
ATOM      1  C   UNL A   1      33.657  27.336  26.391  1.00  0.00     0.188 C 
ENDROOT
BRANCH   1   2
ATOM      2  O   UNL A   1      34.061  26.178  25.683  1.00  0.00    -0.376 OA
BRANCH   2   3
ATOM      3  C   UNL A   1      33.732  26.093  24.298  1.00  0.00     0.202 C 
BRANCH   3   4
ATOM      4  C   UNL A   1      34.038  24.798  23.519  1.00  0.00     0.261 C 
BRANCH   4   5
ATOM      5  O   UNL A   1      33.439  23.606  24.081  1.00  0.00    -0.462 OA
BRANCH   5   6
ATOM      6  C   UNL A   1      32.479  23.010  23.324  1.00  0.00     0.325 C 
ATOM      7  O   UNL A   1      32.680  22.026  22.617  1.00  0.00    -0.250 OA
BRANCH   6   8
ATOM      8  C   UNL A   1      31.053  23.536  23.573  1.00  0.00     0.239 C 
BRANCH   8   9
ATOM      9  N   UNL A   1      30.579  24.823  23.070  1.00  0.00    -0.342 N 
ATOM     10  O   UNL A   1      29.711  25.533  25.061  1.00  0.00    -0.270 OA
ATOM     11  C   UNL A   1      29.971  25.736  23.881  1.00  0.00     0.244 C 
ATOM     12  H   UNL A   1      30.702  25.037  22.118  1.00  0.00     0.164 HD
BRANCH  11  13
ATOM     13  C   UNL A   1      29.740  27.086  23.297  1.00  0.00     0.072 C 
ATOM     14  C   UNL A   1      28.697  27.891  23.553  1.00  0.00     0.024 C 
BRANCH  14  15
ATOM     15  C   UNL A   1      28.625  29.207  22.995  1.00  0.00     0.027 A 
ATOM     16  C   UNL A   1      27.647  30.186  23.098  1.00  0.00     0.020 A 
ATOM     17  S   UNL A   1      29.921  29.771  22.003  1.00  0.00    -0.144 S 
ATOM     18  C   UNL A   1      27.934  31.354  22.332  1.00  0.00     0.012 A 
ATOM     19  C   UNL A   1      29.136  31.252  21.673  1.00  0.00     0.065 A 
ENDBRANCH  14  15
ENDBRANCH  11  13
ENDBRANCH   8   9
ENDBRANCH   6   8
ENDBRANCH   5   6
ENDBRANCH   4   5
ENDBRANCH   3   4
ENDBRANCH   2   3
ENDBRANCH   1   2
BRANCH   1  20
ATOM     20  C   UNL A   1      32.241  27.363  26.977  1.00  0.00     0.188 C 
BRANCH  20  21
ATOM     21  O   UNL A   1      31.320  28.266  26.424  1.00  0.00    -0.376 OA
BRANCH  21  22
ATOM     22  C   UNL A   1      31.719  29.230  25.463  1.00  0.00     0.202 C 
BRANCH  22  23
ATOM     23  C   UNL A   1      32.130  30.691  25.749  1.00  0.00     0.261 C 
BRANCH  23  24
ATOM     24  O   UNL A   1      32.294  31.112  27.105  1.00  0.00    -0.460 OA
BRANCH  24  25
ATOM     25  C   UNL A   1      33.025  32.234  27.306  1.00  0.00     0.338 C 
ATOM     26  O   UNL A   1      32.621  33.388  27.262  1.00  0.00    -0.246 OA
BRANCH  25  27
ATOM     27  C   UNL A   1      34.326  31.821  27.877  1.00  0.00     0.060 A 
ATOM     28  C   UNL A   1      34.515  30.470  28.210  1.00  0.00     0.016 A 
ATOM     29  C   UNL A   1      35.360  32.742  28.040  1.00  0.00     0.016 A 
ATOM     30  C   UNL A   1      35.738  30.038  28.722  1.00  0.00     0.010 A 
ATOM     31  C   UNL A   1      36.574  32.314  28.585  1.00  0.00     0.010 A 
ATOM     32  C   UNL A   1      36.759  30.967  28.953  1.00  0.00    -0.014 A 
BRANCH  32  33
ATOM     33  C   UNL A   1      37.942  30.580  29.757  1.00  0.00     0.031 A 
ATOM     34  C   UNL A   1      38.909  29.593  29.165  1.00  0.00     0.074 A 
ATOM     35  C   UNL A   1      38.151  31.078  30.989  1.00  0.00     0.049 A 
ATOM     36  N   UNL A   1      39.964  29.040  29.702  1.00  0.00    -0.248 NA
ATOM     37  C   UNL A   1      38.647  29.169  27.779  1.00  0.00     0.031 C 
ATOM     38  C   UNL A   1      37.303  32.055  31.665  1.00  0.00     0.029 A 
ATOM     39  N   UNL A   1      39.136  30.794  31.904  1.00  0.00    -0.354 N 
ATOM     40  C   UNL A   1      40.467  28.174  28.739  1.00  0.00     0.074 A 
ATOM     41  C   UNL A   1      39.602  28.273  27.584  1.00  0.00     0.031 C 
ATOM     42  C   UNL A   1      37.782  32.265  32.904  1.00  0.00     0.029 A 
ATOM     43  C   UNL A   1      38.948  31.409  33.119  1.00  0.00     0.049 A 
ATOM     44  H   UNL A   1      39.902  30.207  31.709  1.00  0.00     0.167 HD
ATOM     45  C   UNL A   1      41.557  27.375  28.805  1.00  0.00     0.034 A 
ATOM     46  C   UNL A   1      39.621  31.269  34.280  1.00  0.00     0.034 A 
ATOM     47  C   UNL A   1      42.421  27.283  29.949  1.00  0.00     0.049 A 
ATOM     48  C   UNL A   1      40.805  30.336  34.343  1.00  0.00     0.074 A 
ATOM     49  C   UNL A   1      43.574  26.533  30.096  1.00  0.00     0.029 A 
ATOM     50  N   UNL A   1      42.219  27.947  31.149  1.00  0.00    -0.354 N 
ATOM     51  N   UNL A   1      41.331  29.602  33.393  1.00  0.00    -0.248 NA
ATOM     52  C   UNL A   1      41.505  30.235  35.633  1.00  0.00     0.031 C 
ATOM     53  C   UNL A   1      44.047  26.711  31.399  1.00  0.00     0.029 A 
ATOM     54  C   UNL A   1      43.216  27.611  32.048  1.00  0.00     0.049 A 
ATOM     55  H   UNL A   1      41.476  28.566  31.334  1.00  0.00     0.167 HD
ATOM     56  C   UNL A   1      42.445  28.987  33.957  1.00  0.00     0.074 A 
ATOM     57  C   UNL A   1      42.527  29.447  35.327  1.00  0.00     0.031 C 
ATOM     58  C   UNL A   1      43.318  28.115  33.393  1.00  0.00     0.034 A 
BRANCH  45  59
ATOM     59  C   UNL A   1      41.876  26.531  27.599  1.00  0.00     0.023 A 
ATOM     60  C   UNL A   1      42.533  27.106  26.492  1.00  0.00     0.012 A 
ATOM     61  C   UNL A   1      41.569  25.157  27.585  1.00  0.00     0.148 A 
ATOM     62  C   UNL A   1      42.848  26.332  25.376  1.00  0.00     0.002 A 
ATOM     63  C   UNL A   1      41.931  24.382  26.490  1.00  0.00     0.091 A 
ATOM     64  F   UNL A   1      40.923  24.635  28.637  1.00  0.00    -0.205 F 
ATOM     65  C   UNL A   1      42.558  24.971  25.379  1.00  0.00     0.022 A 
BRANCH  63  66
ATOM     66  S   UNL A   1      41.673  22.606  26.432  1.00  0.00     0.127 S 
ATOM     67  O   UNL A   1      40.223  22.524  26.267  1.00  0.00    -0.237 OA
ATOM     68  O   UNL A   1      42.444  22.226  25.248  1.00  0.00    -0.237 OA
ATOM     69  O   UNL A   1      42.189  22.083  27.689  1.00  0.00    -0.744 OA
ENDBRANCH  63  66
ENDBRANCH  45  59
BRANCH  46  70
ATOM     70  C   UNL A   1      39.200  32.039  35.487  1.00  0.00     0.023 A 
ATOM     71  C   UNL A   1      38.230  31.501  36.354  1.00  0.00     0.012 A 
ATOM     72  C   UNL A   1      39.750  33.303  35.773  1.00  0.00     0.148 A 
ATOM     73  C   UNL A   1      37.791  32.221  37.466  1.00  0.00     0.002 A 
ATOM     74  C   UNL A   1      39.351  33.991  36.912  1.00  0.00     0.091 A 
ATOM     75  F   UNL A   1      40.659  33.806  34.926  1.00  0.00    -0.205 F 
ATOM     76  C   UNL A   1      38.358  33.460  37.750  1.00  0.00     0.022 A 
BRANCH  74  77
ATOM     77  S   UNL A   1      40.110  35.536  37.424  1.00  0.00     0.127 S 
ATOM     78  O   UNL A   1      39.648  36.454  36.386  1.00  0.00    -0.237 OA
ATOM     79  O   UNL A   1      39.508  35.742  38.742  1.00  0.00    -0.237 OA
ATOM     80  O   UNL A   1      41.544  35.283  37.449  1.00  0.00    -0.744 OA
ENDBRANCH  74  77
ENDBRANCH  46  70
BRANCH  58  81
ATOM     81  C   UNL A   1      44.477  27.633  34.230  1.00  0.00     0.023 A 
ATOM     82  C   UNL A   1      45.668  28.384  34.294  1.00  0.00     0.012 A 
ATOM     83  C   UNL A   1      44.351  26.472  35.021  1.00  0.00     0.148 A 
ATOM     84  C   UNL A   1      46.726  27.969  35.103  1.00  0.00     0.002 A 
ATOM     85  C   UNL A   1      45.388  26.095  35.866  1.00  0.00     0.091 A 
ATOM     86  F   UNL A   1      43.216  25.763  34.937  1.00  0.00    -0.205 F 
ATOM     87  C   UNL A   1      46.581  26.833  35.897  1.00  0.00     0.022 A 
BRANCH  85  88
ATOM     88  S   UNL A   1      45.253  24.707  36.997  1.00  0.00     0.127 S 
ATOM     89  O   UNL A   1      45.136  23.580  36.074  1.00  0.00    -0.237 OA
ATOM     90  O   UNL A   1      46.524  24.774  37.720  1.00  0.00    -0.237 OA
ATOM     91  O   UNL A   1      44.077  24.965  37.816  1.00  0.00    -0.744 OA
ENDBRANCH  85  88
ENDBRANCH  58  81
ENDBRANCH  32  33
ENDBRANCH  25  27
ENDBRANCH  24  25
ENDBRANCH  23  24
ENDBRANCH  22  23
ENDBRANCH  21  22
ENDBRANCH  20  21
ENDBRANCH   1  20
TORSDOF 23
ENDMDL
MODEL 3
REMARK VINA RESULT:      -9.9      3.227      4.997
REMARK SMILES O=C(/C=C/c1cccs1)NCC(=O)OCCOCCOCCOC(=O)c1ccc(-c2c3nc(c(-c4cccc(S(=O)(=O)[O-])c4F)c4ccc([nH]4)c(-c4cccc(S(=O)(=O)[O-])c4F)c4nc(c(-c5cccc(S(=O)(=O)[O-])c5F)c5ccc2[nH]5)C=C4)C=C3)cc1
REMARK SMILES IDX 18 1 17 2 16 3 15 4 14 5 12 6 13 7 11 8 10 9 1 10 2 11 3 13
REMARK SMILES IDX 4 14 5 15 6 16 9 17 7 18 8 19 19 20 20 21 21 22 22 23 23 24
REMARK SMILES IDX 24 25 25 26 26 27 27 28 88 29 28 30 87 31 29 32 30 33 31 34
REMARK SMILES IDX 81 35 32 36 86 37 80 38 82 39 33 40 85 41 79 42 78 43 34 45
REMARK SMILES IDX 66 46 46 47 65 48 47 49 50 50 64 51 83 52 48 53 49 54 63 56
REMARK SMILES IDX 84 57 51 58 35 59 36 60 44 61 37 62 39 63 45 64 38 65 40 66
REMARK SMILES IDX 41 67 42 68 43 69 67 70 68 71 76 72 69 73 71 74 77 75 70 76
REMARK SMILES IDX 72 77 73 78 74 79 75 80 52 81 53 82 61 83 54 84 56 85 62 86
REMARK SMILES IDX 55 87 57 88 58 89 59 90 60 91
REMARK H PARENT 10 12 82 44 50 55
REMARK Flexibility Score: inf
ROOT
ATOM      1  C   UNL A   1      32.891  28.988  26.817  1.00  0.00     0.188 C 
ENDROOT
BRANCH   1   2
ATOM      2  O   UNL A   1      32.909  27.577  26.691  1.00  0.00    -0.376 OA
BRANCH   2   3
ATOM      3  C   UNL A   1      33.852  26.998  25.792  1.00  0.00     0.202 C 
BRANCH   3   4
ATOM      4  C   UNL A   1      33.866  25.472  25.579  1.00  0.00     0.261 C 
BRANCH   4   5
ATOM      5  O   UNL A   1      32.890  24.749  26.367  1.00  0.00    -0.462 OA
BRANCH   5   6
ATOM      6  C   UNL A   1      31.889  24.148  25.669  1.00  0.00     0.325 C 
ATOM      7  O   UNL A   1      31.985  23.033  25.161  1.00  0.00    -0.250 OA
BRANCH   6   8
ATOM      8  C   UNL A   1      30.538  24.884  25.729  1.00  0.00     0.239 C 
BRANCH   8   9
ATOM      9  N   UNL A   1      30.357  26.257  25.264  1.00  0.00    -0.342 N 
ATOM     10  O   UNL A   1      31.035  25.855  23.118  1.00  0.00    -0.270 OA
ATOM     11  C   UNL A   1      30.593  26.618  23.969  1.00  0.00     0.244 C 
ATOM     12  H   UNL A   1      30.056  26.942  25.903  1.00  0.00     0.164 HD
BRANCH  11  13
ATOM     13  C   UNL A   1      30.158  27.987  23.577  1.00  0.00     0.072 C 
ATOM     14  C   UNL A   1      28.927  28.340  23.171  1.00  0.00     0.024 C 
BRANCH  14  15
ATOM     15  C   UNL A   1      28.604  29.707  22.900  1.00  0.00     0.027 A 
ATOM     16  C   UNL A   1      27.710  30.570  23.520  1.00  0.00     0.020 A 
ATOM     17  S   UNL A   1      29.397  30.518  21.598  1.00  0.00    -0.144 S 
ATOM     18  C   UNL A   1      27.641  31.853  22.900  1.00  0.00     0.012 A 
ATOM     19  C   UNL A   1      28.499  31.951  21.831  1.00  0.00     0.065 A 
ENDBRANCH  14  15
ENDBRANCH  11  13
ENDBRANCH   8   9
ENDBRANCH   6   8
ENDBRANCH   5   6
ENDBRANCH   4   5
ENDBRANCH   3   4
ENDBRANCH   2   3
ENDBRANCH   1   2
BRANCH   1  20
ATOM     20  C   UNL A   1      31.659  29.740  26.301  1.00  0.00     0.188 C 
BRANCH  20  21
ATOM     21  O   UNL A   1      31.683  31.142  26.342  1.00  0.00    -0.376 OA
BRANCH  21  22
ATOM     22  C   UNL A   1      32.541  31.840  27.230  1.00  0.00     0.202 C 
BRANCH  22  23
ATOM     23  C   UNL A   1      32.753  33.368  27.286  1.00  0.00     0.261 C 
BRANCH  23  24
ATOM     24  O   UNL A   1      32.314  34.087  28.440  1.00  0.00    -0.460 OA
BRANCH  24  25
ATOM     25  C   UNL A   1      33.160  35.025  28.928  1.00  0.00     0.338 C 
ATOM     26  O   UNL A   1      32.909  36.205  29.126  1.00  0.00    -0.246 OA
BRANCH  25  27
ATOM     27  C   UNL A   1      34.349  34.320  29.455  1.00  0.00     0.060 A 
ATOM     28  C   UNL A   1      34.170  33.362  30.466  1.00  0.00     0.016 A 
ATOM     29  C   UNL A   1      35.617  34.565  28.930  1.00  0.00     0.016 A 
ATOM     30  C   UNL A   1      35.263  32.656  30.966  1.00  0.00     0.010 A 
ATOM     31  C   UNL A   1      36.717  33.881  29.455  1.00  0.00     0.010 A 
ATOM     32  C   UNL A   1      36.548  32.944  30.493  1.00  0.00    -0.014 A 
BRANCH  32  33
ATOM     33  C   UNL A   1      37.735  32.419  31.210  1.00  0.00     0.031 A 
ATOM     34  C   UNL A   1      38.466  31.251  30.611  1.00  0.00     0.074 A 
ATOM     35  C   UNL A   1      38.149  32.954  32.373  1.00  0.00     0.049 A 
ATOM     36  N   UNL A   1      39.471  30.567  31.089  1.00  0.00    -0.248 NA
ATOM     37  C   UNL A   1      37.994  30.788  29.294  1.00  0.00     0.031 C 
ATOM     38  C   UNL A   1      37.542  34.099  33.045  1.00  0.00     0.029 A 
ATOM     39  N   UNL A   1      39.169  32.571  33.211  1.00  0.00    -0.354 N 
ATOM     40  C   UNL A   1      39.726  29.570  30.155  1.00  0.00     0.074 A 
ATOM     41  C   UNL A   1      38.770  29.736  29.083  1.00  0.00     0.031 C 
ATOM     42  C   UNL A   1      38.176  34.306  34.212  1.00  0.00     0.029 A 
ATOM     43  C   UNL A   1      39.210  33.285  34.385  1.00  0.00     0.049 A 
ATOM     44  H   UNL A   1      39.807  31.855  32.993  1.00  0.00     0.167 HD
ATOM     45  C   UNL A   1      40.678  28.608  30.182  1.00  0.00     0.034 A 
ATOM     46  C   UNL A   1      39.972  33.111  35.485  1.00  0.00     0.034 A 
ATOM     47  C   UNL A   1      41.633  28.449  31.243  1.00  0.00     0.049 A 
ATOM     48  C   UNL A   1      40.994  32.002  35.510  1.00  0.00     0.074 A 
ATOM     49  C   UNL A   1      42.663  27.531  31.340  1.00  0.00     0.029 A 
ATOM     50  N   UNL A   1      41.667  29.212  32.400  1.00  0.00    -0.354 N 
ATOM     51  N   UNL A   1      41.294  31.132  34.577  1.00  0.00    -0.248 NA
ATOM     52  C   UNL A   1      41.803  31.870  36.732  1.00  0.00     0.031 C 
ATOM     53  C   UNL A   1      43.294  27.711  32.575  1.00  0.00     0.029 A 
ATOM     54  C   UNL A   1      42.689  28.775  33.225  1.00  0.00     0.049 A 
ATOM     55  H   UNL A   1      41.055  29.956  32.603  1.00  0.00     0.167 HD
ATOM     56  C   UNL A   1      42.351  30.379  35.081  1.00  0.00     0.074 A 
ATOM     57  C   UNL A   1      42.649  30.907  36.396  1.00  0.00     0.031 C 
ATOM     58  C   UNL A   1      43.011  29.341  34.509  1.00  0.00     0.034 A 
BRANCH  45  59
ATOM     59  C   UNL A   1      40.731  27.648  29.024  1.00  0.00     0.023 A 
ATOM     60  C   UNL A   1      39.849  26.548  28.981  1.00  0.00     0.012 A 
ATOM     61  C   UNL A   1      41.621  27.863  27.954  1.00  0.00     0.148 A 
ATOM     62  C   UNL A   1      39.878  25.659  27.906  1.00  0.00     0.002 A 
ATOM     63  C   UNL A   1      41.609  27.002  26.864  1.00  0.00     0.091 A 
ATOM     64  F   UNL A   1      42.467  28.901  28.026  1.00  0.00    -0.205 F 
ATOM     65  C   UNL A   1      40.748  25.893  26.845  1.00  0.00     0.022 A 
BRANCH  63  66
ATOM     66  S   UNL A   1      42.633  27.262  25.413  1.00  0.00     0.127 S 
ATOM     67  O   UNL A   1      42.101  28.522  24.898  1.00  0.00    -0.237 OA
ATOM     68  O   UNL A   1      43.971  27.358  25.998  1.00  0.00    -0.237 OA
ATOM     69  O   UNL A   1      42.424  26.102  24.559  1.00  0.00    -0.744 OA
ENDBRANCH  63  66
ENDBRANCH  45  59
BRANCH  46  70
ATOM     70  C   UNL A   1      39.808  34.016  36.659  1.00  0.00     0.023 A 
ATOM     71  C   UNL A   1      40.242  35.353  36.576  1.00  0.00     0.012 A 
ATOM     72  C   UNL A   1      39.232  33.556  37.859  1.00  0.00     0.148 A 
ATOM     73  C   UNL A   1      40.137  36.206  37.676  1.00  0.00     0.002 A 
ATOM     74  C   UNL A   1      39.078  34.425  38.932  1.00  0.00     0.091 A 
ATOM     75  F   UNL A   1      38.841  32.275  37.925  1.00  0.00    -0.205 F 
ATOM     76  C   UNL A   1      39.547  35.745  38.849  1.00  0.00     0.022 A 
BRANCH  74  77
ATOM     77  S   UNL A   1      38.222  33.957  40.440  1.00  0.00     0.127 S 
ATOM     78  O   UNL A   1      37.039  33.280  39.915  1.00  0.00    -0.237 OA
ATOM     79  O   UNL A   1      39.203  33.079  41.079  1.00  0.00    -0.237 OA
ATOM     80  O   UNL A   1      37.971  35.200  41.154  1.00  0.00    -0.744 OA
ENDBRANCH  74  77
ENDBRANCH  46  70
BRANCH  58  81
ATOM     81  C   UNL A   1      44.162  28.730  35.269  1.00  0.00     0.023 A 
ATOM     82  C   UNL A   1      45.456  29.276  35.158  1.00  0.00     0.012 A 
ATOM     83  C   UNL A   1      43.939  27.659  36.160  1.00  0.00     0.148 A 
ATOM     84  C   UNL A   1      46.516  28.745  35.895  1.00  0.00     0.002 A 
ATOM     85  C   UNL A   1      44.987  27.171  36.931  1.00  0.00     0.091 A 
ATOM     86  F   UNL A   1      42.704  27.144  36.241  1.00  0.00    -0.205 F 
ATOM     87  C   UNL A   1      46.278  27.703  36.789  1.00  0.00     0.022 A 
BRANCH  85  88
ATOM     88  S   UNL A   1      44.757  25.901  38.179  1.00  0.00     0.127 S 
ATOM     89  O   UNL A   1      43.743  26.509  39.040  1.00  0.00    -0.237 OA
ATOM     90  O   UNL A   1      44.282  24.769  37.383  1.00  0.00    -0.237 OA
ATOM     91  O   UNL A   1      46.060  25.702  38.798  1.00  0.00    -0.744 OA
ENDBRANCH  85  88
ENDBRANCH  58  81
ENDBRANCH  32  33
ENDBRANCH  25  27
ENDBRANCH  24  25
ENDBRANCH  23  24
ENDBRANCH  22  23
ENDBRANCH  21  22
ENDBRANCH  20  21
ENDBRANCH   1  20
TORSDOF 23
ENDMDL
