MODEL 1
REMARK VINA RESULT:      -9.8      0.000      0.000
REMARK SMILES O=C(OCCOCCOCCOC(=O)[C@H](CO)Nc1ccc(C(F)(F)F)cc1[N+](=O)[O-])c1ccc(-c2c3nc(c(-c4cccc(S(=O)(=O)[O-])c4F)c4ccc([nH]4)c(-c4cccc(S(=O)(=O)[O-])c4F)c4nc(c(-c5cccc(S(=O)(=O)[O-])c5F)c5ccc2[nH]5)C=C4)C=C3)cc1
REMARK SMILES IDX 7 1 6 2 5 3 4 4 3 5 2 6 1 7 32 8 33 9 94 10 34 11 93 12
REMARK SMILES IDX 35 13 36 14 37 15 87 16 38 17 92 18 86 19 88 20 39 21 91 22
REMARK SMILES IDX 85 23 84 24 40 26 72 27 52 28 71 29 53 30 56 31 70 32 89 33
REMARK SMILES IDX 54 34 55 35 69 37 90 38 57 39 41 40 42 41 50 42 43 43 45 44
REMARK SMILES IDX 51 45 44 46 46 47 47 48 48 49 49 50 73 51 74 52 82 53 75 54
REMARK SMILES IDX 77 55 83 56 76 57 78 58 79 59 80 60 81 61 58 62 59 63 67 64
REMARK SMILES IDX 60 65 62 66 68 67 61 68 63 69 64 70 65 71 66 72 8 73 9 74
REMARK SMILES IDX 10 75 11 76 12 77 13 78 14 79 15 80 18 81 19 83 20 84 28 85
REMARK SMILES IDX 21 86 27 87 22 88 29 89 30 90 31 91 23 92 24 93 25 94 26 95
REMARK SMILES IDX 16 96 17 97
REMARK H PARENT 88 25 56 36 18 82 17 98
REMARK Flexibility Score: inf
ROOT
ATOM      1  C   UNL A   1      30.483  26.798  24.645  1.00  0.00     0.188 C 
ENDROOT
BRANCH   1   2
ATOM      2  O   UNL A   1      30.730  28.021  23.951  1.00  0.00    -0.376 OA
BRANCH   2   3
ATOM      3  C   UNL A   1      30.782  29.162  24.818  1.00  0.00     0.202 C 
BRANCH   3   4
ATOM      4  C   UNL A   1      32.180  29.499  25.390  1.00  0.00     0.261 C 
BRANCH   4   5
ATOM      5  O   UNL A   1      32.178  30.266  26.623  1.00  0.00    -0.460 OA
BRANCH   5   6
ATOM      6  C   UNL A   1      33.002  31.206  27.141  1.00  0.00     0.338 C 
ATOM      7  O   UNL A   1      32.689  32.390  27.047  1.00  0.00    -0.246 OA
BRANCH   6   8
ATOM      8  C   UNL A   1      34.301  30.864  27.772  1.00  0.00     0.060 A 
ATOM      9  C   UNL A   1      34.746  29.556  27.899  1.00  0.00     0.016 A 
ATOM     10  C   UNL A   1      35.167  31.896  28.165  1.00  0.00     0.016 A 
ATOM     11  C   UNL A   1      35.933  29.248  28.536  1.00  0.00     0.010 A 
ATOM     12  C   UNL A   1      36.408  31.602  28.748  1.00  0.00     0.010 A 
ATOM     13  C   UNL A   1      36.765  30.270  28.984  1.00  0.00    -0.014 A 
BRANCH  13  14
ATOM     14  C   UNL A   1      37.905  29.868  29.829  1.00  0.00     0.031 A 
ATOM     15  C   UNL A   1      38.942  28.963  29.232  1.00  0.00     0.074 A 
ATOM     16  C   UNL A   1      38.097  30.475  31.016  1.00  0.00     0.049 A 
ATOM     17  N   UNL A   1      40.078  28.569  29.735  1.00  0.00    -0.248 NA
ATOM     18  C   UNL A   1      38.677  28.456  27.873  1.00  0.00     0.031 C 
ATOM     19  C   UNL A   1      37.179  31.440  31.628  1.00  0.00     0.029 A 
ATOM     20  N   UNL A   1      39.137  30.398  31.901  1.00  0.00    -0.354 N 
ATOM     21  C   UNL A   1      40.650  27.750  28.769  1.00  0.00     0.074 A 
ATOM     22  C   UNL A   1      39.736  27.694  27.653  1.00  0.00     0.031 C 
ATOM     23  C   UNL A   1      37.702  31.872  32.787  1.00  0.00     0.029 A 
ATOM     24  C   UNL A   1      38.959  31.171  33.025  1.00  0.00     0.049 A 
ATOM     25  H   UNL A   1      39.936  29.844  31.749  1.00  0.00     0.167 HD
ATOM     26  C   UNL A   1      41.841  27.111  28.808  1.00  0.00     0.034 A 
ATOM     27  C   UNL A   1      39.714  31.265  34.136  1.00  0.00     0.034 A 
ATOM     28  C   UNL A   1      42.731  27.174  29.930  1.00  0.00     0.049 A 
ATOM     29  C   UNL A   1      40.997  30.478  34.185  1.00  0.00     0.074 A 
ATOM     30  C   UNL A   1      43.932  26.520  30.117  1.00  0.00     0.029 A 
ATOM     31  N   UNL A   1      42.502  27.935  31.069  1.00  0.00    -0.354 N 
ATOM     32  N   UNL A   1      41.533  29.719  33.258  1.00  0.00    -0.248 NA
ATOM     33  C   UNL A   1      41.789  30.575  35.416  1.00  0.00     0.031 C 
ATOM     34  C   UNL A   1      44.418  26.863  31.384  1.00  0.00     0.029 A 
ATOM     35  C   UNL A   1      43.540  27.765  31.966  1.00  0.00     0.049 A 
ATOM     36  H   UNL A   1      41.717  28.510  31.215  1.00  0.00     0.167 HD
ATOM     37  C   UNL A   1      42.737  29.267  33.783  1.00  0.00     0.074 A 
ATOM     38  C   UNL A   1      42.864  29.869  35.096  1.00  0.00     0.031 C 
ATOM     39  C   UNL A   1      43.647  28.417  33.247  1.00  0.00     0.034 A 
BRANCH  26  40
ATOM     40  C   UNL A   1      42.213  26.279  27.611  1.00  0.00     0.023 A 
ATOM     41  C   UNL A   1      42.872  26.871  26.515  1.00  0.00     0.012 A 
ATOM     42  C   UNL A   1      41.898  24.907  27.570  1.00  0.00     0.148 A 
ATOM     43  C   UNL A   1      43.179  26.120  25.381  1.00  0.00     0.002 A 
ATOM     44  C   UNL A   1      42.248  24.155  26.456  1.00  0.00     0.091 A 
ATOM     45  F   UNL A   1      41.245  24.371  28.612  1.00  0.00    -0.205 F 
ATOM     46  C   UNL A   1      42.875  24.762  25.356  1.00  0.00     0.022 A 
BRANCH  44  47
ATOM     47  S   UNL A   1      41.951  22.387  26.351  1.00  0.00     0.127 S 
ATOM     48  O   UNL A   1      40.490  22.339  26.260  1.00  0.00    -0.237 OA
ATOM     49  O   UNL A   1      42.648  22.039  25.110  1.00  0.00    -0.237 OA
ATOM     50  O   UNL A   1      42.515  21.807  27.556  1.00  0.00    -0.744 OA
ENDBRANCH  44  47
ENDBRANCH  26  40
BRANCH  27  51
ATOM     51  C   UNL A   1      39.263  32.095  35.291  1.00  0.00     0.023 A 
ATOM     52  C   UNL A   1      38.319  31.595  36.208  1.00  0.00     0.012 A 
ATOM     53  C   UNL A   1      39.763  33.401  35.471  1.00  0.00     0.148 A 
ATOM     54  C   UNL A   1      37.852  32.393  37.255  1.00  0.00     0.002 A 
ATOM     55  C   UNL A   1      39.342  34.168  36.550  1.00  0.00     0.091 A 
ATOM     56  F   UNL A   1      40.641  33.876  34.576  1.00  0.00    -0.205 F 
ATOM     57  C   UNL A   1      38.370  33.675  37.432  1.00  0.00     0.022 A 
BRANCH  55  58
ATOM     58  S   UNL A   1      40.054  35.779  36.903  1.00  0.00     0.127 S 
ATOM     59  O   UNL A   1      39.390  36.131  38.154  1.00  0.00    -0.237 OA
ATOM     60  O   UNL A   1      41.479  35.470  37.027  1.00  0.00    -0.237 OA
ATOM     61  O   UNL A   1      39.728  36.611  35.751  1.00  0.00    -0.744 OA
ENDBRANCH  55  58
ENDBRANCH  27  51
BRANCH  39  62
ATOM     62  C   UNL A   1      44.876  28.124  34.065  1.00  0.00     0.023 A 
ATOM     63  C   UNL A   1      46.009  28.954  33.957  1.00  0.00     0.012 A 
ATOM     64  C   UNL A   1      44.876  27.062  34.988  1.00  0.00     0.148 A 
ATOM     65  C   UNL A   1      47.143  28.702  34.725  1.00  0.00     0.002 A 
ATOM     66  C   UNL A   1      45.987  26.853  35.793  1.00  0.00     0.091 A 
ATOM     67  F   UNL A   1      43.792  26.275  35.060  1.00  0.00    -0.205 F 
ATOM     68  C   UNL A   1      47.128  27.661  35.652  1.00  0.00     0.022 A 
BRANCH  66  69
ATOM     69  S   UNL A   1      46.011  25.609  37.086  1.00  0.00     0.127 S 
ATOM     70  O   UNL A   1      47.337  25.810  37.668  1.00  0.00    -0.237 OA
ATOM     71  O   UNL A   1      44.898  26.029  37.940  1.00  0.00    -0.237 OA
ATOM     72  O   UNL A   1      45.809  24.331  36.417  1.00  0.00    -0.744 OA
ENDBRANCH  66  69
ENDBRANCH  39  62
ENDBRANCH  13  14
ENDBRANCH   6   8
ENDBRANCH   5   6
ENDBRANCH   4   5
ENDBRANCH   3   4
ENDBRANCH   2   3
ENDBRANCH   1   2
BRANCH   1  73
ATOM     73  C   UNL A   1      31.103  25.555  24.001  1.00  0.00     0.188 C 
BRANCH  73  74
ATOM     74  O   UNL A   1      31.802  25.651  22.767  1.00  0.00    -0.376 OA
BRANCH  74  75
ATOM     75  C   UNL A   1      32.877  24.767  22.506  1.00  0.00     0.202 C 
BRANCH  75  76
ATOM     76  C   UNL A   1      34.084  24.820  23.450  1.00  0.00     0.261 C 
BRANCH  76  77
ATOM     77  O   UNL A   1      34.273  23.654  24.271  1.00  0.00    -0.462 OA
BRANCH  77  78
ATOM     78  C   UNL A   1      34.134  23.898  25.607  1.00  0.00     0.331 C 
ATOM     79  O   UNL A   1      33.092  24.298  26.120  1.00  0.00    -0.250 OA
BRANCH  78  80
ATOM     80  C   UNL A   1      35.415  23.632  26.416  1.00  0.00     0.216 C 
BRANCH  80  81
ATOM     81  N   UNL A   1      35.480  22.201  26.745  1.00  0.00    -0.365 N 
ATOM     82  H   UNL A   1      35.960  21.994  27.579  1.00  0.00     0.161 HD
BRANCH  81  83
ATOM     83  C   UNL A   1      34.982  21.103  26.082  1.00  0.00     0.114 A 
ATOM     84  C   UNL A   1      33.616  20.865  26.354  1.00  0.00     0.033 A 
ATOM     85  C   UNL A   1      35.578  20.244  25.139  1.00  0.00     0.292 A 
ATOM     86  C   UNL A   1      32.881  19.859  25.731  1.00  0.00     0.016 A 
ATOM     87  C   UNL A   1      34.834  19.239  24.479  1.00  0.00     0.101 A 
ATOM     88  C   UNL A   1      33.479  19.042  24.772  1.00  0.00     0.062 A 
BRANCH  85  89
ATOM     89  N   UNL A   1      37.020  20.166  24.921  1.00  0.00     0.064 N 
ATOM     90  O   UNL A   1      37.592  21.229  24.631  1.00  0.00    -0.258 OA
ATOM     91  O   UNL A   1      37.585  19.074  25.057  1.00  0.00    -0.258 OA
ENDBRANCH  85  89
BRANCH  88  92
ATOM     92  C   UNL A   1      32.665  17.960  24.115  1.00  0.00     0.416 C 
ATOM     93  F   UNL A   1      31.682  18.478  23.322  1.00  0.00    -0.166 F 
ATOM     94  F   UNL A   1      33.415  17.172  23.294  1.00  0.00    -0.166 F 
ATOM     95  F   UNL A   1      32.039  17.124  24.983  1.00  0.00    -0.166 F 
ENDBRANCH  88  92
ENDBRANCH  81  83
ENDBRANCH  80  81
BRANCH  80  96
ATOM     96  C   UNL A   1      36.722  23.971  25.679  1.00  0.00     0.193 C 
BRANCH  96  97
ATOM     97  O   UNL A   1      37.876  23.491  26.382  1.00  0.00    -0.394 OA
ATOM     98  H   UNL A   1      38.645  24.032  26.147  1.00  0.00     0.210 HD
ENDBRANCH  96  97
ENDBRANCH  80  96
ENDBRANCH  78  80
ENDBRANCH  77  78
ENDBRANCH  76  77
ENDBRANCH  75  76
ENDBRANCH  74  75
ENDBRANCH  73  74
ENDBRANCH   1  73
TORSDOF 26
ENDMDL
MODEL 2
REMARK VINA RESULT:      -9.0      5.266      8.276
REMARK SMILES O=C(OCCOCCOCCOC(=O)[C@H](CO)Nc1ccc(C(F)(F)F)cc1[N+](=O)[O-])c1ccc(-c2c3nc(c(-c4cccc(S(=O)(=O)[O-])c4F)c4ccc([nH]4)c(-c4cccc(S(=O)(=O)[O-])c4F)c4nc(c(-c5cccc(S(=O)(=O)[O-])c5F)c5ccc2[nH]5)C=C4)C=C3)cc1
REMARK SMILES IDX 7 1 6 2 5 3 4 4 3 5 2 6 1 7 32 8 33 9 94 10 34 11 93 12
REMARK SMILES IDX 35 13 36 14 37 15 87 16 38 17 92 18 86 19 88 20 39 21 91 22
REMARK SMILES IDX 85 23 84 24 40 26 72 27 52 28 71 29 53 30 56 31 70 32 89 33
REMARK SMILES IDX 54 34 55 35 69 37 90 38 57 39 41 40 42 41 50 42 43 43 45 44
REMARK SMILES IDX 51 45 44 46 46 47 47 48 48 49 49 50 73 51 74 52 82 53 75 54
REMARK SMILES IDX 77 55 83 56 76 57 78 58 79 59 80 60 81 61 58 62 59 63 67 64
REMARK SMILES IDX 60 65 62 66 68 67 61 68 63 69 64 70 65 71 66 72 8 73 9 74
REMARK SMILES IDX 10 75 11 76 12 77 13 78 14 79 15 80 18 81 19 83 20 84 28 85
REMARK SMILES IDX 21 86 27 87 22 88 29 89 30 90 31 91 23 92 24 93 25 94 26 95
REMARK SMILES IDX 16 96 17 97
REMARK H PARENT 88 25 56 36 18 82 17 98
REMARK Flexibility Score: inf
ROOT
ATOM      1  C   UNL A   1      35.901  34.663  33.437  1.00  0.00     0.188 C 
ENDROOT
BRANCH   1   2
ATOM      2  O   UNL A   1      35.075  35.528  32.656  1.00  0.00    -0.376 OA
BRANCH   2   3
ATOM      3  C   UNL A   1      33.798  34.955  32.340  1.00  0.00     0.202 C 
BRANCH   3   4
ATOM      4  C   UNL A   1      33.055  35.607  31.149  1.00  0.00     0.261 C 
BRANCH   4   5
ATOM      5  O   UNL A   1      33.573  35.271  29.835  1.00  0.00    -0.460 OA
BRANCH   5   6
ATOM      6  C   UNL A   1      33.985  34.119  29.258  1.00  0.00     0.338 C 
ATOM      7  O   UNL A   1      33.212  33.511  28.521  1.00  0.00    -0.246 OA
BRANCH   6   8
ATOM      8  C   UNL A   1      35.321  33.529  29.525  1.00  0.00     0.060 A 
ATOM      9  C   UNL A   1      35.502  32.454  30.383  1.00  0.00     0.016 A 
ATOM     10  C   UNL A   1      36.435  34.000  28.814  1.00  0.00     0.016 A 
ATOM     11  C   UNL A   1      36.757  31.949  30.663  1.00  0.00     0.010 A 
ATOM     12  C   UNL A   1      37.705  33.450  29.033  1.00  0.00     0.010 A 
ATOM     13  C   UNL A   1      37.873  32.457  30.005  1.00  0.00    -0.014 A 
BRANCH  13  14
ATOM     14  C   UNL A   1      39.189  32.015  30.502  1.00  0.00     0.031 A 
ATOM     15  C   UNL A   1      39.881  30.901  29.774  1.00  0.00     0.074 A 
ATOM     16  C   UNL A   1      39.821  32.743  31.443  1.00  0.00     0.049 A 
ATOM     17  N   UNL A   1      41.080  30.421  29.952  1.00  0.00    -0.248 NA
ATOM     18  C   UNL A   1      39.131  30.259  28.679  1.00  0.00     0.031 C 
ATOM     19  C   UNL A   1      39.251  33.902  32.137  1.00  0.00     0.029 A 
ATOM     20  N   UNL A   1      41.086  32.640  31.953  1.00  0.00    -0.354 N 
ATOM     21  C   UNL A   1      41.219  29.407  29.013  1.00  0.00     0.074 A 
ATOM     22  C   UNL A   1      39.983  29.332  28.271  1.00  0.00     0.031 C 
ATOM     23  C   UNL A   1      40.168  34.407  32.977  1.00  0.00     0.029 A 
ATOM     24  C   UNL A   1      41.365  33.574  32.924  1.00  0.00     0.049 A 
ATOM     25  H   UNL A   1      41.735  31.963  31.654  1.00  0.00     0.167 HD
ATOM     26  C   UNL A   1      42.292  28.617  28.783  1.00  0.00     0.034 A 
ATOM     27  C   UNL A   1      42.454  33.709  33.704  1.00  0.00     0.034 A 
ATOM     28  C   UNL A   1      43.509  28.704  29.537  1.00  0.00     0.049 A 
ATOM     29  C   UNL A   1      43.602  32.762  33.480  1.00  0.00     0.074 A 
ATOM     30  C   UNL A   1      44.640  27.918  29.444  1.00  0.00     0.029 A 
ATOM     31  N   UNL A   1      43.744  29.636  30.539  1.00  0.00    -0.354 N 
ATOM     32  N   UNL A   1      43.727  31.817  32.577  1.00  0.00    -0.248 NA
ATOM     33  C   UNL A   1      44.766  32.911  34.360  1.00  0.00     0.031 C 
ATOM     34  C   UNL A   1      45.550  28.356  30.413  1.00  0.00     0.029 A 
ATOM     35  C   UNL A   1      45.003  29.443  31.077  1.00  0.00     0.049 A 
ATOM     36  H   UNL A   1      43.108  30.331  30.825  1.00  0.00     0.167 HD
ATOM     37  C   UNL A   1      44.992  31.274  32.765  1.00  0.00     0.074 A 
ATOM     38  C   UNL A   1      45.605  32.023  33.845  1.00  0.00     0.031 C 
ATOM     39  C   UNL A   1      45.590  30.239  32.124  1.00  0.00     0.034 A 
BRANCH  26  40
ATOM     40  C   UNL A   1      42.166  27.587  27.694  1.00  0.00     0.023 A 
ATOM     41  C   UNL A   1      42.532  27.909  26.371  1.00  0.00     0.012 A 
ATOM     42  C   UNL A   1      41.672  26.301  27.982  1.00  0.00     0.148 A 
ATOM     43  C   UNL A   1      42.375  26.977  25.345  1.00  0.00     0.002 A 
ATOM     44  C   UNL A   1      41.561  25.363  26.963  1.00  0.00     0.091 A 
ATOM     45  F   UNL A   1      41.302  26.027  29.242  1.00  0.00    -0.205 F 
ATOM     46  C   UNL A   1      41.898  25.703  25.643  1.00  0.00     0.022 A 
BRANCH  44  47
ATOM     47  S   UNL A   1      41.011  23.678  27.254  1.00  0.00     0.127 S 
ATOM     48  O   UNL A   1      41.766  23.327  28.459  1.00  0.00    -0.237 OA
ATOM     49  O   UNL A   1      39.574  23.865  27.470  1.00  0.00    -0.237 OA
ATOM     50  O   UNL A   1      41.360  22.925  26.064  1.00  0.00    -0.744 OA
ENDBRANCH  44  47
ENDBRANCH  26  40
BRANCH  27  51
ATOM     51  C   UNL A   1      42.491  34.742  34.780  1.00  0.00     0.023 A 
ATOM     52  C   UNL A   1      43.091  35.995  34.551  1.00  0.00     0.012 A 
ATOM     53  C   UNL A   1      41.940  34.471  36.050  1.00  0.00     0.148 A 
ATOM     54  C   UNL A   1      43.178  36.939  35.576  1.00  0.00     0.002 A 
ATOM     55  C   UNL A   1      41.975  35.438  37.047  1.00  0.00     0.091 A 
ATOM     56  F   UNL A   1      41.397  33.265  36.264  1.00  0.00    -0.205 F 
ATOM     57  C   UNL A   1      42.612  36.665  36.821  1.00  0.00     0.022 A 
BRANCH  55  58
ATOM     58  S   UNL A   1      41.163  35.193  38.631  1.00  0.00     0.127 S 
ATOM     59  O   UNL A   1      41.604  36.369  39.376  1.00  0.00    -0.237 OA
ATOM     60  O   UNL A   1      39.748  35.195  38.260  1.00  0.00    -0.237 OA
ATOM     61  O   UNL A   1      41.645  33.909  39.123  1.00  0.00    -0.744 OA
ENDBRANCH  55  58
ENDBRANCH  27  51
BRANCH  39  62
ATOM     62  C   UNL A   1      46.990  29.888  32.549  1.00  0.00     0.023 A 
ATOM     63  C   UNL A   1      48.090  30.324  31.784  1.00  0.00     0.012 A 
ATOM     64  C   UNL A   1      47.212  29.180  33.746  1.00  0.00     0.148 A 
ATOM     65  C   UNL A   1      49.390  30.021  32.182  1.00  0.00     0.002 A 
ATOM     66  C   UNL A   1      48.511  28.934  34.166  1.00  0.00     0.091 A 
ATOM     67  F   UNL A   1      46.149  28.760  34.447  1.00  0.00    -0.205 F 
ATOM     68  C   UNL A   1      49.601  29.338  33.378  1.00  0.00     0.022 A 
BRANCH  66  69
ATOM     69  S   UNL A   1      48.874  28.160  35.744  1.00  0.00     0.127 S 
ATOM     70  O   UNL A   1      48.674  29.272  36.673  1.00  0.00    -0.237 OA
ATOM     71  O   UNL A   1      47.855  27.112  35.817  1.00  0.00    -0.237 OA
ATOM     72  O   UNL A   1      50.241  27.667  35.645  1.00  0.00    -0.744 OA
ENDBRANCH  66  69
ENDBRANCH  39  62
ENDBRANCH  13  14
ENDBRANCH   6   8
ENDBRANCH   5   6
ENDBRANCH   4   5
ENDBRANCH   3   4
ENDBRANCH   2   3
ENDBRANCH   1   2
BRANCH   1  73
ATOM     73  C   UNL A   1      35.312  34.261  34.792  1.00  0.00     0.188 C 
BRANCH  73  74
ATOM     74  O   UNL A   1      36.133  33.675  35.793  1.00  0.00    -0.376 OA
BRANCH  74  75
ATOM     75  C   UNL A   1      37.470  33.327  35.481  1.00  0.00     0.202 C 
BRANCH  75  76
ATOM     76  C   UNL A   1      37.759  31.862  35.131  1.00  0.00     0.261 C 
BRANCH  76  77
ATOM     77  O   UNL A   1      39.059  31.383  35.519  1.00  0.00    -0.462 OA
BRANCH  77  78
ATOM     78  C   UNL A   1      39.558  30.423  34.688  1.00  0.00     0.331 C 
ATOM     79  O   UNL A   1      39.178  30.262  33.532  1.00  0.00    -0.250 OA
BRANCH  78  80
ATOM     80  C   UNL A   1      40.643  29.550  35.341  1.00  0.00     0.216 C 
BRANCH  80  81
ATOM     81  N   UNL A   1      40.996  28.461  34.419  1.00  0.00    -0.365 N 
ATOM     82  H   UNL A   1      40.389  28.362  33.650  1.00  0.00     0.161 HD
BRANCH  81  83
ATOM     83  C   UNL A   1      42.033  27.557  34.451  1.00  0.00     0.114 A 
ATOM     84  C   UNL A   1      42.659  27.390  33.196  1.00  0.00     0.033 A 
ATOM     85  C   UNL A   1      42.607  26.848  35.523  1.00  0.00     0.292 A 
ATOM     86  C   UNL A   1      43.784  26.589  33.009  1.00  0.00     0.016 A 
ATOM     87  C   UNL A   1      43.766  26.055  35.350  1.00  0.00     0.101 A 
ATOM     88  C   UNL A   1      44.361  25.923  34.089  1.00  0.00     0.062 A 
BRANCH  85  89
ATOM     89  N   UNL A   1      41.959  26.690  36.822  1.00  0.00     0.064 N 
ATOM     90  O   UNL A   1      40.719  26.617  36.814  1.00  0.00    -0.258 OA
ATOM     91  O   UNL A   1      42.664  26.614  37.835  1.00  0.00    -0.258 OA
ENDBRANCH  85  89
BRANCH  88  92
ATOM     92  C   UNL A   1      45.573  25.061  33.862  1.00  0.00     0.416 C 
ATOM     93  F   UNL A   1      45.285  23.977  33.084  1.00  0.00    -0.166 F 
ATOM     94  F   UNL A   1      46.567  25.724  33.206  1.00  0.00    -0.166 F 
ATOM     95  F   UNL A   1      46.128  24.565  34.998  1.00  0.00    -0.166 F 
ENDBRANCH  88  92
ENDBRANCH  81  83
ENDBRANCH  80  81
BRANCH  80  96
ATOM     96  C   UNL A   1      41.952  30.288  35.667  1.00  0.00     0.193 C 
BRANCH  96  97
ATOM     97  O   UNL A   1      42.299  30.180  37.054  1.00  0.00    -0.394 OA
ATOM     98  H   UNL A   1      42.933  29.455  37.173  1.00  0.00     0.210 HD
ENDBRANCH  96  97
ENDBRANCH  80  96
ENDBRANCH  78  80
ENDBRANCH  77  78
ENDBRANCH  76  77
ENDBRANCH  75  76
ENDBRANCH  74  75
ENDBRANCH  73  74
ENDBRANCH   1  73
TORSDOF 26
ENDMDL
MODEL 3
REMARK VINA RESULT:      -8.9      9.561     15.449
REMARK SMILES O=C(OCCOCCOCCOC(=O)[C@H](CO)Nc1ccc(C(F)(F)F)cc1[N+](=O)[O-])c1ccc(-c2c3nc(c(-c4cccc(S(=O)(=O)[O-])c4F)c4ccc([nH]4)c(-c4cccc(S(=O)(=O)[O-])c4F)c4nc(c(-c5cccc(S(=O)(=O)[O-])c5F)c5ccc2[nH]5)C=C4)C=C3)cc1
REMARK SMILES IDX 7 1 6 2 5 3 4 4 3 5 2 6 1 7 32 8 33 9 94 10 34 11 93 12
REMARK SMILES IDX 35 13 36 14 37 15 87 16 38 17 92 18 86 19 88 20 39 21 91 22
REMARK SMILES IDX 85 23 84 24 40 26 72 27 52 28 71 29 53 30 56 31 70 32 89 33
REMARK SMILES IDX 54 34 55 35 69 37 90 38 57 39 41 40 42 41 50 42 43 43 45 44
REMARK SMILES IDX 51 45 44 46 46 47 47 48 48 49 49 50 73 51 74 52 82 53 75 54
REMARK SMILES IDX 77 55 83 56 76 57 78 58 79 59 80 60 81 61 58 62 59 63 67 64
REMARK SMILES IDX 60 65 62 66 68 67 61 68 63 69 64 70 65 71 66 72 8 73 9 74
REMARK SMILES IDX 10 75 11 76 12 77 13 78 14 79 15 80 18 81 19 83 20 84 28 85
REMARK SMILES IDX 21 86 27 87 22 88 29 89 30 90 31 91 23 92 24 93 25 94 26 95
REMARK SMILES IDX 16 96 17 97
REMARK H PARENT 88 25 56 36 18 82 17 98
REMARK Flexibility Score: inf
ROOT
ATOM      1  C   UNL A   1      45.911  41.503  30.782  1.00  0.00     0.188 C 
ENDROOT
BRANCH   1   2
ATOM      2  O   UNL A   1      47.112  40.810  30.438  1.00  0.00    -0.376 OA
BRANCH   2   3
ATOM      3  C   UNL A   1      46.872  39.557  29.784  1.00  0.00     0.202 C 
BRANCH   3   4
ATOM      4  C   UNL A   1      47.961  38.478  29.997  1.00  0.00     0.261 C 
BRANCH   4   5
ATOM      5  O   UNL A   1      47.510  37.105  29.858  1.00  0.00    -0.460 OA
BRANCH   5   6
ATOM      6  C   UNL A   1      46.700  36.307  30.593  1.00  0.00     0.338 C 
ATOM      7  O   UNL A   1      46.439  36.626  31.750  1.00  0.00    -0.246 OA
BRANCH   6   8
ATOM      8  C   UNL A   1      46.158  35.028  30.071  1.00  0.00     0.060 A 
ATOM      9  C   UNL A   1      45.547  34.930  28.829  1.00  0.00     0.016 A 
ATOM     10  C   UNL A   1      46.354  33.848  30.805  1.00  0.00     0.016 A 
ATOM     11  C   UNL A   1      44.999  33.744  28.378  1.00  0.00     0.010 A 
ATOM     12  C   UNL A   1      45.868  32.623  30.327  1.00  0.00     0.010 A 
ATOM     13  C   UNL A   1      45.138  32.584  29.134  1.00  0.00    -0.014 A 
BRANCH  13  14
ATOM     14  C   UNL A   1      44.357  31.413  28.692  1.00  0.00     0.031 A 
ATOM     15  C   UNL A   1      45.058  30.362  27.884  1.00  0.00     0.074 A 
ATOM     16  C   UNL A   1      43.122  31.214  29.190  1.00  0.00     0.049 A 
ATOM     17  N   UNL A   1      44.617  29.202  27.482  1.00  0.00    -0.248 NA
ATOM     18  C   UNL A   1      46.454  30.641  27.499  1.00  0.00     0.031 C 
ATOM     19  C   UNL A   1      42.403  32.148  30.061  1.00  0.00     0.029 A 
ATOM     20  N   UNL A   1      42.268  30.152  29.065  1.00  0.00    -0.354 N 
ATOM     21  C   UNL A   1      45.667  28.627  26.778  1.00  0.00     0.074 A 
ATOM     22  C   UNL A   1      46.766  29.563  26.797  1.00  0.00     0.031 C 
ATOM     23  C   UNL A   1      41.218  31.613  30.399  1.00  0.00     0.029 A 
ATOM     24  C   UNL A   1      41.072  30.330  29.721  1.00  0.00     0.049 A 
ATOM     25  H   UNL A   1      42.488  29.340  28.555  1.00  0.00     0.167 HD
ATOM     26  C   UNL A   1      45.713  27.416  26.179  1.00  0.00     0.034 A 
ATOM     27  C   UNL A   1      39.972  29.553  29.735  1.00  0.00     0.034 A 
ATOM     28  C   UNL A   1      44.607  26.503  26.165  1.00  0.00     0.049 A 
ATOM     29  C   UNL A   1      40.024  28.245  28.990  1.00  0.00     0.074 A 
ATOM     30  C   UNL A   1      44.506  25.277  25.537  1.00  0.00     0.029 A 
ATOM     31  N   UNL A   1      43.396  26.730  26.806  1.00  0.00    -0.354 N 
ATOM     32  N   UNL A   1      41.029  27.706  28.342  1.00  0.00    -0.248 NA
ATOM     33  C   UNL A   1      38.805  27.429  28.998  1.00  0.00     0.031 C 
ATOM     34  C   UNL A   1      43.222  24.775  25.775  1.00  0.00     0.029 A 
ATOM     35  C   UNL A   1      42.540  25.667  26.588  1.00  0.00     0.049 A 
ATOM     36  H   UNL A   1      43.180  27.530  27.339  1.00  0.00     0.167 HD
ATOM     37  C   UNL A   1      40.573  26.477  27.882  1.00  0.00     0.074 A 
ATOM     38  C   UNL A   1      39.211  26.339  28.362  1.00  0.00     0.031 C 
ATOM     39  C   UNL A   1      41.205  25.552  27.118  1.00  0.00     0.034 A 
BRANCH  26  40
ATOM     40  C   UNL A   1      46.990  27.045  25.476  1.00  0.00     0.023 A 
ATOM     41  C   UNL A   1      47.950  26.246  26.131  1.00  0.00     0.012 A 
ATOM     42  C   UNL A   1      47.242  27.498  24.167  1.00  0.00     0.148 A 
ATOM     43  C   UNL A   1      49.158  25.935  25.507  1.00  0.00     0.002 A 
ATOM     44  C   UNL A   1      48.428  27.146  23.535  1.00  0.00     0.091 A 
ATOM     45  F   UNL A   1      46.328  28.279  23.575  1.00  0.00    -0.205 F 
ATOM     46  C   UNL A   1      49.393  26.378  24.208  1.00  0.00     0.022 A 
BRANCH  44  47
ATOM     47  S   UNL A   1      48.799  27.618  21.843  1.00  0.00     0.127 S 
ATOM     48  O   UNL A   1      48.303  26.458  21.098  1.00  0.00    -0.237 OA
ATOM     49  O   UNL A   1      47.993  28.831  21.686  1.00  0.00    -0.237 OA
ATOM     50  O   UNL A   1      50.235  27.823  21.783  1.00  0.00    -0.744 OA
ENDBRANCH  44  47
ENDBRANCH  26  40
BRANCH  27  51
ATOM     51  C   UNL A   1      38.735  30.004  30.436  1.00  0.00     0.023 A 
ATOM     52  C   UNL A   1      38.468  29.594  31.756  1.00  0.00     0.012 A 
ATOM     53  C   UNL A   1      37.805  30.836  29.779  1.00  0.00     0.148 A 
ATOM     54  C   UNL A   1      37.282  29.970  32.391  1.00  0.00     0.002 A 
ATOM     55  C   UNL A   1      36.656  31.257  30.437  1.00  0.00     0.091 A 
ATOM     56  F   UNL A   1      38.056  31.197  28.513  1.00  0.00    -0.205 F 
ATOM     57  C   UNL A   1      36.380  30.808  31.736  1.00  0.00     0.022 A 
BRANCH  55  58
ATOM     58  S   UNL A   1      35.513  32.428  29.695  1.00  0.00     0.127 S 
ATOM     59  O   UNL A   1      35.080  31.706  28.502  1.00  0.00    -0.237 OA
ATOM     60  O   UNL A   1      34.493  32.568  30.734  1.00  0.00    -0.237 OA
ATOM     61  O   UNL A   1      36.291  33.638  29.461  1.00  0.00    -0.744 OA
ENDBRANCH  55  58
ENDBRANCH  27  51
BRANCH  39  62
ATOM     62  C   UNL A   1      40.442  24.297  26.791  1.00  0.00     0.023 A 
ATOM     63  C   UNL A   1      39.163  24.382  26.207  1.00  0.00     0.012 A 
ATOM     64  C   UNL A   1      41.027  23.035  27.006  1.00  0.00     0.148 A 
ATOM     65  C   UNL A   1      38.459  23.225  25.883  1.00  0.00     0.002 A 
ATOM     66  C   UNL A   1      40.345  21.889  26.625  1.00  0.00     0.091 A 
ATOM     67  F   UNL A   1      42.238  22.980  27.580  1.00  0.00    -0.205 F 
ATOM     68  C   UNL A   1      39.054  21.980  26.079  1.00  0.00     0.022 A 
BRANCH  66  69
ATOM     69  S   UNL A   1      41.080  20.256  26.740  1.00  0.00     0.127 S 
ATOM     70  O   UNL A   1      41.088  20.034  28.185  1.00  0.00    -0.237 OA
ATOM     71  O   UNL A   1      40.121  19.433  26.001  1.00  0.00    -0.237 OA
ATOM     72  O   UNL A   1      42.392  20.361  26.116  1.00  0.00    -0.744 OA
ENDBRANCH  66  69
ENDBRANCH  39  62
ENDBRANCH  13  14
ENDBRANCH   6   8
ENDBRANCH   5   6
ENDBRANCH   4   5
ENDBRANCH   3   4
ENDBRANCH   2   3
ENDBRANCH   1   2
BRANCH   1  73
ATOM     73  C   UNL A   1      44.674  41.085  29.982  1.00  0.00     0.188 C 
BRANCH  73  74
ATOM     74  O   UNL A   1      44.147  41.930  28.968  1.00  0.00    -0.376 OA
BRANCH  74  75
ATOM     75  C   UNL A   1      44.963  42.949  28.419  1.00  0.00     0.202 C 
BRANCH  75  76
ATOM     76  C   UNL A   1      45.558  42.708  27.026  1.00  0.00     0.261 C 
BRANCH  76  77
ATOM     77  O   UNL A   1      45.421  43.803  26.103  1.00  0.00    -0.462 OA
BRANCH  77  78
ATOM     78  C   UNL A   1      45.607  43.444  24.799  1.00  0.00     0.331 C 
ATOM     79  O   UNL A   1      46.554  42.765  24.410  1.00  0.00    -0.250 OA
BRANCH  78  80
ATOM     80  C   UNL A   1      44.519  43.981  23.854  1.00  0.00     0.216 C 
BRANCH  80  81
ATOM     81  N   UNL A   1      44.932  43.734  22.466  1.00  0.00    -0.365 N 
ATOM     82  H   UNL A   1      45.683  43.106  22.366  1.00  0.00     0.161 HD
BRANCH  81  83
ATOM     83  C   UNL A   1      44.442  44.234  21.280  1.00  0.00     0.114 A 
ATOM     84  C   UNL A   1      45.149  45.371  20.826  1.00  0.00     0.033 A 
ATOM     85  C   UNL A   1      43.426  43.762  20.428  1.00  0.00     0.292 A 
ATOM     86  C   UNL A   1      44.882  45.994  19.609  1.00  0.00     0.016 A 
ATOM     87  C   UNL A   1      43.167  44.370  19.177  1.00  0.00     0.101 A 
ATOM     88  C   UNL A   1      43.897  45.490  18.761  1.00  0.00     0.062 A 
BRANCH  85  89
ATOM     89  N   UNL A   1      42.430  42.774  20.834  1.00  0.00     0.064 N 
ATOM     90  O   UNL A   1      41.256  43.172  20.903  1.00  0.00    -0.258 OA
ATOM     91  O   UNL A   1      42.798  41.615  21.058  1.00  0.00    -0.258 OA
ENDBRANCH  85  89
BRANCH  88  92
ATOM     92  C   UNL A   1      43.626  46.182  17.452  1.00  0.00     0.416 C 
ATOM     93  F   UNL A   1      43.217  45.304  16.491  1.00  0.00    -0.166 F 
ATOM     94  F   UNL A   1      42.627  47.104  17.549  1.00  0.00    -0.166 F 
ATOM     95  F   UNL A   1      44.698  46.831  16.930  1.00  0.00    -0.166 F 
ENDBRANCH  88  92
ENDBRANCH  81  83
ENDBRANCH  80  81
BRANCH  80  96
ATOM     96  C   UNL A   1      43.140  43.322  24.024  1.00  0.00     0.193 C 
BRANCH  96  97
ATOM     97  O   UNL A   1      42.070  44.226  23.716  1.00  0.00    -0.394 OA
ATOM     98  H   UNL A   1      42.103  44.984  24.321  1.00  0.00     0.210 HD
ENDBRANCH  96  97
ENDBRANCH  80  96
ENDBRANCH  78  80
ENDBRANCH  77  78
ENDBRANCH  76  77
ENDBRANCH  75  76
ENDBRANCH  74  75
ENDBRANCH  73  74
ENDBRANCH   1  73
TORSDOF 26
ENDMDL
