MODEL 1
REMARK VINA RESULT:     -11.3      0.000      0.000
REMARK SMILES C[C@H]1OCC[C@@H]1C(=O)Nc1sc2c(c1C(=O)OCCOCCOCCOC(=O)c1ccc(-c3c4nc(c(-c5cccc(S(=O)(=O)[O-])c5F)c5ccc([nH]5)c(-c5cccc(S(=O)(=O)[O-])c5F)c5nc(c(-c6cccc(S(=O)(=O)[O-])c6F)c6ccc3[nH]6)C=C5)C=C4)cc1)CCC2
REMARK SMILES IDX 22 1 21 2 20 3 19 4 18 5 17 6 15 7 16 8 14 9 10 10 11 11
REMARK SMILES IDX 12 12 13 13 94 14 92 15 93 16 9 17 7 18 8 19 6 21 1 22 2 23
REMARK SMILES IDX 3 24 4 25 5 26 23 27 24 28 25 29 26 30 27 31 28 32 29 33
REMARK SMILES IDX 30 34 91 35 31 36 90 37 32 38 33 39 34 40 84 41 35 42 89 43
REMARK SMILES IDX 83 44 85 45 36 46 88 47 82 48 81 49 37 51 69 52 49 53 68 54
REMARK SMILES IDX 50 55 53 56 67 57 86 58 51 59 52 60 66 62 87 63 54 64 38 65
REMARK SMILES IDX 39 66 47 67 40 68 42 69 48 70 41 71 43 72 44 73 45 74 46 75
REMARK SMILES IDX 70 76 71 77 79 78 72 79 74 80 80 81 73 82 75 83 76 84 77 85
REMARK SMILES IDX 78 86 55 87 56 88 64 89 57 90 59 91 65 92 58 93 60 94 61 95
REMARK SMILES IDX 62 96 63 97
REMARK H PARENT 9 20 85 50 53 61
REMARK Flexibility Score: inf
ROOT
ATOM      1  C   UNL A   1      35.528  23.580  23.988  1.00  0.00     0.188 C 
ENDROOT
BRANCH   1   2
ATOM      2  C   UNL A   1      34.206  23.713  24.735  1.00  0.00     0.188 C 
BRANCH   2   3
ATOM      3  O   UNL A   1      33.113  23.943  23.851  1.00  0.00    -0.376 OA
BRANCH   3   4
ATOM      4  C   UNL A   1      31.833  23.659  24.426  1.00  0.00     0.202 C 
BRANCH   4   5
ATOM      5  C   UNL A   1      30.675  24.022  23.485  1.00  0.00     0.261 C 
BRANCH   5   6
ATOM      6  O   UNL A   1      30.676  25.427  23.131  1.00  0.00    -0.460 OA
BRANCH   6   7
ATOM      7  C   UNL A   1      30.520  26.306  24.168  1.00  0.00     0.341 C 
ATOM      8  O   UNL A   1      29.567  26.284  24.945  1.00  0.00    -0.246 OA
BRANCH   7   9
ATOM      9  C   UNL A   1      31.570  27.319  24.259  1.00  0.00     0.098 A 
ATOM     10  C   UNL A   1      31.870  28.220  23.241  1.00  0.00     0.110 A 
ATOM     11  S   UNL A   1      33.358  29.047  23.455  1.00  0.00    -0.122 S 
ATOM     12  C   UNL A   1      33.382  28.553  25.044  1.00  0.00     0.011 A 
ATOM     13  C   UNL A   1      32.416  27.633  25.364  1.00  0.00    -0.017 A 
ATOM     14  C   UNL A   1      34.231  28.979  26.176  1.00  0.00     0.047 C 
ATOM     15  C   UNL A   1      32.519  27.265  26.800  1.00  0.00     0.038 C 
ATOM     16  C   UNL A   1      33.400  28.427  27.369  1.00  0.00     0.010 C 
BRANCH  10  17
ATOM     17  N   UNL A   1      31.222  28.526  22.067  1.00  0.00    -0.317 N 
ATOM     18  C   UNL A   1      30.162  29.398  22.018  1.00  0.00     0.230 C 
ATOM     19  O   UNL A   1      30.082  30.120  21.015  1.00  0.00    -0.274 OA
ATOM     20  H   UNL A   1      31.529  28.104  21.233  1.00  0.00     0.170 HD
BRANCH  18  21
ATOM     21  C   UNL A   1      29.086  29.517  23.111  1.00  0.00     0.110 C 
ATOM     22  C   UNL A   1      26.808  28.539  23.621  1.00  0.00     0.039 C 
ATOM     23  C   UNL A   1      27.659  29.323  22.625  1.00  0.00     0.127 C 
ATOM     24  O   UNL A   1      27.099  30.644  22.531  1.00  0.00    -0.378 OA
ATOM     25  C   UNL A   1      27.694  31.436  23.565  1.00  0.00     0.161 C 
ATOM     26  C   UNL A   1      29.052  30.824  23.862  1.00  0.00     0.044 C 
ENDBRANCH  18  21
ENDBRANCH  10  17
ENDBRANCH   7   9
ENDBRANCH   6   7
ENDBRANCH   5   6
ENDBRANCH   4   5
ENDBRANCH   3   4
ENDBRANCH   2   3
ENDBRANCH   1   2
BRANCH   1  27
ATOM     27  O   UNL A   1      35.923  22.205  23.904  1.00  0.00    -0.376 OA
BRANCH  27  28
ATOM     28  C   UNL A   1      36.454  21.665  25.121  1.00  0.00     0.202 C 
BRANCH  28  29
ATOM     29  C   UNL A   1      37.599  20.659  24.989  1.00  0.00     0.261 C 
BRANCH  29  30
ATOM     30  O   UNL A   1      38.782  21.115  25.608  1.00  0.00    -0.460 OA
BRANCH  30  31
ATOM     31  C   UNL A   1      39.765  20.198  25.754  1.00  0.00     0.338 C 
ATOM     32  O   UNL A   1      39.732  19.014  25.472  1.00  0.00    -0.246 OA
BRANCH  31  33
ATOM     33  C   UNL A   1      40.871  20.893  26.430  1.00  0.00     0.060 A 
ATOM     34  C   UNL A   1      40.855  20.909  27.825  1.00  0.00     0.016 A 
ATOM     35  C   UNL A   1      41.714  21.730  25.680  1.00  0.00     0.016 A 
ATOM     36  C   UNL A   1      41.491  21.943  28.470  1.00  0.00     0.010 A 
ATOM     37  C   UNL A   1      42.288  22.796  26.310  1.00  0.00     0.010 A 
ATOM     38  C   UNL A   1      42.073  22.932  27.680  1.00  0.00    -0.014 A 
BRANCH  38  39
ATOM     39  C   UNL A   1      42.313  24.224  28.278  1.00  0.00     0.031 A 
ATOM     40  C   UNL A   1      41.279  25.231  27.975  1.00  0.00     0.074 A 
ATOM     41  C   UNL A   1      43.327  24.335  29.162  1.00  0.00     0.049 A 
ATOM     42  N   UNL A   1      41.429  26.392  27.431  1.00  0.00    -0.248 NA
ATOM     43  C   UNL A   1      39.874  24.826  28.154  1.00  0.00     0.031 C 
ATOM     44  C   UNL A   1      44.154  23.234  29.686  1.00  0.00     0.029 A 
ATOM     45  N   UNL A   1      43.701  25.394  29.931  1.00  0.00    -0.354 N 
ATOM     46  C   UNL A   1      40.153  26.947  27.439  1.00  0.00     0.074 A 
ATOM     47  C   UNL A   1      39.232  25.865  27.632  1.00  0.00     0.031 C 
ATOM     48  C   UNL A   1      44.709  23.619  30.853  1.00  0.00     0.029 A 
ATOM     49  C   UNL A   1      44.350  25.004  31.100  1.00  0.00     0.049 A 
ATOM     50  H   UNL A   1      43.532  26.333  29.687  1.00  0.00     0.167 HD
ATOM     51  C   UNL A   1      39.973  28.277  27.651  1.00  0.00     0.034 A 
ATOM     52  C   UNL A   1      44.452  25.721  32.244  1.00  0.00     0.034 A 
ATOM     53  C   UNL A   1      41.169  29.024  27.357  1.00  0.00     0.049 A 
ATOM     54  C   UNL A   1      44.116  27.128  31.921  1.00  0.00     0.074 A 
ATOM     55  C   UNL A   1      41.986  29.160  26.252  1.00  0.00     0.029 A 
ATOM     56  N   UNL A   1      41.881  29.509  28.426  1.00  0.00    -0.354 N 
ATOM     57  N   UNL A   1      44.849  27.905  31.173  1.00  0.00    -0.248 NA
ATOM     58  C   UNL A   1      42.739  27.562  32.108  1.00  0.00     0.031 C 
ATOM     59  C   UNL A   1      43.297  29.348  26.773  1.00  0.00     0.029 A 
ATOM     60  C   UNL A   1      43.215  29.345  28.167  1.00  0.00     0.049 A 
ATOM     61  H   UNL A   1      41.497  29.906  29.241  1.00  0.00     0.167 HD
ATOM     62  C   UNL A   1      43.934  28.666  30.455  1.00  0.00     0.074 A 
ATOM     63  C   UNL A   1      42.672  28.512  31.172  1.00  0.00     0.031 C 
ATOM     64  C   UNL A   1      44.214  29.093  29.187  1.00  0.00     0.034 A 
BRANCH  51  65
ATOM     65  C   UNL A   1      38.867  28.846  28.522  1.00  0.00     0.023 A 
ATOM     66  C   UNL A   1      38.036  29.821  27.929  1.00  0.00     0.012 A 
ATOM     67  C   UNL A   1      38.780  28.708  29.931  1.00  0.00     0.148 A 
ATOM     68  C   UNL A   1      37.233  30.668  28.701  1.00  0.00     0.002 A 
ATOM     69  C   UNL A   1      37.925  29.502  30.685  1.00  0.00     0.091 A 
ATOM     70  F   UNL A   1      39.613  27.905  30.593  1.00  0.00    -0.205 F 
ATOM     71  C   UNL A   1      37.176  30.509  30.079  1.00  0.00     0.022 A 
BRANCH  69  72
ATOM     72  S   UNL A   1      37.802  29.305  32.469  1.00  0.00     0.127 S 
ATOM     73  O   UNL A   1      39.032  29.950  32.917  1.00  0.00    -0.237 OA
ATOM     74  O   UNL A   1      36.570  30.037  32.768  1.00  0.00    -0.237 OA
ATOM     75  O   UNL A   1      37.708  27.868  32.699  1.00  0.00    -0.744 OA
ENDBRANCH  69  72
ENDBRANCH  51  65
BRANCH  52  76
ATOM     76  C   UNL A   1      44.556  25.227  33.639  1.00  0.00     0.023 A 
ATOM     77  C   UNL A   1      43.383  24.915  34.351  1.00  0.00     0.012 A 
ATOM     78  C   UNL A   1      45.797  24.858  34.210  1.00  0.00     0.148 A 
ATOM     79  C   UNL A   1      43.442  24.253  35.585  1.00  0.00     0.002 A 
ATOM     80  C   UNL A   1      45.853  24.231  35.452  1.00  0.00     0.091 A 
ATOM     81  F   UNL A   1      46.919  25.035  33.502  1.00  0.00    -0.205 F 
ATOM     82  C   UNL A   1      44.676  23.914  36.137  1.00  0.00     0.022 A 
BRANCH  80  83
ATOM     83  S   UNL A   1      47.418  23.801  36.227  1.00  0.00     0.127 S 
ATOM     84  O   UNL A   1      48.067  25.108  36.357  1.00  0.00    -0.237 OA
ATOM     85  O   UNL A   1      46.984  23.207  37.487  1.00  0.00    -0.237 OA
ATOM     86  O   UNL A   1      48.083  22.902  35.292  1.00  0.00    -0.744 OA
ENDBRANCH  80  83
ENDBRANCH  52  76
BRANCH  64  87
ATOM     87  C   UNL A   1      45.641  29.002  28.702  1.00  0.00     0.023 A 
ATOM     88  C   UNL A   1      46.585  30.012  28.981  1.00  0.00     0.012 A 
ATOM     89  C   UNL A   1      46.086  27.797  28.131  1.00  0.00     0.148 A 
ATOM     90  C   UNL A   1      47.937  29.835  28.676  1.00  0.00     0.002 A 
ATOM     91  C   UNL A   1      47.439  27.605  27.874  1.00  0.00     0.091 A 
ATOM     92  F   UNL A   1      45.180  26.840  27.875  1.00  0.00    -0.205 F 
ATOM     93  C   UNL A   1      48.365  28.626  28.135  1.00  0.00     0.022 A 
BRANCH  91  94
ATOM     94  S   UNL A   1      48.067  26.018  27.314  1.00  0.00     0.127 S 
ATOM     95  O   UNL A   1      49.508  26.180  27.490  1.00  0.00    -0.237 OA
ATOM     96  O   UNL A   1      47.439  25.080  28.247  1.00  0.00    -0.237 OA
ATOM     97  O   UNL A   1      47.608  25.878  25.938  1.00  0.00    -0.744 OA
ENDBRANCH  91  94
ENDBRANCH  64  87
ENDBRANCH  38  39
ENDBRANCH  31  33
ENDBRANCH  30  31
ENDBRANCH  29  30
ENDBRANCH  28  29
ENDBRANCH  27  28
ENDBRANCH   1  27
TORSDOF 22
ENDMDL
MODEL 2
REMARK VINA RESULT:      -9.9      1.744      2.108
REMARK SMILES C[C@H]1OCC[C@@H]1C(=O)Nc1sc2c(c1C(=O)OCCOCCOCCOC(=O)c1ccc(-c3c4nc(c(-c5cccc(S(=O)(=O)[O-])c5F)c5ccc([nH]5)c(-c5cccc(S(=O)(=O)[O-])c5F)c5nc(c(-c6cccc(S(=O)(=O)[O-])c6F)c6ccc3[nH]6)C=C5)C=C4)cc1)CCC2
REMARK SMILES IDX 22 1 21 2 20 3 19 4 18 5 17 6 15 7 16 8 14 9 10 10 11 11
REMARK SMILES IDX 12 12 13 13 94 14 92 15 93 16 9 17 7 18 8 19 6 21 1 22 2 23
REMARK SMILES IDX 3 24 4 25 5 26 23 27 24 28 25 29 26 30 27 31 28 32 29 33
REMARK SMILES IDX 30 34 91 35 31 36 90 37 32 38 33 39 34 40 84 41 35 42 89 43
REMARK SMILES IDX 83 44 85 45 36 46 88 47 82 48 81 49 37 51 69 52 49 53 68 54
REMARK SMILES IDX 50 55 53 56 67 57 86 58 51 59 52 60 66 62 87 63 54 64 38 65
REMARK SMILES IDX 39 66 47 67 40 68 42 69 48 70 41 71 43 72 44 73 45 74 46 75
REMARK SMILES IDX 70 76 71 77 79 78 72 79 74 80 80 81 73 82 75 83 76 84 77 85
REMARK SMILES IDX 78 86 55 87 56 88 64 89 57 90 59 91 65 92 58 93 60 94 61 95
REMARK SMILES IDX 62 96 63 97
REMARK H PARENT 9 20 85 50 53 61
REMARK Flexibility Score: inf
ROOT
ATOM      1  C   UNL A   1      36.473  23.810  25.565  1.00  0.00     0.188 C 
ENDROOT
BRANCH   1   2
ATOM      2  C   UNL A   1      34.974  24.012  25.377  1.00  0.00     0.188 C 
BRANCH   2   3
ATOM      3  O   UNL A   1      34.647  24.371  24.037  1.00  0.00    -0.376 OA
BRANCH   3   4
ATOM      4  C   UNL A   1      33.914  25.596  23.928  1.00  0.00     0.202 C 
BRANCH   4   5
ATOM      5  C   UNL A   1      33.653  25.993  22.468  1.00  0.00     0.261 C 
BRANCH   5   6
ATOM      6  O   UNL A   1      32.965  27.263  22.360  1.00  0.00    -0.460 OA
BRANCH   6   7
ATOM      7  C   UNL A   1      31.769  27.355  23.020  1.00  0.00     0.341 C 
ATOM      8  O   UNL A   1      30.803  26.631  22.788  1.00  0.00    -0.246 OA
BRANCH   7   9
ATOM      9  C   UNL A   1      31.714  28.427  24.012  1.00  0.00     0.098 A 
ATOM     10  C   UNL A   1      30.574  29.182  24.276  1.00  0.00     0.110 A 
ATOM     11  S   UNL A   1      30.871  30.593  25.208  1.00  0.00    -0.122 S 
ATOM     12  C   UNL A   1      32.367  29.988  25.612  1.00  0.00     0.011 A 
ATOM     13  C   UNL A   1      32.727  28.860  24.918  1.00  0.00    -0.017 A 
ATOM     14  C   UNL A   1      33.346  30.428  26.628  1.00  0.00     0.047 C 
ATOM     15  C   UNL A   1      34.069  28.398  25.357  1.00  0.00     0.038 C 
ATOM     16  C   UNL A   1      34.248  29.163  26.711  1.00  0.00     0.010 C 
BRANCH  10  17
ATOM     17  N   UNL A   1      29.266  29.039  23.878  1.00  0.00    -0.317 N 
ATOM     18  C   UNL A   1      28.770  29.644  22.749  1.00  0.00     0.230 C 
ATOM     19  O   UNL A   1      27.928  29.006  22.103  1.00  0.00    -0.274 OA
ATOM     20  H   UNL A   1      28.664  28.483  24.424  1.00  0.00     0.170 HD
BRANCH  18  21
ATOM     21  C   UNL A   1      29.184  31.042  22.262  1.00  0.00     0.110 C 
ATOM     22  C   UNL A   1      29.354  33.386  23.201  1.00  0.00     0.039 C 
ATOM     23  C   UNL A   1      28.442  32.193  22.922  1.00  0.00     0.127 C 
ATOM     24  O   UNL A   1      27.458  32.621  21.965  1.00  0.00    -0.378 OA
ATOM     25  C   UNL A   1      28.014  32.418  20.661  1.00  0.00     0.161 C 
ATOM     26  C   UNL A   1      29.030  31.296  20.783  1.00  0.00     0.044 C 
ENDBRANCH  18  21
ENDBRANCH  10  17
ENDBRANCH   7   9
ENDBRANCH   6   7
ENDBRANCH   5   6
ENDBRANCH   4   5
ENDBRANCH   3   4
ENDBRANCH   2   3
ENDBRANCH   1   2
BRANCH   1  27
ATOM     27  O   UNL A   1      36.749  22.481  26.025  1.00  0.00    -0.376 OA
BRANCH  27  28
ATOM     28  C   UNL A   1      36.699  21.478  25.001  1.00  0.00     0.202 C 
BRANCH  28  29
ATOM     29  C   UNL A   1      37.869  20.492  24.944  1.00  0.00     0.261 C 
BRANCH  29  30
ATOM     30  O   UNL A   1      39.017  20.991  25.594  1.00  0.00    -0.460 OA
BRANCH  30  31
ATOM     31  C   UNL A   1      40.004  20.095  25.821  1.00  0.00     0.338 C 
ATOM     32  O   UNL A   1      39.989  18.896  25.612  1.00  0.00    -0.246 OA
BRANCH  31  33
ATOM     33  C   UNL A   1      41.086  20.842  26.480  1.00  0.00     0.060 A 
ATOM     34  C   UNL A   1      41.079  20.875  27.875  1.00  0.00     0.016 A 
ATOM     35  C   UNL A   1      41.890  21.701  25.713  1.00  0.00     0.016 A 
ATOM     36  C   UNL A   1      41.678  21.941  28.502  1.00  0.00     0.010 A 
ATOM     37  C   UNL A   1      42.426  22.798  26.326  1.00  0.00     0.010 A 
ATOM     38  C   UNL A   1      42.215  22.942  27.695  1.00  0.00    -0.014 A 
BRANCH  38  39
ATOM     39  C   UNL A   1      42.407  24.251  28.275  1.00  0.00     0.031 A 
ATOM     40  C   UNL A   1      41.332  25.211  27.968  1.00  0.00     0.074 A 
ATOM     41  C   UNL A   1      43.422  24.413  29.150  1.00  0.00     0.049 A 
ATOM     42  N   UNL A   1      41.432  26.370  27.408  1.00  0.00    -0.248 NA
ATOM     43  C   UNL A   1      39.945  24.753  28.163  1.00  0.00     0.031 C 
ATOM     44  C   UNL A   1      44.296  23.353  29.681  1.00  0.00     0.029 A 
ATOM     45  N   UNL A   1      43.759  25.496  29.903  1.00  0.00    -0.354 N 
ATOM     46  C   UNL A   1      40.134  26.875  27.420  1.00  0.00     0.074 A 
ATOM     47  C   UNL A   1      39.258  25.759  27.632  1.00  0.00     0.031 C 
ATOM     48  C   UNL A   1      44.843  23.774  30.839  1.00  0.00     0.029 A 
ATOM     49  C   UNL A   1      44.431  25.147  31.072  1.00  0.00     0.049 A 
ATOM     50  H   UNL A   1      43.551  26.424  29.649  1.00  0.00     0.167 HD
ATOM     51  C   UNL A   1      39.902  28.199  27.616  1.00  0.00     0.034 A 
ATOM     52  C   UNL A   1      44.513  25.882  32.206  1.00  0.00     0.034 A 
ATOM     53  C   UNL A   1      41.066  28.989  27.304  1.00  0.00     0.049 A 
ATOM     54  C   UNL A   1      44.119  27.270  31.868  1.00  0.00     0.074 A 
ATOM     55  C   UNL A   1      41.869  29.143  26.191  1.00  0.00     0.029 A 
ATOM     56  N   UNL A   1      41.766  29.515  28.361  1.00  0.00    -0.354 N 
ATOM     57  N   UNL A   1      44.815  28.067  31.105  1.00  0.00    -0.248 NA
ATOM     58  C   UNL A   1      42.727  27.652  32.060  1.00  0.00     0.031 C 
ATOM     59  C   UNL A   1      43.175  29.390  26.699  1.00  0.00     0.029 A 
ATOM     60  C   UNL A   1      43.103  29.402  28.094  1.00  0.00     0.049 A 
ATOM     61  H   UNL A   1      41.372  29.908  29.174  1.00  0.00     0.167 HD
ATOM     62  C   UNL A   1      43.865  28.781  30.385  1.00  0.00     0.074 A 
ATOM     63  C   UNL A   1      42.616  28.586  31.113  1.00  0.00     0.031 C 
ATOM     64  C   UNL A   1      44.119  29.202  29.109  1.00  0.00     0.034 A 
BRANCH  51  65
ATOM     65  C   UNL A   1      38.781  28.734  28.488  1.00  0.00     0.023 A 
ATOM     66  C   UNL A   1      37.878  29.629  27.875  1.00  0.00     0.012 A 
ATOM     67  C   UNL A   1      38.732  28.652  29.903  1.00  0.00     0.148 A 
ATOM     68  C   UNL A   1      37.039  30.456  28.629  1.00  0.00     0.002 A 
ATOM     69  C   UNL A   1      37.844  29.422  30.644  1.00  0.00     0.091 A 
ATOM     70  F   UNL A   1      39.628  27.932  30.579  1.00  0.00    -0.205 F 
ATOM     71  C   UNL A   1      37.021  30.354  30.014  1.00  0.00     0.022 A 
BRANCH  69  72
ATOM     72  S   UNL A   1      37.771  29.294  32.437  1.00  0.00     0.127 S 
ATOM     73  O   UNL A   1      36.559  30.053  32.732  1.00  0.00    -0.237 OA
ATOM     74  O   UNL A   1      37.662  27.847  32.630  1.00  0.00    -0.237 OA
ATOM     75  O   UNL A   1      39.022  29.864  32.923  1.00  0.00    -0.744 OA
ENDBRANCH  69  72
ENDBRANCH  51  65
BRANCH  52  76
ATOM     76  C   UNL A   1      44.646  25.410  33.606  1.00  0.00     0.023 A 
ATOM     77  C   UNL A   1      43.489  25.188  34.374  1.00  0.00     0.012 A 
ATOM     78  C   UNL A   1      45.886  24.975  34.133  1.00  0.00     0.148 A 
ATOM     79  C   UNL A   1      43.560  24.548  35.619  1.00  0.00     0.002 A 
ATOM     80  C   UNL A   1      45.956  24.370  35.385  1.00  0.00     0.091 A 
ATOM     81  F   UNL A   1      46.985  25.066  33.374  1.00  0.00    -0.205 F 
ATOM     82  C   UNL A   1      44.793  24.143  36.126  1.00  0.00     0.022 A 
BRANCH  80  83
ATOM     83  S   UNL A   1      47.524  23.858  36.103  1.00  0.00     0.127 S 
ATOM     84  O   UNL A   1      48.287  25.108  36.103  1.00  0.00    -0.237 OA
ATOM     85  O   UNL A   1      47.119  23.389  37.424  1.00  0.00    -0.237 OA
ATOM     86  O   UNL A   1      48.054  22.843  35.200  1.00  0.00    -0.744 OA
ENDBRANCH  80  83
ENDBRANCH  52  76
BRANCH  64  87
ATOM     87  C   UNL A   1      45.544  29.162  28.614  1.00  0.00     0.023 A 
ATOM     88  C   UNL A   1      46.085  28.014  28.000  1.00  0.00     0.012 A 
ATOM     89  C   UNL A   1      46.285  30.357  28.589  1.00  0.00     0.148 A 
ATOM     90  C   UNL A   1      47.344  28.049  27.395  1.00  0.00     0.002 A 
ATOM     91  C   UNL A   1      47.516  30.401  27.943  1.00  0.00     0.091 A 
ATOM     92  F   UNL A   1      45.759  31.446  29.171  1.00  0.00    -0.205 F 
ATOM     93  C   UNL A   1      48.053  29.246  27.355  1.00  0.00     0.022 A 
BRANCH  91  94
ATOM     94  S   UNL A   1      48.406  31.946  27.734  1.00  0.00     0.127 S 
ATOM     95  O   UNL A   1      49.148  31.708  26.498  1.00  0.00    -0.237 OA
ATOM     96  O   UNL A   1      47.323  32.925  27.618  1.00  0.00    -0.237 OA
ATOM     97  O   UNL A   1      49.214  32.101  28.937  1.00  0.00    -0.744 OA
ENDBRANCH  91  94
ENDBRANCH  64  87
ENDBRANCH  38  39
ENDBRANCH  31  33
ENDBRANCH  30  31
ENDBRANCH  29  30
ENDBRANCH  28  29
ENDBRANCH  27  28
ENDBRANCH   1  27
TORSDOF 22
ENDMDL
MODEL 3
REMARK VINA RESULT:      -9.8      2.801      7.314
REMARK SMILES C[C@H]1OCC[C@@H]1C(=O)Nc1sc2c(c1C(=O)OCCOCCOCCOC(=O)c1ccc(-c3c4nc(c(-c5cccc(S(=O)(=O)[O-])c5F)c5ccc([nH]5)c(-c5cccc(S(=O)(=O)[O-])c5F)c5nc(c(-c6cccc(S(=O)(=O)[O-])c6F)c6ccc3[nH]6)C=C5)C=C4)cc1)CCC2
REMARK SMILES IDX 22 1 21 2 20 3 19 4 18 5 17 6 15 7 16 8 14 9 10 10 11 11
REMARK SMILES IDX 12 12 13 13 94 14 92 15 93 16 9 17 7 18 8 19 6 21 1 22 2 23
REMARK SMILES IDX 3 24 4 25 5 26 23 27 24 28 25 29 26 30 27 31 28 32 29 33
REMARK SMILES IDX 30 34 91 35 31 36 90 37 32 38 33 39 34 40 84 41 35 42 89 43
REMARK SMILES IDX 83 44 85 45 36 46 88 47 82 48 81 49 37 51 69 52 49 53 68 54
REMARK SMILES IDX 50 55 53 56 67 57 86 58 51 59 52 60 66 62 87 63 54 64 38 65
REMARK SMILES IDX 39 66 47 67 40 68 42 69 48 70 41 71 43 72 44 73 45 74 46 75
REMARK SMILES IDX 70 76 71 77 79 78 72 79 74 80 80 81 73 82 75 83 76 84 77 85
REMARK SMILES IDX 78 86 55 87 56 88 64 89 57 90 59 91 65 92 58 93 60 94 61 95
REMARK SMILES IDX 62 96 63 97
REMARK H PARENT 9 20 85 50 53 61
REMARK Flexibility Score: inf
ROOT
ATOM      1  C   UNL A   1      32.526  30.241  26.338  1.00  0.00     0.188 C 
ENDROOT
BRANCH   1   2
ATOM      2  C   UNL A   1      32.074  28.915  26.939  1.00  0.00     0.188 C 
BRANCH   2   3
ATOM      3  O   UNL A   1      32.163  27.845  26.002  1.00  0.00    -0.376 OA
BRANCH   3   4
ATOM      4  C   UNL A   1      33.307  27.919  25.145  1.00  0.00     0.202 C 
BRANCH   4   5
ATOM      5  C   UNL A   1      34.282  26.754  25.368  1.00  0.00     0.261 C 
BRANCH   5   6
ATOM      6  O   UNL A   1      33.701  25.700  26.174  1.00  0.00    -0.460 OA
BRANCH   6   7
ATOM      7  C   UNL A   1      34.239  24.453  26.008  1.00  0.00     0.341 C 
ATOM      8  O   UNL A   1      35.440  24.207  26.109  1.00  0.00    -0.246 OA
BRANCH   7   9
ATOM      9  C   UNL A   1      33.265  23.423  25.653  1.00  0.00     0.098 A 
ATOM     10  C   UNL A   1      31.934  23.686  25.342  1.00  0.00     0.110 A 
ATOM     11  S   UNL A   1      30.932  22.293  25.317  1.00  0.00    -0.122 S 
ATOM     12  C   UNL A   1      32.295  21.338  25.286  1.00  0.00     0.011 A 
ATOM     13  C   UNL A   1      33.468  22.020  25.488  1.00  0.00    -0.017 A 
ATOM     14  C   UNL A   1      32.456  19.893  25.021  1.00  0.00     0.047 C 
ATOM     15  C   UNL A   1      34.619  21.082  25.433  1.00  0.00     0.038 C 
ATOM     16  C   UNL A   1      33.984  19.832  24.735  1.00  0.00     0.010 C 
BRANCH  10  17
ATOM     17  N   UNL A   1      31.263  24.863  25.109  1.00  0.00    -0.317 N 
ATOM     18  C   UNL A   1      30.773  25.198  23.870  1.00  0.00     0.230 C 
ATOM     19  O   UNL A   1      29.698  25.811  23.846  1.00  0.00    -0.274 OA
ATOM     20  H   UNL A   1      31.129  25.489  25.858  1.00  0.00     0.170 HD
BRANCH  18  21
ATOM     21  C   UNL A   1      31.477  24.870  22.543  1.00  0.00     0.110 C 
ATOM     22  C   UNL A   1      33.125  23.165  21.660  1.00  0.00     0.039 C 
ATOM     23  C   UNL A   1      32.862  24.262  22.689  1.00  0.00     0.127 C 
ATOM     24  O   UNL A   1      33.785  25.331  22.420  1.00  0.00    -0.378 OA
ATOM     25  C   UNL A   1      33.176  26.187  21.446  1.00  0.00     0.161 C 
ATOM     26  C   UNL A   1      31.673  26.029  21.598  1.00  0.00     0.044 C 
ENDBRANCH  18  21
ENDBRANCH  10  17
ENDBRANCH   7   9
ENDBRANCH   6   7
ENDBRANCH   5   6
ENDBRANCH   4   5
ENDBRANCH   3   4
ENDBRANCH   2   3
ENDBRANCH   1   2
BRANCH   1  27
ATOM     27  O   UNL A   1      33.048  31.104  27.356  1.00  0.00    -0.376 OA
BRANCH  27  28
ATOM     28  C   UNL A   1      34.471  31.042  27.513  1.00  0.00     0.202 C 
BRANCH  28  29
ATOM     29  C   UNL A   1      35.123  32.145  28.350  1.00  0.00     0.261 C 
BRANCH  29  30
ATOM     30  O   UNL A   1      36.495  31.905  28.571  1.00  0.00    -0.460 OA
BRANCH  30  31
ATOM     31  C   UNL A   1      36.798  31.153  29.653  1.00  0.00     0.338 C 
ATOM     32  O   UNL A   1      36.592  31.411  30.825  1.00  0.00    -0.246 OA
BRANCH  31  33
ATOM     33  C   UNL A   1      37.533  29.986  29.143  1.00  0.00     0.060 A 
ATOM     34  C   UNL A   1      37.522  28.832  29.928  1.00  0.00     0.016 A 
ATOM     35  C   UNL A   1      38.424  30.154  28.070  1.00  0.00     0.016 A 
ATOM     36  C   UNL A   1      38.573  27.955  29.809  1.00  0.00     0.010 A 
ATOM     37  C   UNL A   1      39.505  29.323  27.996  1.00  0.00     0.010 A 
ATOM     38  C   UNL A   1      39.604  28.302  28.939  1.00  0.00    -0.014 A 
BRANCH  38  39
ATOM     39  C   UNL A   1      40.895  27.686  29.137  1.00  0.00     0.031 A 
ATOM     40  C   UNL A   1      41.526  28.008  30.430  1.00  0.00     0.074 A 
ATOM     41  C   UNL A   1      41.307  26.773  28.232  1.00  0.00     0.049 A 
ATOM     42  N   UNL A   1      42.684  28.537  30.644  1.00  0.00    -0.248 NA
ATOM     43  C   UNL A   1      40.692  27.871  31.637  1.00  0.00     0.031 C 
ATOM     44  C   UNL A   1      40.516  26.237  27.109  1.00  0.00     0.029 A 
ATOM     45  N   UNL A   1      42.416  25.985  28.231  1.00  0.00    -0.354 N 
ATOM     46  C   UNL A   1      42.805  28.559  32.030  1.00  0.00     0.074 A 
ATOM     47  C   UNL A   1      41.483  28.402  32.564  1.00  0.00     0.031 C 
ATOM     48  C   UNL A   1      41.037  25.052  26.733  1.00  0.00     0.029 A 
ATOM     49  C   UNL A   1      42.232  24.802  27.519  1.00  0.00     0.049 A 
ATOM     50  H   UNL A   1      43.257  26.225  28.684  1.00  0.00     0.167 HD
ATOM     51  C   UNL A   1      44.005  28.340  32.629  1.00  0.00     0.034 A 
ATOM     52  C   UNL A   1      42.924  23.649  27.676  1.00  0.00     0.034 A 
ATOM     53  C   UNL A   1      45.097  28.594  31.726  1.00  0.00     0.049 A 
ATOM     54  C   UNL A   1      44.157  23.969  28.435  1.00  0.00     0.074 A 
ATOM     55  C   UNL A   1      45.505  29.675  30.969  1.00  0.00     0.029 A 
ATOM     56  N   UNL A   1      45.765  27.501  31.230  1.00  0.00    -0.354 N 
ATOM     57  N   UNL A   1      45.140  24.688  27.971  1.00  0.00    -0.248 NA
ATOM     58  C   UNL A   1      44.128  23.816  29.883  1.00  0.00     0.031 C 
ATOM     59  C   UNL A   1      46.091  29.117  29.798  1.00  0.00     0.029 A 
ATOM     60  C   UNL A   1      46.038  27.725  29.908  1.00  0.00     0.049 A 
ATOM     61  H   UNL A   1      46.006  26.694  31.739  1.00  0.00     0.167 HD
ATOM     62  C   UNL A   1      45.583  25.425  29.063  1.00  0.00     0.074 A 
ATOM     63  C   UNL A   1      45.024  24.744  30.227  1.00  0.00     0.031 C 
ATOM     64  C   UNL A   1      46.098  26.681  28.904  1.00  0.00     0.034 A 
BRANCH  51  65
ATOM     65  C   UNL A   1      44.177  27.494  33.878  1.00  0.00     0.023 A 
ATOM     66  C   UNL A   1      44.825  28.109  34.971  1.00  0.00     0.012 A 
ATOM     67  C   UNL A   1      44.018  26.087  33.944  1.00  0.00     0.148 A 
ATOM     68  C   UNL A   1      45.360  27.359  36.024  1.00  0.00     0.002 A 
ATOM     69  C   UNL A   1      44.486  25.354  35.028  1.00  0.00     0.091 A 
ATOM     70  F   UNL A   1      43.533  25.403  32.907  1.00  0.00    -0.205 F 
ATOM     71  C   UNL A   1      45.191  25.981  36.054  1.00  0.00     0.022 A 
BRANCH  69  72
ATOM     72  S   UNL A   1      44.257  23.572  35.116  1.00  0.00     0.127 S 
ATOM     73  O   UNL A   1      44.870  23.265  36.405  1.00  0.00    -0.237 OA
ATOM     74  O   UNL A   1      42.799  23.454  35.077  1.00  0.00    -0.237 OA
ATOM     75  O   UNL A   1      44.928  23.032  33.940  1.00  0.00    -0.744 OA
ENDBRANCH  69  72
ENDBRANCH  51  65
BRANCH  52  76
ATOM     76  C   UNL A   1      42.465  22.257  27.454  1.00  0.00     0.023 A 
ATOM     77  C   UNL A   1      41.168  21.884  27.851  1.00  0.00     0.012 A 
ATOM     78  C   UNL A   1      43.205  21.343  26.666  1.00  0.00     0.148 A 
ATOM     79  C   UNL A   1      40.623  20.649  27.473  1.00  0.00     0.002 A 
ATOM     80  C   UNL A   1      42.673  20.104  26.321  1.00  0.00     0.091 A 
ATOM     81  F   UNL A   1      44.393  21.719  26.174  1.00  0.00    -0.205 F 
ATOM     82  C   UNL A   1      41.376  19.758  26.712  1.00  0.00     0.022 A 
BRANCH  80  83
ATOM     83  S   UNL A   1      43.613  18.901  25.369  1.00  0.00     0.127 S 
ATOM     84  O   UNL A   1      44.865  18.820  26.124  1.00  0.00    -0.237 OA
ATOM     85  O   UNL A   1      42.769  17.713  25.456  1.00  0.00    -0.237 OA
ATOM     86  O   UNL A   1      43.760  19.484  24.041  1.00  0.00    -0.744 OA
ENDBRANCH  80  83
ENDBRANCH  52  76
BRANCH  64  87
ATOM     87  C   UNL A   1      46.474  27.127  27.512  1.00  0.00     0.023 A 
ATOM     88  C   UNL A   1      45.557  27.795  26.674  1.00  0.00     0.012 A 
ATOM     89  C   UNL A   1      47.821  27.051  27.117  1.00  0.00     0.148 A 
ATOM     90  C   UNL A   1      45.968  28.352  25.460  1.00  0.00     0.002 A 
ATOM     91  C   UNL A   1      48.237  27.649  25.932  1.00  0.00     0.091 A 
ATOM     92  F   UNL A   1      48.687  26.419  27.926  1.00  0.00    -0.205 F 
ATOM     93  C   UNL A   1      47.311  28.291  25.097  1.00  0.00     0.022 A 
BRANCH  91  94
ATOM     94  S   UNL A   1      49.974  27.728  25.485  1.00  0.00     0.127 S 
ATOM     95  O   UNL A   1      50.542  28.485  26.598  1.00  0.00    -0.237 OA
ATOM     96  O   UNL A   1      50.359  26.316  25.447  1.00  0.00    -0.237 OA
ATOM     97  O   UNL A   1      50.015  28.386  24.185  1.00  0.00    -0.744 OA
ENDBRANCH  91  94
ENDBRANCH  64  87
ENDBRANCH  38  39
ENDBRANCH  31  33
ENDBRANCH  30  31
ENDBRANCH  29  30
ENDBRANCH  28  29
ENDBRANCH  27  28
ENDBRANCH   1  27
TORSDOF 22
ENDMDL
