MODEL 1
REMARK VINA RESULT:      -9.3      0.000      0.000
REMARK SMILES CN(c1ccc(C(=O)OCCOCCOCCOC(=O)c2ccc(-c3c4nc(c(-c5cccc(S(=O)(=O)[O-])c5F)c5ccc([nH]5)c(-c5cccc(S(=O)(=O)[O-])c5F)c5nc(c(-c6cccc(S(=O)(=O)[O-])c6F)c6ccc3[nH]6)C=C5)C=C4)cc2)cc1[N+](=O)[O-])C1CC1
REMARK SMILES IDX 14 1 13 2 12 3 11 4 10 5 9 6 7 7 8 8 6 9 3 10 4 11 85 12
REMARK SMILES IDX 5 13 84 14 2 15 1 16 89 17 90 18 91 19 86 20 87 21 88 22
REMARK SMILES IDX 15 23 16 24 17 25 18 26 19 27 20 28 21 29 22 30 83 31 23 32
REMARK SMILES IDX 82 33 24 34 25 35 26 36 76 37 27 38 81 39 75 40 77 41 28 42
REMARK SMILES IDX 80 43 74 44 73 45 29 47 61 48 41 49 60 50 42 51 45 52 59 53
REMARK SMILES IDX 78 54 43 55 44 56 58 58 79 59 46 60 30 61 31 62 39 63 32 64
REMARK SMILES IDX 34 65 40 66 33 67 35 68 36 69 37 70 38 71 62 72 63 73 71 74
REMARK SMILES IDX 64 75 66 76 72 77 65 78 67 79 68 80 69 81 70 82 47 83 48 84
REMARK SMILES IDX 56 85 49 86 51 87 57 88 50 89 52 90 53 91 54 92 55 93
REMARK H PARENT 77 46 45 57
REMARK Flexibility Score: inf
ROOT
ATOM      1  C   UNL A   1      31.032  27.560  23.866  1.00  0.00     0.188 C 
ENDROOT
BRANCH   1   2
ATOM      2  C   UNL A   1      29.882  26.679  24.395  1.00  0.00     0.188 C 
BRANCH   2   3
ATOM      3  O   UNL A   1      30.031  26.020  25.632  1.00  0.00    -0.376 OA
BRANCH   3   4
ATOM      4  C   UNL A   1      30.790  24.829  25.742  1.00  0.00     0.202 C 
BRANCH   4   5
ATOM      5  C   UNL A   1      32.324  24.774  25.824  1.00  0.00     0.261 C 
BRANCH   5   6
ATOM      6  O   UNL A   1      33.035  24.935  24.592  1.00  0.00    -0.460 OA
BRANCH   6   7
ATOM      7  C   UNL A   1      32.606  24.139  23.582  1.00  0.00     0.338 C 
ATOM      8  O   UNL A   1      32.073  24.489  22.542  1.00  0.00    -0.246 OA
BRANCH   7   9
ATOM      9  C   UNL A   1      32.999  22.738  23.833  1.00  0.00     0.067 A 
ATOM     10  C   UNL A   1      33.566  20.022  24.438  1.00  0.00     0.116 A 
ATOM     11  C   UNL A   1      32.377  20.396  23.782  1.00  0.00     0.034 A 
ATOM     12  C   UNL A   1      34.496  21.054  24.705  1.00  0.00     0.293 A 
ATOM     13  C   UNL A   1      32.089  21.734  23.494  1.00  0.00     0.018 A 
ATOM     14  C   UNL A   1      34.223  22.405  24.409  1.00  0.00     0.103 A 
BRANCH  10  15
ATOM     15  N   UNL A   1      33.720  18.688  24.861  1.00  0.00    -0.366 N 
ATOM     16  C   UNL A   1      32.695  18.179  25.769  1.00  0.00     0.144 C 
BRANCH  15  17
ATOM     17  C   UNL A   1      34.559  17.725  24.118  1.00  0.00     0.082 C 
ATOM     18  C   UNL A   1      34.755  16.334  24.661  1.00  0.00     0.027 C 
ATOM     19  C   UNL A   1      34.008  16.533  23.377  1.00  0.00     0.027 C 
ENDBRANCH  15  17
ENDBRANCH  10  15
BRANCH  12  20
ATOM     20  N   UNL A   1      35.795  20.765  25.311  1.00  0.00     0.065 N 
ATOM     21  O   UNL A   1      36.104  21.433  26.312  1.00  0.00    -0.258 OA
ATOM     22  O   UNL A   1      36.520  19.906  24.795  1.00  0.00    -0.258 OA
ENDBRANCH  12  20
ENDBRANCH   7   9
ENDBRANCH   6   7
ENDBRANCH   5   6
ENDBRANCH   4   5
ENDBRANCH   3   4
ENDBRANCH   2   3
ENDBRANCH   1   2
BRANCH   1  23
ATOM     23  O   UNL A   1      30.860  28.955  23.735  1.00  0.00    -0.376 OA
BRANCH  23  24
ATOM     24  C   UNL A   1      31.139  29.819  24.822  1.00  0.00     0.202 C 
BRANCH  24  25
ATOM     25  C   UNL A   1      31.850  29.405  26.123  1.00  0.00     0.261 C 
BRANCH  25  26
ATOM     26  O   UNL A   1      33.175  29.893  26.332  1.00  0.00    -0.460 OA
BRANCH  26  27
ATOM     27  C   UNL A   1      33.251  31.073  26.998  1.00  0.00     0.338 C 
ATOM     28  O   UNL A   1      32.399  31.942  27.062  1.00  0.00    -0.246 OA
BRANCH  27  29
ATOM     29  C   UNL A   1      34.480  31.085  27.810  1.00  0.00     0.060 A 
ATOM     30  C   UNL A   1      35.273  32.241  27.797  1.00  0.00     0.016 A 
ATOM     31  C   UNL A   1      34.871  29.960  28.536  1.00  0.00     0.016 A 
ATOM     32  C   UNL A   1      36.477  32.266  28.497  1.00  0.00     0.010 A 
ATOM     33  C   UNL A   1      36.089  29.980  29.220  1.00  0.00     0.010 A 
ATOM     34  C   UNL A   1      36.910  31.122  29.178  1.00  0.00    -0.014 A 
BRANCH  34  35
ATOM     35  C   UNL A   1      38.291  31.069  29.712  1.00  0.00     0.031 A 
ATOM     36  C   UNL A   1      39.296  30.178  29.034  1.00  0.00     0.074 A 
ATOM     37  C   UNL A   1      38.648  31.799  30.783  1.00  0.00     0.049 A 
ATOM     38  N   UNL A   1      40.550  29.967  29.335  1.00  0.00    -0.248 NA
ATOM     39  C   UNL A   1      38.821  29.423  27.863  1.00  0.00     0.031 C 
ATOM     40  C   UNL A   1      37.764  32.692  31.530  1.00  0.00     0.029 A 
ATOM     41  N   UNL A   1      39.849  31.878  31.446  1.00  0.00    -0.354 N 
ATOM     42  C   UNL A   1      41.007  29.031  28.415  1.00  0.00     0.074 A 
ATOM     43  C   UNL A   1      39.893  28.711  27.548  1.00  0.00     0.031 C 
ATOM     44  C   UNL A   1      38.443  33.203  32.571  1.00  0.00     0.029 A 
ATOM     45  C   UNL A   1      39.800  32.657  32.576  1.00  0.00     0.049 A 
ATOM     46  H   UNL A   1      40.664  31.419  31.140  1.00  0.00     0.167 HD
ATOM     47  C   UNL A   1      42.245  28.496  28.293  1.00  0.00     0.034 A 
ATOM     48  C   UNL A   1      40.736  32.883  33.520  1.00  0.00     0.034 A 
ATOM     49  C   UNL A   1      43.354  28.825  29.146  1.00  0.00     0.049 A 
ATOM     50  C   UNL A   1      42.103  32.266  33.369  1.00  0.00     0.074 A 
ATOM     51  C   UNL A   1      44.662  28.382  29.062  1.00  0.00     0.029 A 
ATOM     52  N   UNL A   1      43.284  29.658  30.251  1.00  0.00    -0.354 N 
ATOM     53  N   UNL A   1      42.561  31.495  32.412  1.00  0.00    -0.248 NA
ATOM     54  C   UNL A   1      43.094  32.579  34.410  1.00  0.00     0.031 C 
ATOM     55  C   UNL A   1      45.375  28.921  30.139  1.00  0.00     0.029 A 
ATOM     56  C   UNL A   1      44.521  29.730  30.870  1.00  0.00     0.049 A 
ATOM     57  H   UNL A   1      42.474  30.130  30.552  1.00  0.00     0.167 HD
ATOM     58  C   UNL A   1      43.898  31.259  32.717  1.00  0.00     0.074 A 
ATOM     59  C   UNL A   1      44.182  31.989  33.936  1.00  0.00     0.031 C 
ATOM     60  C   UNL A   1      44.806  30.498  32.055  1.00  0.00     0.034 A 
BRANCH  47  61
ATOM     61  C   UNL A   1      42.467  27.503  27.183  1.00  0.00     0.023 A 
ATOM     62  C   UNL A   1      42.900  27.951  25.918  1.00  0.00     0.012 A 
ATOM     63  C   UNL A   1      42.295  26.124  27.407  1.00  0.00     0.148 A 
ATOM     64  C   UNL A   1      43.124  27.043  24.884  1.00  0.00     0.002 A 
ATOM     65  C   UNL A   1      42.566  25.222  26.385  1.00  0.00     0.091 A 
ATOM     66  F   UNL A   1      41.860  25.721  28.610  1.00  0.00    -0.205 F 
ATOM     67  C   UNL A   1      42.968  25.680  25.121  1.00  0.00     0.022 A 
BRANCH  65  68
ATOM     68  S   UNL A   1      42.472  23.444  26.615  1.00  0.00     0.127 S 
ATOM     69  O   UNL A   1      42.612  22.961  25.243  1.00  0.00    -0.237 OA
ATOM     70  O   UNL A   1      43.627  23.183  27.475  1.00  0.00    -0.237 OA
ATOM     71  O   UNL A   1      41.181  23.187  27.240  1.00  0.00    -0.744 OA
ENDBRANCH  65  68
ENDBRANCH  47  61
BRANCH  48  72
ATOM     72  C   UNL A   1      40.420  33.757  34.685  1.00  0.00     0.023 A 
ATOM     73  C   UNL A   1      40.650  35.144  34.600  1.00  0.00     0.012 A 
ATOM     74  C   UNL A   1      39.879  33.221  35.869  1.00  0.00     0.148 A 
ATOM     75  C   UNL A   1      40.375  35.977  35.686  1.00  0.00     0.002 A 
ATOM     76  C   UNL A   1      39.555  34.063  36.926  1.00  0.00     0.091 A 
ATOM     77  F   UNL A   1      39.684  31.896  35.933  1.00  0.00    -0.205 F 
ATOM     78  C   UNL A   1      39.819  35.438  36.843  1.00  0.00     0.022 A 
BRANCH  76  79
ATOM     79  S   UNL A   1      38.720  33.477  38.404  1.00  0.00     0.127 S 
ATOM     80  O   UNL A   1      39.665  32.484  38.908  1.00  0.00    -0.237 OA
ATOM     81  O   UNL A   1      38.628  34.701  39.200  1.00  0.00    -0.237 OA
ATOM     82  O   UNL A   1      37.437  32.956  37.952  1.00  0.00    -0.744 OA
ENDBRANCH  76  79
ENDBRANCH  48  72
BRANCH  60  83
ATOM     83  C   UNL A   1      46.208  30.438  32.606  1.00  0.00     0.023 A 
ATOM     84  C   UNL A   1      46.584  29.385  33.463  1.00  0.00     0.012 A 
ATOM     85  C   UNL A   1      47.174  31.389  32.218  1.00  0.00     0.148 A 
ATOM     86  C   UNL A   1      47.888  29.299  33.953  1.00  0.00     0.002 A 
ATOM     87  C   UNL A   1      48.483  31.268  32.669  1.00  0.00     0.091 A 
ATOM     88  F   UNL A   1      46.794  32.394  31.416  1.00  0.00    -0.205 F 
ATOM     89  C   UNL A   1      48.839  30.233  33.547  1.00  0.00     0.022 A 
BRANCH  87  90
ATOM     90  S   UNL A   1      49.794  32.367  32.119  1.00  0.00     0.127 S 
ATOM     91  O   UNL A   1      50.953  31.826  32.829  1.00  0.00    -0.237 OA
ATOM     92  O   UNL A   1      49.804  32.140  30.673  1.00  0.00    -0.237 OA
ATOM     93  O   UNL A   1      49.386  33.708  32.516  1.00  0.00    -0.744 OA
ENDBRANCH  87  90
ENDBRANCH  60  83
ENDBRANCH  34  35
ENDBRANCH  27  29
ENDBRANCH  26  27
ENDBRANCH  25  26
ENDBRANCH  24  25
ENDBRANCH  23  24
ENDBRANCH   1  23
TORSDOF 23
ENDMDL
MODEL 2
REMARK VINA RESULT:      -9.1      3.234      4.688
REMARK SMILES CN(c1ccc(C(=O)OCCOCCOCCOC(=O)c2ccc(-c3c4nc(c(-c5cccc(S(=O)(=O)[O-])c5F)c5ccc([nH]5)c(-c5cccc(S(=O)(=O)[O-])c5F)c5nc(c(-c6cccc(S(=O)(=O)[O-])c6F)c6ccc3[nH]6)C=C5)C=C4)cc2)cc1[N+](=O)[O-])C1CC1
REMARK SMILES IDX 14 1 13 2 12 3 11 4 10 5 9 6 7 7 8 8 6 9 3 10 4 11 85 12
REMARK SMILES IDX 5 13 84 14 2 15 1 16 89 17 90 18 91 19 86 20 87 21 88 22
REMARK SMILES IDX 15 23 16 24 17 25 18 26 19 27 20 28 21 29 22 30 83 31 23 32
REMARK SMILES IDX 82 33 24 34 25 35 26 36 76 37 27 38 81 39 75 40 77 41 28 42
REMARK SMILES IDX 80 43 74 44 73 45 29 47 61 48 41 49 60 50 42 51 45 52 59 53
REMARK SMILES IDX 78 54 43 55 44 56 58 58 79 59 46 60 30 61 31 62 39 63 32 64
REMARK SMILES IDX 34 65 40 66 33 67 35 68 36 69 37 70 38 71 62 72 63 73 71 74
REMARK SMILES IDX 64 75 66 76 72 77 65 78 67 79 68 80 69 81 70 82 47 83 48 84
REMARK SMILES IDX 56 85 49 86 51 87 57 88 50 89 52 90 53 91 54 92 55 93
REMARK H PARENT 77 46 45 57
REMARK Flexibility Score: inf
ROOT
ATOM      1  C   UNL A   1      32.488  30.360  25.869  1.00  0.00     0.188 C 
ENDROOT
BRANCH   1   2
ATOM      2  C   UNL A   1      31.358  29.424  25.395  1.00  0.00     0.188 C 
BRANCH   2   3
ATOM      3  O   UNL A   1      31.115  29.282  24.013  1.00  0.00    -0.376 OA
BRANCH   3   4
ATOM      4  C   UNL A   1      30.192  28.327  23.525  1.00  0.00     0.202 C 
BRANCH   4   5
ATOM      5  C   UNL A   1      30.376  26.804  23.621  1.00  0.00     0.261 C 
BRANCH   5   6
ATOM      6  O   UNL A   1      29.700  26.145  24.697  1.00  0.00    -0.460 OA
BRANCH   6   7
ATOM      7  C   UNL A   1      30.486  25.839  25.757  1.00  0.00     0.338 C 
ATOM      8  O   UNL A   1      30.581  26.453  26.807  1.00  0.00    -0.246 OA
BRANCH   7   9
ATOM      9  C   UNL A   1      31.150  24.538  25.544  1.00  0.00     0.067 A 
ATOM     10  C   UNL A   1      32.599  22.113  25.253  1.00  0.00     0.116 A 
ATOM     11  C   UNL A   1      32.259  22.618  26.523  1.00  0.00     0.034 A 
ATOM     12  C   UNL A   1      32.114  22.829  24.134  1.00  0.00     0.293 A 
ATOM     13  C   UNL A   1      31.556  23.818  26.670  1.00  0.00     0.018 A 
ATOM     14  C   UNL A   1      31.394  24.033  24.268  1.00  0.00     0.103 A 
BRANCH  10  15
ATOM     15  N   UNL A   1      33.459  21.000  25.170  1.00  0.00    -0.366 N 
ATOM     16  C   UNL A   1      32.827  19.689  25.299  1.00  0.00     0.144 C 
BRANCH  15  17
ATOM     17  C   UNL A   1      34.796  21.092  24.549  1.00  0.00     0.082 C 
ATOM     18  C   UNL A   1      35.620  22.339  24.736  1.00  0.00     0.027 C 
ATOM     19  C   UNL A   1      36.085  21.043  25.330  1.00  0.00     0.027 C 
ENDBRANCH  15  17
ENDBRANCH  10  15
BRANCH  12  20
ATOM     20  N   UNL A   1      32.343  22.350  22.771  1.00  0.00     0.065 N 
ATOM     21  O   UNL A   1      31.747  21.312  22.437  1.00  0.00    -0.258 OA
ATOM     22  O   UNL A   1      33.122  22.974  22.039  1.00  0.00    -0.258 OA
ENDBRANCH  12  20
ENDBRANCH   7   9
ENDBRANCH   6   7
ENDBRANCH   5   6
ENDBRANCH   4   5
ENDBRANCH   3   4
ENDBRANCH   2   3
ENDBRANCH   1   2
BRANCH   1  23
ATOM     23  O   UNL A   1      32.365  31.067  27.085  1.00  0.00    -0.376 OA
BRANCH  23  24
ATOM     24  C   UNL A   1      33.291  32.085  27.421  1.00  0.00     0.202 C 
BRANCH  24  25
ATOM     25  C   UNL A   1      34.714  31.846  27.957  1.00  0.00     0.261 C 
BRANCH  25  26
ATOM     26  O   UNL A   1      34.919  30.709  28.796  1.00  0.00    -0.460 OA
BRANCH  26  27
ATOM     27  C   UNL A   1      35.492  29.643  28.185  1.00  0.00     0.338 C 
ATOM     28  O   UNL A   1      35.017  28.957  27.296  1.00  0.00    -0.246 OA
BRANCH  27  29
ATOM     29  C   UNL A   1      36.891  29.529  28.634  1.00  0.00     0.060 A 
ATOM     30  C   UNL A   1      37.905  29.923  27.750  1.00  0.00     0.016 A 
ATOM     31  C   UNL A   1      37.201  29.001  29.887  1.00  0.00     0.016 A 
ATOM     32  C   UNL A   1      39.241  29.766  28.112  1.00  0.00     0.010 A 
ATOM     33  C   UNL A   1      38.541  28.826  30.238  1.00  0.00     0.010 A 
ATOM     34  C   UNL A   1      39.566  29.179  29.341  1.00  0.00    -0.014 A 
BRANCH  34  35
ATOM     35  C   UNL A   1      40.969  28.792  29.617  1.00  0.00     0.031 A 
ATOM     36  C   UNL A   1      41.572  27.653  28.842  1.00  0.00     0.074 A 
ATOM     37  C   UNL A   1      41.696  29.440  30.544  1.00  0.00     0.049 A 
ATOM     38  N   UNL A   1      42.770  27.137  28.926  1.00  0.00    -0.248 NA
ATOM     39  C   UNL A   1      40.706  27.008  27.840  1.00  0.00     0.031 C 
ATOM     40  C   UNL A   1      41.222  30.553  31.364  1.00  0.00     0.029 A 
ATOM     41  N   UNL A   1      42.985  29.230  30.968  1.00  0.00    -0.354 N 
ATOM     42  C   UNL A   1      42.794  26.087  28.016  1.00  0.00     0.074 A 
ATOM     43  C   UNL A   1      41.488  26.036  27.394  1.00  0.00     0.031 C 
ATOM     44  C   UNL A   1      42.196  30.905  32.221  1.00  0.00     0.029 A 
ATOM     45  C   UNL A   1      43.352  30.031  32.023  1.00  0.00     0.049 A 
ATOM     46  H   UNL A   1      43.588  28.569  30.558  1.00  0.00     0.167 HD
ATOM     47  C   UNL A   1      43.814  25.250  27.714  1.00  0.00     0.034 A 
ATOM     48  C   UNL A   1      44.481  30.039  32.760  1.00  0.00     0.034 A 
ATOM     49  C   UNL A   1      45.116  25.310  28.323  1.00  0.00     0.049 A 
ATOM     50  C   UNL A   1      45.598  29.089  32.413  1.00  0.00     0.074 A 
ATOM     51  C   UNL A   1      46.232  24.546  28.038  1.00  0.00     0.029 A 
ATOM     52  N   UNL A   1      45.470  26.169  29.351  1.00  0.00    -0.354 N 
ATOM     53  N   UNL A   1      45.656  28.196  31.453  1.00  0.00    -0.248 NA
ATOM     54  C   UNL A   1      46.820  29.171  33.227  1.00  0.00     0.031 C 
ATOM     55  C   UNL A   1      47.253  24.918  28.920  1.00  0.00     0.029 A 
ATOM     56  C   UNL A   1      46.783  25.941  29.727  1.00  0.00     0.049 A 
ATOM     57  H   UNL A   1      44.875  26.841  29.755  1.00  0.00     0.167 HD
ATOM     58  C   UNL A   1      46.928  27.636  31.528  1.00  0.00     0.074 A 
ATOM     59  C   UNL A   1      47.616  28.307  32.612  1.00  0.00     0.031 C 
ATOM     60  C   UNL A   1      47.474  26.648  30.775  1.00  0.00     0.034 A 
BRANCH  47  61
ATOM     61  C   UNL A   1      43.564  24.198  26.665  1.00  0.00     0.023 A 
ATOM     62  C   UNL A   1      44.084  24.367  25.366  1.00  0.00     0.012 A 
ATOM     63  C   UNL A   1      42.858  23.023  26.981  1.00  0.00     0.148 A 
ATOM     64  C   UNL A   1      43.875  23.396  24.387  1.00  0.00     0.002 A 
ATOM     65  C   UNL A   1      42.693  22.039  26.013  1.00  0.00     0.091 A 
ATOM     66  F   UNL A   1      42.351  22.892  28.215  1.00  0.00    -0.205 F 
ATOM     67  C   UNL A   1      43.190  22.229  24.714  1.00  0.00     0.022 A 
BRANCH  65  68
ATOM     68  S   UNL A   1      41.895  20.467  26.358  1.00  0.00     0.127 S 
ATOM     69  O   UNL A   1      40.482  20.822  26.243  1.00  0.00    -0.237 OA
ATOM     70  O   UNL A   1      42.401  19.622  25.276  1.00  0.00    -0.237 OA
ATOM     71  O   UNL A   1      42.336  20.077  27.690  1.00  0.00    -0.744 OA
ENDBRANCH  65  68
ENDBRANCH  47  61
BRANCH  48  72
ATOM     72  C   UNL A   1      44.623  31.002  33.889  1.00  0.00     0.023 A 
ATOM     73  C   UNL A   1      45.118  32.297  33.644  1.00  0.00     0.012 A 
ATOM     74  C   UNL A   1      44.256  30.642  35.200  1.00  0.00     0.148 A 
ATOM     75  C   UNL A   1      45.273  33.207  34.691  1.00  0.00     0.002 A 
ATOM     76  C   UNL A   1      44.360  31.571  36.228  1.00  0.00     0.091 A 
ATOM     77  F   UNL A   1      43.803  29.398  35.412  1.00  0.00    -0.205 F 
ATOM     78  C   UNL A   1      44.885  32.848  35.979  1.00  0.00     0.022 A 
BRANCH  76  79
ATOM     79  S   UNL A   1      43.768  31.239  37.890  1.00  0.00     0.127 S 
ATOM     80  O   UNL A   1      44.124  32.473  38.586  1.00  0.00    -0.237 OA
ATOM     81  O   UNL A   1      42.334  31.051  37.664  1.00  0.00    -0.237 OA
ATOM     82  O   UNL A   1      44.470  30.041  38.327  1.00  0.00    -0.744 OA
ENDBRANCH  76  79
ENDBRANCH  48  72
BRANCH  60  83
ATOM     83  C   UNL A   1      48.899  26.249  31.065  1.00  0.00     0.023 A 
ATOM     84  C   UNL A   1      49.959  26.871  30.376  1.00  0.00     0.012 A 
ATOM     85  C   UNL A   1      49.190  25.307  32.072  1.00  0.00     0.148 A 
ATOM     86  C   UNL A   1      51.283  26.535  30.659  1.00  0.00     0.002 A 
ATOM     87  C   UNL A   1      50.513  25.015  32.383  1.00  0.00     0.091 A 
ATOM     88  F   UNL A   1      48.169  24.712  32.706  1.00  0.00    -0.205 F 
ATOM     89  C   UNL A   1      51.560  25.617  31.669  1.00  0.00     0.022 A 
BRANCH  87  90
ATOM     90  S   UNL A   1      50.963  23.920  33.735  1.00  0.00     0.127 S 
ATOM     91  O   UNL A   1      50.228  24.510  34.853  1.00  0.00    -0.237 OA
ATOM     92  O   UNL A   1      50.443  22.630  33.277  1.00  0.00    -0.237 OA
ATOM     93  O   UNL A   1      52.415  23.983  33.837  1.00  0.00    -0.744 OA
ENDBRANCH  87  90
ENDBRANCH  60  83
ENDBRANCH  34  35
ENDBRANCH  27  29
ENDBRANCH  26  27
ENDBRANCH  25  26
ENDBRANCH  24  25
ENDBRANCH  23  24
ENDBRANCH   1  23
TORSDOF 23
ENDMDL
MODEL 3
REMARK VINA RESULT:      -8.4      7.603     11.851
REMARK SMILES CN(c1ccc(C(=O)OCCOCCOCCOC(=O)c2ccc(-c3c4nc(c(-c5cccc(S(=O)(=O)[O-])c5F)c5ccc([nH]5)c(-c5cccc(S(=O)(=O)[O-])c5F)c5nc(c(-c6cccc(S(=O)(=O)[O-])c6F)c6ccc3[nH]6)C=C5)C=C4)cc2)cc1[N+](=O)[O-])C1CC1
REMARK SMILES IDX 14 1 13 2 12 3 11 4 10 5 9 6 7 7 8 8 6 9 3 10 4 11 85 12
REMARK SMILES IDX 5 13 84 14 2 15 1 16 89 17 90 18 91 19 86 20 87 21 88 22
REMARK SMILES IDX 15 23 16 24 17 25 18 26 19 27 20 28 21 29 22 30 83 31 23 32
REMARK SMILES IDX 82 33 24 34 25 35 26 36 76 37 27 38 81 39 75 40 77 41 28 42
REMARK SMILES IDX 80 43 74 44 73 45 29 47 61 48 41 49 60 50 42 51 45 52 59 53
REMARK SMILES IDX 78 54 43 55 44 56 58 58 79 59 46 60 30 61 31 62 39 63 32 64
REMARK SMILES IDX 34 65 40 66 33 67 35 68 36 69 37 70 38 71 62 72 63 73 71 74
REMARK SMILES IDX 64 75 66 76 72 77 65 78 67 79 68 80 69 81 70 82 47 83 48 84
REMARK SMILES IDX 56 85 49 86 51 87 57 88 50 89 52 90 53 91 54 92 55 93
REMARK H PARENT 77 46 45 57
REMARK Flexibility Score: inf
ROOT
ATOM      1  C   UNL A   1      35.167  34.296  34.352  1.00  0.00     0.188 C 
ENDROOT
BRANCH   1   2
ATOM      2  C   UNL A   1      34.358  33.831  33.125  1.00  0.00     0.188 C 
BRANCH   2   3
ATOM      3  O   UNL A   1      33.310  34.640  32.642  1.00  0.00    -0.376 OA
BRANCH   3   4
ATOM      4  C   UNL A   1      33.502  35.512  31.543  1.00  0.00     0.202 C 
BRANCH   4   5
ATOM      5  C   UNL A   1      33.336  35.111  30.069  1.00  0.00     0.261 C 
BRANCH   5   6
ATOM      6  O   UNL A   1      33.742  33.784  29.717  1.00  0.00    -0.460 OA
BRANCH   6   7
ATOM      7  C   UNL A   1      34.744  33.720  28.808  1.00  0.00     0.338 C 
ATOM      8  O   UNL A   1      34.714  34.099  27.649  1.00  0.00    -0.246 OA
BRANCH   7   9
ATOM      9  C   UNL A   1      35.985  33.240  29.447  1.00  0.00     0.067 A 
ATOM     10  C   UNL A   1      38.449  32.269  30.470  1.00  0.00     0.116 A 
ATOM     11  C   UNL A   1      38.405  33.338  29.556  1.00  0.00     0.034 A 
ATOM     12  C   UNL A   1      37.207  31.759  30.914  1.00  0.00     0.293 A 
ATOM     13  C   UNL A   1      37.193  33.810  29.041  1.00  0.00     0.018 A 
ATOM     14  C   UNL A   1      35.979  32.234  30.412  1.00  0.00     0.103 A 
BRANCH  10  15
ATOM     15  N   UNL A   1      39.700  31.719  30.816  1.00  0.00    -0.366 N 
ATOM     16  C   UNL A   1      40.236  30.716  29.900  1.00  0.00     0.144 C 
BRANCH  15  17
ATOM     17  C   UNL A   1      40.620  32.400  31.750  1.00  0.00     0.082 C 
ATOM     18  C   UNL A   1      40.062  33.290  32.829  1.00  0.00     0.027 C 
ATOM     19  C   UNL A   1      40.768  32.022  33.202  1.00  0.00     0.027 C 
ENDBRANCH  15  17
ENDBRANCH  10  15
BRANCH  12  20
ATOM     20  N   UNL A   1      37.138  30.701  31.922  1.00  0.00     0.065 N 
ATOM     21  O   UNL A   1      36.883  31.055  33.085  1.00  0.00    -0.258 OA
ATOM     22  O   UNL A   1      37.356  29.532  31.580  1.00  0.00    -0.258 OA
ENDBRANCH  12  20
ENDBRANCH   7   9
ENDBRANCH   6   7
ENDBRANCH   5   6
ENDBRANCH   4   5
ENDBRANCH   3   4
ENDBRANCH   2   3
ENDBRANCH   1   2
BRANCH   1  23
ATOM     23  O   UNL A   1      35.827  33.355  35.170  1.00  0.00    -0.376 OA
BRANCH  23  24
ATOM     24  C   UNL A   1      37.159  33.582  35.597  1.00  0.00     0.202 C 
BRANCH  24  25
ATOM     25  C   UNL A   1      37.733  33.167  36.963  1.00  0.00     0.261 C 
BRANCH  25  26
ATOM     26  O   UNL A   1      38.984  33.737  37.352  1.00  0.00    -0.460 OA
BRANCH  26  27
ATOM     27  C   UNL A   1      40.077  33.127  36.829  1.00  0.00     0.338 C 
ATOM     28  O   UNL A   1      40.249  31.932  36.663  1.00  0.00    -0.246 OA
BRANCH  27  29
ATOM     29  C   UNL A   1      40.992  34.156  36.303  1.00  0.00     0.060 A 
ATOM     30  C   UNL A   1      40.466  35.418  35.998  1.00  0.00     0.016 A 
ATOM     31  C   UNL A   1      42.336  33.867  36.069  1.00  0.00     0.016 A 
ATOM     32  C   UNL A   1      41.285  36.395  35.435  1.00  0.00     0.010 A 
ATOM     33  C   UNL A   1      43.150  34.841  35.484  1.00  0.00     0.010 A 
ATOM     34  C   UNL A   1      42.620  36.097  35.138  1.00  0.00    -0.014 A 
BRANCH  34  35
ATOM     35  C   UNL A   1      43.415  37.045  34.322  1.00  0.00     0.031 A 
ATOM     36  C   UNL A   1      43.534  36.803  32.842  1.00  0.00     0.074 A 
ATOM     37  C   UNL A   1      44.024  38.102  34.886  1.00  0.00     0.049 A 
ATOM     38  N   UNL A   1      44.185  37.490  31.941  1.00  0.00    -0.248 NA
ATOM     39  C   UNL A   1      42.826  35.627  32.309  1.00  0.00     0.031 C 
ATOM     40  C   UNL A   1      43.989  38.438  36.308  1.00  0.00     0.029 A 
ATOM     41  N   UNL A   1      44.818  39.074  34.327  1.00  0.00    -0.354 N 
ATOM     42  C   UNL A   1      43.996  36.815  30.742  1.00  0.00     0.074 A 
ATOM     43  C   UNL A   1      43.174  35.660  31.030  1.00  0.00     0.031 C 
ATOM     44  C   UNL A   1      44.759  39.520  36.517  1.00  0.00     0.029 A 
ATOM     45  C   UNL A   1      45.356  39.939  35.249  1.00  0.00     0.049 A 
ATOM     46  H   UNL A   1      44.985  39.143  33.360  1.00  0.00     0.167 HD
ATOM     47  C   UNL A   1      44.454  37.135  29.508  1.00  0.00     0.034 A 
ATOM     48  C   UNL A   1      46.248  40.937  35.090  1.00  0.00     0.034 A 
ATOM     49  C   UNL A   1      45.260  38.290  29.219  1.00  0.00     0.049 A 
ATOM     50  C   UNL A   1      46.753  41.265  33.708  1.00  0.00     0.074 A 
ATOM     51  C   UNL A   1      45.719  38.731  27.991  1.00  0.00     0.029 A 
ATOM     52  N   UNL A   1      45.744  39.175  30.169  1.00  0.00    -0.354 N 
ATOM     53  N   UNL A   1      46.451  40.703  32.562  1.00  0.00    -0.248 NA
ATOM     54  C   UNL A   1      47.694  42.390  33.593  1.00  0.00     0.031 C 
ATOM     55  C   UNL A   1      46.512  39.864  28.203  1.00  0.00     0.029 A 
ATOM     56  C   UNL A   1      46.514  40.151  29.559  1.00  0.00     0.049 A 
ATOM     57  H   UNL A   1      45.567  39.118  31.136  1.00  0.00     0.167 HD
ATOM     58  C   UNL A   1      47.138  41.424  31.590  1.00  0.00     0.074 A 
ATOM     59  C   UNL A   1      47.852  42.479  32.280  1.00  0.00     0.031 C 
ATOM     60  C   UNL A   1      47.181  41.225  30.248  1.00  0.00     0.034 A 
BRANCH  47  61
ATOM     61  C   UNL A   1      44.081  36.222  28.369  1.00  0.00     0.023 A 
ATOM     62  C   UNL A   1      42.917  36.479  27.617  1.00  0.00     0.012 A 
ATOM     63  C   UNL A   1      44.908  35.140  28.015  1.00  0.00     0.148 A 
ATOM     64  C   UNL A   1      42.564  35.653  26.551  1.00  0.00     0.002 A 
ATOM     65  C   UNL A   1      44.575  34.348  26.923  1.00  0.00     0.091 A 
ATOM     66  F   UNL A   1      45.997  34.897  28.759  1.00  0.00    -0.205 F 
ATOM     67  C   UNL A   1      43.399  34.595  26.198  1.00  0.00     0.022 A 
BRANCH  65  68
ATOM     68  S   UNL A   1      45.625  33.013  26.340  1.00  0.00     0.127 S 
ATOM     69  O   UNL A   1      44.844  32.490  25.221  1.00  0.00    -0.237 OA
ATOM     70  O   UNL A   1      46.843  33.726  25.953  1.00  0.00    -0.237 OA
ATOM     71  O   UNL A   1      45.786  32.106  27.469  1.00  0.00    -0.744 OA
ENDBRANCH  65  68
ENDBRANCH  47  61
BRANCH  48  72
ATOM     72  C   UNL A   1      46.704  41.720  36.273  1.00  0.00     0.023 A 
ATOM     73  C   UNL A   1      46.012  42.887  36.648  1.00  0.00     0.012 A 
ATOM     74  C   UNL A   1      47.812  41.302  37.036  1.00  0.00     0.148 A 
ATOM     75  C   UNL A   1      46.433  43.642  37.744  1.00  0.00     0.002 A 
ATOM     76  C   UNL A   1      48.192  42.027  38.159  1.00  0.00     0.091 A 
ATOM     77  F   UNL A   1      48.466  40.198  36.651  1.00  0.00    -0.205 F 
ATOM     78  C   UNL A   1      47.516  43.207  38.504  1.00  0.00     0.022 A 
BRANCH  76  79
ATOM     79  S   UNL A   1      49.492  41.475  39.268  1.00  0.00     0.127 S 
ATOM     80  O   UNL A   1      49.016  40.148  39.649  1.00  0.00    -0.237 OA
ATOM     81  O   UNL A   1      50.660  41.481  38.386  1.00  0.00    -0.237 OA
ATOM     82  O   UNL A   1      49.543  42.461  40.338  1.00  0.00    -0.744 OA
ENDBRANCH  76  79
ENDBRANCH  48  72
BRANCH  60  83
ATOM     83  C   UNL A   1      47.999  42.185  29.422  1.00  0.00     0.023 A 
ATOM     84  C   UNL A   1      49.389  41.992  29.287  1.00  0.00     0.012 A 
ATOM     85  C   UNL A   1      47.378  43.238  28.720  1.00  0.00     0.148 A 
ATOM     86  C   UNL A   1      50.152  42.853  28.498  1.00  0.00     0.002 A 
ATOM     87  C   UNL A   1      48.137  44.061  27.896  1.00  0.00     0.091 A 
ATOM     88  F   UNL A   1      46.059  43.417  28.873  1.00  0.00    -0.205 F 
ATOM     89  C   UNL A   1      49.525  43.879  27.794  1.00  0.00     0.022 A 
BRANCH  87  90
ATOM     90  S   UNL A   1      47.399  45.344  26.876  1.00  0.00     0.127 S 
ATOM     91  O   UNL A   1      46.875  46.262  27.887  1.00  0.00    -0.237 OA
ATOM     92  O   UNL A   1      48.552  45.851  26.131  1.00  0.00    -0.237 OA
ATOM     93  O   UNL A   1      46.397  44.677  26.056  1.00  0.00    -0.744 OA
ENDBRANCH  87  90
ENDBRANCH  60  83
ENDBRANCH  34  35
ENDBRANCH  27  29
ENDBRANCH  26  27
ENDBRANCH  25  26
ENDBRANCH  24  25
ENDBRANCH  23  24
ENDBRANCH   1  23
TORSDOF 23
ENDMDL
