MODEL 1
REMARK VINA RESULT:     -11.7      0.000      0.000
REMARK SMILES Cc1cnn(C2(C(=O)OCCOCCOCCOC(=O)c3ccc(-c4c5nc(c(-c6cccc(S(=O)(=O)[O-])c6F)c6ccc([nH]6)c(-c6cccc(S(=O)(=O)[O-])c6F)c6nc(c(-c7cccc(S(=O)(=O)[O-])c7F)c7ccc4[nH]7)C=C6)C=C5)cc3)CCN(C(=O)c3cc4ccccc4[nH]3)CC2)c1
REMARK SMILES IDX 14 1 13 2 12 3 11 4 10 5 9 6 7 7 8 8 6 9 84 10 99 11 85 12
REMARK SMILES IDX 98 13 86 14 87 15 88 16 5 17 1 18 2 19 3 20 100 21 4 22
REMARK SMILES IDX 89 23 90 24 97 25 91 26 96 27 92 29 95 30 93 31 94 32 15 33
REMARK SMILES IDX 16 34 17 35 18 36 19 37 20 38 21 39 22 40 83 41 23 42 82 43
REMARK SMILES IDX 24 44 25 45 26 46 76 47 27 48 81 49 75 50 77 51 28 52 80 53
REMARK SMILES IDX 74 54 73 55 29 57 61 58 41 59 60 60 42 61 45 62 59 63 78 64
REMARK SMILES IDX 43 65 44 66 58 68 79 69 46 70 30 71 31 72 39 73 32 74 34 75
REMARK SMILES IDX 40 76 33 77 35 78 36 79 37 80 38 81 62 82 63 83 71 84 64 85
REMARK SMILES IDX 66 86 72 87 65 88 67 89 68 90 69 91 70 92 47 93 48 94 56 95
REMARK SMILES IDX 49 96 51 97 57 98 50 99 52 100 53 101 54 102 55 103
REMARK H PARENT 97 28 77 56 45 67
REMARK Flexibility Score: inf
ROOT
ATOM      1  C   UNL A   1      34.578  32.056  27.683  1.00  0.00     0.188 C 
ENDROOT
BRANCH   1   2
ATOM      2  C   UNL A   1      35.091  30.630  27.884  1.00  0.00     0.188 C 
BRANCH   2   3
ATOM      3  O   UNL A   1      34.644  29.731  26.906  1.00  0.00    -0.376 OA
BRANCH   3   4
ATOM      4  C   UNL A   1      33.608  28.835  27.273  1.00  0.00     0.202 C 
BRANCH   4   5
ATOM      5  C   UNL A   1      32.096  29.083  27.021  1.00  0.00     0.261 C 
BRANCH   5   6
ATOM      6  O   UNL A   1      31.540  28.705  25.745  1.00  0.00    -0.461 OA
BRANCH   6   7
ATOM      7  C   UNL A   1      31.074  27.431  25.633  1.00  0.00     0.334 C 
ATOM      8  O   UNL A   1      30.829  26.732  26.619  1.00  0.00    -0.249 OA
BRANCH   7   9
ATOM      9  C   UNL A   1      30.901  26.904  24.164  1.00  0.00     0.163 C 
ATOM     10  C   UNL A   1      32.176  27.054  23.274  1.00  0.00     0.064 C 
ATOM     11  C   UNL A   1      30.568  25.403  24.410  1.00  0.00     0.064 C 
ATOM     12  C   UNL A   1      32.380  26.001  22.193  1.00  0.00     0.123 C 
ATOM     13  C   UNL A   1      30.812  24.476  23.235  1.00  0.00     0.123 C 
ATOM     14  N   UNL A   1      32.162  24.684  22.731  1.00  0.00    -0.337 N 
ATOM     15  C   UNL A   1      33.276  23.888  22.995  1.00  0.00     0.270 C 
ATOM     16  O   UNL A   1      34.423  24.314  22.885  1.00  0.00    -0.267 OA
BRANCH   9  17
ATOM     17  N   UNL A   1      29.757  27.614  23.544  1.00  0.00    -0.255 N 
ATOM     18  C   UNL A   1      27.930  30.269  21.786  1.00  0.00     0.048 C 
ATOM     19  C   UNL A   1      28.457  29.105  22.538  1.00  0.00    -0.013 A 
ATOM     20  C   UNL A   1      27.716  28.122  23.217  1.00  0.00     0.138 A 
ATOM     21  C   UNL A   1      29.770  28.735  22.749  1.00  0.00     0.113 A 
ATOM     22  N   UNL A   1      28.493  27.222  23.815  1.00  0.00    -0.180 NA
ENDBRANCH   9  17
BRANCH  15  23
ATOM     23  C   UNL A   1      33.041  22.550  23.463  1.00  0.00     0.105 A 
ATOM     24  C   UNL A   1      33.167  21.994  24.722  1.00  0.00     0.042 A 
ATOM     25  N   UNL A   1      32.550  21.563  22.641  1.00  0.00    -0.351 N 
ATOM     26  C   UNL A   1      32.915  20.605  24.615  1.00  0.00     0.000 A 
ATOM     27  C   UNL A   1      32.541  20.355  23.295  1.00  0.00     0.046 A 
ATOM     28  H   UNL A   1      32.246  21.703  21.715  1.00  0.00     0.167 HD
ATOM     29  C   UNL A   1      32.982  19.533  25.521  1.00  0.00     0.010 A 
ATOM     30  C   UNL A   1      32.232  19.075  22.828  1.00  0.00     0.026 A 
ATOM     31  C   UNL A   1      32.685  18.245  25.071  1.00  0.00     0.001 A 
ATOM     32  C   UNL A   1      32.317  18.021  23.744  1.00  0.00     0.002 A 
ENDBRANCH  15  23
ENDBRANCH   7   9
ENDBRANCH   6   7
ENDBRANCH   5   6
ENDBRANCH   4   5
ENDBRANCH   3   4
ENDBRANCH   2   3
ENDBRANCH   1   2
BRANCH   1  33
ATOM     33  O   UNL A   1      35.410  33.213  27.653  1.00  0.00    -0.376 OA
BRANCH  33  34
ATOM     34  C   UNL A   1      35.266  34.316  28.545  1.00  0.00     0.202 C 
BRANCH  34  35
ATOM     35  C   UNL A   1      33.908  34.835  29.015  1.00  0.00     0.261 C 
BRANCH  35  36
ATOM     36  O   UNL A   1      33.417  34.148  30.133  1.00  0.00    -0.460 OA
BRANCH  36  37
ATOM     37  C   UNL A   1      33.402  34.899  31.249  1.00  0.00     0.338 C 
ATOM     38  O   UNL A   1      32.688  35.862  31.500  1.00  0.00    -0.246 OA
BRANCH  37  39
ATOM     39  C   UNL A   1      34.394  34.334  32.161  1.00  0.00     0.060 A 
ATOM     40  C   UNL A   1      35.338  35.225  32.669  1.00  0.00     0.016 A 
ATOM     41  C   UNL A   1      34.541  32.941  32.213  1.00  0.00     0.016 A 
ATOM     42  C   UNL A   1      36.597  34.736  32.872  1.00  0.00     0.010 A 
ATOM     43  C   UNL A   1      35.803  32.459  32.379  1.00  0.00     0.010 A 
ATOM     44  C   UNL A   1      36.817  33.391  32.569  1.00  0.00    -0.014 A 
BRANCH  44  45
ATOM     45  C   UNL A   1      38.178  32.965  32.405  1.00  0.00     0.031 A 
ATOM     46  C   UNL A   1      38.910  32.991  33.676  1.00  0.00     0.074 A 
ATOM     47  C   UNL A   1      38.614  32.532  31.209  1.00  0.00     0.049 A 
ATOM     48  N   UNL A   1      39.818  33.832  34.040  1.00  0.00    -0.248 NA
ATOM     49  C   UNL A   1      38.398  32.139  34.762  1.00  0.00     0.031 C 
ATOM     50  C   UNL A   1      37.819  32.221  30.013  1.00  0.00     0.029 A 
ATOM     51  N   UNL A   1      39.858  32.119  30.864  1.00  0.00    -0.354 N 
ATOM     52  C   UNL A   1      40.184  33.407  35.310  1.00  0.00     0.074 A 
ATOM     53  C   UNL A   1      39.106  32.593  35.795  1.00  0.00     0.031 C 
ATOM     54  C   UNL A   1      38.548  31.421  29.202  1.00  0.00     0.029 A 
ATOM     55  C   UNL A   1      39.878  31.269  29.765  1.00  0.00     0.049 A 
ATOM     56  H   UNL A   1      40.670  32.395  31.347  1.00  0.00     0.167 HD
ATOM     57  C   UNL A   1      41.486  33.447  35.697  1.00  0.00     0.034 A 
ATOM     58  C   UNL A   1      40.882  30.414  29.446  1.00  0.00     0.034 A 
ATOM     59  C   UNL A   1      42.253  34.341  34.863  1.00  0.00     0.049 A 
ATOM     60  C   UNL A   1      42.092  30.866  30.180  1.00  0.00     0.074 A 
ATOM     61  C   UNL A   1      42.148  35.673  34.511  1.00  0.00     0.029 A 
ATOM     62  N   UNL A   1      43.082  33.764  33.931  1.00  0.00    -0.354 N 
ATOM     63  N   UNL A   1      42.701  31.996  29.943  1.00  0.00    -0.248 NA
ATOM     64  C   UNL A   1      42.344  30.285  31.490  1.00  0.00     0.031 C 
ATOM     65  C   UNL A   1      42.542  35.725  33.141  1.00  0.00     0.029 A 
ATOM     66  C   UNL A   1      42.925  34.441  32.751  1.00  0.00     0.049 A 
ATOM     67  H   UNL A   1      43.683  33.000  34.084  1.00  0.00     0.167 HD
ATOM     68  C   UNL A   1      43.023  32.486  31.203  1.00  0.00     0.074 A 
ATOM     69  C   UNL A   1      42.876  31.345  32.105  1.00  0.00     0.031 C 
ATOM     70  C   UNL A   1      43.076  33.831  31.447  1.00  0.00     0.034 A 
BRANCH  57  71
ATOM     71  C   UNL A   1      42.142  32.374  36.534  1.00  0.00     0.023 A 
ATOM     72  C   UNL A   1      42.941  32.811  37.610  1.00  0.00     0.012 A 
ATOM     73  C   UNL A   1      42.245  31.007  36.175  1.00  0.00     0.148 A 
ATOM     74  C   UNL A   1      43.839  31.951  38.250  1.00  0.00     0.002 A 
ATOM     75  C   UNL A   1      43.072  30.137  36.872  1.00  0.00     0.091 A 
ATOM     76  F   UNL A   1      41.660  30.546  35.069  1.00  0.00    -0.205 F 
ATOM     77  C   UNL A   1      43.899  30.611  37.888  1.00  0.00     0.022 A 
BRANCH  75  78
ATOM     78  S   UNL A   1      43.141  28.386  36.468  1.00  0.00     0.127 S 
ATOM     79  O   UNL A   1      41.773  27.967  36.756  1.00  0.00    -0.237 OA
ATOM     80  O   UNL A   1      43.495  28.422  35.049  1.00  0.00    -0.237 OA
ATOM     81  O   UNL A   1      44.178  27.825  37.325  1.00  0.00    -0.744 OA
ENDBRANCH  75  78
ENDBRANCH  57  71
BRANCH  58  82
ATOM     82  C   UNL A   1      40.791  29.063  28.840  1.00  0.00     0.023 A 
ATOM     83  C   UNL A   1      39.694  28.234  29.154  1.00  0.00     0.012 A 
ATOM     84  C   UNL A   1      41.619  28.682  27.758  1.00  0.00     0.148 A 
ATOM     85  C   UNL A   1      39.419  27.084  28.403  1.00  0.00     0.002 A 
ATOM     86  C   UNL A   1      41.352  27.529  27.027  1.00  0.00     0.091 A 
ATOM     87  F   UNL A   1      42.611  29.499  27.384  1.00  0.00    -0.205 F 
ATOM     88  C   UNL A   1      40.244  26.734  27.338  1.00  0.00     0.022 A 
BRANCH  86  89
ATOM     89  S   UNL A   1      42.371  27.024  25.633  1.00  0.00     0.127 S 
ATOM     90  O   UNL A   1      41.690  25.807  25.186  1.00  0.00    -0.237 OA
ATOM     91  O   UNL A   1      42.240  28.164  24.732  1.00  0.00    -0.237 OA
ATOM     92  O   UNL A   1      43.704  26.795  26.176  1.00  0.00    -0.744 OA
ENDBRANCH  86  89
ENDBRANCH  58  82
BRANCH  70  93
ATOM     93  C   UNL A   1      43.032  34.772  30.268  1.00  0.00     0.023 A 
ATOM     94  C   UNL A   1      41.845  35.034  29.550  1.00  0.00     0.012 A 
ATOM     95  C   UNL A   1      44.170  35.552  30.004  1.00  0.00     0.148 A 
ATOM     96  C   UNL A   1      41.802  36.039  28.580  1.00  0.00     0.002 A 
ATOM     97  C   UNL A   1      44.111  36.582  29.074  1.00  0.00     0.091 A 
ATOM     98  F   UNL A   1      45.288  35.294  30.699  1.00  0.00    -0.205 F 
ATOM     99  C   UNL A   1      42.931  36.824  28.352  1.00  0.00     0.022 A 
BRANCH  97 100
ATOM    100  S   UNL A   1      45.486  37.707  28.833  1.00  0.00     0.127 S 
ATOM    101  O   UNL A   1      44.960  38.621  27.821  1.00  0.00    -0.237 OA
ATOM    102  O   UNL A   1      45.648  38.297  30.163  1.00  0.00    -0.237 OA
ATOM    103  O   UNL A   1      46.611  36.882  28.409  1.00  0.00    -0.744 OA
ENDBRANCH  97 100
ENDBRANCH  70  93
ENDBRANCH  44  45
ENDBRANCH  37  39
ENDBRANCH  36  37
ENDBRANCH  35  36
ENDBRANCH  34  35
ENDBRANCH  33  34
ENDBRANCH   1  33
TORSDOF 22
ENDMDL
MODEL 2
REMARK VINA RESULT:     -11.7      4.816     10.694
REMARK SMILES Cc1cnn(C2(C(=O)OCCOCCOCCOC(=O)c3ccc(-c4c5nc(c(-c6cccc(S(=O)(=O)[O-])c6F)c6ccc([nH]6)c(-c6cccc(S(=O)(=O)[O-])c6F)c6nc(c(-c7cccc(S(=O)(=O)[O-])c7F)c7ccc4[nH]7)C=C6)C=C5)cc3)CCN(C(=O)c3cc4ccccc4[nH]3)CC2)c1
REMARK SMILES IDX 14 1 13 2 12 3 11 4 10 5 9 6 7 7 8 8 6 9 84 10 99 11 85 12
REMARK SMILES IDX 98 13 86 14 87 15 88 16 5 17 1 18 2 19 3 20 100 21 4 22
REMARK SMILES IDX 89 23 90 24 97 25 91 26 96 27 92 29 95 30 93 31 94 32 15 33
REMARK SMILES IDX 16 34 17 35 18 36 19 37 20 38 21 39 22 40 83 41 23 42 82 43
REMARK SMILES IDX 24 44 25 45 26 46 76 47 27 48 81 49 75 50 77 51 28 52 80 53
REMARK SMILES IDX 74 54 73 55 29 57 61 58 41 59 60 60 42 61 45 62 59 63 78 64
REMARK SMILES IDX 43 65 44 66 58 68 79 69 46 70 30 71 31 72 39 73 32 74 34 75
REMARK SMILES IDX 40 76 33 77 35 78 36 79 37 80 38 81 62 82 63 83 71 84 64 85
REMARK SMILES IDX 66 86 72 87 65 88 67 89 68 90 69 91 70 92 47 93 48 94 56 95
REMARK SMILES IDX 49 96 51 97 57 98 50 99 52 100 53 101 54 102 55 103
REMARK H PARENT 97 28 77 56 45 67
REMARK Flexibility Score: inf
ROOT
ATOM      1  C   UNL A   1      40.467  21.768  27.373  1.00  0.00     0.188 C 
ENDROOT
BRANCH   1   2
ATOM      2  C   UNL A   1      39.698  22.330  26.178  1.00  0.00     0.188 C 
BRANCH   2   3
ATOM      3  O   UNL A   1      38.324  22.055  26.218  1.00  0.00    -0.376 OA
BRANCH   3   4
ATOM      4  C   UNL A   1      37.802  21.209  25.207  1.00  0.00     0.202 C 
BRANCH   4   5
ATOM      5  C   UNL A   1      36.331  21.234  24.707  1.00  0.00     0.261 C 
BRANCH   5   6
ATOM      6  O   UNL A   1      35.569  22.446  24.875  1.00  0.00    -0.461 OA
BRANCH   6   7
ATOM      7  C   UNL A   1      34.612  22.702  23.941  1.00  0.00     0.334 C 
ATOM      8  O   UNL A   1      34.892  23.090  22.805  1.00  0.00    -0.249 OA
BRANCH   7   9
ATOM      9  C   UNL A   1      33.131  22.500  24.421  1.00  0.00     0.163 C 
ATOM     10  C   UNL A   1      32.876  22.911  25.906  1.00  0.00     0.064 C 
ATOM     11  C   UNL A   1      32.358  23.436  23.445  1.00  0.00     0.064 C 
ATOM     12  C   UNL A   1      31.488  23.443  26.237  1.00  0.00     0.123 C 
ATOM     13  C   UNL A   1      30.982  23.874  23.908  1.00  0.00     0.123 C 
ATOM     14  N   UNL A   1      31.077  24.413  25.257  1.00  0.00    -0.337 N 
ATOM     15  C   UNL A   1      31.116  25.762  25.609  1.00  0.00     0.270 C 
ATOM     16  O   UNL A   1      31.587  26.144  26.677  1.00  0.00    -0.267 OA
BRANCH   9  17
ATOM     17  N   UNL A   1      32.760  21.081  24.210  1.00  0.00    -0.255 N 
ATOM     18  C   UNL A   1      32.499  17.482  24.884  1.00  0.00     0.048 C 
ATOM     19  C   UNL A   1      32.520  18.883  24.400  1.00  0.00    -0.013 A 
ATOM     20  C   UNL A   1      32.231  19.341  23.103  1.00  0.00     0.138 A 
ATOM     21  C   UNL A   1      32.836  20.032  25.097  1.00  0.00     0.113 A 
ATOM     22  N   UNL A   1      32.366  20.661  22.989  1.00  0.00    -0.180 NA
ENDBRANCH   9  17
BRANCH  15  23
ATOM     23  C   UNL A   1      30.636  26.714  24.646  1.00  0.00     0.105 A 
ATOM     24  C   UNL A   1      31.311  27.624  23.855  1.00  0.00     0.042 A 
ATOM     25  N   UNL A   1      29.306  26.807  24.310  1.00  0.00    -0.351 N 
ATOM     26  C   UNL A   1      30.351  28.399  23.161  1.00  0.00     0.000 A 
ATOM     27  C   UNL A   1      29.097  27.876  23.472  1.00  0.00     0.046 A 
ATOM     28  H   UNL A   1      28.603  26.194  24.625  1.00  0.00     0.167 HD
ATOM     29  C   UNL A   1      30.435  29.508  22.302  1.00  0.00     0.010 A 
ATOM     30  C   UNL A   1      27.909  28.412  22.968  1.00  0.00     0.026 A 
ATOM     31  C   UNL A   1      29.258  30.063  21.795  1.00  0.00     0.001 A 
ATOM     32  C   UNL A   1      28.015  29.522  22.125  1.00  0.00     0.002 A 
ENDBRANCH  15  23
ENDBRANCH   7   9
ENDBRANCH   6   7
ENDBRANCH   5   6
ENDBRANCH   4   5
ENDBRANCH   3   4
ENDBRANCH   2   3
ENDBRANCH   1   2
BRANCH   1  33
ATOM     33  O   UNL A   1      40.654  20.378  27.630  1.00  0.00    -0.376 OA
BRANCH  33  34
ATOM     34  C   UNL A   1      41.892  19.697  27.442  1.00  0.00     0.202 C 
BRANCH  34  35
ATOM     35  C   UNL A   1      42.461  19.373  26.062  1.00  0.00     0.261 C 
BRANCH  35  36
ATOM     36  O   UNL A   1      42.812  20.516  25.332  1.00  0.00    -0.460 OA
BRANCH  36  37
ATOM     37  C   UNL A   1      43.984  20.390  24.684  1.00  0.00     0.338 C 
ATOM     38  O   UNL A   1      44.418  19.406  24.097  1.00  0.00    -0.246 OA
BRANCH  37  39
ATOM     39  C   UNL A   1      44.665  21.680  24.769  1.00  0.00     0.060 A 
ATOM     40  C   UNL A   1      45.777  21.731  25.608  1.00  0.00     0.016 A 
ATOM     41  C   UNL A   1      44.005  22.820  24.291  1.00  0.00     0.016 A 
ATOM     42  C   UNL A   1      45.986  22.902  26.279  1.00  0.00     0.010 A 
ATOM     43  C   UNL A   1      44.187  23.976  24.986  1.00  0.00     0.010 A 
ATOM     44  C   UNL A   1      45.080  23.940  26.051  1.00  0.00    -0.014 A 
BRANCH  44  45
ATOM     45  C   UNL A   1      45.047  25.010  27.007  1.00  0.00     0.031 A 
ATOM     46  C   UNL A   1      46.299  25.776  27.005  1.00  0.00     0.074 A 
ATOM     47  C   UNL A   1      43.929  25.257  27.713  1.00  0.00     0.049 A 
ATOM     48  N   UNL A   1      47.225  25.765  27.903  1.00  0.00    -0.248 NA
ATOM     49  C   UNL A   1      46.681  26.434  25.745  1.00  0.00     0.031 C 
ATOM     50  C   UNL A   1      42.588  24.694  27.511  1.00  0.00     0.029 A 
ATOM     51  N   UNL A   1      43.724  26.198  28.666  1.00  0.00    -0.354 N 
ATOM     52  C   UNL A   1      48.172  26.661  27.425  1.00  0.00     0.074 A 
ATOM     53  C   UNL A   1      47.935  26.791  26.015  1.00  0.00     0.031 C 
ATOM     54  C   UNL A   1      41.682  25.499  28.112  1.00  0.00     0.029 A 
ATOM     55  C   UNL A   1      42.389  26.548  28.826  1.00  0.00     0.049 A 
ATOM     56  H   UNL A   1      44.453  26.597  29.195  1.00  0.00     0.167 HD
ATOM     57  C   UNL A   1      48.818  27.497  28.279  1.00  0.00     0.034 A 
ATOM     58  C   UNL A   1      41.935  27.695  29.393  1.00  0.00     0.034 A 
ATOM     59  C   UNL A   1      48.728  27.026  29.641  1.00  0.00     0.049 A 
ATOM     60  C   UNL A   1      43.053  28.261  30.191  1.00  0.00     0.074 A 
ATOM     61  C   UNL A   1      49.057  25.850  30.287  1.00  0.00     0.029 A 
ATOM     62  N   UNL A   1      47.853  27.685  30.471  1.00  0.00    -0.354 N 
ATOM     63  N   UNL A   1      43.545  27.686  31.255  1.00  0.00    -0.248 NA
ATOM     64  C   UNL A   1      43.931  29.221  29.539  1.00  0.00     0.031 C 
ATOM     65  C   UNL A   1      48.020  25.652  31.245  1.00  0.00     0.029 A 
ATOM     66  C   UNL A   1      47.153  26.745  31.178  1.00  0.00     0.049 A 
ATOM     67  H   UNL A   1      47.748  28.661  30.544  1.00  0.00     0.167 HD
ATOM     68  C   UNL A   1      44.919  27.855  31.135  1.00  0.00     0.074 A 
ATOM     69  C   UNL A   1      45.089  28.895  30.121  1.00  0.00     0.031 C 
ATOM     70  C   UNL A   1      45.792  26.929  31.635  1.00  0.00     0.034 A 
BRANCH  57  71
ATOM     71  C   UNL A   1      49.150  28.933  27.950  1.00  0.00     0.023 A 
ATOM     72  C   UNL A   1      50.484  29.338  28.163  1.00  0.00     0.012 A 
ATOM     73  C   UNL A   1      48.201  29.959  27.714  1.00  0.00     0.148 A 
ATOM     74  C   UNL A   1      50.840  30.689  28.201  1.00  0.00     0.002 A 
ATOM     75  C   UNL A   1      48.576  31.294  27.665  1.00  0.00     0.091 A 
ATOM     76  F   UNL A   1      46.896  29.684  27.673  1.00  0.00    -0.205 F 
ATOM     77  C   UNL A   1      49.889  31.669  27.944  1.00  0.00     0.022 A 
BRANCH  75  78
ATOM     78  S   UNL A   1      47.386  32.587  27.284  1.00  0.00     0.127 S 
ATOM     79  O   UNL A   1      48.252  33.756  27.173  1.00  0.00    -0.237 OA
ATOM     80  O   UNL A   1      46.821  32.108  26.022  1.00  0.00    -0.237 OA
ATOM     81  O   UNL A   1      46.440  32.591  28.394  1.00  0.00    -0.744 OA
ENDBRANCH  75  78
ENDBRANCH  57  71
BRANCH  58  82
ATOM     82  C   UNL A   1      40.745  28.500  29.026  1.00  0.00     0.023 A 
ATOM     83  C   UNL A   1      40.474  28.758  27.667  1.00  0.00     0.012 A 
ATOM     84  C   UNL A   1      39.733  28.792  29.970  1.00  0.00     0.148 A 
ATOM     85  C   UNL A   1      39.232  29.263  27.261  1.00  0.00     0.002 A 
ATOM     86  C   UNL A   1      38.506  29.310  29.563  1.00  0.00     0.091 A 
ATOM     87  F   UNL A   1      39.932  28.471  31.254  1.00  0.00    -0.205 F 
ATOM     88  C   UNL A   1      38.247  29.535  28.207  1.00  0.00     0.022 A 
BRANCH  86  89
ATOM     89  S   UNL A   1      37.188  29.674  30.732  1.00  0.00     0.127 S 
ATOM     90  O   UNL A   1      37.626  30.954  31.293  1.00  0.00    -0.237 OA
ATOM     91  O   UNL A   1      36.022  29.755  29.859  1.00  0.00    -0.237 OA
ATOM     92  O   UNL A   1      37.190  28.574  31.688  1.00  0.00    -0.744 OA
ENDBRANCH  86  89
ENDBRANCH  58  82
BRANCH  70  93
ATOM     93  C   UNL A   1      45.248  25.853  32.543  1.00  0.00     0.023 A 
ATOM     94  C   UNL A   1      44.670  24.664  32.049  1.00  0.00     0.012 A 
ATOM     95  C   UNL A   1      45.502  25.961  33.920  1.00  0.00     0.148 A 
ATOM     96  C   UNL A   1      44.339  23.616  32.912  1.00  0.00     0.002 A 
ATOM     97  C   UNL A   1      45.216  24.900  34.769  1.00  0.00     0.091 A 
ATOM     98  F   UNL A   1      46.057  27.095  34.373  1.00  0.00    -0.205 F 
ATOM     99  C   UNL A   1      44.625  23.727  34.271  1.00  0.00     0.022 A 
BRANCH  97 100
ATOM    100  S   UNL A   1      45.682  24.932  36.500  1.00  0.00     0.127 S 
ATOM    101  O   UNL A   1      45.154  23.658  36.984  1.00  0.00    -0.237 OA
ATOM    102  O   UNL A   1      47.143  25.002  36.433  1.00  0.00    -0.237 OA
ATOM    103  O   UNL A   1      45.057  26.124  37.063  1.00  0.00    -0.744 OA
ENDBRANCH  97 100
ENDBRANCH  70  93
ENDBRANCH  44  45
ENDBRANCH  37  39
ENDBRANCH  36  37
ENDBRANCH  35  36
ENDBRANCH  34  35
ENDBRANCH  33  34
ENDBRANCH   1  33
TORSDOF 22
ENDMDL
MODEL 3
REMARK VINA RESULT:     -10.8      3.592      8.198
REMARK SMILES Cc1cnn(C2(C(=O)OCCOCCOCCOC(=O)c3ccc(-c4c5nc(c(-c6cccc(S(=O)(=O)[O-])c6F)c6ccc([nH]6)c(-c6cccc(S(=O)(=O)[O-])c6F)c6nc(c(-c7cccc(S(=O)(=O)[O-])c7F)c7ccc4[nH]7)C=C6)C=C5)cc3)CCN(C(=O)c3cc4ccccc4[nH]3)CC2)c1
REMARK SMILES IDX 14 1 13 2 12 3 11 4 10 5 9 6 7 7 8 8 6 9 84 10 99 11 85 12
REMARK SMILES IDX 98 13 86 14 87 15 88 16 5 17 1 18 2 19 3 20 100 21 4 22
REMARK SMILES IDX 89 23 90 24 97 25 91 26 96 27 92 29 95 30 93 31 94 32 15 33
REMARK SMILES IDX 16 34 17 35 18 36 19 37 20 38 21 39 22 40 83 41 23 42 82 43
REMARK SMILES IDX 24 44 25 45 26 46 76 47 27 48 81 49 75 50 77 51 28 52 80 53
REMARK SMILES IDX 74 54 73 55 29 57 61 58 41 59 60 60 42 61 45 62 59 63 78 64
REMARK SMILES IDX 43 65 44 66 58 68 79 69 46 70 30 71 31 72 39 73 32 74 34 75
REMARK SMILES IDX 40 76 33 77 35 78 36 79 37 80 38 81 62 82 63 83 71 84 64 85
REMARK SMILES IDX 66 86 72 87 65 88 67 89 68 90 69 91 70 92 47 93 48 94 56 95
REMARK SMILES IDX 49 96 51 97 57 98 50 99 52 100 53 101 54 102 55 103
REMARK H PARENT 97 28 77 56 45 67
REMARK Flexibility Score: inf
ROOT
ATOM      1  C   UNL A   1      33.370  34.195  28.509  1.00  0.00     0.188 C 
ENDROOT
BRANCH   1   2
ATOM      2  C   UNL A   1      32.642  33.400  27.426  1.00  0.00     0.188 C 
BRANCH   2   3
ATOM      3  O   UNL A   1      32.689  32.013  27.622  1.00  0.00    -0.376 OA
BRANCH   3   4
ATOM      4  C   UNL A   1      32.056  31.198  26.649  1.00  0.00     0.202 C 
BRANCH   4   5
ATOM      5  C   UNL A   1      32.046  29.645  26.670  1.00  0.00     0.261 C 
BRANCH   5   6
ATOM      6  O   UNL A   1      31.997  28.941  25.413  1.00  0.00    -0.461 OA
BRANCH   6   7
ATOM      7  C   UNL A   1      31.336  27.751  25.402  1.00  0.00     0.334 C 
ATOM      8  O   UNL A   1      31.071  27.139  26.439  1.00  0.00    -0.249 OA
BRANCH   7   9
ATOM      9  C   UNL A   1      30.965  27.199  23.980  1.00  0.00     0.163 C 
ATOM     10  C   UNL A   1      32.088  27.380  22.909  1.00  0.00     0.064 C 
ATOM     11  C   UNL A   1      30.725  25.692  24.285  1.00  0.00     0.064 C 
ATOM     12  C   UNL A   1      32.165  26.320  21.818  1.00  0.00     0.123 C 
ATOM     13  C   UNL A   1      30.823  24.757  23.094  1.00  0.00     0.123 C 
ATOM     14  N   UNL A   1      32.075  25.003  22.393  1.00  0.00    -0.337 N 
ATOM     15  C   UNL A   1      33.243  24.248  22.494  1.00  0.00     0.270 C 
ATOM     16  O   UNL A   1      34.345  24.710  22.212  1.00  0.00    -0.267 OA
BRANCH   9  17
ATOM     17  N   UNL A   1      29.717  27.862  23.532  1.00  0.00    -0.255 N 
ATOM     18  C   UNL A   1      27.515  30.539  22.323  1.00  0.00     0.048 C 
ATOM     19  C   UNL A   1      28.208  29.337  22.843  1.00  0.00    -0.013 A 
ATOM     20  C   UNL A   1      27.618  28.174  23.368  1.00  0.00     0.138 A 
ATOM     21  C   UNL A   1      29.564  29.095  22.942  1.00  0.00     0.113 A 
ATOM     22  N   UNL A   1      28.522  27.284  23.775  1.00  0.00    -0.180 NA
ENDBRANCH   9  17
BRANCH  15  23
ATOM     23  C   UNL A   1      33.126  22.909  23.003  1.00  0.00     0.105 A 
ATOM     24  C   UNL A   1      32.552  21.778  22.457  1.00  0.00     0.042 A 
ATOM     25  N   UNL A   1      33.685  22.531  24.201  1.00  0.00    -0.351 N 
ATOM     26  C   UNL A   1      32.613  20.745  23.423  1.00  0.00     0.000 A 
ATOM     27  C   UNL A   1      33.319  21.245  24.516  1.00  0.00     0.046 A 
ATOM     28  H   UNL A   1      34.267  23.101  24.754  1.00  0.00     0.167 HD
ATOM     29  C   UNL A   1      32.121  19.429  23.471  1.00  0.00     0.010 A 
ATOM     30  C   UNL A   1      33.557  20.493  25.669  1.00  0.00     0.026 A 
ATOM     31  C   UNL A   1      32.342  18.664  24.619  1.00  0.00     0.001 A 
ATOM     32  C   UNL A   1      33.049  19.190  25.701  1.00  0.00     0.002 A 
ENDBRANCH  15  23
ENDBRANCH   7   9
ENDBRANCH   6   7
ENDBRANCH   5   6
ENDBRANCH   4   5
ENDBRANCH   3   4
ENDBRANCH   2   3
ENDBRANCH   1   2
BRANCH   1  33
ATOM     33  O   UNL A   1      34.644  33.846  29.045  1.00  0.00    -0.376 OA
BRANCH  33  34
ATOM     34  C   UNL A   1      34.869  32.710  29.877  1.00  0.00     0.202 C 
BRANCH  34  35
ATOM     35  C   UNL A   1      36.265  32.211  30.245  1.00  0.00     0.261 C 
BRANCH  35  36
ATOM     36  O   UNL A   1      36.665  31.101  29.490  1.00  0.00    -0.460 OA
BRANCH  36  37
ATOM     37  C   UNL A   1      36.845  29.995  30.233  1.00  0.00     0.338 C 
ATOM     38  O   UNL A   1      36.328  29.716  31.308  1.00  0.00    -0.246 OA
BRANCH  37  39
ATOM     39  C   UNL A   1      37.768  29.130  29.501  1.00  0.00     0.060 A 
ATOM     40  C   UNL A   1      38.083  27.916  30.110  1.00  0.00     0.016 A 
ATOM     41  C   UNL A   1      38.509  29.679  28.446  1.00  0.00     0.016 A 
ATOM     42  C   UNL A   1      39.354  27.450  29.928  1.00  0.00     0.010 A 
ATOM     43  C   UNL A   1      39.787  29.237  28.291  1.00  0.00     0.010 A 
ATOM     44  C   UNL A   1      40.211  28.220  29.139  1.00  0.00    -0.014 A 
BRANCH  44  45
ATOM     45  C   UNL A   1      41.619  27.965  29.250  1.00  0.00     0.031 A 
ATOM     46  C   UNL A   1      42.041  26.869  28.369  1.00  0.00     0.074 A 
ATOM     47  C   UNL A   1      42.391  28.743  30.029  1.00  0.00     0.049 A 
ATOM     48  N   UNL A   1      42.378  25.673  28.714  1.00  0.00    -0.248 NA
ATOM     49  C   UNL A   1      41.824  27.049  26.924  1.00  0.00     0.031 C 
ATOM     50  C   UNL A   1      42.036  30.014  30.674  1.00  0.00     0.029 A 
ATOM     51  N   UNL A   1      43.720  28.638  30.272  1.00  0.00    -0.354 N 
ATOM     52  C   UNL A   1      42.693  25.050  27.514  1.00  0.00     0.074 A 
ATOM     53  C   UNL A   1      42.062  25.817  26.477  1.00  0.00     0.031 C 
ATOM     54  C   UNL A   1      43.174  30.678  30.982  1.00  0.00     0.029 A 
ATOM     55  C   UNL A   1      44.311  29.833  30.664  1.00  0.00     0.049 A 
ATOM     56  H   UNL A   1      44.220  27.794  30.179  1.00  0.00     0.167 HD
ATOM     57  C   UNL A   1      43.744  24.191  27.443  1.00  0.00     0.034 A 
ATOM     58  C   UNL A   1      45.636  30.121  30.592  1.00  0.00     0.034 A 
ATOM     59  C   UNL A   1      44.123  23.718  28.753  1.00  0.00     0.049 A 
ATOM     60  C   UNL A   1      46.357  28.828  30.466  1.00  0.00     0.074 A 
ATOM     61  C   UNL A   1      43.463  23.081  29.786  1.00  0.00     0.029 A 
ATOM     62  N   UNL A   1      45.262  24.257  29.303  1.00  0.00    -0.354 N 
ATOM     63  N   UNL A   1      46.394  27.926  31.408  1.00  0.00    -0.248 NA
ATOM     64  C   UNL A   1      46.642  28.341  29.125  1.00  0.00     0.031 C 
ATOM     65  C   UNL A   1      43.998  23.656  30.976  1.00  0.00     0.029 A 
ATOM     66  C   UNL A   1      44.996  24.561  30.611  1.00  0.00     0.049 A 
ATOM     67  H   UNL A   1      46.118  24.399  28.838  1.00  0.00     0.167 HD
ATOM     68  C   UNL A   1      46.244  26.718  30.737  1.00  0.00     0.074 A 
ATOM     69  C   UNL A   1      46.508  27.027  29.332  1.00  0.00     0.031 C 
ATOM     70  C   UNL A   1      45.620  25.654  31.327  1.00  0.00     0.034 A 
BRANCH  57  71
ATOM     71  C   UNL A   1      44.684  24.118  26.262  1.00  0.00     0.023 A 
ATOM     72  C   UNL A   1      44.893  22.843  25.699  1.00  0.00     0.012 A 
ATOM     73  C   UNL A   1      45.568  25.149  25.856  1.00  0.00     0.148 A 
ATOM     74  C   UNL A   1      45.959  22.595  24.829  1.00  0.00     0.002 A 
ATOM     75  C   UNL A   1      46.569  24.918  24.924  1.00  0.00     0.091 A 
ATOM     76  F   UNL A   1      45.554  26.338  26.462  1.00  0.00    -0.205 F 
ATOM     77  C   UNL A   1      46.793  23.633  24.434  1.00  0.00     0.022 A 
BRANCH  75  78
ATOM     78  S   UNL A   1      47.637  26.245  24.348  1.00  0.00     0.127 S 
ATOM     79  O   UNL A   1      48.321  25.603  23.230  1.00  0.00    -0.237 OA
ATOM     80  O   UNL A   1      46.661  27.270  23.974  1.00  0.00    -0.237 OA
ATOM     81  O   UNL A   1      48.468  26.606  25.489  1.00  0.00    -0.744 OA
ENDBRANCH  75  78
ENDBRANCH  57  71
BRANCH  58  82
ATOM     82  C   UNL A   1      46.286  31.417  30.282  1.00  0.00     0.023 A 
ATOM     83  C   UNL A   1      47.231  31.951  31.181  1.00  0.00     0.012 A 
ATOM     84  C   UNL A   1      46.189  32.002  28.998  1.00  0.00     0.148 A 
ATOM     85  C   UNL A   1      48.067  33.011  30.805  1.00  0.00     0.002 A 
ATOM     86  C   UNL A   1      47.009  33.067  28.636  1.00  0.00     0.091 A 
ATOM     87  F   UNL A   1      45.364  31.455  28.097  1.00  0.00    -0.205 F 
ATOM     88  C   UNL A   1      47.960  33.566  29.533  1.00  0.00     0.022 A 
BRANCH  86  89
ATOM     89  S   UNL A   1      46.930  33.822  27.005  1.00  0.00     0.127 S 
ATOM     90  O   UNL A   1      47.875  34.932  27.140  1.00  0.00    -0.237 OA
ATOM     91  O   UNL A   1      47.382  32.735  26.144  1.00  0.00    -0.237 OA
ATOM     92  O   UNL A   1      45.544  34.239  26.827  1.00  0.00    -0.744 OA
ENDBRANCH  86  89
ENDBRANCH  58  82
BRANCH  70  93
ATOM     93  C   UNL A   1      45.327  25.728  32.805  1.00  0.00     0.023 A 
ATOM     94  C   UNL A   1      46.283  25.386  33.786  1.00  0.00     0.012 A 
ATOM     95  C   UNL A   1      44.130  26.339  33.211  1.00  0.00     0.148 A 
ATOM     96  C   UNL A   1      46.041  25.633  35.140  1.00  0.00     0.002 A 
ATOM     97  C   UNL A   1      43.912  26.627  34.552  1.00  0.00     0.091 A 
ATOM     98  F   UNL A   1      43.235  26.664  32.267  1.00  0.00    -0.205 F 
ATOM     99  C   UNL A   1      44.861  26.267  35.523  1.00  0.00     0.022 A 
BRANCH  97 100
ATOM    100  S   UNL A   1      42.476  27.559  35.090  1.00  0.00     0.127 S 
ATOM    101  O   UNL A   1      42.958  28.178  36.323  1.00  0.00    -0.237 OA
ATOM    102  O   UNL A   1      42.270  28.489  33.979  1.00  0.00    -0.237 OA
ATOM    103  O   UNL A   1      41.404  26.584  35.255  1.00  0.00    -0.744 OA
ENDBRANCH  97 100
ENDBRANCH  70  93
ENDBRANCH  44  45
ENDBRANCH  37  39
ENDBRANCH  36  37
ENDBRANCH  35  36
ENDBRANCH  34  35
ENDBRANCH  33  34
ENDBRANCH   1  33
TORSDOF 22
ENDMDL
