MODEL 1
REMARK VINA RESULT:     -10.2      0.000      0.000
REMARK SMILES O=C(OCCOCCOCCOC(=O)[C@@H](c1cccc(O)c1)[NH+]1CC[NH+](C2CCCC2)CC1)c1ccc(-c2c3nc(c(-c4cccc(S(=O)(=O)[O-])c4F)c4ccc([nH]4)c(-c4cccc(S(=O)(=O)[O-])c4F)c4nc(c(-c5cccc(S(=O)(=O)[O-])c5F)c5ccc2[nH]5)C=C4)C=C3)cc1
REMARK SMILES IDX 7 1 6 2 5 3 4 4 3 5 2 6 1 7 34 8 35 9 96 10 36 11 95 12
REMARK SMILES IDX 37 13 38 14 39 15 89 16 40 17 94 18 88 19 90 20 41 21 93 22
REMARK SMILES IDX 87 23 86 24 42 26 74 27 54 28 73 29 55 30 58 31 72 32 91 33
REMARK SMILES IDX 56 34 57 35 71 37 92 38 59 39 43 40 44 41 52 42 45 43 47 44
REMARK SMILES IDX 53 45 46 46 48 47 49 48 50 49 51 50 75 51 76 52 84 53 77 54
REMARK SMILES IDX 79 55 85 56 78 57 80 58 81 59 82 60 83 61 60 62 61 63 69 64
REMARK SMILES IDX 62 65 64 66 70 67 63 68 65 69 66 70 67 71 68 72 8 73 9 74
REMARK SMILES IDX 10 75 11 76 12 77 13 78 14 79 15 80 16 81 17 82 22 83 18 84
REMARK SMILES IDX 20 85 19 86 21 87 23 89 24 90 33 91 25 93 32 94 26 95 27 97
REMARK SMILES IDX 28 98 31 99 29 100 30 101
REMARK H PARENT 90 25 58 36 21 88 23 92 26 96
REMARK Flexibility Score: inf
ROOT
ATOM      1  C   UNL A   1      36.441  23.295  23.883  1.00  0.00     0.188 C 
ENDROOT
BRANCH   1   2
ATOM      2  O   UNL A   1      36.587  21.926  23.571  1.00  0.00    -0.376 OA
BRANCH   2   3
ATOM      3  C   UNL A   1      36.676  20.982  24.624  1.00  0.00     0.202 C 
BRANCH   3   4
ATOM      4  C   UNL A   1      38.020  20.423  25.117  1.00  0.00     0.261 C 
BRANCH   4   5
ATOM      5  O   UNL A   1      38.729  21.066  26.190  1.00  0.00    -0.460 OA
BRANCH   5   6
ATOM      6  C   UNL A   1      40.018  21.338  26.466  1.00  0.00     0.338 C 
ATOM      7  O   UNL A   1      40.843  20.452  26.237  1.00  0.00    -0.246 OA
BRANCH   6   8
ATOM      8  C   UNL A   1      40.509  22.620  27.051  1.00  0.00     0.060 A 
ATOM      9  C   UNL A   1      41.454  22.740  28.065  1.00  0.00     0.016 A 
ATOM     10  C   UNL A   1      39.962  23.809  26.527  1.00  0.00     0.016 A 
ATOM     11  C   UNL A   1      41.973  24.000  28.410  1.00  0.00     0.010 A 
ATOM     12  C   UNL A   1      40.458  25.072  26.898  1.00  0.00     0.010 A 
ATOM     13  C   UNL A   1      41.569  25.173  27.747  1.00  0.00    -0.014 A 
BRANCH  13  14
ATOM     14  C   UNL A   1      42.156  26.477  28.197  1.00  0.00     0.031 A 
ATOM     15  C   UNL A   1      43.542  26.669  27.688  1.00  0.00     0.074 A 
ATOM     16  C   UNL A   1      41.537  27.488  28.868  1.00  0.00     0.049 A 
ATOM     17  N   UNL A   1      44.271  27.742  27.677  1.00  0.00    -0.248 NA
ATOM     18  C   UNL A   1      44.195  25.470  27.123  1.00  0.00     0.031 C 
ATOM     19  C   UNL A   1      40.284  27.427  29.598  1.00  0.00     0.029 A 
ATOM     20  N   UNL A   1      41.869  28.821  29.033  1.00  0.00    -0.354 N 
ATOM     21  C   UNL A   1      45.464  27.349  27.102  1.00  0.00     0.074 A 
ATOM     22  C   UNL A   1      45.379  25.943  26.797  1.00  0.00     0.031 C 
ATOM     23  C   UNL A   1      39.844  28.638  29.956  1.00  0.00     0.029 A 
ATOM     24  C   UNL A   1      40.895  29.583  29.671  1.00  0.00     0.049 A 
ATOM     25  H   UNL A   1      42.725  29.199  28.726  1.00  0.00     0.167 HD
ATOM     26  C   UNL A   1      46.551  28.099  26.850  1.00  0.00     0.034 A 
ATOM     27  C   UNL A   1      40.861  30.869  30.075  1.00  0.00     0.034 A 
ATOM     28  C   UNL A   1      46.671  29.457  27.271  1.00  0.00     0.049 A 
ATOM     29  C   UNL A   1      42.104  31.662  29.839  1.00  0.00     0.074 A 
ATOM     30  C   UNL A   1      47.761  30.292  27.170  1.00  0.00     0.029 A 
ATOM     31  N   UNL A   1      45.669  30.163  27.926  1.00  0.00    -0.354 N 
ATOM     32  N   UNL A   1      43.205  31.279  29.240  1.00  0.00    -0.248 NA
ATOM     33  C   UNL A   1      42.127  33.039  30.342  1.00  0.00     0.031 C 
ATOM     34  C   UNL A   1      47.431  31.499  27.794  1.00  0.00     0.029 A 
ATOM     35  C   UNL A   1      46.115  31.432  28.233  1.00  0.00     0.049 A 
ATOM     36  H   UNL A   1      44.776  29.809  28.140  1.00  0.00     0.167 HD
ATOM     37  C   UNL A   1      44.057  32.365  29.293  1.00  0.00     0.074 A 
ATOM     38  C   UNL A   1      43.326  33.437  29.942  1.00  0.00     0.031 C 
ATOM     39  C   UNL A   1      45.336  32.463  28.865  1.00  0.00     0.034 A 
BRANCH  26  40
ATOM     40  C   UNL A   1      47.667  27.387  26.156  1.00  0.00     0.023 A 
ATOM     41  C   UNL A   1      48.625  26.684  26.920  1.00  0.00     0.012 A 
ATOM     42  C   UNL A   1      47.857  27.552  24.775  1.00  0.00     0.148 A 
ATOM     43  C   UNL A   1      49.782  26.194  26.321  1.00  0.00     0.002 A 
ATOM     44  C   UNL A   1      48.986  27.017  24.177  1.00  0.00     0.091 A 
ATOM     45  F   UNL A   1      46.961  28.276  24.090  1.00  0.00    -0.205 F 
ATOM     46  C   UNL A   1      49.959  26.356  24.949  1.00  0.00     0.022 A 
BRANCH  44  47
ATOM     47  S   UNL A   1      49.296  27.139  22.416  1.00  0.00     0.127 S 
ATOM     48  O   UNL A   1      48.972  28.539  22.151  1.00  0.00    -0.237 OA
ATOM     49  O   UNL A   1      50.716  26.810  22.342  1.00  0.00    -0.237 OA
ATOM     50  O   UNL A   1      48.403  26.173  21.781  1.00  0.00    -0.744 OA
ENDBRANCH  44  47
ENDBRANCH  26  40
BRANCH  27  51
ATOM     51  C   UNL A   1      39.686  31.461  30.805  1.00  0.00     0.023 A 
ATOM     52  C   UNL A   1      38.650  32.102  30.093  1.00  0.00     0.012 A 
ATOM     53  C   UNL A   1      39.593  31.414  32.213  1.00  0.00     0.148 A 
ATOM     54  C   UNL A   1      37.574  32.700  30.763  1.00  0.00     0.002 A 
ATOM     55  C   UNL A   1      38.488  31.953  32.869  1.00  0.00     0.091 A 
ATOM     56  F   UNL A   1      40.595  30.847  32.900  1.00  0.00    -0.205 F 
ATOM     57  C   UNL A   1      37.486  32.613  32.149  1.00  0.00     0.022 A 
BRANCH  55  58
ATOM     58  S   UNL A   1      38.251  31.744  34.640  1.00  0.00     0.127 S 
ATOM     59  O   UNL A   1      38.447  30.307  34.805  1.00  0.00    -0.237 OA
ATOM     60  O   UNL A   1      39.317  32.577  35.199  1.00  0.00    -0.237 OA
ATOM     61  O   UNL A   1      36.909  32.247  34.904  1.00  0.00    -0.744 OA
ENDBRANCH  55  58
ENDBRANCH  27  51
BRANCH  39  62
ATOM     62  C   UNL A   1      45.982  33.799  29.031  1.00  0.00     0.023 A 
ATOM     63  C   UNL A   1      46.772  34.078  30.161  1.00  0.00     0.012 A 
ATOM     64  C   UNL A   1      45.824  34.764  28.022  1.00  0.00     0.148 A 
ATOM     65  C   UNL A   1      47.370  35.326  30.301  1.00  0.00     0.002 A 
ATOM     66  C   UNL A   1      46.475  35.979  28.138  1.00  0.00     0.091 A 
ATOM     67  F   UNL A   1      45.037  34.473  26.976  1.00  0.00    -0.205 F 
ATOM     68  C   UNL A   1      47.233  36.270  29.283  1.00  0.00     0.022 A 
BRANCH  66  69
ATOM     69  S   UNL A   1      46.439  37.194  26.822  1.00  0.00     0.127 S 
ATOM     70  O   UNL A   1      45.003  37.424  26.671  1.00  0.00    -0.237 OA
ATOM     71  O   UNL A   1      47.179  38.307  27.415  1.00  0.00    -0.237 OA
ATOM     72  O   UNL A   1      47.097  36.572  25.681  1.00  0.00    -0.744 OA
ENDBRANCH  66  69
ENDBRANCH  39  62
ENDBRANCH  13  14
ENDBRANCH   6   8
ENDBRANCH   5   6
ENDBRANCH   4   5
ENDBRANCH   3   4
ENDBRANCH   2   3
ENDBRANCH   1   2
BRANCH   1  73
ATOM     73  C   UNL A   1      35.045  23.839  24.213  1.00  0.00     0.188 C 
BRANCH  73  74
ATOM     74  O   UNL A   1      34.357  24.728  23.347  1.00  0.00    -0.376 OA
BRANCH  74  75
ATOM     75  C   UNL A   1      33.166  24.310  22.703  1.00  0.00     0.202 C 
BRANCH  75  76
ATOM     76  C   UNL A   1      32.593  25.092  21.522  1.00  0.00     0.261 C 
BRANCH  76  77
ATOM     77  O   UNL A   1      32.142  26.401  21.833  1.00  0.00    -0.459 OA
BRANCH  77  78
ATOM     78  C   UNL A   1      31.214  26.533  22.819  1.00  0.00     0.369 C 
ATOM     79  O   UNL A   1      30.459  25.626  23.160  1.00  0.00    -0.245 OA
BRANCH  78  80
ATOM     80  C   UNL A   1      31.159  27.950  23.425  1.00  0.00     0.326 C 
BRANCH  80  81
ATOM     81  C   UNL A   1      29.893  28.704  23.137  1.00  0.00     0.025 A 
ATOM     82  C   UNL A   1      28.641  28.202  23.528  1.00  0.00     0.011 A 
ATOM     83  C   UNL A   1      29.982  29.762  22.239  1.00  0.00     0.056 A 
ATOM     84  C   UNL A   1      27.494  28.757  23.006  1.00  0.00     0.004 A 
ATOM     85  C   UNL A   1      28.857  30.366  21.803  1.00  0.00     0.116 A 
ATOM     86  C   UNL A   1      27.620  29.840  22.156  1.00  0.00     0.046 A 
BRANCH  85  87
ATOM     87  O   UNL A   1      29.068  31.391  20.946  1.00  0.00    -0.508 OA
ATOM     88  H   UNL A   1      29.749  32.010  21.114  1.00  0.00     0.293 HD
ENDBRANCH  85  87
ENDBRANCH  80  81
BRANCH  80  89
ATOM     89  N   UNL A   1      31.292  28.026  24.901  1.00  0.00    -0.310 N 
ATOM     90  C   UNL A   1      32.313  27.192  25.524  1.00  0.00     0.325 C 
ATOM     91  C   UNL A   1      31.437  29.426  25.329  1.00  0.00     0.325 C 
ATOM     92  H   UNL A   1      30.419  27.621  25.241  1.00  0.00     0.349 HD
ATOM     93  C   UNL A   1      33.746  27.703  25.281  1.00  0.00     0.324 C 
ATOM     94  C   UNL A   1      32.838  29.950  24.977  1.00  0.00     0.324 C 
ATOM     95  N   UNL A   1      33.950  29.146  25.510  1.00  0.00    -0.323 N 
ATOM     96  H   UNL A   1      34.756  29.448  24.963  1.00  0.00     0.348 HD
BRANCH  95  97
ATOM     97  C   UNL A   1      34.337  29.433  26.888  1.00  0.00     0.184 C 
ATOM     98  C   UNL A   1      35.811  29.216  27.226  1.00  0.00     0.065 C 
ATOM     99  C   UNL A   1      34.046  30.808  27.503  1.00  0.00     0.065 C 
ATOM    100  C   UNL A   1      35.867  29.669  28.672  1.00  0.00     0.006 C 
ATOM    101  C   UNL A   1      34.967  30.902  28.718  1.00  0.00     0.006 C 
ENDBRANCH  95  97
ENDBRANCH  80  89
ENDBRANCH  78  80
ENDBRANCH  77  78
ENDBRANCH  76  77
ENDBRANCH  75  76
ENDBRANCH  74  75
ENDBRANCH  73  74
ENDBRANCH   1  73
TORSDOF 24
ENDMDL
MODEL 2
REMARK VINA RESULT:     -10.1      2.564      5.031
REMARK SMILES O=C(OCCOCCOCCOC(=O)[C@@H](c1cccc(O)c1)[NH+]1CC[NH+](C2CCCC2)CC1)c1ccc(-c2c3nc(c(-c4cccc(S(=O)(=O)[O-])c4F)c4ccc([nH]4)c(-c4cccc(S(=O)(=O)[O-])c4F)c4nc(c(-c5cccc(S(=O)(=O)[O-])c5F)c5ccc2[nH]5)C=C4)C=C3)cc1
REMARK SMILES IDX 7 1 6 2 5 3 4 4 3 5 2 6 1 7 34 8 35 9 96 10 36 11 95 12
REMARK SMILES IDX 37 13 38 14 39 15 89 16 40 17 94 18 88 19 90 20 41 21 93 22
REMARK SMILES IDX 87 23 86 24 42 26 74 27 54 28 73 29 55 30 58 31 72 32 91 33
REMARK SMILES IDX 56 34 57 35 71 37 92 38 59 39 43 40 44 41 52 42 45 43 47 44
REMARK SMILES IDX 53 45 46 46 48 47 49 48 50 49 51 50 75 51 76 52 84 53 77 54
REMARK SMILES IDX 79 55 85 56 78 57 80 58 81 59 82 60 83 61 60 62 61 63 69 64
REMARK SMILES IDX 62 65 64 66 70 67 63 68 65 69 66 70 67 71 68 72 8 73 9 74
REMARK SMILES IDX 10 75 11 76 12 77 13 78 14 79 15 80 16 81 17 82 22 83 18 84
REMARK SMILES IDX 20 85 19 86 21 87 23 89 24 90 33 91 25 93 32 94 26 95 27 97
REMARK SMILES IDX 28 98 31 99 29 100 30 101
REMARK H PARENT 90 25 58 36 21 88 23 92 26 96
REMARK Flexibility Score: inf
ROOT
ATOM      1  C   UNL A   1      41.297  21.861  26.803  1.00  0.00     0.188 C 
ENDROOT
BRANCH   1   2
ATOM      2  O   UNL A   1      41.659  20.858  27.728  1.00  0.00    -0.376 OA
BRANCH   2   3
ATOM      3  C   UNL A   1      41.957  19.556  27.256  1.00  0.00     0.202 C 
BRANCH   3   4
ATOM      4  C   UNL A   1      41.954  19.201  25.760  1.00  0.00     0.261 C 
BRANCH   4   5
ATOM      5  O   UNL A   1      43.187  19.126  25.025  1.00  0.00    -0.460 OA
BRANCH   5   6
ATOM      6  C   UNL A   1      44.057  20.014  24.509  1.00  0.00     0.338 C 
ATOM      7  O   UNL A   1      44.745  19.642  23.557  1.00  0.00    -0.246 OA
BRANCH   6   8
ATOM      8  C   UNL A   1      44.262  21.399  25.024  1.00  0.00     0.060 A 
ATOM      9  C   UNL A   1      43.844  22.568  24.396  1.00  0.00     0.016 A 
ATOM     10  C   UNL A   1      44.940  21.527  26.253  1.00  0.00     0.016 A 
ATOM     11  C   UNL A   1      43.929  23.804  25.060  1.00  0.00     0.010 A 
ATOM     12  C   UNL A   1      45.056  22.770  26.902  1.00  0.00     0.010 A 
ATOM     13  C   UNL A   1      44.428  23.905  26.372  1.00  0.00    -0.014 A 
BRANCH  13  14
ATOM     14  C   UNL A   1      44.506  25.267  26.995  1.00  0.00     0.031 A 
ATOM     15  C   UNL A   1      45.852  25.881  26.827  1.00  0.00     0.074 A 
ATOM     16  C   UNL A   1      43.495  25.997  27.542  1.00  0.00     0.049 A 
ATOM     17  N   UNL A   1      46.225  27.107  27.025  1.00  0.00    -0.248 NA
ATOM     18  C   UNL A   1      46.926  24.969  26.382  1.00  0.00     0.031 C 
ATOM     19  C   UNL A   1      42.188  25.523  27.961  1.00  0.00     0.029 A 
ATOM     20  N   UNL A   1      43.385  27.347  27.830  1.00  0.00    -0.354 N 
ATOM     21  C   UNL A   1      47.574  27.115  26.725  1.00  0.00     0.074 A 
ATOM     22  C   UNL A   1      47.964  25.777  26.356  1.00  0.00     0.031 C 
ATOM     23  C   UNL A   1      41.352  26.525  28.254  1.00  0.00     0.029 A 
ATOM     24  C   UNL A   1      42.121  27.744  28.255  1.00  0.00     0.049 A 
ATOM     25  H   UNL A   1      44.139  27.973  27.743  1.00  0.00     0.167 HD
ATOM     26  C   UNL A   1      48.425  28.155  26.759  1.00  0.00     0.034 A 
ATOM     27  C   UNL A   1      41.633  28.925  28.688  1.00  0.00     0.034 A 
ATOM     28  C   UNL A   1      48.057  29.444  27.247  1.00  0.00     0.049 A 
ATOM     29  C   UNL A   1      42.615  30.046  28.775  1.00  0.00     0.074 A 
ATOM     30  C   UNL A   1      48.856  30.551  27.432  1.00  0.00     0.029 A 
ATOM     31  N   UNL A   1      46.780  29.779  27.680  1.00  0.00    -0.354 N 
ATOM     32  N   UNL A   1      43.880  30.041  28.432  1.00  0.00    -0.248 NA
ATOM     33  C   UNL A   1      42.133  31.319  29.321  1.00  0.00     0.031 C 
ATOM     34  C   UNL A   1      48.068  31.551  28.009  1.00  0.00     0.029 A 
ATOM     35  C   UNL A   1      46.766  31.084  28.129  1.00  0.00     0.049 A 
ATOM     36  H   UNL A   1      46.002  29.175  27.669  1.00  0.00     0.167 HD
ATOM     37  C   UNL A   1      44.351  31.307  28.720  1.00  0.00     0.074 A 
ATOM     38  C   UNL A   1      43.222  32.067  29.224  1.00  0.00     0.031 C 
ATOM     39  C   UNL A   1      45.608  31.793  28.603  1.00  0.00     0.034 A 
BRANCH  26  40
ATOM     40  C   UNL A   1      49.820  27.849  26.315  1.00  0.00     0.023 A 
ATOM     41  C   UNL A   1      50.826  27.634  27.283  1.00  0.00     0.012 A 
ATOM     42  C   UNL A   1      50.161  27.936  24.957  1.00  0.00     0.148 A 
ATOM     43  C   UNL A   1      52.163  27.557  26.902  1.00  0.00     0.002 A 
ATOM     44  C   UNL A   1      51.488  27.808  24.581  1.00  0.00     0.091 A 
ATOM     45  F   UNL A   1      49.191  28.202  24.071  1.00  0.00    -0.205 F 
ATOM     46  C   UNL A   1      52.493  27.638  25.551  1.00  0.00     0.022 A 
BRANCH  44  47
ATOM     47  S   UNL A   1      52.017  27.864  22.870  1.00  0.00     0.127 S 
ATOM     48  O   UNL A   1      51.943  29.294  22.580  1.00  0.00    -0.237 OA
ATOM     49  O   UNL A   1      53.370  27.323  22.960  1.00  0.00    -0.237 OA
ATOM     50  O   UNL A   1      51.069  27.038  22.126  1.00  0.00    -0.744 OA
ENDBRANCH  44  47
ENDBRANCH  26  40
BRANCH  27  51
ATOM     51  C   UNL A   1      40.211  29.096  29.149  1.00  0.00     0.023 A 
ATOM     52  C   UNL A   1      39.183  29.360  28.219  1.00  0.00     0.012 A 
ATOM     53  C   UNL A   1      39.865  29.021  30.516  1.00  0.00     0.148 A 
ATOM     54  C   UNL A   1      37.864  29.570  28.639  1.00  0.00     0.002 A 
ATOM     55  C   UNL A   1      38.539  29.165  30.921  1.00  0.00     0.091 A 
ATOM     56  F   UNL A   1      40.843  28.815  31.411  1.00  0.00    -0.205 F 
ATOM     57  C   UNL A   1      37.539  29.459  29.987  1.00  0.00     0.022 A 
BRANCH  55  58
ATOM     58  S   UNL A   1      38.042  28.890  32.628  1.00  0.00     0.127 S 
ATOM     59  O   UNL A   1      38.975  29.744  33.357  1.00  0.00    -0.237 OA
ATOM     60  O   UNL A   1      36.654  29.356  32.628  1.00  0.00    -0.237 OA
ATOM     61  O   UNL A   1      38.182  27.454  32.836  1.00  0.00    -0.744 OA
ENDBRANCH  55  58
ENDBRANCH  27  51
BRANCH  39  62
ATOM     62  C   UNL A   1      45.790  33.231  28.963  1.00  0.00     0.023 A 
ATOM     63  C   UNL A   1      46.253  33.596  30.241  1.00  0.00     0.012 A 
ATOM     64  C   UNL A   1      45.532  34.216  27.995  1.00  0.00     0.148 A 
ATOM     65  C   UNL A   1      46.421  34.939  30.562  1.00  0.00     0.002 A 
ATOM     66  C   UNL A   1      45.764  35.544  28.302  1.00  0.00     0.091 A 
ATOM     67  F   UNL A   1      45.061  33.831  26.801  1.00  0.00    -0.205 F 
ATOM     68  C   UNL A   1      46.191  35.911  29.589  1.00  0.00     0.022 A 
BRANCH  66  69
ATOM     69  S   UNL A   1      45.600  36.835  27.071  1.00  0.00     0.127 S 
ATOM     70  O   UNL A   1      44.247  36.598  26.571  1.00  0.00    -0.237 OA
ATOM     71  O   UNL A   1      45.753  38.046  27.877  1.00  0.00    -0.237 OA
ATOM     72  O   UNL A   1      46.670  36.613  26.109  1.00  0.00    -0.744 OA
ENDBRANCH  66  69
ENDBRANCH  39  62
ENDBRANCH  13  14
ENDBRANCH   6   8
ENDBRANCH   5   6
ENDBRANCH   4   5
ENDBRANCH   3   4
ENDBRANCH   2   3
ENDBRANCH   1   2
BRANCH   1  73
ATOM     73  C   UNL A   1      39.839  22.337  26.753  1.00  0.00     0.188 C 
BRANCH  73  74
ATOM     74  O   UNL A   1      39.497  23.699  26.548  1.00  0.00    -0.376 OA
BRANCH  74  75
ATOM     75  C   UNL A   1      38.134  24.087  26.503  1.00  0.00     0.202 C 
BRANCH  75  76
ATOM     76  C   UNL A   1      37.190  23.522  25.443  1.00  0.00     0.261 C 
BRANCH  76  77
ATOM     77  O   UNL A   1      35.934  24.178  25.350  1.00  0.00    -0.459 OA
BRANCH  77  78
ATOM     78  C   UNL A   1      34.873  23.605  25.978  1.00  0.00     0.369 C 
ATOM     79  O   UNL A   1      34.928  23.153  27.119  1.00  0.00    -0.245 OA
BRANCH  78  80
ATOM     80  C   UNL A   1      33.610  23.520  25.097  1.00  0.00     0.326 C 
BRANCH  80  81
ATOM     81  C   UNL A   1      33.318  24.761  24.304  1.00  0.00     0.025 A 
ATOM     82  C   UNL A   1      32.660  25.859  24.883  1.00  0.00     0.011 A 
ATOM     83  C   UNL A   1      33.471  24.676  22.924  1.00  0.00     0.056 A 
ATOM     84  C   UNL A   1      32.153  26.851  24.074  1.00  0.00     0.004 A 
ATOM     85  C   UNL A   1      33.058  25.694  22.140  1.00  0.00     0.116 A 
ATOM     86  C   UNL A   1      32.368  26.757  22.712  1.00  0.00     0.046 A 
BRANCH  85  87
ATOM     87  O   UNL A   1      33.271  25.505  20.818  1.00  0.00    -0.508 OA
ATOM     88  H   UNL A   1      33.104  24.668  20.431  1.00  0.00     0.293 HD
ENDBRANCH  85  87
ENDBRANCH  80  81
BRANCH  80  89
ATOM     89  N   UNL A   1      33.602  22.437  24.083  1.00  0.00    -0.310 N 
ATOM     90  C   UNL A   1      34.718  21.500  24.099  1.00  0.00     0.325 C 
ATOM     91  C   UNL A   1      32.321  21.715  24.117  1.00  0.00     0.325 C 
ATOM     92  H   UNL A   1      33.726  22.934  23.201  1.00  0.00     0.349 HD
ATOM     93  C   UNL A   1      34.667  20.513  25.280  1.00  0.00     0.324 C 
ATOM     94  C   UNL A   1      32.245  20.820  25.364  1.00  0.00     0.324 C 
ATOM     95  N   UNL A   1      33.360  19.868  25.510  1.00  0.00    -0.323 N 
ATOM     96  H   UNL A   1      33.310  19.580  26.487  1.00  0.00     0.348 HD
BRANCH  95  97
ATOM     97  C   UNL A   1      33.227  18.618  24.770  1.00  0.00     0.184 C 
ATOM     98  C   UNL A   1      34.527  18.013  24.244  1.00  0.00     0.065 C 
ATOM     99  C   UNL A   1      32.524  17.412  25.407  1.00  0.00     0.065 C 
ATOM    100  C   UNL A   1      34.036  16.724  23.612  1.00  0.00     0.006 C 
ATOM    101  C   UNL A   1      32.974  16.208  24.580  1.00  0.00     0.006 C 
ENDBRANCH  95  97
ENDBRANCH  80  89
ENDBRANCH  78  80
ENDBRANCH  77  78
ENDBRANCH  76  77
ENDBRANCH  75  76
ENDBRANCH  74  75
ENDBRANCH  73  74
ENDBRANCH   1  73
TORSDOF 24
ENDMDL
MODEL 3
REMARK VINA RESULT:     -10.1      2.386      4.661
REMARK SMILES O=C(OCCOCCOCCOC(=O)[C@@H](c1cccc(O)c1)[NH+]1CC[NH+](C2CCCC2)CC1)c1ccc(-c2c3nc(c(-c4cccc(S(=O)(=O)[O-])c4F)c4ccc([nH]4)c(-c4cccc(S(=O)(=O)[O-])c4F)c4nc(c(-c5cccc(S(=O)(=O)[O-])c5F)c5ccc2[nH]5)C=C4)C=C3)cc1
REMARK SMILES IDX 7 1 6 2 5 3 4 4 3 5 2 6 1 7 34 8 35 9 96 10 36 11 95 12
REMARK SMILES IDX 37 13 38 14 39 15 89 16 40 17 94 18 88 19 90 20 41 21 93 22
REMARK SMILES IDX 87 23 86 24 42 26 74 27 54 28 73 29 55 30 58 31 72 32 91 33
REMARK SMILES IDX 56 34 57 35 71 37 92 38 59 39 43 40 44 41 52 42 45 43 47 44
REMARK SMILES IDX 53 45 46 46 48 47 49 48 50 49 51 50 75 51 76 52 84 53 77 54
REMARK SMILES IDX 79 55 85 56 78 57 80 58 81 59 82 60 83 61 60 62 61 63 69 64
REMARK SMILES IDX 62 65 64 66 70 67 63 68 65 69 66 70 67 71 68 72 8 73 9 74
REMARK SMILES IDX 10 75 11 76 12 77 13 78 14 79 15 80 16 81 17 82 22 83 18 84
REMARK SMILES IDX 20 85 19 86 21 87 23 89 24 90 33 91 25 93 32 94 26 95 27 97
REMARK SMILES IDX 28 98 31 99 29 100 30 101
REMARK H PARENT 90 25 58 36 21 88 23 92 26 96
REMARK Flexibility Score: inf
ROOT
ATOM      1  C   UNL A   1      41.271  21.722  26.632  1.00  0.00     0.188 C 
ENDROOT
BRANCH   1   2
ATOM      2  O   UNL A   1      41.731  20.794  27.590  1.00  0.00    -0.376 OA
BRANCH   2   3
ATOM      3  C   UNL A   1      42.162  19.514  27.163  1.00  0.00     0.202 C 
BRANCH   3   4
ATOM      4  C   UNL A   1      42.222  19.118  25.678  1.00  0.00     0.261 C 
BRANCH   4   5
ATOM      5  O   UNL A   1      43.472  19.129  24.970  1.00  0.00    -0.460 OA
BRANCH   5   6
ATOM      6  C   UNL A   1      44.239  20.069  24.384  1.00  0.00     0.338 C 
ATOM      7  O   UNL A   1      44.820  19.754  23.344  1.00  0.00    -0.246 OA
BRANCH   6   8
ATOM      8  C   UNL A   1      44.452  21.445  24.918  1.00  0.00     0.060 A 
ATOM      9  C   UNL A   1      44.051  22.625  24.300  1.00  0.00     0.016 A 
ATOM     10  C   UNL A   1      45.119  21.552  26.155  1.00  0.00     0.016 A 
ATOM     11  C   UNL A   1      44.142  23.852  24.980  1.00  0.00     0.010 A 
ATOM     12  C   UNL A   1      45.241  22.785  26.820  1.00  0.00     0.010 A 
ATOM     13  C   UNL A   1      44.628  23.933  26.298  1.00  0.00    -0.014 A 
BRANCH  13  14
ATOM     14  C   UNL A   1      44.713  25.286  26.938  1.00  0.00     0.031 A 
ATOM     15  C   UNL A   1      46.061  25.897  26.774  1.00  0.00     0.074 A 
ATOM     16  C   UNL A   1      43.707  26.012  27.499  1.00  0.00     0.049 A 
ATOM     17  N   UNL A   1      46.439  27.120  26.986  1.00  0.00    -0.248 NA
ATOM     18  C   UNL A   1      47.130  24.988  26.313  1.00  0.00     0.031 C 
ATOM     19  C   UNL A   1      42.400  25.537  27.916  1.00  0.00     0.029 A 
ATOM     20  N   UNL A   1      43.603  27.358  27.804  1.00  0.00    -0.354 N 
ATOM     21  C   UNL A   1      47.787  27.127  26.682  1.00  0.00     0.074 A 
ATOM     22  C   UNL A   1      48.171  25.793  26.294  1.00  0.00     0.031 C 
ATOM     23  C   UNL A   1      41.568  26.538  28.224  1.00  0.00     0.029 A 
ATOM     24  C   UNL A   1      42.341  27.755  28.239  1.00  0.00     0.049 A 
ATOM     25  H   UNL A   1      44.359  27.983  27.723  1.00  0.00     0.167 HD
ATOM     26  C   UNL A   1      48.642  28.164  26.726  1.00  0.00     0.034 A 
ATOM     27  C   UNL A   1      41.859  28.931  28.689  1.00  0.00     0.034 A 
ATOM     28  C   UNL A   1      48.280  29.448  27.232  1.00  0.00     0.049 A 
ATOM     29  C   UNL A   1      42.845  30.048  28.787  1.00  0.00     0.074 A 
ATOM     30  C   UNL A   1      49.083  30.549  27.428  1.00  0.00     0.029 A 
ATOM     31  N   UNL A   1      47.006  29.781  27.674  1.00  0.00    -0.354 N 
ATOM     32  N   UNL A   1      44.109  30.043  28.439  1.00  0.00    -0.248 NA
ATOM     33  C   UNL A   1      42.369  31.315  29.351  1.00  0.00     0.031 C 
ATOM     34  C   UNL A   1      48.300  31.544  28.021  1.00  0.00     0.029 A 
ATOM     35  C   UNL A   1      46.997  31.080  28.140  1.00  0.00     0.049 A 
ATOM     36  H   UNL A   1      46.226  29.180  27.658  1.00  0.00     0.167 HD
ATOM     37  C   UNL A   1      44.585  31.303  28.743  1.00  0.00     0.074 A 
ATOM     38  C   UNL A   1      43.460  32.061  29.260  1.00  0.00     0.031 C 
ATOM     39  C   UNL A   1      45.843  31.787  28.627  1.00  0.00     0.034 A 
BRANCH  26  40
ATOM     40  C   UNL A   1      50.033  27.859  26.273  1.00  0.00     0.023 A 
ATOM     41  C   UNL A   1      51.056  27.690  27.233  1.00  0.00     0.012 A 
ATOM     42  C   UNL A   1      50.355  27.902  24.908  1.00  0.00     0.148 A 
ATOM     43  C   UNL A   1      52.388  27.616  26.836  1.00  0.00     0.002 A 
ATOM     44  C   UNL A   1      51.678  27.776  24.518  1.00  0.00     0.091 A 
ATOM     45  F   UNL A   1      49.369  28.123  24.027  1.00  0.00    -0.205 F 
ATOM     46  C   UNL A   1      52.698  27.653  25.479  1.00  0.00     0.022 A 
BRANCH  44  47
ATOM     47  S   UNL A   1      52.183  27.777  22.798  1.00  0.00     0.127 S 
ATOM     48  O   UNL A   1      52.107  29.197  22.465  1.00  0.00    -0.237 OA
ATOM     49  O   UNL A   1      53.535  27.236  22.886  1.00  0.00    -0.237 OA
ATOM     50  O   UNL A   1      51.222  26.931  22.095  1.00  0.00    -0.744 OA
ENDBRANCH  44  47
ENDBRANCH  26  40
BRANCH  27  51
ATOM     51  C   UNL A   1      40.439  29.101  29.158  1.00  0.00     0.023 A 
ATOM     52  C   UNL A   1      39.425  29.471  28.249  1.00  0.00     0.012 A 
ATOM     53  C   UNL A   1      40.083  28.919  30.511  1.00  0.00     0.148 A 
ATOM     54  C   UNL A   1      38.109  29.681  28.680  1.00  0.00     0.002 A 
ATOM     55  C   UNL A   1      38.759  29.064  30.922  1.00  0.00     0.091 A 
ATOM     56  F   UNL A   1      41.049  28.611  31.390  1.00  0.00    -0.205 F 
ATOM     57  C   UNL A   1      37.773  29.464  30.012  1.00  0.00     0.022 A 
BRANCH  55  58
ATOM     58  S   UNL A   1      38.243  28.658  32.597  1.00  0.00     0.127 S 
ATOM     59  O   UNL A   1      36.831  29.029  32.577  1.00  0.00    -0.237 OA
ATOM     60  O   UNL A   1      38.499  27.218  32.663  1.00  0.00    -0.237 OA
ATOM     61  O   UNL A   1      39.107  29.451  33.462  1.00  0.00    -0.744 OA
ENDBRANCH  55  58
ENDBRANCH  27  51
BRANCH  39  62
ATOM     62  C   UNL A   1      46.032  33.219  29.005  1.00  0.00     0.023 A 
ATOM     63  C   UNL A   1      46.469  33.567  30.297  1.00  0.00     0.012 A 
ATOM     64  C   UNL A   1      45.806  34.216  28.041  1.00  0.00     0.148 A 
ATOM     65  C   UNL A   1      46.643  34.906  30.635  1.00  0.00     0.002 A 
ATOM     66  C   UNL A   1      46.044  35.539  28.366  1.00  0.00     0.091 A 
ATOM     67  F   UNL A   1      45.359  33.847  26.833  1.00  0.00    -0.205 F 
ATOM     68  C   UNL A   1      46.445  35.889  29.666  1.00  0.00     0.022 A 
BRANCH  66  69
ATOM     69  S   UNL A   1      45.922  36.843  27.144  1.00  0.00     0.127 S 
ATOM     70  O   UNL A   1      46.739  36.307  26.057  1.00  0.00    -0.237 OA
ATOM     71  O   UNL A   1      44.485  36.874  26.874  1.00  0.00    -0.237 OA
ATOM     72  O   UNL A   1      46.441  38.044  27.784  1.00  0.00    -0.744 OA
ENDBRANCH  66  69
ENDBRANCH  39  62
ENDBRANCH  13  14
ENDBRANCH   6   8
ENDBRANCH   5   6
ENDBRANCH   4   5
ENDBRANCH   3   4
ENDBRANCH   2   3
ENDBRANCH   1   2
BRANCH   1  73
ATOM     73  C   UNL A   1      39.764  21.990  26.517  1.00  0.00     0.188 C 
BRANCH  73  74
ATOM     74  O   UNL A   1      38.916  21.197  25.702  1.00  0.00    -0.376 OA
BRANCH  74  75
ATOM     75  C   UNL A   1      37.586  21.614  25.447  1.00  0.00     0.202 C 
BRANCH  75  76
ATOM     76  C   UNL A   1      37.271  23.067  25.094  1.00  0.00     0.261 C 
BRANCH  76  77
ATOM     77  O   UNL A   1      35.891  23.358  24.933  1.00  0.00    -0.459 OA
BRANCH  77  78
ATOM     78  C   UNL A   1      35.353  23.205  23.694  1.00  0.00     0.369 C 
ATOM     79  O   UNL A   1      36.025  23.170  22.666  1.00  0.00    -0.245 OA
BRANCH  78  80
ATOM     80  C   UNL A   1      33.812  23.144  23.696  1.00  0.00     0.326 C 
BRANCH  80  81
ATOM     81  C   UNL A   1      33.240  21.820  24.115  1.00  0.00     0.025 A 
ATOM     82  C   UNL A   1      33.448  21.312  25.408  1.00  0.00     0.011 A 
ATOM     83  C   UNL A   1      32.742  21.002  23.106  1.00  0.00     0.056 A 
ATOM     84  C   UNL A   1      33.167  19.990  25.672  1.00  0.00     0.004 A 
ATOM     85  C   UNL A   1      32.378  19.734  23.390  1.00  0.00     0.116 A 
ATOM     86  C   UNL A   1      32.626  19.222  24.658  1.00  0.00     0.046 A 
BRANCH  85  87
ATOM     87  O   UNL A   1      31.896  19.040  22.334  1.00  0.00    -0.508 OA
ATOM     88  H   UNL A   1      32.246  18.197  22.128  1.00  0.00     0.293 HD
ENDBRANCH  85  87
ENDBRANCH  80  81
BRANCH  80  89
ATOM     89  N   UNL A   1      33.129  24.122  24.578  1.00  0.00    -0.310 N 
ATOM     90  C   UNL A   1      33.701  25.460  24.660  1.00  0.00     0.325 C 
ATOM     91  C   UNL A   1      31.696  24.192  24.249  1.00  0.00     0.325 C 
ATOM     92  H   UNL A   1      33.277  23.746  25.514  1.00  0.00     0.349 HD
ATOM     93  C   UNL A   1      33.461  26.303  23.393  1.00  0.00     0.324 C 
ATOM     94  C   UNL A   1      31.488  24.941  22.923  1.00  0.00     0.324 C 
ATOM     95  N   UNL A   1      32.079  26.289  22.876  1.00  0.00    -0.323 N 
ATOM     96  H   UNL A   1      32.105  26.511  21.881  1.00  0.00     0.348 HD
BRANCH  95  97
ATOM     97  C   UNL A   1      31.268  27.357  23.450  1.00  0.00     0.184 C 
ATOM     98  C   UNL A   1      32.014  28.640  23.814  1.00  0.00     0.065 C 
ATOM     99  C   UNL A   1      30.036  27.881  22.702  1.00  0.00     0.065 C 
ATOM    100  C   UNL A   1      30.885  29.529  24.297  1.00  0.00     0.006 C 
ATOM    101  C   UNL A   1      29.736  29.240  23.333  1.00  0.00     0.006 C 
ENDBRANCH  95  97
ENDBRANCH  80  89
ENDBRANCH  78  80
ENDBRANCH  77  78
ENDBRANCH  76  77
ENDBRANCH  75  76
ENDBRANCH  74  75
ENDBRANCH  73  74
ENDBRANCH   1  73
TORSDOF 24
ENDMDL
