MODEL 1
REMARK VINA RESULT:     -11.6      0.000      0.000
REMARK SMILES O=C(OCCOCCOCCOC(=O)c1ccc(-c2c3nc(c(-c4cccc(S(=O)(=O)[O-])c4F)c4ccc([nH]4)c(-c4cccc(S(=O)(=O)[O-])c4F)c4nc(c(-c5cccc(S(=O)(=O)[O-])c5F)c5ccc2[nH]5)C=C4)C=C3)cc1)C1=Cc2cc(S(F)(F)(F)(F)F)ccc2O[C@@H]1C(F)(F)F
REMARK SMILES IDX 8 1 7 2 6 3 5 4 4 5 3 6 2 7 1 8 78 9 79 10 93 11 80 12 92 13
REMARK SMILES IDX 81 14 91 15 82 16 90 17 89 18 94 19 95 20 96 21 97 22 83 23
REMARK SMILES IDX 84 24 85 25 86 26 87 27 88 28 9 29 10 30 11 31 12 32 13 33
REMARK SMILES IDX 14 34 15 35 16 36 77 37 17 38 76 39 18 40 19 41 20 42 70 43
REMARK SMILES IDX 21 44 75 45 69 46 71 47 22 48 74 49 68 50 67 51 23 53 55 54
REMARK SMILES IDX 35 55 54 56 36 57 39 58 53 59 72 60 37 61 38 62 52 64 73 65
REMARK SMILES IDX 40 66 24 67 25 68 33 69 26 70 28 71 34 72 27 73 29 74 30 75
REMARK SMILES IDX 31 76 32 77 56 78 57 79 65 80 58 81 60 82 66 83 59 84 61 85
REMARK SMILES IDX 62 86 63 87 64 88 41 89 42 90 50 91 43 92 45 93 51 94 44 95
REMARK SMILES IDX 46 96 47 97 48 98 49 99
REMARK H PARENT 71 52 39 63
REMARK Flexibility Score: inf
ROOT
ATOM      1  C   UNL A   1      31.788  29.759  26.274  1.00  0.00     0.188 C 
ENDROOT
BRANCH   1   2
ATOM      2  C   UNL A   1      32.756  29.472  25.137  1.00  0.00     0.188 C 
BRANCH   2   3
ATOM      3  O   UNL A   1      32.466  28.200  24.577  1.00  0.00    -0.376 OA
BRANCH   3   4
ATOM      4  C   UNL A   1      33.402  27.247  25.060  1.00  0.00     0.202 C 
BRANCH   4   5
ATOM      5  C   UNL A   1      33.963  26.452  23.891  1.00  0.00     0.261 C 
BRANCH   5   6
ATOM      6  O   UNL A   1      34.092  25.088  24.264  1.00  0.00    -0.460 OA
BRANCH   6   7
ATOM      7  C   UNL A   1      33.209  24.118  23.723  1.00  0.00     0.338 C 
ATOM      8  O   UNL A   1      33.465  23.581  22.599  1.00  0.00    -0.246 OA
BRANCH   7   9
ATOM      9  C   UNL A   1      31.956  23.721  24.486  1.00  0.00     0.087 C 
ATOM     10  C   UNL A   1      31.857  22.477  25.031  1.00  0.00     0.027 C 
ATOM     11  C   UNL A   1      30.814  24.712  24.641  1.00  0.00     0.316 C 
ATOM     12  C   UNL A   1      32.998  21.486  24.876  1.00  0.00     0.019 A 
ATOM     13  O   UNL A   1      34.592  23.200  25.291  1.00  0.00    -0.475 OA
ATOM     14  C   UNL A   1      32.657  20.197  24.498  1.00  0.00     0.036 A 
ATOM     15  C   UNL A   1      34.265  21.837  25.064  1.00  0.00     0.128 A 
ATOM     16  C   UNL A   1      33.713  19.265  24.626  1.00  0.00     0.107 A 
ATOM     17  C   UNL A   1      35.263  20.893  25.040  1.00  0.00     0.048 A 
ATOM     18  C   UNL A   1      34.989  19.588  24.732  1.00  0.00     0.028 A 
BRANCH  11  19
ATOM     19  C   UNL A   1      30.570  24.976  26.120  1.00  0.00     0.430 C 
ATOM     20  F   UNL A   1      29.653  24.127  26.576  1.00  0.00    -0.167 F 
ATOM     21  F   UNL A   1      31.704  24.807  26.792  1.00  0.00    -0.167 F 
ATOM     22  F   UNL A   1      30.140  26.224  26.281  1.00  0.00    -0.167 F 
ENDBRANCH  11  19
BRANCH  16  23
ATOM     23  S   UNL A   1      33.287  17.507  24.644  1.00  0.00     0.310 S 
ATOM     24  F   UNL A   1      31.792  17.808  24.205  1.00  0.00    -0.094 F 
ATOM     25  F   UNL A   1      32.808  17.664  26.137  1.00  0.00    -0.094 F 
ATOM     26  F   UNL A   1      32.915  15.997  24.655  1.00  0.00    -0.094 F 
ATOM     27  F   UNL A   1      33.638  17.400  23.108  1.00  0.00    -0.094 F 
ATOM     28  F   UNL A   1      33.562  19.062  24.584  1.00  0.00    -0.094 F 
ENDBRANCH  16  23
ENDBRANCH   7   9
ENDBRANCH   6   7
ENDBRANCH   5   6
ENDBRANCH   4   5
ENDBRANCH   3   4
ENDBRANCH   2   3
ENDBRANCH   1   2
BRANCH   1  29
ATOM     29  O   UNL A   1      32.344  30.745  27.131  1.00  0.00    -0.376 OA
BRANCH  29  30
ATOM     30  C   UNL A   1      31.702  31.990  26.899  1.00  0.00     0.202 C 
BRANCH  30  31
ATOM     31  C   UNL A   1      32.710  33.117  27.052  1.00  0.00     0.261 C 
BRANCH  31  32
ATOM     32  O   UNL A   1      32.105  34.204  27.738  1.00  0.00    -0.460 OA
BRANCH  32  33
ATOM     33  C   UNL A   1      32.870  34.983  28.647  1.00  0.00     0.338 C 
ATOM     34  O   UNL A   1      32.572  36.202  28.844  1.00  0.00    -0.246 OA
BRANCH  33  35
ATOM     35  C   UNL A   1      34.043  34.357  29.383  1.00  0.00     0.060 A 
ATOM     36  C   UNL A   1      35.311  34.599  28.883  1.00  0.00     0.016 A 
ATOM     37  C   UNL A   1      33.852  33.537  30.410  1.00  0.00     0.016 A 
ATOM     38  C   UNL A   1      36.296  33.698  29.356  1.00  0.00     0.010 A 
ATOM     39  C   UNL A   1      34.889  32.787  30.909  1.00  0.00     0.010 A 
ATOM     40  C   UNL A   1      36.159  32.932  30.423  1.00  0.00    -0.014 A 
BRANCH  40  41
ATOM     41  C   UNL A   1      37.349  32.247  31.075  1.00  0.00     0.031 A 
ATOM     42  C   UNL A   1      37.965  31.148  30.475  1.00  0.00     0.074 A 
ATOM     43  C   UNL A   1      37.787  32.835  32.250  1.00  0.00     0.049 A 
ATOM     44  N   UNL A   1      39.061  30.507  30.884  1.00  0.00    -0.248 NA
ATOM     45  C   UNL A   1      37.482  30.501  29.247  1.00  0.00     0.031 C 
ATOM     46  C   UNL A   1      37.176  33.951  32.856  1.00  0.00     0.029 A 
ATOM     47  N   UNL A   1      38.860  32.466  33.031  1.00  0.00    -0.354 N 
ATOM     48  C   UNL A   1      39.357  29.516  30.040  1.00  0.00     0.074 A 
ATOM     49  C   UNL A   1      38.341  29.494  28.979  1.00  0.00     0.031 C 
ATOM     50  C   UNL A   1      37.863  34.241  33.992  1.00  0.00     0.029 A 
ATOM     51  C   UNL A   1      38.915  33.314  34.114  1.00  0.00     0.049 A 
ATOM     52  H   UNL A   1      39.479  31.724  32.847  1.00  0.00     0.167 HD
ATOM     53  C   UNL A   1      40.433  28.630  30.115  1.00  0.00     0.034 A 
ATOM     54  C   UNL A   1      39.823  33.295  35.161  1.00  0.00     0.034 A 
ATOM     55  C   UNL A   1      41.367  28.639  31.139  1.00  0.00     0.049 A 
ATOM     56  C   UNL A   1      40.867  32.374  35.266  1.00  0.00     0.074 A 
ATOM     57  C   UNL A   1      42.463  27.759  31.224  1.00  0.00     0.029 A 
ATOM     58  N   UNL A   1      41.409  29.473  32.235  1.00  0.00    -0.354 N 
ATOM     59  N   UNL A   1      41.185  31.408  34.402  1.00  0.00    -0.248 NA
ATOM     60  C   UNL A   1      41.815  32.323  36.387  1.00  0.00     0.031 C 
ATOM     61  C   UNL A   1      43.150  28.051  32.361  1.00  0.00     0.029 A 
ATOM     62  C   UNL A   1      42.494  29.117  33.005  1.00  0.00     0.049 A 
ATOM     63  H   UNL A   1      40.771  30.196  32.434  1.00  0.00     0.167 HD
ATOM     64  C   UNL A   1      42.257  30.741  34.833  1.00  0.00     0.074 A 
ATOM     65  C   UNL A   1      42.674  31.315  36.119  1.00  0.00     0.031 C 
ATOM     66  C   UNL A   1      42.907  29.677  34.204  1.00  0.00     0.034 A 
BRANCH  53  67
ATOM     67  C   UNL A   1      40.591  27.599  29.009  1.00  0.00     0.023 A 
ATOM     68  C   UNL A   1      39.838  26.440  29.107  1.00  0.00     0.012 A 
ATOM     69  C   UNL A   1      41.341  27.845  27.942  1.00  0.00     0.148 A 
ATOM     70  C   UNL A   1      40.171  25.458  28.143  1.00  0.00     0.002 A 
ATOM     71  C   UNL A   1      41.513  26.888  26.972  1.00  0.00     0.091 A 
ATOM     72  F   UNL A   1      41.931  29.030  27.811  1.00  0.00    -0.205 F 
ATOM     73  C   UNL A   1      40.847  25.696  27.033  1.00  0.00     0.022 A 
BRANCH  71  74
ATOM     74  S   UNL A   1      42.639  27.210  25.591  1.00  0.00     0.127 S 
ATOM     75  O   UNL A   1      42.718  25.970  24.698  1.00  0.00    -0.237 OA
ATOM     76  O   UNL A   1      42.119  28.396  24.774  1.00  0.00    -0.237 OA
ATOM     77  O   UNL A   1      44.195  27.575  26.198  1.00  0.00    -0.744 OA
ENDBRANCH  71  74
ENDBRANCH  53  67
BRANCH  54  78
ATOM     78  C   UNL A   1      39.675  34.338  36.258  1.00  0.00     0.023 A 
ATOM     79  C   UNL A   1      40.197  35.607  36.073  1.00  0.00     0.012 A 
ATOM     80  C   UNL A   1      39.141  33.975  37.418  1.00  0.00     0.148 A 
ATOM     81  C   UNL A   1      40.370  36.336  37.275  1.00  0.00     0.002 A 
ATOM     82  C   UNL A   1      39.229  34.794  38.516  1.00  0.00     0.091 A 
ATOM     83  F   UNL A   1      38.514  32.805  37.517  1.00  0.00    -0.205 F 
ATOM     84  C   UNL A   1      39.784  36.040  38.421  1.00  0.00     0.022 A 
BRANCH  82  85
ATOM     85  S   UNL A   1      38.599  34.218  40.112  1.00  0.00     0.127 S 
ATOM     86  O   UNL A   1      39.709  33.477  40.860  1.00  0.00    -0.237 OA
ATOM     87  O   UNL A   1      38.139  35.419  40.943  1.00  0.00    -0.237 OA
ATOM     88  O   UNL A   1      37.278  33.163  39.857  1.00  0.00    -0.744 OA
ENDBRANCH  82  85
ENDBRANCH  54  78
BRANCH  66  89
ATOM     89  C   UNL A   1      44.143  29.100  34.873  1.00  0.00     0.023 A 
ATOM     90  C   UNL A   1      45.368  29.619  34.490  1.00  0.00     0.012 A 
ATOM     91  C   UNL A   1      44.061  28.090  35.732  1.00  0.00     0.148 A 
ATOM     92  C   UNL A   1      46.472  28.810  34.849  1.00  0.00     0.002 A 
ATOM     93  C   UNL A   1      45.193  27.431  36.147  1.00  0.00     0.091 A 
ATOM     94  F   UNL A   1      42.873  27.714  36.196  1.00  0.00    -0.205 F 
ATOM     95  C   UNL A   1      46.435  27.853  35.760  1.00  0.00     0.022 A 
BRANCH  93  96
ATOM     96  S   UNL A   1      45.039  25.983  37.222  1.00  0.00     0.127 S 
ATOM     97  O   UNL A   1      46.427  25.386  37.474  1.00  0.00    -0.237 OA
ATOM     98  O   UNL A   1      44.413  26.401  38.554  1.00  0.00    -0.237 OA
ATOM     99  O   UNL A   1      44.045  24.815  36.467  1.00  0.00    -0.744 OA
ENDBRANCH  93  96
ENDBRANCH  66  89
ENDBRANCH  40  41
ENDBRANCH  33  35
ENDBRANCH  32  33
ENDBRANCH  31  32
ENDBRANCH  30  31
ENDBRANCH  29  30
ENDBRANCH   1  29
TORSDOF 22
ENDMDL
MODEL 2
REMARK VINA RESULT:     -11.4      6.139     12.018
REMARK SMILES O=C(OCCOCCOCCOC(=O)c1ccc(-c2c3nc(c(-c4cccc(S(=O)(=O)[O-])c4F)c4ccc([nH]4)c(-c4cccc(S(=O)(=O)[O-])c4F)c4nc(c(-c5cccc(S(=O)(=O)[O-])c5F)c5ccc2[nH]5)C=C4)C=C3)cc1)C1=Cc2cc(S(F)(F)(F)(F)F)ccc2O[C@@H]1C(F)(F)F
REMARK SMILES IDX 8 1 7 2 6 3 5 4 4 5 3 6 2 7 1 8 78 9 79 10 93 11 80 12 92 13
REMARK SMILES IDX 81 14 91 15 82 16 90 17 89 18 94 19 95 20 96 21 97 22 83 23
REMARK SMILES IDX 84 24 85 25 86 26 87 27 88 28 9 29 10 30 11 31 12 32 13 33
REMARK SMILES IDX 14 34 15 35 16 36 77 37 17 38 76 39 18 40 19 41 20 42 70 43
REMARK SMILES IDX 21 44 75 45 69 46 71 47 22 48 74 49 68 50 67 51 23 53 55 54
REMARK SMILES IDX 35 55 54 56 36 57 39 58 53 59 72 60 37 61 38 62 52 64 73 65
REMARK SMILES IDX 40 66 24 67 25 68 33 69 26 70 28 71 34 72 27 73 29 74 30 75
REMARK SMILES IDX 31 76 32 77 56 78 57 79 65 80 58 81 60 82 66 83 59 84 61 85
REMARK SMILES IDX 62 86 63 87 64 88 41 89 42 90 50 91 43 92 45 93 51 94 44 95
REMARK SMILES IDX 46 96 47 97 48 98 49 99
REMARK H PARENT 71 52 39 63
REMARK Flexibility Score: inf
ROOT
ATOM      1  C   UNL A   1      41.278  20.864  26.776  1.00  0.00     0.188 C 
ENDROOT
BRANCH   1   2
ATOM      2  C   UNL A   1      39.968  20.924  26.006  1.00  0.00     0.188 C 
BRANCH   2   3
ATOM      3  O   UNL A   1      39.205  22.034  26.456  1.00  0.00    -0.376 OA
BRANCH   3   4
ATOM      4  C   UNL A   1      38.076  22.204  25.611  1.00  0.00     0.202 C 
BRANCH   4   5
ATOM      5  C   UNL A   1      37.349  23.485  25.990  1.00  0.00     0.261 C 
BRANCH   5   6
ATOM      6  O   UNL A   1      36.587  23.943  24.883  1.00  0.00    -0.460 OA
BRANCH   6   7
ATOM      7  C   UNL A   1      35.755  23.039  24.172  1.00  0.00     0.338 C 
ATOM      8  O   UNL A   1      35.975  22.806  22.942  1.00  0.00    -0.246 OA
BRANCH   7   9
ATOM      9  C   UNL A   1      34.600  22.352  24.881  1.00  0.00     0.087 C 
ATOM     10  C   UNL A   1      33.542  23.084  25.326  1.00  0.00     0.027 C 
ATOM     11  C   UNL A   1      34.626  20.847  25.096  1.00  0.00     0.316 C 
ATOM     12  C   UNL A   1      33.515  24.589  25.112  1.00  0.00     0.019 A 
ATOM     13  O   UNL A   1      34.357  24.327  22.904  1.00  0.00    -0.475 OA
ATOM     14  C   UNL A   1      33.158  25.366  26.201  1.00  0.00     0.036 A 
ATOM     15  C   UNL A   1      33.843  25.139  23.949  1.00  0.00     0.128 A 
ATOM     16  C   UNL A   1      32.896  26.718  25.879  1.00  0.00     0.107 A 
ATOM     17  C   UNL A   1      33.689  26.490  23.748  1.00  0.00     0.048 A 
ATOM     18  C   UNL A   1      33.283  27.311  24.764  1.00  0.00     0.028 A 
BRANCH  11  19
ATOM     19  C   UNL A   1      33.427  20.216  24.405  1.00  0.00     0.430 C 
ATOM     20  F   UNL A   1      33.679  18.933  24.164  1.00  0.00    -0.167 F 
ATOM     21  F   UNL A   1      32.360  20.318  25.192  1.00  0.00    -0.167 F 
ATOM     22  F   UNL A   1      33.194  20.847  23.259  1.00  0.00    -0.167 F 
ENDBRANCH  11  19
BRANCH  16  23
ATOM     23  S   UNL A   1      31.966  27.705  27.077  1.00  0.00     0.310 S 
ATOM     24  F   UNL A   1      31.702  28.851  26.013  1.00  0.00    -0.094 F 
ATOM     25  F   UNL A   1      33.299  28.456  27.454  1.00  0.00    -0.094 F 
ATOM     26  F   UNL A   1      31.165  28.557  28.103  1.00  0.00    -0.094 F 
ATOM     27  F   UNL A   1      30.620  27.041  26.588  1.00  0.00    -0.094 F 
ATOM     28  F   UNL A   1      32.748  26.913  25.954  1.00  0.00    -0.094 F 
ENDBRANCH  16  23
ENDBRANCH   7   9
ENDBRANCH   6   7
ENDBRANCH   5   6
ENDBRANCH   4   5
ENDBRANCH   3   4
ENDBRANCH   2   3
ENDBRANCH   1   2
BRANCH   1  29
ATOM     29  O   UNL A   1      41.376  19.617  27.448  1.00  0.00    -0.376 OA
BRANCH  29  30
ATOM     30  C   UNL A   1      42.671  19.071  27.246  1.00  0.00     0.202 C 
BRANCH  30  31
ATOM     31  C   UNL A   1      42.814  18.628  25.799  1.00  0.00     0.261 C 
BRANCH  31  32
ATOM     32  O   UNL A   1      44.188  18.620  25.440  1.00  0.00    -0.460 OA
BRANCH  32  33
ATOM     33  C   UNL A   1      44.668  19.521  24.451  1.00  0.00     0.338 C 
ATOM     34  O   UNL A   1      44.915  19.101  23.277  1.00  0.00    -0.246 OA
BRANCH  33  35
ATOM     35  C   UNL A   1      44.886  20.984  24.798  1.00  0.00     0.060 A 
ATOM     36  C   UNL A   1      45.337  21.276  26.075  1.00  0.00     0.016 A 
ATOM     37  C   UNL A   1      44.570  21.948  23.942  1.00  0.00     0.016 A 
ATOM     38  C   UNL A   1      45.146  22.626  26.456  1.00  0.00     0.010 A 
ATOM     39  C   UNL A   1      44.535  23.260  24.348  1.00  0.00     0.010 A 
ATOM     40  C   UNL A   1      44.912  23.615  25.614  1.00  0.00    -0.014 A 
BRANCH  40  41
ATOM     41  C   UNL A   1      45.052  25.071  26.029  1.00  0.00     0.031 A 
ATOM     42  C   UNL A   1      43.945  25.809  26.452  1.00  0.00     0.074 A 
ATOM     43  C   UNL A   1      46.347  25.561  26.007  1.00  0.00     0.049 A 
ATOM     44  N   UNL A   1      43.932  27.056  26.924  1.00  0.00    -0.248 NA
ATOM     45  C   UNL A   1      42.566  25.302  26.444  1.00  0.00     0.031 C 
ATOM     46  C   UNL A   1      47.470  24.819  25.590  1.00  0.00     0.029 A 
ATOM     47  N   UNL A   1      46.782  26.816  26.370  1.00  0.00    -0.354 N 
ATOM     48  C   UNL A   1      42.686  27.414  27.243  1.00  0.00     0.074 A 
ATOM     49  C   UNL A   1      41.789  26.294  26.933  1.00  0.00     0.031 C 
ATOM     50  C   UNL A   1      48.564  25.620  25.689  1.00  0.00     0.029 A 
ATOM     51  C   UNL A   1      48.143  26.874  26.170  1.00  0.00     0.049 A 
ATOM     52  H   UNL A   1      46.217  27.545  26.712  1.00  0.00     0.167 HD
ATOM     53  C   UNL A   1      42.265  28.631  27.782  1.00  0.00     0.034 A 
ATOM     54  C   UNL A   1      48.987  27.951  26.387  1.00  0.00     0.034 A 
ATOM     55  C   UNL A   1      43.117  29.694  28.040  1.00  0.00     0.049 A 
ATOM     56  C   UNL A   1      48.558  29.188  26.872  1.00  0.00     0.074 A 
ATOM     57  C   UNL A   1      42.709  30.925  28.590  1.00  0.00     0.029 A 
ATOM     58  N   UNL A   1      44.475  29.760  27.818  1.00  0.00    -0.354 N 
ATOM     59  N   UNL A   1      47.319  29.533  27.228  1.00  0.00    -0.248 NA
ATOM     60  C   UNL A   1      49.438  30.347  27.075  1.00  0.00     0.031 C 
ATOM     61  C   UNL A   1      43.804  31.726  28.689  1.00  0.00     0.029 A 
ATOM     62  C   UNL A   1      44.913  31.008  28.201  1.00  0.00     0.049 A 
ATOM     63  H   UNL A   1      45.034  29.040  27.447  1.00  0.00     0.167 HD
ATOM     64  C   UNL A   1      47.299  30.795  27.661  1.00  0.00     0.074 A 
ATOM     65  C   UNL A   1      48.660  31.339  27.562  1.00  0.00     0.031 C 
ATOM     66  C   UNL A   1      46.202  31.514  28.138  1.00  0.00     0.034 A 
BRANCH  53  67
ATOM     67  C   UNL A   1      40.789  28.800  28.103  1.00  0.00     0.023 A 
ATOM     68  C   UNL A   1      39.934  29.073  27.048  1.00  0.00     0.012 A 
ATOM     69  C   UNL A   1      40.325  28.592  29.329  1.00  0.00     0.148 A 
ATOM     70  C   UNL A   1      38.614  29.392  27.448  1.00  0.00     0.002 A 
ATOM     71  C   UNL A   1      38.997  28.792  29.619  1.00  0.00     0.091 A 
ATOM     72  F   UNL A   1      41.154  28.185  30.287  1.00  0.00    -0.205 F 
ATOM     73  C   UNL A   1      38.105  29.121  28.636  1.00  0.00     0.022 A 
BRANCH  71  74
ATOM     74  S   UNL A   1      38.420  28.619  31.325  1.00  0.00     0.127 S 
ATOM     75  O   UNL A   1      36.945  29.018  31.409  1.00  0.00    -0.237 OA
ATOM     76  O   UNL A   1      38.580  27.163  31.772  1.00  0.00    -0.237 OA
ATOM     77  O   UNL A   1      39.343  29.632  32.346  1.00  0.00    -0.744 OA
ENDBRANCH  71  74
ENDBRANCH  53  67
BRANCH  54  78
ATOM     78  C   UNL A   1      50.467  27.776  26.081  1.00  0.00     0.023 A 
ATOM     79  C   UNL A   1      51.352  27.497  27.109  1.00  0.00     0.012 A 
ATOM     80  C   UNL A   1      50.895  28.003  24.845  1.00  0.00     0.148 A 
ATOM     81  C   UNL A   1      52.704  27.766  26.788  1.00  0.00     0.002 A 
ATOM     82  C   UNL A   1      52.238  28.120  24.580  1.00  0.00     0.091 A 
ATOM     83  F   UNL A   1      50.015  28.118  23.854  1.00  0.00    -0.205 F 
ATOM     84  C   UNL A   1      53.169  27.914  25.561  1.00  0.00     0.022 A 
BRANCH  82  85
ATOM     85  S   UNL A   1      52.783  28.550  22.909  1.00  0.00     0.127 S 
ATOM     86  O   UNL A   1      52.396  29.998  22.603  1.00  0.00    -0.237 OA
ATOM     87  O   UNL A   1      54.304  28.398  22.813  1.00  0.00    -0.237 OA
ATOM     88  O   UNL A   1      52.035  27.508  21.779  1.00  0.00    -0.744 OA
ENDBRANCH  82  85
ENDBRANCH  54  78
BRANCH  66  89
ATOM     89  C   UNL A   1      46.435  32.937  28.617  1.00  0.00     0.023 A 
ATOM     90  C   UNL A   1      46.895  33.098  29.913  1.00  0.00     0.012 A 
ATOM     91  C   UNL A   1      46.140  33.985  27.856  1.00  0.00     0.148 A 
ATOM     92  C   UNL A   1      46.735  34.409  30.420  1.00  0.00     0.002 A 
ATOM     93  C   UNL A   1      46.136  35.254  28.384  1.00  0.00     0.091 A 
ATOM     94  F   UNL A   1      45.847  33.805  26.572  1.00  0.00    -0.205 F 
ATOM     95  C   UNL A   1      46.522  35.479  29.676  1.00  0.00     0.022 A 
BRANCH  93  96
ATOM     96  S   UNL A   1      45.612  36.646  27.354  1.00  0.00     0.127 S 
ATOM     97  O   UNL A   1      46.553  36.775  26.153  1.00  0.00    -0.237 OA
ATOM     98  O   UNL A   1      44.184  36.406  26.859  1.00  0.00    -0.237 OA
ATOM     99  O   UNL A   1      45.662  38.086  28.273  1.00  0.00    -0.744 OA
ENDBRANCH  93  96
ENDBRANCH  66  89
ENDBRANCH  40  41
ENDBRANCH  33  35
ENDBRANCH  32  33
ENDBRANCH  31  32
ENDBRANCH  30  31
ENDBRANCH  29  30
ENDBRANCH   1  29
TORSDOF 22
ENDMDL
MODEL 3
REMARK VINA RESULT:     -11.4      2.316      3.191
REMARK SMILES O=C(OCCOCCOCCOC(=O)c1ccc(-c2c3nc(c(-c4cccc(S(=O)(=O)[O-])c4F)c4ccc([nH]4)c(-c4cccc(S(=O)(=O)[O-])c4F)c4nc(c(-c5cccc(S(=O)(=O)[O-])c5F)c5ccc2[nH]5)C=C4)C=C3)cc1)C1=Cc2cc(S(F)(F)(F)(F)F)ccc2O[C@@H]1C(F)(F)F
REMARK SMILES IDX 8 1 7 2 6 3 5 4 4 5 3 6 2 7 1 8 78 9 79 10 93 11 80 12 92 13
REMARK SMILES IDX 81 14 91 15 82 16 90 17 89 18 94 19 95 20 96 21 97 22 83 23
REMARK SMILES IDX 84 24 85 25 86 26 87 27 88 28 9 29 10 30 11 31 12 32 13 33
REMARK SMILES IDX 14 34 15 35 16 36 77 37 17 38 76 39 18 40 19 41 20 42 70 43
REMARK SMILES IDX 21 44 75 45 69 46 71 47 22 48 74 49 68 50 67 51 23 53 55 54
REMARK SMILES IDX 35 55 54 56 36 57 39 58 53 59 72 60 37 61 38 62 52 64 73 65
REMARK SMILES IDX 40 66 24 67 25 68 33 69 26 70 28 71 34 72 27 73 29 74 30 75
REMARK SMILES IDX 31 76 32 77 56 78 57 79 65 80 58 81 60 82 66 83 59 84 61 85
REMARK SMILES IDX 62 86 63 87 64 88 41 89 42 90 50 91 43 92 45 93 51 94 44 95
REMARK SMILES IDX 46 96 47 97 48 98 49 99
REMARK H PARENT 71 52 39 63
REMARK Flexibility Score: inf
ROOT
ATOM      1  C   UNL A   1      34.387  32.898  29.042  1.00  0.00     0.188 C 
ENDROOT
BRANCH   1   2
ATOM      2  C   UNL A   1      34.424  31.648  28.177  1.00  0.00     0.188 C 
BRANCH   2   3
ATOM      3  O   UNL A   1      33.341  31.676  27.259  1.00  0.00    -0.376 OA
BRANCH   3   4
ATOM      4  C   UNL A   1      32.666  30.426  27.285  1.00  0.00     0.202 C 
BRANCH   4   5
ATOM      5  C   UNL A   1      33.592  29.340  26.760  1.00  0.00     0.261 C 
BRANCH   5   6
ATOM      6  O   UNL A   1      33.056  28.065  27.081  1.00  0.00    -0.460 OA
BRANCH   6   7
ATOM      7  C   UNL A   1      31.838  27.639  26.491  1.00  0.00     0.338 C 
ATOM      8  O   UNL A   1      30.850  27.327  27.227  1.00  0.00    -0.246 OA
BRANCH   7   9
ATOM      9  C   UNL A   1      31.715  27.554  24.978  1.00  0.00     0.087 C 
ATOM     10  C   UNL A   1      32.295  26.523  24.305  1.00  0.00     0.027 C 
ATOM     11  C   UNL A   1      30.945  28.620  24.217  1.00  0.00     0.316 C 
ATOM     12  C   UNL A   1      33.066  25.457  25.066  1.00  0.00     0.019 A 
ATOM     13  O   UNL A   1      31.402  25.413  26.764  1.00  0.00    -0.475 OA
ATOM     14  C   UNL A   1      34.303  25.098  24.556  1.00  0.00     0.036 A 
ATOM     15  C   UNL A   1      32.596  24.910  26.181  1.00  0.00     0.128 A 
ATOM     16  C   UNL A   1      34.849  23.933  25.142  1.00  0.00     0.107 A 
ATOM     17  C   UNL A   1      33.254  23.861  26.778  1.00  0.00     0.048 A 
ATOM     18  C   UNL A   1      34.453  23.416  26.291  1.00  0.00     0.028 A 
BRANCH  11  19
ATOM     19  C   UNL A   1      29.790  27.973  23.468  1.00  0.00     0.430 C 
ATOM     20  F   UNL A   1      28.901  28.904  23.133  1.00  0.00    -0.167 F 
ATOM     21  F   UNL A   1      30.250  27.384  22.368  1.00  0.00    -0.167 F 
ATOM     22  F   UNL A   1      29.210  27.065  24.247  1.00  0.00    -0.167 F 
ENDBRANCH  11  19
BRANCH  16  23
ATOM     23  S   UNL A   1      36.184  23.091  24.258  1.00  0.00     0.310 S 
ATOM     24  F   UNL A   1      36.451  22.112  25.477  1.00  0.00    -0.094 F 
ATOM     25  F   UNL A   1      37.214  24.084  24.919  1.00  0.00    -0.094 F 
ATOM     26  F   UNL A   1      37.332  22.363  23.501  1.00  0.00    -0.094 F 
ATOM     27  F   UNL A   1      35.158  22.020  23.716  1.00  0.00    -0.094 F 
ATOM     28  F   UNL A   1      35.026  23.750  25.107  1.00  0.00    -0.094 F 
ENDBRANCH  16  23
ENDBRANCH   7   9
ENDBRANCH   6   7
ENDBRANCH   5   6
ENDBRANCH   4   5
ENDBRANCH   3   4
ENDBRANCH   2   3
ENDBRANCH   1   2
BRANCH   1  29
ATOM     29  O   UNL A   1      33.353  33.758  28.587  1.00  0.00    -0.376 OA
BRANCH  29  30
ATOM     30  C   UNL A   1      33.863  35.076  28.443  1.00  0.00     0.202 C 
BRANCH  30  31
ATOM     31  C   UNL A   1      32.985  36.046  29.215  1.00  0.00     0.261 C 
BRANCH  31  32
ATOM     32  O   UNL A   1      32.394  35.376  30.319  1.00  0.00    -0.460 OA
BRANCH  32  33
ATOM     33  C   UNL A   1      32.906  35.578  31.629  1.00  0.00     0.338 C 
ATOM     34  O   UNL A   1      32.359  36.427  32.400  1.00  0.00    -0.246 OA
BRANCH  33  35
ATOM     35  C   UNL A   1      34.107  34.779  32.107  1.00  0.00     0.060 A 
ATOM     36  C   UNL A   1      35.364  35.276  31.804  1.00  0.00     0.016 A 
ATOM     37  C   UNL A   1      33.957  33.607  32.711  1.00  0.00     0.016 A 
ATOM     38  C   UNL A   1      36.402  34.321  31.922  1.00  0.00     0.010 A 
ATOM     39  C   UNL A   1      35.036  32.781  32.915  1.00  0.00     0.010 A 
ATOM     40  C   UNL A   1      36.302  33.184  32.586  1.00  0.00    -0.014 A 
BRANCH  40  41
ATOM     41  C   UNL A   1      37.526  32.366  32.965  1.00  0.00     0.031 A 
ATOM     42  C   UNL A   1      37.995  31.346  32.135  1.00  0.00     0.074 A 
ATOM     43  C   UNL A   1      38.146  32.756  34.140  1.00  0.00     0.049 A 
ATOM     44  N   UNL A   1      39.096  30.611  32.294  1.00  0.00    -0.248 NA
ATOM     45  C   UNL A   1      37.319  30.908  30.906  1.00  0.00     0.031 C 
ATOM     46  C   UNL A   1      37.684  33.790  34.977  1.00  0.00     0.029 A 
ATOM     47  N   UNL A   1      39.288  32.235  34.706  1.00  0.00    -0.354 N 
ATOM     48  C   UNL A   1      39.222  29.746  31.285  1.00  0.00     0.074 A 
ATOM     49  C   UNL A   1      38.077  29.920  30.381  1.00  0.00     0.031 C 
ATOM     50  C   UNL A   1      38.528  33.883  36.037  1.00  0.00     0.029 A 
ATOM     51  C   UNL A   1      39.533  32.910  35.880  1.00  0.00     0.049 A 
ATOM     52  H   UNL A   1      39.835  31.506  34.334  1.00  0.00     0.167 HD
ATOM     53  C   UNL A   1      40.247  28.820  31.084  1.00  0.00     0.034 A 
ATOM     54  C   UNL A   1      40.567  32.701  36.779  1.00  0.00     0.034 A 
ATOM     55  C   UNL A   1      41.306  28.642  31.961  1.00  0.00     0.049 A 
ATOM     56  C   UNL A   1      41.562  31.736  36.607  1.00  0.00     0.074 A 
ATOM     57  C   UNL A   1      42.351  27.719  31.769  1.00  0.00     0.029 A 
ATOM     58  N   UNL A   1      41.537  29.301  33.149  1.00  0.00    -0.354 N 
ATOM     59  N   UNL A   1      41.709  30.899  35.579  1.00  0.00    -0.248 NA
ATOM     60  C   UNL A   1      42.643  31.484  37.569  1.00  0.00     0.031 C 
ATOM     61  C   UNL A   1      43.197  27.812  32.830  1.00  0.00     0.029 A 
ATOM     62  C   UNL A   1      42.692  28.795  33.703  1.00  0.00     0.049 A 
ATOM     63  H   UNL A   1      40.973  30.010  33.534  1.00  0.00     0.167 HD
ATOM     64  C   UNL A   1      42.788  30.135  35.759  1.00  0.00     0.074 A 
ATOM     65  C   UNL A   1      43.401  30.496  37.045  1.00  0.00     0.031 C 
ATOM     66  C   UNL A   1      43.289  29.154  34.901  1.00  0.00     0.034 A 
BRANCH  53  67
ATOM     67  C   UNL A   1      40.201  27.960  29.832  1.00  0.00     0.023 A 
ATOM     68  C   UNL A   1      39.288  26.918  29.808  1.00  0.00     0.012 A 
ATOM     69  C   UNL A   1      40.931  28.260  28.765  1.00  0.00     0.148 A 
ATOM     70  C   UNL A   1      39.428  26.059  28.692  1.00  0.00     0.002 A 
ATOM     71  C   UNL A   1      40.916  27.449  27.656  1.00  0.00     0.091 A 
ATOM     72  F   UNL A   1      41.685  29.356  28.769  1.00  0.00    -0.205 F 
ATOM     73  C   UNL A   1      40.082  26.368  27.586  1.00  0.00     0.022 A 
BRANCH  71  74
ATOM     74  S   UNL A   1      42.015  27.818  26.266  1.00  0.00     0.127 S 
ATOM     75  O   UNL A   1      41.689  29.207  25.712  1.00  0.00    -0.237 OA
ATOM     76  O   UNL A   1      43.470  27.787  26.743  1.00  0.00    -0.237 OA
ATOM     77  O   UNL A   1      41.794  26.649  25.038  1.00  0.00    -0.744 OA
ENDBRANCH  71  74
ENDBRANCH  53  67
BRANCH  54  78
ATOM     78  C   UNL A   1      40.623  33.574  38.023  1.00  0.00     0.023 A 
ATOM     79  C   UNL A   1      41.478  34.662  38.061  1.00  0.00     0.012 A 
ATOM     80  C   UNL A   1      39.926  33.208  39.092  1.00  0.00     0.148 A 
ATOM     81  C   UNL A   1      41.751  35.132  39.368  1.00  0.00     0.002 A 
ATOM     82  C   UNL A   1      40.149  33.804  40.310  1.00  0.00     0.091 A 
ATOM     83  F   UNL A   1      39.003  32.256  38.983  1.00  0.00    -0.205 F 
ATOM     84  C   UNL A   1      41.024  34.847  40.433  1.00  0.00     0.022 A 
BRANCH  82  85
ATOM     85  S   UNL A   1      39.270  33.199  41.773  1.00  0.00     0.127 S 
ATOM     86  O   UNL A   1      40.026  33.625  43.033  1.00  0.00    -0.237 OA
ATOM     87  O   UNL A   1      37.859  33.790  41.801  1.00  0.00    -0.237 OA
ATOM     88  O   UNL A   1      39.172  31.493  41.714  1.00  0.00    -0.744 OA
ENDBRANCH  82  85
ENDBRANCH  54  78
BRANCH  66  89
ATOM     89  C   UNL A   1      44.567  28.438  35.306  1.00  0.00     0.023 A 
ATOM     90  C   UNL A   1      45.763  29.074  35.020  1.00  0.00     0.012 A 
ATOM     91  C   UNL A   1      44.544  27.222  35.840  1.00  0.00     0.148 A 
ATOM     92  C   UNL A   1      46.892  28.222  35.068  1.00  0.00     0.002 A 
ATOM     93  C   UNL A   1      45.703  26.499  35.983  1.00  0.00     0.091 A 
ATOM     94  F   UNL A   1      43.389  26.701  36.242  1.00  0.00    -0.205 F 
ATOM     95  C   UNL A   1      46.916  27.044  35.665  1.00  0.00     0.022 A 
BRANCH  93  96
ATOM     96  S   UNL A   1      45.624  24.800  36.602  1.00  0.00     0.127 S 
ATOM     97  O   UNL A   1      44.780  23.949  35.648  1.00  0.00    -0.237 OA
ATOM     98  O   UNL A   1      47.038  24.221  36.688  1.00  0.00    -0.237 OA
ATOM     99  O   UNL A   1      44.910  24.792  38.155  1.00  0.00    -0.744 OA
ENDBRANCH  93  96
ENDBRANCH  66  89
ENDBRANCH  40  41
ENDBRANCH  33  35
ENDBRANCH  32  33
ENDBRANCH  31  32
ENDBRANCH  30  31
ENDBRANCH  29  30
ENDBRANCH   1  29
TORSDOF 22
ENDMDL
