MODEL 1
REMARK VINA RESULT:     -11.2      0.000      0.000
REMARK SMILES O=C(OCCOCCOCCOC(=O)c1ccc(-c2c3nc(c(-c4cccc(S(=O)(=O)[O-])c4F)c4ccc([nH]4)c(-c4cccc(S(=O)(=O)[O-])c4F)c4nc(c(-c5cccc(S(=O)(=O)[O-])c5F)c5ccc2[nH]5)C=C4)C=C3)cc1)C1=Cc2cc(Cl)cc(C#Cc3ccccc3)c2O[C@@H]1C(F)(F)F
REMARK SMILES IDX 8 1 7 2 6 3 5 4 4 5 3 6 2 7 1 8 78 9 79 10 96 11 80 12 95 13
REMARK SMILES IDX 81 14 94 15 82 16 85 17 83 18 84 19 97 20 98 21 99 22 100 23
REMARK SMILES IDX 86 24 87 25 88 26 89 27 93 28 90 29 92 30 91 31 9 32 10 33
REMARK SMILES IDX 11 34 12 35 13 36 14 37 15 38 16 39 77 40 17 41 76 42 18 43
REMARK SMILES IDX 19 44 20 45 70 46 21 47 75 48 69 49 71 50 22 51 74 52 68 53
REMARK SMILES IDX 67 54 23 56 55 57 35 58 54 59 36 60 39 61 53 62 72 63 37 64
REMARK SMILES IDX 38 65 52 67 73 68 40 69 24 70 25 71 33 72 26 73 28 74 34 75
REMARK SMILES IDX 27 76 29 77 30 78 31 79 32 80 56 81 57 82 65 83 58 84 60 85
REMARK SMILES IDX 66 86 59 87 61 88 62 89 63 90 64 91 41 92 42 93 50 94 43 95
REMARK SMILES IDX 45 96 51 97 44 98 46 99 47 100 48 101 49 102
REMARK H PARENT 71 55 39 66
REMARK Flexibility Score: inf
ROOT
ATOM      1  C   UNL A   1      30.999  28.314  24.314  1.00  0.00     0.188 C 
ENDROOT
BRANCH   1   2
ATOM      2  C   UNL A   1      32.395  27.738  24.088  1.00  0.00     0.188 C 
BRANCH   2   3
ATOM      3  O   UNL A   1      33.147  28.503  23.170  1.00  0.00    -0.376 OA
BRANCH   3   4
ATOM      4  C   UNL A   1      33.769  27.756  22.133  1.00  0.00     0.202 C 
BRANCH   4   5
ATOM      5  C   UNL A   1      33.080  26.438  21.748  1.00  0.00     0.261 C 
BRANCH   5   6
ATOM      6  O   UNL A   1      33.591  25.294  22.467  1.00  0.00    -0.460 OA
BRANCH   6   7
ATOM      7  C   UNL A   1      33.092  24.064  22.188  1.00  0.00     0.338 C 
ATOM      8  O   UNL A   1      33.230  23.540  21.092  1.00  0.00    -0.246 OA
BRANCH   7   9
ATOM      9  C   UNL A   1      32.197  23.501  23.238  1.00  0.00     0.087 C 
ATOM     10  C   UNL A   1      31.741  22.248  23.040  1.00  0.00     0.027 C 
ATOM     11  C   UNL A   1      32.489  23.907  24.650  1.00  0.00     0.316 C 
ATOM     12  C   UNL A   1      32.570  21.253  23.768  1.00  0.00     0.020 A 
ATOM     13  O   UNL A   1      33.327  22.907  25.330  1.00  0.00    -0.474 OA
ATOM     14  C   UNL A   1      32.483  19.904  23.431  1.00  0.00     0.032 A 
ATOM     15  C   UNL A   1      33.532  21.688  24.703  1.00  0.00     0.143 A 
ATOM     16  C   UNL A   1      33.426  19.016  23.932  1.00  0.00     0.043 A 
ATOM     17  C   UNL A   1      34.628  20.836  25.007  1.00  0.00     0.069 A 
ATOM     18  Cl  UNL A   1      33.299  17.338  23.580  1.00  0.00    -0.084 Cl
ATOM     19  C   UNL A   1      34.527  19.484  24.649  1.00  0.00     0.041 A 
BRANCH  11  20
ATOM     20  C   UNL A   1      31.251  24.418  25.399  1.00  0.00     0.430 C 
ATOM     21  F   UNL A   1      30.312  24.883  24.543  1.00  0.00    -0.167 F 
ATOM     22  F   UNL A   1      30.675  23.400  26.091  1.00  0.00    -0.167 F 
ATOM     23  F   UNL A   1      31.541  25.398  26.278  1.00  0.00    -0.167 F 
ENDBRANCH  11  20
BRANCH  17  24
ATOM     24  C   UNL A   1      35.982  21.243  25.395  1.00  0.00    -0.058 C 
ATOM     25  C   UNL A   1      37.002  21.818  25.692  1.00  0.00    -0.062 C 
BRANCH  25  26
ATOM     26  C   UNL A   1      38.189  22.575  26.082  1.00  0.00     0.025 A 
ATOM     27  C   UNL A   1      39.392  21.913  26.347  1.00  0.00     0.017 A 
ATOM     28  C   UNL A   1      38.168  23.971  26.230  1.00  0.00     0.017 A 
ATOM     29  C   UNL A   1      40.528  22.607  26.798  1.00  0.00     0.001 A 
ATOM     30  C   UNL A   1      39.314  24.675  26.654  1.00  0.00     0.001 A 
ATOM     31  C   UNL A   1      40.489  23.989  26.954  1.00  0.00     0.000 A 
ENDBRANCH  25  26
ENDBRANCH  17  24
ENDBRANCH   7   9
ENDBRANCH   6   7
ENDBRANCH   5   6
ENDBRANCH   4   5
ENDBRANCH   3   4
ENDBRANCH   2   3
ENDBRANCH   1   2
BRANCH   1  32
ATOM     32  O   UNL A   1      31.029  29.547  25.021  1.00  0.00    -0.376 OA
BRANCH  32  33
ATOM     33  C   UNL A   1      31.742  29.536  26.261  1.00  0.00     0.202 C 
BRANCH  33  34
ATOM     34  C   UNL A   1      32.300  30.854  26.853  1.00  0.00     0.261 C 
BRANCH  34  35
ATOM     35  O   UNL A   1      33.725  30.988  26.930  1.00  0.00    -0.460 OA
BRANCH  35  36
ATOM     36  C   UNL A   1      34.207  31.871  27.825  1.00  0.00     0.338 C 
ATOM     37  O   UNL A   1      33.610  32.804  28.331  1.00  0.00    -0.246 OA
BRANCH  36  38
ATOM     38  C   UNL A   1      35.544  31.415  28.240  1.00  0.00     0.060 A 
ATOM     39  C   UNL A   1      35.674  30.111  28.724  1.00  0.00     0.016 A 
ATOM     40  C   UNL A   1      36.639  32.283  28.222  1.00  0.00     0.016 A 
ATOM     41  C   UNL A   1      36.894  29.671  29.217  1.00  0.00     0.010 A 
ATOM     42  C   UNL A   1      37.858  31.852  28.754  1.00  0.00     0.010 A 
ATOM     43  C   UNL A   1      37.973  30.558  29.290  1.00  0.00    -0.014 A 
BRANCH  43  44
ATOM     44  C   UNL A   1      39.118  30.164  30.140  1.00  0.00     0.031 A 
ATOM     45  C   UNL A   1      39.216  30.757  31.518  1.00  0.00     0.074 A 
ATOM     46  C   UNL A   1      39.978  29.213  29.739  1.00  0.00     0.049 A 
ATOM     47  N   UNL A   1      40.051  30.478  32.483  1.00  0.00    -0.248 NA
ATOM     48  C   UNL A   1      38.228  31.795  31.860  1.00  0.00     0.031 C 
ATOM     49  C   UNL A   1      39.963  28.554  28.434  1.00  0.00     0.029 A 
ATOM     50  N   UNL A   1      41.036  28.642  30.398  1.00  0.00    -0.354 N 
ATOM     51  C   UNL A   1      39.694  31.302  33.543  1.00  0.00     0.074 A 
ATOM     52  C   UNL A   1      38.583  32.112  33.097  1.00  0.00     0.031 C 
ATOM     53  C   UNL A   1      40.990  27.687  28.376  1.00  0.00     0.029 A 
ATOM     54  C   UNL A   1      41.734  27.739  29.633  1.00  0.00     0.049 A 
ATOM     55  H   UNL A   1      41.273  28.857  31.328  1.00  0.00     0.167 HD
ATOM     56  C   UNL A   1      40.230  31.366  34.784  1.00  0.00     0.034 A 
ATOM     57  C   UNL A   1      42.857  27.052  29.916  1.00  0.00     0.034 A 
ATOM     58  C   UNL A   1      41.344  30.568  35.217  1.00  0.00     0.049 A 
ATOM     59  C   UNL A   1      43.464  27.176  31.291  1.00  0.00     0.074 A 
ATOM     60  C   UNL A   1      41.960  30.550  36.456  1.00  0.00     0.029 A 
ATOM     61  N   UNL A   1      42.021  29.657  34.421  1.00  0.00    -0.354 N 
ATOM     62  N   UNL A   1      43.052  27.880  32.318  1.00  0.00    -0.248 NA
ATOM     63  C   UNL A   1      44.666  26.373  31.559  1.00  0.00     0.031 C 
ATOM     64  C   UNL A   1      43.032  29.654  36.398  1.00  0.00     0.029 A 
ATOM     65  C   UNL A   1      43.056  29.079  35.137  1.00  0.00     0.049 A 
ATOM     66  H   UNL A   1      41.800  29.452  33.484  1.00  0.00     0.167 HD
ATOM     67  C   UNL A   1      43.924  27.583  33.361  1.00  0.00     0.074 A 
ATOM     68  C   UNL A   1      44.862  26.605  32.849  1.00  0.00     0.031 C 
ATOM     69  C   UNL A   1      43.959  28.081  34.622  1.00  0.00     0.034 A 
BRANCH  56  70
ATOM     70  C   UNL A   1      39.605  32.321  35.765  1.00  0.00     0.023 A 
ATOM     71  C   UNL A   1      38.592  31.866  36.635  1.00  0.00     0.012 A 
ATOM     72  C   UNL A   1      40.053  33.653  35.863  1.00  0.00     0.148 A 
ATOM     73  C   UNL A   1      38.016  32.728  37.568  1.00  0.00     0.002 A 
ATOM     74  C   UNL A   1      39.508  34.492  36.827  1.00  0.00     0.091 A 
ATOM     75  F   UNL A   1      41.000  34.071  35.013  1.00  0.00    -0.205 F 
ATOM     76  C   UNL A   1      38.482  34.035  37.672  1.00  0.00     0.022 A 
BRANCH  74  77
ATOM     77  S   UNL A   1      40.088  36.171  37.093  1.00  0.00     0.127 S 
ATOM     78  O   UNL A   1      39.771  36.799  35.812  1.00  0.00    -0.237 OA
ATOM     79  O   UNL A   1      39.250  36.609  38.210  1.00  0.00    -0.237 OA
ATOM     80  O   UNL A   1      41.508  36.066  37.398  1.00  0.00    -0.744 OA
ENDBRANCH  74  77
ENDBRANCH  56  70
BRANCH  57  81
ATOM     81  C   UNL A   1      43.484  26.181  28.880  1.00  0.00     0.023 A 
ATOM     82  C   UNL A   1      43.295  24.786  28.917  1.00  0.00     0.012 A 
ATOM     83  C   UNL A   1      44.285  26.739  27.865  1.00  0.00     0.148 A 
ATOM     84  C   UNL A   1      43.930  23.960  27.988  1.00  0.00     0.002 A 
ATOM     85  C   UNL A   1      44.865  25.917  26.907  1.00  0.00     0.091 A 
ATOM     86  F   UNL A   1      44.467  28.067  27.857  1.00  0.00    -0.205 F 
ATOM     87  C   UNL A   1      44.705  24.524  26.979  1.00  0.00     0.022 A 
BRANCH  85  88
ATOM     88  S   UNL A   1      45.777  26.568  25.504  1.00  0.00     0.127 S 
ATOM     89  O   UNL A   1      47.006  27.036  26.139  1.00  0.00    -0.237 OA
ATOM     90  O   UNL A   1      45.930  25.379  24.665  1.00  0.00    -0.237 OA
ATOM     91  O   UNL A   1      44.929  27.604  24.930  1.00  0.00    -0.744 OA
ENDBRANCH  85  88
ENDBRANCH  57  81
BRANCH  69  92
ATOM     92  C   UNL A   1      45.027  27.552  35.547  1.00  0.00     0.023 A 
ATOM     93  C   UNL A   1      44.775  26.413  36.338  1.00  0.00     0.012 A 
ATOM     94  C   UNL A   1      46.295  28.165  35.608  1.00  0.00     0.148 A 
ATOM     95  C   UNL A   1      45.744  25.930  37.218  1.00  0.00     0.002 A 
ATOM     96  C   UNL A   1      47.275  27.642  36.442  1.00  0.00     0.091 A 
ATOM     97  F   UNL A   1      46.517  29.254  34.857  1.00  0.00    -0.205 F 
ATOM     98  C   UNL A   1      46.995  26.537  37.262  1.00  0.00     0.022 A 
BRANCH  96  99
ATOM     99  S   UNL A   1      48.947  28.298  36.493  1.00  0.00     0.127 S 
ATOM    100  O   UNL A   1      49.586  27.410  37.461  1.00  0.00    -0.237 OA
ATOM    101  O   UNL A   1      49.392  28.117  35.111  1.00  0.00    -0.237 OA
ATOM    102  O   UNL A   1      48.819  29.689  36.908  1.00  0.00    -0.744 OA
ENDBRANCH  96  99
ENDBRANCH  69  92
ENDBRANCH  43  44
ENDBRANCH  36  38
ENDBRANCH  35  36
ENDBRANCH  34  35
ENDBRANCH  33  34
ENDBRANCH  32  33
ENDBRANCH   1  32
TORSDOF 23
ENDMDL
MODEL 2
REMARK VINA RESULT:     -10.2      1.574      2.011
REMARK SMILES O=C(OCCOCCOCCOC(=O)c1ccc(-c2c3nc(c(-c4cccc(S(=O)(=O)[O-])c4F)c4ccc([nH]4)c(-c4cccc(S(=O)(=O)[O-])c4F)c4nc(c(-c5cccc(S(=O)(=O)[O-])c5F)c5ccc2[nH]5)C=C4)C=C3)cc1)C1=Cc2cc(Cl)cc(C#Cc3ccccc3)c2O[C@@H]1C(F)(F)F
REMARK SMILES IDX 8 1 7 2 6 3 5 4 4 5 3 6 2 7 1 8 78 9 79 10 96 11 80 12 95 13
REMARK SMILES IDX 81 14 94 15 82 16 85 17 83 18 84 19 97 20 98 21 99 22 100 23
REMARK SMILES IDX 86 24 87 25 88 26 89 27 93 28 90 29 92 30 91 31 9 32 10 33
REMARK SMILES IDX 11 34 12 35 13 36 14 37 15 38 16 39 77 40 17 41 76 42 18 43
REMARK SMILES IDX 19 44 20 45 70 46 21 47 75 48 69 49 71 50 22 51 74 52 68 53
REMARK SMILES IDX 67 54 23 56 55 57 35 58 54 59 36 60 39 61 53 62 72 63 37 64
REMARK SMILES IDX 38 65 52 67 73 68 40 69 24 70 25 71 33 72 26 73 28 74 34 75
REMARK SMILES IDX 27 76 29 77 30 78 31 79 32 80 56 81 57 82 65 83 58 84 60 85
REMARK SMILES IDX 66 86 59 87 61 88 62 89 63 90 64 91 41 92 42 93 50 94 43 95
REMARK SMILES IDX 45 96 51 97 44 98 46 99 47 100 48 101 49 102
REMARK H PARENT 71 55 39 66
REMARK Flexibility Score: inf
ROOT
ATOM      1  C   UNL A   1      31.374  28.366  25.184  1.00  0.00     0.188 C 
ENDROOT
BRANCH   1   2
ATOM      2  C   UNL A   1      32.668  27.888  24.530  1.00  0.00     0.188 C 
BRANCH   2   3
ATOM      3  O   UNL A   1      32.883  28.486  23.270  1.00  0.00    -0.376 OA
BRANCH   3   4
ATOM      4  C   UNL A   1      33.122  27.575  22.205  1.00  0.00     0.202 C 
BRANCH   4   5
ATOM      5  C   UNL A   1      32.449  26.200  22.333  1.00  0.00     0.261 C 
BRANCH   5   6
ATOM      6  O   UNL A   1      33.388  25.118  22.520  1.00  0.00    -0.460 OA
BRANCH   6   7
ATOM      7  C   UNL A   1      32.998  23.851  22.236  1.00  0.00     0.338 C 
ATOM      8  O   UNL A   1      33.238  23.321  21.160  1.00  0.00    -0.246 OA
BRANCH   7   9
ATOM      9  C   UNL A   1      32.085  23.239  23.243  1.00  0.00     0.087 C 
ATOM     10  C   UNL A   1      31.680  21.976  23.008  1.00  0.00     0.027 C 
ATOM     11  C   UNL A   1      32.313  23.629  24.671  1.00  0.00     0.316 C 
ATOM     12  C   UNL A   1      32.516  20.996  23.749  1.00  0.00     0.020 A 
ATOM     13  O   UNL A   1      33.160  22.646  25.365  1.00  0.00    -0.474 OA
ATOM     14  C   UNL A   1      32.487  19.651  23.386  1.00  0.00     0.032 A 
ATOM     15  C   UNL A   1      33.428  21.446  24.725  1.00  0.00     0.143 A 
ATOM     16  C   UNL A   1      33.441  18.786  23.906  1.00  0.00     0.043 A 
ATOM     17  C   UNL A   1      34.541  20.625  25.054  1.00  0.00     0.069 A 
ATOM     18  Cl  UNL A   1      33.384  17.112  23.522  1.00  0.00    -0.084 Cl
ATOM     19  C   UNL A   1      34.499  19.278  24.670  1.00  0.00     0.041 A 
BRANCH  11  20
ATOM     20  C   UNL A   1      31.032  24.085  25.383  1.00  0.00     0.430 C 
ATOM     21  F   UNL A   1      31.312  24.779  26.510  1.00  0.00    -0.167 F 
ATOM     22  F   UNL A   1      30.326  24.922  24.578  1.00  0.00    -0.167 F 
ATOM     23  F   UNL A   1      30.225  23.056  25.712  1.00  0.00    -0.167 F 
ENDBRANCH  11  20
BRANCH  17  24
ATOM     24  C   UNL A   1      35.866  21.071  25.498  1.00  0.00    -0.058 C 
ATOM     25  C   UNL A   1      36.872  21.671  25.790  1.00  0.00    -0.062 C 
BRANCH  25  26
ATOM     26  C   UNL A   1      38.043  22.464  26.158  1.00  0.00     0.025 A 
ATOM     27  C   UNL A   1      37.938  23.851  26.305  1.00  0.00     0.017 A 
ATOM     28  C   UNL A   1      39.306  21.883  26.352  1.00  0.00     0.017 A 
ATOM     29  C   UNL A   1      39.063  24.646  26.582  1.00  0.00     0.001 A 
ATOM     30  C   UNL A   1      40.432  22.675  26.659  1.00  0.00     0.001 A 
ATOM     31  C   UNL A   1      40.312  24.059  26.757  1.00  0.00     0.000 A 
ENDBRANCH  25  26
ENDBRANCH  17  24
ENDBRANCH   7   9
ENDBRANCH   6   7
ENDBRANCH   5   6
ENDBRANCH   4   5
ENDBRANCH   3   4
ENDBRANCH   2   3
ENDBRANCH   1   2
BRANCH   1  32
ATOM     32  O   UNL A   1      31.419  29.743  25.536  1.00  0.00    -0.376 OA
BRANCH  32  33
ATOM     33  C   UNL A   1      32.643  30.194  26.124  1.00  0.00     0.202 C 
BRANCH  33  34
ATOM     34  C   UNL A   1      32.627  31.303  27.205  1.00  0.00     0.261 C 
BRANCH  34  35
ATOM     35  O   UNL A   1      33.601  32.349  27.086  1.00  0.00    -0.460 OA
BRANCH  35  36
ATOM     36  C   UNL A   1      34.037  32.908  28.231  1.00  0.00     0.338 C 
ATOM     37  O   UNL A   1      33.409  33.635  28.980  1.00  0.00    -0.246 OA
BRANCH  36  38
ATOM     38  C   UNL A   1      35.364  32.347  28.535  1.00  0.00     0.060 A 
ATOM     39  C   UNL A   1      35.427  31.055  29.064  1.00  0.00     0.016 A 
ATOM     40  C   UNL A   1      36.524  33.109  28.372  1.00  0.00     0.016 A 
ATOM     41  C   UNL A   1      36.647  30.524  29.457  1.00  0.00     0.010 A 
ATOM     42  C   UNL A   1      37.748  32.588  28.803  1.00  0.00     0.010 A 
ATOM     43  C   UNL A   1      37.802  31.310  29.384  1.00  0.00    -0.014 A 
BRANCH  43  44
ATOM     44  C   UNL A   1      38.987  30.844  30.137  1.00  0.00     0.031 A 
ATOM     45  C   UNL A   1      39.147  31.299  31.560  1.00  0.00     0.074 A 
ATOM     46  C   UNL A   1      39.831  29.945  29.604  1.00  0.00     0.049 A 
ATOM     47  N   UNL A   1      40.028  30.934  32.453  1.00  0.00    -0.248 NA
ATOM     48  C   UNL A   1      38.172  32.290  32.049  1.00  0.00     0.031 C 
ATOM     49  C   UNL A   1      39.758  29.418  28.242  1.00  0.00     0.029 A 
ATOM     50  N   UNL A   1      40.922  29.322  30.153  1.00  0.00    -0.354 N 
ATOM     51  C   UNL A   1      39.718  31.646  33.605  1.00  0.00     0.074 A 
ATOM     52  C   UNL A   1      38.583  32.487  33.293  1.00  0.00     0.031 C 
ATOM     53  C   UNL A   1      40.785  28.570  28.051  1.00  0.00     0.029 A 
ATOM     54  C   UNL A   1      41.587  28.505  29.271  1.00  0.00     0.049 A 
ATOM     55  H   UNL A   1      41.201  29.446  31.088  1.00  0.00     0.167 HD
ATOM     56  C   UNL A   1      40.312  31.592  34.820  1.00  0.00     0.034 A 
ATOM     57  C   UNL A   1      42.726  27.804  29.432  1.00  0.00     0.034 A 
ATOM     58  C   UNL A   1      41.448  30.765  35.120  1.00  0.00     0.049 A 
ATOM     59  C   UNL A   1      43.396  27.797  30.782  1.00  0.00     0.074 A 
ATOM     60  C   UNL A   1      42.122  30.631  36.321  1.00  0.00     0.029 A 
ATOM     61  N   UNL A   1      42.091  29.944  34.207  1.00  0.00    -0.354 N 
ATOM     62  N   UNL A   1      43.030  28.393  31.892  1.00  0.00    -0.248 NA
ATOM     63  C   UNL A   1      44.613  26.983  30.914  1.00  0.00     0.031 C 
ATOM     64  C   UNL A   1      43.194  29.755  36.125  1.00  0.00     0.029 A 
ATOM     65  C   UNL A   1      43.161  29.307  34.814  1.00  0.00     0.049 A 
ATOM     66  H   UNL A   1      41.827  29.830  33.266  1.00  0.00     0.167 HD
ATOM     67  C   UNL A   1      43.951  28.002  32.859  1.00  0.00     0.074 A 
ATOM     68  C   UNL A   1      44.869  27.088  32.210  1.00  0.00     0.031 C 
ATOM     69  C   UNL A   1      44.043  28.373  34.160  1.00  0.00     0.034 A 
BRANCH  56  70
ATOM     70  C   UNL A   1      39.729  32.441  35.919  1.00  0.00     0.023 A 
ATOM     71  C   UNL A   1      38.851  31.861  36.858  1.00  0.00     0.012 A 
ATOM     72  C   UNL A   1      40.089  33.795  36.054  1.00  0.00     0.148 A 
ATOM     73  C   UNL A   1      38.320  32.622  37.899  1.00  0.00     0.002 A 
ATOM     74  C   UNL A   1      39.592  34.535  37.120  1.00  0.00     0.091 A 
ATOM     75  F   UNL A   1      40.906  34.333  35.138  1.00  0.00    -0.205 F 
ATOM     76  C   UNL A   1      38.699  33.954  38.036  1.00  0.00     0.022 A 
BRANCH  74  77
ATOM     77  S   UNL A   1      40.075  36.237  37.430  1.00  0.00     0.127 S 
ATOM     78  O   UNL A   1      41.467  36.076  37.849  1.00  0.00    -0.237 OA
ATOM     79  O   UNL A   1      39.904  36.848  36.112  1.00  0.00    -0.237 OA
ATOM     80  O   UNL A   1      39.172  36.735  38.458  1.00  0.00    -0.744 OA
ENDBRANCH  74  77
ENDBRANCH  56  70
BRANCH  57  81
ATOM     81  C   UNL A   1      43.306  27.045  28.287  1.00  0.00     0.023 A 
ATOM     82  C   UNL A   1      43.796  27.729  27.158  1.00  0.00     0.012 A 
ATOM     83  C   UNL A   1      43.357  25.638  28.313  1.00  0.00     0.148 A 
ATOM     84  C   UNL A   1      44.284  27.023  26.057  1.00  0.00     0.002 A 
ATOM     85  C   UNL A   1      43.899  24.943  27.239  1.00  0.00     0.091 A 
ATOM     86  F   UNL A   1      42.869  25.004  29.388  1.00  0.00    -0.205 F 
ATOM     87  C   UNL A   1      44.344  25.633  26.100  1.00  0.00     0.022 A 
BRANCH  85  88
ATOM     88  S   UNL A   1      44.127  23.162  27.262  1.00  0.00     0.127 S 
ATOM     89  O   UNL A   1      43.757  22.795  25.897  1.00  0.00    -0.237 OA
ATOM     90  O   UNL A   1      45.553  23.044  27.568  1.00  0.00    -0.237 OA
ATOM     91  O   UNL A   1      43.245  22.666  28.310  1.00  0.00    -0.744 OA
ENDBRANCH  85  88
ENDBRANCH  57  81
BRANCH  69  92
ATOM     92  C   UNL A   1      45.156  27.765  34.978  1.00  0.00     0.023 A 
ATOM     93  C   UNL A   1      46.400  28.423  35.077  1.00  0.00     0.012 A 
ATOM     94  C   UNL A   1      44.959  26.557  35.676  1.00  0.00     0.148 A 
ATOM     95  C   UNL A   1      47.446  27.859  35.807  1.00  0.00     0.002 A 
ATOM     96  C   UNL A   1      45.987  26.031  36.450  1.00  0.00     0.091 A 
ATOM     97  F   UNL A   1      43.775  25.938  35.563  1.00  0.00    -0.205 F 
ATOM     98  C   UNL A   1      47.236  26.670  36.500  1.00  0.00     0.022 A 
BRANCH  96  99
ATOM     99  S   UNL A   1      45.778  24.558  37.455  1.00  0.00     0.127 S 
ATOM    100  O   UNL A   1      45.246  23.606  36.482  1.00  0.00    -0.237 OA
ATOM    101  O   UNL A   1      47.148  24.283  37.891  1.00  0.00    -0.237 OA
ATOM    102  O   UNL A   1      44.867  24.930  38.529  1.00  0.00    -0.744 OA
ENDBRANCH  96  99
ENDBRANCH  69  92
ENDBRANCH  43  44
ENDBRANCH  36  38
ENDBRANCH  35  36
ENDBRANCH  34  35
ENDBRANCH  33  34
ENDBRANCH  32  33
ENDBRANCH   1  32
TORSDOF 23
ENDMDL
MODEL 3
REMARK VINA RESULT:      -9.8      4.520      9.878
REMARK SMILES O=C(OCCOCCOCCOC(=O)c1ccc(-c2c3nc(c(-c4cccc(S(=O)(=O)[O-])c4F)c4ccc([nH]4)c(-c4cccc(S(=O)(=O)[O-])c4F)c4nc(c(-c5cccc(S(=O)(=O)[O-])c5F)c5ccc2[nH]5)C=C4)C=C3)cc1)C1=Cc2cc(Cl)cc(C#Cc3ccccc3)c2O[C@@H]1C(F)(F)F
REMARK SMILES IDX 8 1 7 2 6 3 5 4 4 5 3 6 2 7 1 8 78 9 79 10 96 11 80 12 95 13
REMARK SMILES IDX 81 14 94 15 82 16 85 17 83 18 84 19 97 20 98 21 99 22 100 23
REMARK SMILES IDX 86 24 87 25 88 26 89 27 93 28 90 29 92 30 91 31 9 32 10 33
REMARK SMILES IDX 11 34 12 35 13 36 14 37 15 38 16 39 77 40 17 41 76 42 18 43
REMARK SMILES IDX 19 44 20 45 70 46 21 47 75 48 69 49 71 50 22 51 74 52 68 53
REMARK SMILES IDX 67 54 23 56 55 57 35 58 54 59 36 60 39 61 53 62 72 63 37 64
REMARK SMILES IDX 38 65 52 67 73 68 40 69 24 70 25 71 33 72 26 73 28 74 34 75
REMARK SMILES IDX 27 76 29 77 30 78 31 79 32 80 56 81 57 82 65 83 58 84 60 85
REMARK SMILES IDX 66 86 59 87 61 88 62 89 63 90 64 91 41 92 42 93 50 94 43 95
REMARK SMILES IDX 45 96 51 97 44 98 46 99 47 100 48 101 49 102
REMARK H PARENT 71 55 39 66
REMARK Flexibility Score: inf
ROOT
ATOM      1  C   UNL A   1      42.763  22.616  26.986  1.00  0.00     0.188 C 
ENDROOT
BRANCH   1   2
ATOM      2  C   UNL A   1      41.311  22.970  26.671  1.00  0.00     0.188 C 
BRANCH   2   3
ATOM      3  O   UNL A   1      40.755  23.845  27.629  1.00  0.00    -0.376 OA
BRANCH   3   4
ATOM      4  C   UNL A   1      40.830  25.225  27.297  1.00  0.00     0.202 C 
BRANCH   4   5
ATOM      5  C   UNL A   1      39.950  26.167  28.132  1.00  0.00     0.261 C 
BRANCH   5   6
ATOM      6  O   UNL A   1      40.699  26.958  29.082  1.00  0.00    -0.460 OA
BRANCH   6   7
ATOM      7  C   UNL A   1      40.564  28.307  29.066  1.00  0.00     0.338 C 
ATOM      8  O   UNL A   1      41.007  28.994  28.156  1.00  0.00    -0.246 OA
BRANCH   7   9
ATOM      9  C   UNL A   1      40.028  28.895  30.325  1.00  0.00     0.087 C 
ATOM     10  C   UNL A   1      40.066  30.238  30.434  1.00  0.00     0.027 C 
ATOM     11  C   UNL A   1      38.858  28.192  30.943  1.00  0.00     0.316 C 
ATOM     12  C   UNL A   1      38.762  30.845  30.058  1.00  0.00     0.020 A 
ATOM     13  O   UNL A   1      37.587  28.809  30.532  1.00  0.00    -0.474 OA
ATOM     14  C   UNL A   1      38.691  32.207  29.776  1.00  0.00     0.032 A 
ATOM     15  C   UNL A   1      37.634  30.022  29.863  1.00  0.00     0.143 A 
ATOM     16  C   UNL A   1      37.541  32.720  29.190  1.00  0.00     0.043 A 
ATOM     17  C   UNL A   1      36.572  30.496  29.045  1.00  0.00     0.069 A 
ATOM     18  Cl  UNL A   1      37.409  34.409  28.893  1.00  0.00    -0.084 Cl
ATOM     19  C   UNL A   1      36.524  31.868  28.762  1.00  0.00     0.041 A 
BRANCH  11  20
ATOM     20  C   UNL A   1      39.051  27.900  32.438  1.00  0.00     0.430 C 
ATOM     21  F   UNL A   1      38.160  26.984  32.882  1.00  0.00    -0.167 F 
ATOM     22  F   UNL A   1      40.286  27.375  32.652  1.00  0.00    -0.167 F 
ATOM     23  F   UNL A   1      38.937  29.004  33.203  1.00  0.00    -0.167 F 
ENDBRANCH  11  20
BRANCH  17  24
ATOM     24  C   UNL A   1      35.670  29.691  28.216  1.00  0.00    -0.058 C 
ATOM     25  C   UNL A   1      34.876  29.254  27.417  1.00  0.00    -0.062 C 
BRANCH  25  26
ATOM     26  C   UNL A   1      33.938  28.786  26.399  1.00  0.00     0.025 A 
ATOM     27  C   UNL A   1      33.125  29.697  25.717  1.00  0.00     0.017 A 
ATOM     28  C   UNL A   1      33.798  27.425  26.083  1.00  0.00     0.017 A 
ATOM     29  C   UNL A   1      32.161  29.267  24.789  1.00  0.00     0.001 A 
ATOM     30  C   UNL A   1      32.852  26.993  25.131  1.00  0.00     0.001 A 
ATOM     31  C   UNL A   1      32.022  27.914  24.497  1.00  0.00     0.000 A 
ENDBRANCH  25  26
ENDBRANCH  17  24
ENDBRANCH   7   9
ENDBRANCH   6   7
ENDBRANCH   5   6
ENDBRANCH   4   5
ENDBRANCH   3   4
ENDBRANCH   2   3
ENDBRANCH   1   2
BRANCH   1  32
ATOM     32  O   UNL A   1      43.453  22.095  25.857  1.00  0.00    -0.376 OA
BRANCH  32  33
ATOM     33  C   UNL A   1      43.603  22.991  24.752  1.00  0.00     0.202 C 
BRANCH  33  34
ATOM     34  C   UNL A   1      45.015  23.422  24.282  1.00  0.00     0.261 C 
BRANCH  34  35
ATOM     35  O   UNL A   1      45.462  24.730  24.663  1.00  0.00    -0.460 OA
BRANCH  35  36
ATOM     36  C   UNL A   1      46.214  24.816  25.777  1.00  0.00     0.338 C 
ATOM     37  O   UNL A   1      47.221  24.180  26.035  1.00  0.00    -0.246 OA
BRANCH  36  38
ATOM     38  C   UNL A   1      45.718  25.950  26.574  1.00  0.00     0.060 A 
ATOM     39  C   UNL A   1      46.596  26.551  27.480  1.00  0.00     0.016 A 
ATOM     40  C   UNL A   1      44.387  26.367  26.484  1.00  0.00     0.016 A 
ATOM     41  C   UNL A   1      46.144  27.557  28.322  1.00  0.00     0.010 A 
ATOM     42  C   UNL A   1      43.923  27.355  27.358  1.00  0.00     0.010 A 
ATOM     43  C   UNL A   1      44.793  27.921  28.305  1.00  0.00    -0.014 A 
BRANCH  43  44
ATOM     44  C   UNL A   1      44.293  28.719  29.446  1.00  0.00     0.031 A 
ATOM     45  C   UNL A   1      44.026  30.182  29.225  1.00  0.00     0.074 A 
ATOM     46  C   UNL A   1      43.972  28.131  30.610  1.00  0.00     0.049 A 
ATOM     47  N   UNL A   1      43.478  31.055  30.027  1.00  0.00    -0.248 NA
ATOM     48  C   UNL A   1      44.418  30.733  27.915  1.00  0.00     0.031 C 
ATOM     49  C   UNL A   1      44.166  26.717  30.925  1.00  0.00     0.029 A 
ATOM     50  N   UNL A   1      43.416  28.661  31.745  1.00  0.00    -0.354 N 
ATOM     51  C   UNL A   1      43.458  32.254  29.326  1.00  0.00     0.074 A 
ATOM     52  C   UNL A   1      44.074  32.006  28.041  1.00  0.00     0.031 C 
ATOM     53  C   UNL A   1      43.763  26.496  32.190  1.00  0.00     0.029 A 
ATOM     54  C   UNL A   1      43.294  27.753  32.770  1.00  0.00     0.049 A 
ATOM     55  H   UNL A   1      43.131  29.600  31.820  1.00  0.00     0.167 HD
ATOM     56  C   UNL A   1      42.955  33.451  29.708  1.00  0.00     0.034 A 
ATOM     57  C   UNL A   1      42.870  27.930  34.036  1.00  0.00     0.034 A 
ATOM     58  C   UNL A   1      42.356  33.695  30.992  1.00  0.00     0.049 A 
ATOM     59  C   UNL A   1      42.358  29.286  34.453  1.00  0.00     0.074 A 
ATOM     60  C   UNL A   1      41.809  34.869  31.478  1.00  0.00     0.029 A 
ATOM     61  N   UNL A   1      42.241  32.752  32.003  1.00  0.00    -0.354 N 
ATOM     62  N   UNL A   1      42.248  30.384  33.745  1.00  0.00    -0.248 NA
ATOM     63  C   UNL A   1      41.869  29.412  35.834  1.00  0.00     0.031 C 
ATOM     64  C   UNL A   1      41.395  34.646  32.795  1.00  0.00     0.029 A 
ATOM     65  C   UNL A   1      41.641  33.320  33.114  1.00  0.00     0.049 A 
ATOM     66  H   UNL A   1      42.541  31.817  31.940  1.00  0.00     0.167 HD
ATOM     67  C   UNL A   1      41.650  31.321  34.581  1.00  0.00     0.074 A 
ATOM     68  C   UNL A   1      41.388  30.647  35.837  1.00  0.00     0.031 C 
ATOM     69  C   UNL A   1      41.357  32.624  34.344  1.00  0.00     0.034 A 
BRANCH  56  70
ATOM     70  C   UNL A   1      43.017  34.582  28.717  1.00  0.00     0.023 A 
ATOM     71  C   UNL A   1      41.855  34.955  28.009  1.00  0.00     0.012 A 
ATOM     72  C   UNL A   1      44.207  35.309  28.524  1.00  0.00     0.148 A 
ATOM     73  C   UNL A   1      41.884  36.016  27.105  1.00  0.00     0.002 A 
ATOM     74  C   UNL A   1      44.216  36.394  27.656  1.00  0.00     0.091 A 
ATOM     75  F   UNL A   1      45.305  34.925  29.189  1.00  0.00    -0.205 F 
ATOM     76  C   UNL A   1      43.060  36.742  26.937  1.00  0.00     0.022 A 
BRANCH  74  77
ATOM     77  S   UNL A   1      45.658  37.441  27.424  1.00  0.00     0.127 S 
ATOM     78  O   UNL A   1      45.084  38.578  26.705  1.00  0.00    -0.237 OA
ATOM     79  O   UNL A   1      46.050  37.728  28.804  1.00  0.00    -0.237 OA
ATOM     80  O   UNL A   1      46.617  36.649  26.667  1.00  0.00    -0.744 OA
ENDBRANCH  74  77
ENDBRANCH  56  70
BRANCH  57  81
ATOM     81  C   UNL A   1      42.906  26.796  35.003  1.00  0.00     0.023 A 
ATOM     82  C   UNL A   1      41.797  25.937  35.132  1.00  0.00     0.012 A 
ATOM     83  C   UNL A   1      44.039  26.580  35.811  1.00  0.00     0.148 A 
ATOM     84  C   UNL A   1      41.800  24.912  36.080  1.00  0.00     0.002 A 
ATOM     85  C   UNL A   1      44.059  25.521  36.711  1.00  0.00     0.091 A 
ATOM     86  F   UNL A   1      45.077  27.419  35.688  1.00  0.00    -0.205 F 
ATOM     87  C   UNL A   1      42.932  24.698  36.861  1.00  0.00     0.022 A 
BRANCH  85  88
ATOM     88  S   UNL A   1      45.518  25.100  37.668  1.00  0.00     0.127 S 
ATOM     89  O   UNL A   1      46.448  24.675  36.624  1.00  0.00    -0.237 OA
ATOM     90  O   UNL A   1      45.843  26.378  38.301  1.00  0.00    -0.237 OA
ATOM     91  O   UNL A   1      45.094  24.061  38.596  1.00  0.00    -0.744 OA
ENDBRANCH  85  88
ENDBRANCH  57  81
BRANCH  69  92
ATOM     92  C   UNL A   1      40.690  33.398  35.454  1.00  0.00     0.023 A 
ATOM     93  C   UNL A   1      39.285  33.396  35.570  1.00  0.00     0.012 A 
ATOM     94  C   UNL A   1      41.457  34.103  36.403  1.00  0.00     0.148 A 
ATOM     95  C   UNL A   1      38.653  34.129  36.575  1.00  0.00     0.002 A 
ATOM     96  C   UNL A   1      40.823  34.783  37.436  1.00  0.00     0.091 A 
ATOM     97  F   UNL A   1      42.792  34.105  36.273  1.00  0.00    -0.205 F 
ATOM     98  C   UNL A   1      39.422  34.813  37.512  1.00  0.00     0.022 A 
BRANCH  96  99
ATOM     99  S   UNL A   1      41.734  35.610  38.745  1.00  0.00     0.127 S 
ATOM    100  O   UNL A   1      40.765  35.592  39.839  1.00  0.00    -0.237 OA
ATOM    101  O   UNL A   1      42.883  34.722  38.932  1.00  0.00    -0.237 OA
ATOM    102  O   UNL A   1      42.070  36.930  38.228  1.00  0.00    -0.744 OA
ENDBRANCH  96  99
ENDBRANCH  69  92
ENDBRANCH  43  44
ENDBRANCH  36  38
ENDBRANCH  35  36
ENDBRANCH  34  35
ENDBRANCH  33  34
ENDBRANCH  32  33
ENDBRANCH   1  32
TORSDOF 23
ENDMDL
